# generated using pymatgen
data_Ca3Sn2S7
_symmetry_space_group_name_H-M   'P 1'
_cell_length_a   6.80758693
_cell_length_b   7.20083700
_cell_length_c   12.17670811
_cell_angle_alpha   90.00000000
_cell_angle_beta   73.76765546
_cell_angle_gamma   90.00000000
_symmetry_Int_Tables_number   1
_chemical_formula_structural   Ca3Sn2S7
_chemical_formula_sum   'Ca6 Sn4 S14'
_cell_volume   573.11112907
_cell_formula_units_Z   2
loop_
 _symmetry_equiv_pos_site_id
 _symmetry_equiv_pos_as_xyz
  1  'x, y, z'
loop_
 _atom_site_type_symbol
 _atom_site_label
 _atom_site_symmetry_multiplicity
 _atom_site_fract_x
 _atom_site_fract_y
 _atom_site_fract_z
 _atom_site_occupancy
  Ca  Ca0  1  0.71775100  0.40333300  0.00000000  1
  Ca  Ca1  1  0.28224900  0.90333300  0.00000000  1
  Ca  Ca2  1  0.44437400  0.08878600  0.62443300  1
  Ca  Ca3  1  0.06880700  0.08878600  0.37556700  1
  Ca  Ca4  1  0.55562600  0.58878600  0.37556700  1
  Ca  Ca5  1  0.93119300  0.58878600  0.62443300  1
  Sn  Sn6  1  0.85012100  0.00420200  0.79232600  1
  Sn  Sn7  1  0.64244700  0.00420200  0.20767400  1
  Sn  Sn8  1  0.14987900  0.50420200  0.20767400  1
  Sn  Sn9  1  0.35755300  0.50420200  0.79232600  1
  S  S10  1  0.11514300  0.54185900  0.00000000  1
  S  S11  1  0.88485700  0.04185900  0.00000000  1
  S  S12  1  0.57139700  0.45555500  0.59024500  1
  S  S13  1  0.16164300  0.45555500  0.40975500  1
  S  S14  1  0.42860300  0.95555500  0.40975500  1
  S  S15  1  0.83835700  0.95555500  0.59024500  1
  S  S16  1  0.50976500  0.18580300  0.85071000  1
  S  S17  1  0.36047500  0.18580300  0.14929000  1
  S  S18  1  0.49023500  0.68580300  0.14929000  1
  S  S19  1  0.63952500  0.68580300  0.85071000  1
  S  S20  1  0.07729100  0.29725800  0.73619600  1
  S  S21  1  0.81348800  0.29725800  0.26380400  1
  S  S22  1  0.92270900  0.79725800  0.26380400  1
  S  S23  1  0.18651200  0.79725800  0.73619600  1
