# generated using pymatgen
data_CaSnS3
_symmetry_space_group_name_H-M   'P 1'
_cell_length_a   9.60936200
_cell_length_b   9.33216000
_cell_length_c   20.06121228
_cell_angle_alpha   84.50911266
_cell_angle_beta   90.00000000
_cell_angle_gamma   90.00000000
_symmetry_Int_Tables_number   1
_chemical_formula_structural   CaSnS3
_chemical_formula_sum   'Ca12 Sn12 S36'
_cell_volume   1790.75646260
_cell_formula_units_Z   12
loop_
 _symmetry_equiv_pos_site_id
 _symmetry_equiv_pos_as_xyz
  1  'x, y, z'
loop_
 _atom_site_type_symbol
 _atom_site_label
 _atom_site_symmetry_multiplicity
 _atom_site_fract_x
 _atom_site_fract_y
 _atom_site_fract_z
 _atom_site_occupancy
  Ca  Ca0  1  0.12478300  0.96936400  0.26693900  1
  Ca  Ca1  1  0.62478300  0.03063600  0.23306100  1
  Ca  Ca2  1  0.87521700  0.03063600  0.73306100  1
  Ca  Ca3  1  0.37521700  0.96936400  0.76693900  1
  Ca  Ca4  1  0.88014200  0.74387800  0.10921700  1
  Ca  Ca5  1  0.38014200  0.25612200  0.39078300  1
  Ca  Ca6  1  0.11985800  0.25612200  0.89078300  1
  Ca  Ca7  1  0.61985800  0.74387800  0.60921700  1
  Ca  Ca8  1  0.36908700  0.74208700  0.10938400  1
  Ca  Ca9  1  0.86908700  0.25791300  0.39061600  1
  Ca  Ca10  1  0.63091300  0.25791300  0.89061600  1
  Ca  Ca11  1  0.13091300  0.74208700  0.60938400  1
  Sn  Sn12  1  0.40093500  0.21290400  0.08413100  1
  Sn  Sn13  1  0.90093500  0.78709600  0.41586900  1
  Sn  Sn14  1  0.59906500  0.78709600  0.91586900  1
  Sn  Sn15  1  0.09906500  0.21290400  0.58413100  1
  Sn  Sn16  1  0.85012200  0.21263500  0.08712900  1
  Sn  Sn17  1  0.35012200  0.78736500  0.41287100  1
  Sn  Sn18  1  0.14987800  0.78736500  0.91287100  1
  Sn  Sn19  1  0.64987800  0.21263500  0.58712900  1
  Sn  Sn20  1  0.12557100  0.44658000  0.20477900  1
  Sn  Sn21  1  0.62557100  0.55342000  0.29522100  1
  Sn  Sn22  1  0.87442900  0.55342000  0.79522100  1
  Sn  Sn23  1  0.37442900  0.44658000  0.70477900  1
  S  S24  1  0.12533700  0.70591900  0.19677300  1
  S  S25  1  0.62533700  0.29408100  0.30322700  1
  S  S26  1  0.87466300  0.29408100  0.80322700  1
  S  S27  1  0.37466300  0.70591900  0.69677300  1
  S  S28  1  0.12566200  0.27305100  0.30014500  1
  S  S29  1  0.62566200  0.72694900  0.19985500  1
  S  S30  1  0.87433800  0.72694900  0.69985500  1
  S  S31  1  0.37433800  0.27305100  0.80014500  1
  S  S32  1  0.34909100  0.01069000  0.16207100  1
  S  S33  1  0.84909100  0.98931000  0.33792900  1
  S  S34  1  0.65090900  0.98931000  0.83792900  1
  S  S35  1  0.15090900  0.01069000  0.66207100  1
  S  S36  1  0.89989400  0.00991400  0.16567000  1
  S  S37  1  0.39989400  0.99008600  0.33433000  1
  S  S38  1  0.10010600  0.99008600  0.83433000  1
  S  S39  1  0.60010600  0.00991400  0.66567000  1
  S  S40  1  0.37715500  0.22212400  0.96660200  1
  S  S41  1  0.87715500  0.77787600  0.53339800  1
  S  S42  1  0.62284500  0.77787600  0.03339800  1
  S  S43  1  0.12284500  0.22212400  0.46660200  1
  S  S44  1  0.87576800  0.20955800  0.97126800  1
  S  S45  1  0.37576800  0.79044200  0.52873200  1
  S  S46  1  0.12423200  0.79044200  0.02873200  1
  S  S47  1  0.62423200  0.20955800  0.47126800  1
  S  S48  1  0.32561100  0.43732400  0.13090200  1
  S  S49  1  0.82561100  0.56267600  0.36909800  1
  S  S50  1  0.67438900  0.56267600  0.86909800  1
  S  S51  1  0.17438900  0.43732400  0.63090200  1
  S  S52  1  0.92002800  0.43801900  0.13474500  1
  S  S53  1  0.42002800  0.56198100  0.36525500  1
  S  S54  1  0.07997200  0.56198100  0.86525500  1
  S  S55  1  0.57997200  0.43801900  0.63474500  1
  S  S56  1  0.62404200  0.28142100  0.12845600  1
  S  S57  1  0.12404200  0.71857900  0.37154400  1
  S  S58  1  0.37595800  0.71857900  0.87154400  1
  S  S59  1  0.87595800  0.28142100  0.62845600  1
