# generated using pymatgen
data_CaSnS3
_symmetry_space_group_name_H-M   'P 1'
_cell_length_a   7.27401964
_cell_length_b   7.27401964
_cell_length_c   17.73715000
_cell_angle_alpha   90.00000000
_cell_angle_beta   90.00000000
_cell_angle_gamma   124.07161241
_symmetry_Int_Tables_number   1
_chemical_formula_structural   CaSnS3
_chemical_formula_sum   'Ca6 Sn6 S18'
_cell_volume   777.39253390
_cell_formula_units_Z   6
loop_
 _symmetry_equiv_pos_site_id
 _symmetry_equiv_pos_as_xyz
  1  'x, y, z'
loop_
 _atom_site_type_symbol
 _atom_site_label
 _atom_site_symmetry_multiplicity
 _atom_site_fract_x
 _atom_site_fract_y
 _atom_site_fract_z
 _atom_site_occupancy
  Ca  Ca0  1  0.06772800  0.93227200  0.25000000  1
  Ca  Ca1  1  0.93227200  0.06772800  0.75000000  1
  Ca  Ca2  1  0.69876200  0.30123800  0.43111100  1
  Ca  Ca3  1  0.30123800  0.69876200  0.56888900  1
  Ca  Ca4  1  0.30123800  0.69876200  0.93111100  1
  Ca  Ca5  1  0.69876200  0.30123800  0.06888900  1
  Sn  Sn6  1  0.00000000  0.00000000  0.50000000  1
  Sn  Sn7  1  0.00000000  0.00000000  0.00000000  1
  Sn  Sn8  1  0.65583600  0.34416400  0.66025400  1
  Sn  Sn9  1  0.34416400  0.65583600  0.33974600  1
  Sn  Sn10  1  0.34416400  0.65583600  0.16025400  1
  Sn  Sn11  1  0.65583600  0.34416400  0.83974600  1
  S  S12  1  0.01078400  0.49298600  0.25000000  1
  S  S13  1  0.50109500  0.49890500  0.25000000  1
  S  S14  1  0.50701400  0.98921600  0.25000000  1
  S  S15  1  0.98921600  0.50701400  0.75000000  1
  S  S16  1  0.49890500  0.50109500  0.75000000  1
  S  S17  1  0.49298600  0.01078400  0.75000000  1
  S  S18  1  0.61113800  0.87391900  0.44615800  1
  S  S19  1  0.12704300  0.87295700  0.39529800  1
  S  S20  1  0.12608100  0.38886200  0.44615800  1
  S  S21  1  0.38886200  0.12608100  0.55384200  1
  S  S22  1  0.87295700  0.12704300  0.60470200  1
  S  S23  1  0.87391900  0.61113800  0.55384200  1
  S  S24  1  0.38886200  0.12608100  0.94615800  1
  S  S25  1  0.87295700  0.12704300  0.89529800  1
  S  S26  1  0.87391900  0.61113800  0.94615800  1
  S  S27  1  0.61113800  0.87391900  0.05384200  1
  S  S28  1  0.12704300  0.87295700  0.10470200  1
  S  S29  1  0.12608100  0.38886200  0.05384200  1
