# generated using pymatgen
data_Ca3SnS5
_symmetry_space_group_name_H-M   'P 1'
_cell_length_a   9.00671640
_cell_length_b   9.00671640
_cell_length_c   12.09636322
_cell_angle_alpha   68.58233130
_cell_angle_beta   68.58233130
_cell_angle_gamma   59.93335455
_symmetry_Int_Tables_number   1
_chemical_formula_structural   Ca3SnS5
_chemical_formula_sum   'Ca9 Sn3 S15'
_cell_volume   770.10243030
_cell_formula_units_Z   3
loop_
 _symmetry_equiv_pos_site_id
 _symmetry_equiv_pos_as_xyz
  1  'x, y, z'
loop_
 _atom_site_type_symbol
 _atom_site_label
 _atom_site_symmetry_multiplicity
 _atom_site_fract_x
 _atom_site_fract_y
 _atom_site_fract_z
 _atom_site_occupancy
  Ca  Ca0  1  0.28324500  0.75556700  0.67784500  1
  Ca  Ca1  1  0.75556700  0.28324500  0.67784500  1
  Ca  Ca2  1  0.70297500  0.27690700  0.31698600  1
  Ca  Ca3  1  0.27690700  0.70297500  0.31698600  1
  Ca  Ca4  1  0.50428500  0.98708400  0.00922900  1
  Ca  Ca5  1  0.98708400  0.50428500  0.00922900  1
  Ca  Ca6  1  0.70216800  0.70216800  0.32151100  1
  Ca  Ca7  1  0.28510100  0.28510100  0.67918500  1
  Ca  Ca8  1  0.50427000  0.50427000  0.00511500  1
  Sn  Sn9  1  0.99652700  0.99652700  0.00934200  1
  Sn  Sn10  1  0.22361600  0.22361600  0.33611200  1
  Sn  Sn11  1  0.78675500  0.78675500  0.64049100  1
  S  S12  1  0.86122300  0.86122300  0.41749900  1
  S  S13  1  0.49761200  0.49761200  0.50629700  1
  S  S14  1  0.38746000  0.95990000  0.26445600  1
  S  S15  1  0.95990000  0.38746000  0.26445600  1
  S  S16  1  0.39079700  0.39079700  0.25697200  1
  S  S17  1  0.06095100  0.06095100  0.79377500  1
  S  S18  1  0.15828800  0.15828800  0.55054300  1
  S  S19  1  0.61820600  0.61820600  0.14764100  1
  S  S20  1  0.36814000  0.36814000  0.89580100  1
  S  S21  1  0.83277700  0.27314200  0.06575800  1
  S  S22  1  0.27314200  0.83277700  0.06575800  1
  S  S23  1  0.61454200  0.61454200  0.73077500  1
  S  S24  1  0.82986300  0.82986300  0.07373900  1
  S  S25  1  0.04069200  0.61440800  0.73262700  1
  S  S26  1  0.61440800  0.04069200  0.73262700  1
