# generated using pymatgen
data_Ca4Sn3S10
_symmetry_space_group_name_H-M   'P 1'
_cell_length_a   6.80270900
_cell_length_b   7.17171400
_cell_length_c   33.02885500
_cell_angle_alpha   90.00000000
_cell_angle_beta   90.00000000
_cell_angle_gamma   90.00000000
_symmetry_Int_Tables_number   1
_chemical_formula_structural   Ca4Sn3S10
_chemical_formula_sum   'Ca16 Sn12 S40'
_cell_volume   1611.38150261
_cell_formula_units_Z   4
loop_
 _symmetry_equiv_pos_site_id
 _symmetry_equiv_pos_as_xyz
  1  'x, y, z'
loop_
 _atom_site_type_symbol
 _atom_site_label
 _atom_site_symmetry_multiplicity
 _atom_site_fract_x
 _atom_site_fract_y
 _atom_site_fract_z
 _atom_site_occupancy
  Ca  Ca0  1  0.97390200  0.58875000  0.57024000  1
  Ca  Ca1  1  0.47390200  0.91125000  0.42976000  1
  Ca  Ca2  1  0.02609800  0.08875000  0.92976000  1
  Ca  Ca3  1  0.52609800  0.41125000  0.07024000  1
  Ca  Ca4  1  0.02609800  0.41125000  0.42976000  1
  Ca  Ca5  1  0.52609800  0.08875000  0.57024000  1
  Ca  Ca6  1  0.97390200  0.91125000  0.07024000  1
  Ca  Ca7  1  0.47390200  0.58875000  0.92976000  1
  Ca  Ca8  1  0.51189400  0.91683800  0.70479700  1
  Ca  Ca9  1  0.01189400  0.58316200  0.29520300  1
  Ca  Ca10  1  0.48810600  0.41683800  0.79520300  1
  Ca  Ca11  1  0.98810600  0.08316200  0.20479700  1
  Ca  Ca12  1  0.48810600  0.08316200  0.29520300  1
  Ca  Ca13  1  0.98810600  0.41683800  0.70479700  1
  Ca  Ca14  1  0.51189400  0.58316200  0.20479700  1
  Ca  Ca15  1  0.01189400  0.91683800  0.79520300  1
  Sn  Sn16  1  0.50000000  0.50000000  0.50000000  1
  Sn  Sn17  1  0.00000000  0.00000000  0.50000000  1
  Sn  Sn18  1  0.50000000  0.00000000  0.00000000  1
  Sn  Sn19  1  0.00000000  0.50000000  0.00000000  1
  Sn  Sn20  1  0.99633700  0.00036200  0.64573900  1
  Sn  Sn21  1  0.49633700  0.49963800  0.35426100  1
  Sn  Sn22  1  0.00366300  0.50036200  0.85426100  1
  Sn  Sn23  1  0.50366300  0.99963800  0.14573900  1
  Sn  Sn24  1  0.00366300  0.99963800  0.35426100  1
  Sn  Sn25  1  0.50366300  0.50036200  0.64573900  1
  Sn  Sn26  1  0.99633700  0.49963800  0.14573900  1
  Sn  Sn27  1  0.49633700  0.00036200  0.85426100  1
  S  S28  1  0.13084500  0.95142900  0.57268600  1
  S  S29  1  0.63084500  0.54857100  0.42731400  1
  S  S30  1  0.86915500  0.45142900  0.92731400  1
  S  S31  1  0.36915500  0.04857100  0.07268600  1
  S  S32  1  0.86915500  0.04857100  0.42731400  1
  S  S33  1  0.36915500  0.45142900  0.57268600  1
  S  S34  1  0.13084500  0.54857100  0.07268600  1
  S  S35  1  0.63084500  0.95142900  0.92731400  1
  S  S36  1  0.89255400  0.04413600  0.71803800  1
  S  S37  1  0.39255400  0.45586400  0.28196200  1
  S  S38  1  0.10744600  0.54413600  0.78196200  1
  S  S39  1  0.60744600  0.95586400  0.21803800  1
  S  S40  1  0.10744600  0.95586400  0.28196200  1
  S  S41  1  0.60744600  0.54413600  0.71803800  1
  S  S42  1  0.89255400  0.45586400  0.21803800  1
  S  S43  1  0.39255400  0.04413600  0.78196200  1
  S  S44  1  0.81629200  0.31463800  0.62463800  1
  S  S45  1  0.31629200  0.18536200  0.37536200  1
  S  S46  1  0.18370800  0.81463800  0.87536200  1
  S  S47  1  0.68370800  0.68536200  0.12463800  1
  S  S48  1  0.18370800  0.68536200  0.37536200  1
  S  S49  1  0.68370800  0.81463800  0.62463800  1
  S  S50  1  0.81629200  0.18536200  0.12463800  1
  S  S51  1  0.31629200  0.31463800  0.87536200  1
  S  S52  1  0.19127800  0.70194500  0.66385600  1
  S  S53  1  0.69127800  0.79805500  0.33614400  1
  S  S54  1  0.80872200  0.20194500  0.83614400  1
  S  S55  1  0.30872200  0.29805500  0.16385600  1
  S  S56  1  0.80872200  0.29805500  0.33614400  1
  S  S57  1  0.30872200  0.20194500  0.66385600  1
  S  S58  1  0.19127800  0.79805500  0.16385600  1
  S  S59  1  0.69127800  0.70194500  0.83614400  1
  S  S60  1  0.31627800  0.18918700  0.48302900  1
  S  S61  1  0.81627800  0.31081300  0.51697100  1
  S  S62  1  0.68372200  0.68918700  0.01697100  1
  S  S63  1  0.18372200  0.81081300  0.98302900  1
  S  S64  1  0.68372200  0.81081300  0.51697100  1
  S  S65  1  0.18372200  0.68918700  0.48302900  1
  S  S66  1  0.31627800  0.31081300  0.98302900  1
  S  S67  1  0.81627800  0.18918700  0.01697100  1
