# generated using pymatgen
data_HfTeRu
_symmetry_space_group_name_H-M   'P 1'
_cell_length_a   4.49939803
_cell_length_b   4.49939813
_cell_length_c   4.49939800
_cell_angle_alpha   60.00000094
_cell_angle_beta   60.00000019
_cell_angle_gamma   59.99999238
_symmetry_Int_Tables_number   1
_chemical_formula_structural   HfTeRu
_chemical_formula_sum   'Hf1 Te1 Ru1'
_cell_volume   64.40924798
_cell_formula_units_Z   1
loop_
 _symmetry_equiv_pos_site_id
 _symmetry_equiv_pos_as_xyz
  1  'x, y, z'
loop_
 _atom_site_type_symbol
 _atom_site_label
 _atom_site_symmetry_multiplicity
 _atom_site_fract_x
 _atom_site_fract_y
 _atom_site_fract_z
 _atom_site_occupancy
  Hf  Hf0  1  0.00000000  0.00000000  0.00000000  1
  Te  Te1  1  0.25000000  0.25000000  0.25000000  1
  Ru  Ru2  1  0.50000000  0.50000000  0.50000000  1
