# generated using pymatgen
data_CdOF
_symmetry_space_group_name_H-M   'P 1'
_cell_length_a   5.77438700
_cell_length_b   4.05807700
_cell_length_c   7.28151700
_cell_angle_alpha   90.00000000
_cell_angle_beta   90.00000000
_cell_angle_gamma   90.00000000
_symmetry_Int_Tables_number   1
_chemical_formula_structural   CdOF
_chemical_formula_sum   'Cd4 O4 F4'
_cell_volume   170.62711122
_cell_formula_units_Z   4
loop_
 _symmetry_equiv_pos_site_id
 _symmetry_equiv_pos_as_xyz
  1  'x, y, z'
loop_
 _atom_site_type_symbol
 _atom_site_label
 _atom_site_symmetry_multiplicity
 _atom_site_fract_x
 _atom_site_fract_y
 _atom_site_fract_z
 _atom_site_occupancy
  Cd  Cd0  1  0.72603300  0.05720900  0.88684600  1
  Cd  Cd1  1  0.77396700  0.94279100  0.38684600  1
  Cd  Cd2  1  0.22603300  0.44279100  0.11315400  1
  Cd  Cd3  1  0.27396700  0.55720900  0.61315400  1
  O  O4  1  0.96704900  0.89967900  0.65829100  1
  O  O5  1  0.53295100  0.10032100  0.15829100  1
  O  O6  1  0.46704900  0.60032100  0.34170900  1
  O  O7  1  0.03295100  0.39967900  0.84170900  1
  F  F8  1  0.51697300  0.57894600  0.88196600  1
  F  F9  1  0.98302700  0.42105400  0.38196600  1
  F  F10  1  0.01697300  0.92105400  0.11803400  1
  F  F11  1  0.48302700  0.07894600  0.61803400  1
