# generated using pymatgen
data_Li9Mn7O16
_symmetry_space_group_name_H-M   'P 1'
_cell_length_a   5.75789846
_cell_length_b   9.90797585
_cell_length_c   6.07152912
_cell_angle_alpha   86.06671493
_cell_angle_beta   61.69714056
_cell_angle_gamma   98.35371337
_symmetry_Int_Tables_number   1
_chemical_formula_structural   Li9Mn7O16
_chemical_formula_sum   'Li9 Mn7 O16'
_cell_volume   297.95047489
_cell_formula_units_Z   1
loop_
 _symmetry_equiv_pos_site_id
 _symmetry_equiv_pos_as_xyz
  1  'x, y, z'
loop_
 _atom_site_type_symbol
 _atom_site_label
 _atom_site_symmetry_multiplicity
 _atom_site_fract_x
 _atom_site_fract_y
 _atom_site_fract_z
 _atom_site_occupancy
  Li  Li0  1  0.74275400  0.23954000  0.13434400  1
  Li  Li1  1  0.74524200  0.74980100  0.37224400  1
  Li  Li2  1  0.74261200  0.25022300  0.62767500  1
  Li  Li3  1  0.25475800  0.25019900  0.62775600  1
  Li  Li4  1  0.25724600  0.76046000  0.86565600  1
  Li  Li5  1  0.25088600  0.24285400  0.11951400  1
  Li  Li6  1  0.74911400  0.75714600  0.88048600  1
  Li  Li7  1  0.25738800  0.74977700  0.37232500  1
  Li  Li8  1  0.50000000  0.00000000  0.50000000  1
  Mn  Mn9  1  0.00000000  0.00000000  0.00000000  1
  Mn  Mn10  1  0.00000000  0.00000000  0.50000000  1
  Mn  Mn11  1  0.99980900  0.49811900  0.24985200  1
  Mn  Mn12  1  0.00019100  0.50188100  0.75014800  1
  Mn  Mn13  1  0.50062400  0.50297000  0.75069000  1
  Mn  Mn14  1  0.50000000  0.00000000  0.00000000  1
  Mn  Mn15  1  0.49937600  0.49703000  0.24931000  1
  O  O16  1  0.85960000  0.11796400  0.83980800  1
  O  O17  1  0.85865700  0.61581900  0.08944500  1
  O  O18  1  0.89401500  0.10333100  0.28615700  1
  O  O19  1  0.37145000  0.10333000  0.28618600  1
  O  O20  1  0.36220500  0.62170500  0.58618100  1
  O  O21  1  0.36290400  0.11382900  0.83108600  1
  O  O22  1  0.86280500  0.62055200  0.58499700  1
  O  O23  1  0.36001900  0.61613500  0.08917500  1
  O  O24  1  0.63779500  0.37829500  0.41381900  1
  O  O25  1  0.62855000  0.89667000  0.71381400  1
  O  O26  1  0.63998100  0.38386500  0.91082500  1
  O  O27  1  0.14134300  0.38418100  0.91055500  1
  O  O28  1  0.14040000  0.88203600  0.16019200  1
  O  O29  1  0.13719500  0.37944800  0.41500300  1
  O  O30  1  0.63709600  0.88617100  0.16891400  1
  O  O31  1  0.10598500  0.89666900  0.71384300  1
