# generated using pymatgen
data_ZrCl3
_symmetry_space_group_name_H-M   'P 1'
_cell_length_a   6.27820400
_cell_length_b   6.29111220
_cell_length_c   7.57210991
_cell_angle_alpha   89.93176981
_cell_angle_beta   114.14273704
_cell_angle_gamma   118.28741122
_symmetry_Int_Tables_number   1
_chemical_formula_structural   ZrCl3
_chemical_formula_sum   'Zr2 Cl6'
_cell_volume   233.31546514
_cell_formula_units_Z   2
loop_
 _symmetry_equiv_pos_site_id
 _symmetry_equiv_pos_as_xyz
  1  'x, y, z'
loop_
 _atom_site_type_symbol
 _atom_site_label
 _atom_site_symmetry_multiplicity
 _atom_site_fract_x
 _atom_site_fract_y
 _atom_site_fract_z
 _atom_site_occupancy
  Zr  Zr0  1  0.85700300  0.14214900  0.00003200  1
  Zr  Zr1  1  0.14299700  0.85785100  0.99996800  1
  Cl  Cl2  1  0.35453600  0.07464500  0.78513800  1
  Cl  Cl3  1  0.67670500  0.76058400  0.74964100  1
  Cl  Cl4  1  0.00560500  0.42722100  0.78759800  1
  Cl  Cl5  1  0.99439500  0.57277900  0.21240200  1
  Cl  Cl6  1  0.32329500  0.23941600  0.25035900  1
  Cl  Cl7  1  0.64546400  0.92535500  0.21486200  1
