# generated using pymatgen
data_Ni11As8
_symmetry_space_group_name_H-M   'P 1'
_cell_length_a   6.91186987
_cell_length_b   6.91186987
_cell_length_c   11.21626406
_cell_angle_alpha   81.23744231
_cell_angle_beta   81.23744231
_cell_angle_gamma   90.01723294
_symmetry_Int_Tables_number   1
_chemical_formula_structural   Ni11As8
_chemical_formula_sum   'Ni22 As16'
_cell_volume   523.25796438
_cell_formula_units_Z   2
loop_
 _symmetry_equiv_pos_site_id
 _symmetry_equiv_pos_as_xyz
  1  'x, y, z'
loop_
 _atom_site_type_symbol
 _atom_site_label
 _atom_site_symmetry_multiplicity
 _atom_site_fract_x
 _atom_site_fract_y
 _atom_site_fract_z
 _atom_site_occupancy
  Ni  Ni0  1  0.46673400  0.14469200  0.90731900  1
  Ni  Ni1  1  0.85530800  0.53326600  0.59268100  1
  Ni  Ni2  1  0.53326600  0.85530800  0.09268100  1
  Ni  Ni3  1  0.14469200  0.46673400  0.40731900  1
  Ni  Ni4  1  0.08451700  0.65119400  0.90797800  1
  Ni  Ni5  1  0.34880600  0.91548300  0.59202200  1
  Ni  Ni6  1  0.91548300  0.34880600  0.09202200  1
  Ni  Ni7  1  0.65119400  0.08451700  0.40797800  1
  Ni  Ni8  1  0.46004900  0.65209700  0.90762900  1
  Ni  Ni9  1  0.34790300  0.53995100  0.59237100  1
  Ni  Ni10  1  0.53995100  0.34790300  0.09237100  1
  Ni  Ni11  1  0.65209700  0.46004900  0.40762900  1
  Ni  Ni12  1  0.80203200  0.67772300  0.78655700  1
  Ni  Ni13  1  0.32227700  0.19796800  0.71344300  1
  Ni  Ni14  1  0.19796800  0.32227700  0.21344300  1
  Ni  Ni15  1  0.67772300  0.80203200  0.28655700  1
  Ni  Ni16  1  0.07866000  0.14517200  0.90669900  1
  Ni  Ni17  1  0.85482800  0.92134000  0.59330100  1
  Ni  Ni18  1  0.14517200  0.07866000  0.40669900  1
  Ni  Ni19  1  0.92134000  0.85482800  0.09330100  1
  Ni  Ni20  1  0.81048100  0.18951900  0.75000000  1
  Ni  Ni21  1  0.18951900  0.81048100  0.25000000  1
  As  As22  1  0.74910700  0.62414900  0.00128200  1
  As  As23  1  0.37585100  0.25089300  0.49871800  1
  As  As24  1  0.25089300  0.37585100  0.99871800  1
  As  As25  1  0.62414900  0.74910700  0.50128200  1
  As  As26  1  0.87300500  0.24810900  0.50836700  1
  As  As27  1  0.75189100  0.12699500  0.99163300  1
  As  As28  1  0.12699500  0.75189100  0.49163300  1
  As  As29  1  0.24811000  0.87300500  0.00836700  1
  As  As30  1  0.06712900  0.93287100  0.75000000  1
  As  As31  1  0.93287100  0.06712900  0.25000000  1
  As  As32  1  0.55703200  0.44296800  0.75000000  1
  As  As33  1  0.44296800  0.55703200  0.25000000  1
  As  As34  1  0.55660800  0.93392800  0.74901300  1
  As  As35  1  0.06607200  0.44339200  0.75098700  1
  As  As36  1  0.44339200  0.06607200  0.25098700  1
  As  As37  1  0.93392800  0.55660800  0.24901300  1
