# generated using pymatgen
data_Zr(PbO3)2
_symmetry_space_group_name_H-M   'P 1'
_cell_length_a   5.90909500
_cell_length_b   8.78216521
_cell_length_c   11.28680712
_cell_angle_alpha   89.73441444
_cell_angle_beta   90.00000000
_cell_angle_gamma   90.00000000
_symmetry_Int_Tables_number   1
_chemical_formula_structural   Zr(PbO3)2
_chemical_formula_sum   'Zr4 Pb8 O24'
_cell_volume   585.71859591
_cell_formula_units_Z   4
loop_
 _symmetry_equiv_pos_site_id
 _symmetry_equiv_pos_as_xyz
  1  'x, y, z'
loop_
 _atom_site_type_symbol
 _atom_site_label
 _atom_site_symmetry_multiplicity
 _atom_site_fract_x
 _atom_site_fract_y
 _atom_site_fract_z
 _atom_site_occupancy
  Zr  Zr0  1  0.25505200  0.74286200  0.08588300  1
  Zr  Zr1  1  0.22157300  0.25226700  0.60928700  1
  Zr  Zr2  1  0.75505200  0.25713800  0.41411700  1
  Zr  Zr3  1  0.72157300  0.74773300  0.89071300  1
  Pb  Pb4  1  0.97007200  0.88644000  0.34906500  1
  Pb  Pb5  1  0.32993000  0.51494800  0.33642300  1
  Pb  Pb6  1  0.39425800  0.40808500  0.93582100  1
  Pb  Pb7  1  0.36275400  0.06058400  0.86517400  1
  Pb  Pb8  1  0.47007200  0.11356000  0.15093500  1
  Pb  Pb9  1  0.82993000  0.48505200  0.16357700  1
  Pb  Pb10  1  0.86275400  0.93941600  0.63482600  1
  Pb  Pb11  1  0.89425800  0.59191500  0.56417900  1
  O  O12  1  0.19112900  0.18748100  0.99313500  1
  O  O13  1  0.99452800  0.10881900  0.49582900  1
  O  O14  1  0.99309900  0.80825600  0.98954800  1
  O  O15  1  0.13852500  0.76550500  0.48652000  1
  O  O16  1  0.02198900  0.35765600  0.28292600  1
  O  O17  1  0.03647300  0.68421900  0.23878700  1
  O  O18  1  0.19066900  0.44904400  0.49698300  1
  O  O19  1  0.14163400  0.04799700  0.71268500  1
  O  O20  1  0.25338100  0.93896500  0.21391200  1
  O  O21  1  0.17753800  0.51211700  0.06480500  1
  O  O22  1  0.40463000  0.28268900  0.76737500  1
  O  O23  1  0.42076700  0.62968900  0.85550700  1
  O  O24  1  0.49309900  0.19174400  0.51045200  1
  O  O25  1  0.63852500  0.23449500  0.01348000  1
  O  O26  1  0.69112900  0.81251900  0.50686500  1
  O  O27  1  0.49452800  0.89118100  0.00417000  1
  O  O28  1  0.53647300  0.31578100  0.26121300  1
  O  O29  1  0.52198900  0.64234400  0.21707400  1
  O  O30  1  0.69066900  0.55095600  0.00301700  1
  O  O31  1  0.64163400  0.95200300  0.78731500  1
  O  O32  1  0.75338100  0.06103500  0.28608800  1
  O  O33  1  0.67753800  0.48788300  0.43519500  1
  O  O34  1  0.92076700  0.37031100  0.64449300  1
  O  O35  1  0.90463000  0.71731100  0.73262500  1
