# generated using pymatgen
data_Zn3Mo3O8
_symmetry_space_group_name_H-M   'P 1'
_cell_length_a   6.35896948
_cell_length_b   6.35896948
_cell_length_c   10.80371419
_cell_angle_alpha   71.87574914
_cell_angle_beta   71.87574914
_cell_angle_gamma   57.88455681
_symmetry_Int_Tables_number   1
_chemical_formula_structural   Zn3Mo3O8
_chemical_formula_sum   'Zn6 Mo6 O16'
_cell_volume   345.84755770
_cell_formula_units_Z   2
loop_
 _symmetry_equiv_pos_site_id
 _symmetry_equiv_pos_as_xyz
  1  'x, y, z'
loop_
 _atom_site_type_symbol
 _atom_site_label
 _atom_site_symmetry_multiplicity
 _atom_site_fract_x
 _atom_site_fract_y
 _atom_site_fract_z
 _atom_site_occupancy
  Zn  Zn0  1  0.00000000  0.00000000  0.00000000  1
  Zn  Zn1  1  0.81822200  0.81822200  0.56749500  1
  Zn  Zn2  1  0.69315600  0.69315600  0.92581900  1
  Zn  Zn3  1  0.50000000  0.50000000  0.50000000  1
  Zn  Zn4  1  0.30684400  0.30684400  0.07418100  1
  Zn  Zn5  1  0.18177800  0.18177800  0.43250500  1
  Mo  Mo6  1  0.75274100  0.75274100  0.25000300  1
  Mo  Mo7  1  0.26059700  0.73828100  0.24897100  1
  Mo  Mo8  1  0.73828100  0.26059700  0.24897100  1
  Mo  Mo9  1  0.26171900  0.73940300  0.75102900  1
  Mo  Mo10  1  0.73940300  0.26171900  0.75102900  1
  Mo  Mo11  1  0.24725900  0.24725900  0.74999700  1
  O  O12  1  0.88388400  0.88388400  0.36056300  1
  O  O13  1  0.88990200  0.88990200  0.86340400  1
  O  O14  1  0.35676700  0.87759700  0.87088000  1
  O  O15  1  0.87759700  0.35676700  0.87088000  1
  O  O16  1  0.62833800  0.62833800  0.13167800  1
  O  O17  1  0.38257200  0.85161200  0.36919200  1
  O  O18  1  0.85161200  0.38257200  0.36919200  1
  O  O19  1  0.37911600  0.37911600  0.37442200  1
  O  O20  1  0.62088400  0.62088400  0.62557800  1
  O  O21  1  0.14838800  0.61742800  0.63080800  1
  O  O22  1  0.61742800  0.14838800  0.63080800  1
  O  O23  1  0.37166200  0.37166200  0.86832200  1
  O  O24  1  0.12240300  0.64323300  0.12912000  1
  O  O25  1  0.64323300  0.12240300  0.12912000  1
  O  O26  1  0.11009800  0.11009800  0.13659600  1
  O  O27  1  0.11611600  0.11611600  0.63943700  1
