# generated using pymatgen
data_Zr8MnCu2(PO4)12
_symmetry_space_group_name_H-M   'P 1'
_cell_length_a   9.01276700
_cell_length_b   9.04731613
_cell_length_c   15.66254672
_cell_angle_alpha   90.21274472
_cell_angle_beta   106.69389863
_cell_angle_gamma   119.68015530
_symmetry_Int_Tables_number   1
_chemical_formula_structural   Zr8MnCu2(PO4)12
_chemical_formula_sum   'Zr8 Mn1 Cu2 P12 O48'
_cell_volume   1046.34852997
_cell_formula_units_Z   1
loop_
 _symmetry_equiv_pos_site_id
 _symmetry_equiv_pos_as_xyz
  1  'x, y, z'
loop_
 _atom_site_type_symbol
 _atom_site_label
 _atom_site_symmetry_multiplicity
 _atom_site_fract_x
 _atom_site_fract_y
 _atom_site_fract_z
 _atom_site_occupancy
  Zr  Zr0  1  0.14037100  0.10372200  0.68146500  1
  Zr  Zr1  1  0.36702800  0.66054400  0.57253500  1
  Zr  Zr2  1  0.13957400  0.59290800  0.17924300  1
  Zr  Zr3  1  0.34924900  0.12930100  0.07175600  1
  Zr  Zr4  1  0.63297200  0.33945600  0.42746500  1
  Zr  Zr5  1  0.85962900  0.89627800  0.31853500  1
  Zr  Zr6  1  0.65075100  0.87069900  0.92824400  1
  Zr  Zr7  1  0.86042600  0.40709200  0.82075700  1
  Mn  Mn8  1  0.50000000  0.50000000  0.00000000  1
  Cu  Cu9  1  0.08440500  0.34088800  0.33000500  1
  Cu  Cu10  1  0.91559500  0.65911200  0.66999500  1
  P  P11  1  0.74816800  0.76417200  0.51674900  1
  P  P12  1  0.03733600  0.62301100  0.37792000  1
  P  P13  1  0.46811900  0.98992000  0.73138100  1
  P  P14  1  0.53188100  0.01008000  0.26861900  1
  P  P15  1  0.96266400  0.37698900  0.62208000  1
  P  P16  1  0.74134500  0.27628600  0.01642800  1
  P  P17  1  0.25183200  0.23582800  0.48325100  1
  P  P18  1  0.04922500  0.14091500  0.87753200  1
  P  P19  1  0.46710400  0.47910800  0.22679200  1
  P  P20  1  0.53289600  0.52089200  0.77320800  1
  P  P21  1  0.95077500  0.85908500  0.12246800  1
  P  P22  1  0.25865500  0.72371400  0.98357200  1
  O  O23  1  0.30664100  0.42511900  0.50516100  1
  O  O24  1  0.49701000  0.61995700  0.69908000  1
  O  O25  1  0.91316000  0.84490400  0.61001300  1
  O  O26  1  0.12312200  0.52036600  0.59976400  1
  O  O27  1  0.80802400  0.86260200  0.44177400  1
  O  O28  1  0.59621400  0.77924400  0.53281900  1
  O  O29  1  0.05797200  0.53406600  0.29740600  1
  O  O30  1  0.21607600  0.69807900  0.45652800  1
  O  O31  1  0.36729500  0.82630800  0.25024400  1
  O  O32  1  0.43882300  0.89106700  0.64293300  1
  O  O33  1  0.70500300  0.00941500  0.27483000  1
  O  O34  1  0.99587500  0.23182600  0.65250900  1
  O  O35  1  0.31472800  0.91588800  0.00149300  1
  O  O36  1  0.00412500  0.76817400  0.34749100  1
  O  O37  1  0.29499700  0.99058500  0.72517000  1
  O  O38  1  0.56117700  0.10893300  0.35706700  1
  O  O39  1  0.63270500  0.17369200  0.74975600  1
  O  O40  1  0.49346900  0.10192400  0.18835700  1
  O  O41  1  0.78392400  0.30192100  0.54347200  1
  O  O42  1  0.90518000  0.36469100  0.10349000  1
  O  O43  1  0.10327000  0.00144700  0.09143200  1
  O  O44  1  0.94202800  0.46593400  0.70259400  1
  O  O45  1  0.78431900  0.36187500  0.93544200  1
  O  O46  1  0.40378600  0.22075600  0.46718100  1
  O  O47  1  0.58219400  0.29278700  0.02759300  1
  O  O48  1  0.19197600  0.13739800  0.55822600  1
  O  O49  1  0.06010500  0.05644700  0.79633300  1
  O  O50  1  0.87687800  0.47963400  0.40023600  1
  O  O51  1  0.08684000  0.15509600  0.38998700  1
  O  O52  1  0.23584300  0.22395500  0.95649300  1
  O  O53  1  0.50299000  0.38004300  0.30092000  1
  O  O54  1  0.37328300  0.33321700  0.75326200  1
  O  O55  1  0.44119400  0.39458300  0.13119300  1
  O  O56  1  0.71004200  0.52616800  0.77942500  1
  O  O57  1  0.98992500  0.71461800  0.14486500  1
  O  O58  1  0.69335900  0.57488100  0.49483900  1
  O  O59  1  0.01007500  0.28538200  0.85513500  1
  O  O60  1  0.28995800  0.47383200  0.22057500  1
  O  O61  1  0.55880600  0.60541700  0.86880700  1
  O  O62  1  0.62671700  0.66678300  0.24673800  1
  O  O63  1  0.76415700  0.77604500  0.04350700  1
  O  O64  1  0.93989500  0.94355300  0.20366700  1
  O  O65  1  0.41780600  0.70721300  0.97240700  1
  O  O66  1  0.21568100  0.63812500  0.06455800  1
  O  O67  1  0.89673000  0.99855300  0.90856800  1
  O  O68  1  0.09482000  0.63530900  0.89651000  1
  O  O69  1  0.50653100  0.89807600  0.81164300  1
  O  O70  1  0.68527200  0.08411200  0.99850700  1
