# generated using pymatgen
data_Yb2TiO5
_symmetry_space_group_name_H-M   'P 1'
_cell_length_a   7.32715700
_cell_length_b   7.38563170
_cell_length_c   18.12073735
_cell_angle_alpha   89.94040987
_cell_angle_beta   93.13428778
_cell_angle_gamma   119.68149447
_symmetry_Int_Tables_number   1
_chemical_formula_structural   Yb2TiO5
_chemical_formula_sum   'Yb16 Ti8 O40'
_cell_volume   850.29332197
_cell_formula_units_Z   8
loop_
 _symmetry_equiv_pos_site_id
 _symmetry_equiv_pos_as_xyz
  1  'x, y, z'
loop_
 _atom_site_type_symbol
 _atom_site_label
 _atom_site_symmetry_multiplicity
 _atom_site_fract_x
 _atom_site_fract_y
 _atom_site_fract_z
 _atom_site_occupancy
  Yb  Yb0  1  0.04538600  0.02334100  0.99858600  1
  Yb  Yb1  1  0.70448500  0.86129700  0.16480700  1
  Yb  Yb2  1  0.53920100  0.02108200  0.99343500  1
  Yb  Yb3  1  0.29913700  0.66989400  0.34238300  1
  Yb  Yb4  1  0.19440600  0.33473700  0.16465900  1
  Yb  Yb5  1  0.18392500  0.85060900  0.16186600  1
  Yb  Yb6  1  0.95613700  0.47770000  0.50857000  1
  Yb  Yb7  1  0.77669600  0.66436900  0.33849700  1
  Yb  Yb8  1  0.45032100  0.96447800  0.50599900  1
  Yb  Yb9  1  0.54337700  0.51907800  0.99253700  1
  Yb  Yb10  1  0.44937700  0.48626500  0.50642700  1
  Yb  Yb11  1  0.16057500  0.84709000  0.67490100  1
  Yb  Yb12  1  0.16009400  0.31449400  0.67493900  1
  Yb  Yb13  1  0.87319600  0.69560100  0.83429900  1
  Yb  Yb14  1  0.83545700  0.15374500  0.33787200  1
  Yb  Yb15  1  0.87233800  0.18065900  0.83425100  1
  Ti  Ti16  1  0.09968500  0.55053800  0.96421200  1
  Ti  Ti17  1  0.60135200  0.30136100  0.65482500  1
  Ti  Ti18  1  0.66059900  0.31150200  0.18031900  1
  Ti  Ti19  1  0.30849800  0.15491700  0.82076200  1
  Ti  Ti20  1  0.42624300  0.20508500  0.32706300  1
  Ti  Ti21  1  0.90383300  0.95039100  0.53617500  1
  Ti  Ti22  1  0.59682100  0.79886100  0.66727900  1
  Ti  Ti23  1  0.33541500  0.66806100  0.81078000  1
  O  O24  1  0.40519400  0.70483700  0.22609200  1
  O  O25  1  0.19823800  0.39095200  0.02472000  1
  O  O26  1  0.84128700  0.20804800  0.20538100  1
  O  O27  1  0.19418700  0.80402900  0.02703800  1
  O  O28  1  0.51826300  0.00971100  0.11815800  1
  O  O29  1  0.71703500  0.36170600  0.30907200  1
  O  O30  1  0.48579000  0.02258500  0.37788700  1
  O  O31  1  0.62660500  0.31138700  0.55416800  1
  O  O32  1  0.81631400  0.60750900  0.19466300  1
  O  O33  1  0.63739800  0.31831200  0.07054200  1
  O  O34  1  0.52582700  0.52451800  0.11815200  1
  O  O35  1  0.10301900  0.82380500  0.29687800  1
  O  O36  1  0.10452900  0.84831100  0.54962200  1
  O  O37  1  0.38750200  0.18554300  0.21936000  1
  O  O38  1  0.45053000  0.43103300  0.37843100  1
  O  O39  1  0.06945400  0.03588100  0.87357000  1
  O  O40  1  0.89962700  0.94956900  0.66225700  1
  O  O41  1  0.83801900  0.71598700  0.46358000  1
  O  O42  1  0.84990200  0.52569300  0.71058300  1
  O  O43  1  0.13373600  0.35514500  0.28538900  1
  O  O44  1  0.00715800  0.00440200  0.11705100  1
  O  O45  1  0.10801600  0.25189900  0.55089900  1
  O  O46  1  0.08408300  0.99118700  0.32798300  1
  O  O47  1  0.55285600  0.37592600  0.87849200  1
  O  O48  1  0.50995500  0.51298100  0.64118000  1
  O  O49  1  0.85563800  0.12421200  0.46351600  1
  O  O50  1  0.63105300  0.81607500  0.78823800  1
  O  O51  1  0.62207800  0.81161300  0.55466900  1
  O  O52  1  0.84987400  0.32335400  0.71119500  1
  O  O53  1  0.41370000  0.70781800  0.92812600  1
  O  O54  1  0.23088300  0.37046300  0.80001000  1
  O  O55  1  0.50933500  0.99685500  0.64161000  1
  O  O56  1  0.55248800  0.17470700  0.87926800  1
  O  O57  1  0.25656000  0.63037600  0.45858300  1
  O  O58  1  0.29831300  0.64889300  0.70342700  1
  O  O59  1  0.88585200  0.22934300  0.96571300  1
  O  O60  1  0.22965200  0.86063500  0.79988200  1
  O  O61  1  0.04017700  0.52022300  0.86405100  1
  O  O62  1  0.88737100  0.66165400  0.96457000  1
  O  O63  1  0.36261300  0.18099500  0.71721700  1
