# generated using pymatgen
data_Yb4PbS8
_symmetry_space_group_name_H-M   'P 1'
_cell_length_a   4.90685700
_cell_length_b   7.49239012
_cell_length_c   16.90025888
_cell_angle_alpha   77.36500703
_cell_angle_beta   90.00000000
_cell_angle_gamma   90.00000000
_symmetry_Int_Tables_number   1
_chemical_formula_structural   Yb4PbS8
_chemical_formula_sum   'Yb8 Pb2 S16'
_cell_volume   606.27623509
_cell_formula_units_Z   2
loop_
 _symmetry_equiv_pos_site_id
 _symmetry_equiv_pos_as_xyz
  1  'x, y, z'
loop_
 _atom_site_type_symbol
 _atom_site_label
 _atom_site_symmetry_multiplicity
 _atom_site_fract_x
 _atom_site_fract_y
 _atom_site_fract_z
 _atom_site_occupancy
  Yb  Yb0  1  0.25000000  0.11837600  0.75758500  1
  Yb  Yb1  1  0.25000000  0.65299300  0.05134300  1
  Yb  Yb2  1  0.25000000  0.52490500  0.74856700  1
  Yb  Yb3  1  0.25000000  0.37251700  0.44381700  1
  Yb  Yb4  1  0.75000000  0.34150800  0.94814100  1
  Yb  Yb5  1  0.75000000  0.87659400  0.24207000  1
  Yb  Yb6  1  0.75000000  0.62034500  0.55472300  1
  Yb  Yb7  1  0.75000000  0.46913500  0.24988800  1
  Pb  Pb8  1  0.25000000  0.88799300  0.39837700  1
  Pb  Pb9  1  0.75000000  0.10407800  0.60123200  1
  S  S10  1  0.25000000  0.09182400  0.59636700  1
  S  S11  1  0.25000000  0.63734800  0.29128100  1
  S  S12  1  0.25000000  0.56695500  0.89982800  1
  S  S13  1  0.25000000  0.75508600  0.59656400  1
  S  S14  1  0.25000000  0.09351500  0.13716600  1
  S  S15  1  0.25000000  0.23290500  0.89500100  1
  S  S16  1  0.25000000  0.43182800  0.59623900  1
  S  S17  1  0.25000000  0.89257000  0.89681200  1
  S  S18  1  0.75000000  0.11121000  0.10443100  1
  S  S19  1  0.75000000  0.23765500  0.40225200  1
  S  S20  1  0.75000000  0.43754200  0.09799700  1
  S  S21  1  0.75000000  0.91948900  0.86585500  1
  S  S22  1  0.75000000  0.56099100  0.40238100  1
  S  S23  1  0.75000000  0.76954900  0.10339600  1
  S  S24  1  0.75000000  0.35816500  0.70680200  1
  S  S25  1  0.75000000  0.90062400  0.40318400  1
