# generated using pymatgen
data_Yb10Ti6O27
_symmetry_space_group_name_H-M   'P 1'
_cell_length_a   7.26662900
_cell_length_b   7.40002897
_cell_length_c   11.94125517
_cell_angle_alpha   101.63386613
_cell_angle_beta   90.80893521
_cell_angle_gamma   118.49906038
_symmetry_Int_Tables_number   1
_chemical_formula_structural   Yb10Ti6O27
_chemical_formula_sum   'Yb10 Ti6 O27'
_cell_volume   548.15848318
_cell_formula_units_Z   1
loop_
 _symmetry_equiv_pos_site_id
 _symmetry_equiv_pos_as_xyz
  1  'x, y, z'
loop_
 _atom_site_type_symbol
 _atom_site_label
 _atom_site_symmetry_multiplicity
 _atom_site_fract_x
 _atom_site_fract_y
 _atom_site_fract_z
 _atom_site_occupancy
  Yb  Yb0  1  0.02155800  0.06258200  0.05532300  1
  Yb  Yb1  1  0.02100600  0.54917000  0.02173000  1
  Yb  Yb2  1  0.69313100  0.37924200  0.75583400  1
  Yb  Yb3  1  0.16201300  0.39063500  0.76922800  1
  Yb  Yb4  1  0.20769500  0.91324100  0.74138200  1
  Yb  Yb5  1  0.55282100  0.03829400  0.00625000  1
  Yb  Yb6  1  0.47544100  0.41630400  0.45816700  1
  Yb  Yb7  1  0.21089600  0.50661000  0.26930400  1
  Yb  Yb8  1  0.70520300  0.93845300  0.73951000  1
  Yb  Yb9  1  0.75529500  0.03810500  0.28010400  1
  Ti  Ti10  1  0.49211100  0.53012800  0.00585100  1
  Ti  Ti11  1  0.02106000  0.50556600  0.52513100  1
  Ti  Ti12  1  0.40765400  0.91539300  0.49028700  1
  Ti  Ti13  1  0.76511400  0.42774500  0.21936700  1
  Ti  Ti14  1  0.03096100  0.04751400  0.53093000  1
  Ti  Ti15  1  0.25189400  0.98083100  0.24837700  1
  O  O16  1  0.84537400  0.24934900  0.86306200  1
  O  O17  1  0.50535700  0.03891900  0.65120900  1
  O  O18  1  0.86462000  0.69453000  0.91743800  1
  O  O19  1  0.01751800  0.04566200  0.68222300  1
  O  O20  1  0.16766500  0.34123300  0.56570800  1
  O  O21  1  0.41902100  0.34746200  0.85744200  1
  O  O22  1  0.10056500  0.12834100  0.25535100  1
  O  O23  1  0.27708400  0.07719900  0.44533100  1
  O  O24  1  0.32092500  0.67561500  0.92253600  1
  O  O25  1  0.01557900  0.55906200  0.69737800  1
  O  O26  1  0.41562200  0.78144300  0.82997700  1
  O  O27  1  0.33460700  0.63383900  0.46703600  1
  O  O28  1  0.52061400  0.25379400  0.27762200  1
  O  O29  1  0.74584300  0.46485800  0.57234600  1
  O  O30  1  0.84916000  0.24591500  0.14159600  1
  O  O31  1  0.91475600  0.39799600  0.36989600  1
  O  O32  1  0.64472200  0.41863500  0.07306000  1
  O  O33  1  0.67326100  0.65209600  0.32166100  1
  O  O34  1  0.67055500  0.82384100  0.07066900  1
  O  O35  1  0.91581700  0.85098800  0.85871200  1
  O  O36  1  0.76107300  0.01665900  0.49505700  1
  O  O37  1  0.85842600  0.82147700  0.36366400  1
  O  O38  1  0.03080000  0.67216400  0.21889100  1
  O  O39  1  0.25277700  0.43213300  0.07455800  1
  O  O40  1  0.11614900  0.79714000  0.54266700  1
  O  O41  1  0.42407400  0.87361200  0.31932100  1
  O  O42  1  0.25168100  0.94122500  0.09131800  1
