# generated using pymatgen
data_CaC2(SN)2
_symmetry_space_group_name_H-M   'P 1'
_cell_length_a   6.00850007
_cell_length_b   6.00850007
_cell_length_c   7.80107249
_cell_angle_alpha   89.39171622
_cell_angle_beta   89.39171622
_cell_angle_gamma   64.17925732
_symmetry_Int_Tables_number   1
_chemical_formula_structural   CaC2(SN)2
_chemical_formula_sum   'Ca2 C4 S4 N4'
_cell_volume   253.49688013
_cell_formula_units_Z   2
loop_
 _symmetry_equiv_pos_site_id
 _symmetry_equiv_pos_as_xyz
  1  'x, y, z'
loop_
 _atom_site_type_symbol
 _atom_site_label
 _atom_site_symmetry_multiplicity
 _atom_site_fract_x
 _atom_site_fract_y
 _atom_site_fract_z
 _atom_site_occupancy
  Ca  Ca0  1  0.41178900  0.58821100  0.25000000  1
  Ca  Ca1  1  0.58821100  0.41178900  0.75000000  1
  C  C2  1  0.97722000  0.25679200  0.39772100  1
  C  C3  1  0.25679200  0.97722000  0.89772100  1
  C  C4  1  0.02278000  0.74320800  0.60227900  1
  C  C5  1  0.74320800  0.02278000  0.10227900  1
  S  S6  1  0.25801300  0.13870600  0.32547500  1
  S  S7  1  0.86129400  0.74198700  0.17452500  1
  S  S8  1  0.74198700  0.86129400  0.67452500  1
  S  S9  1  0.13870600  0.25801300  0.82547500  1
  N  N10  1  0.76903600  0.34883400  0.44944900  1
  N  N11  1  0.34883400  0.76903600  0.94944900  1
  N  N12  1  0.65116600  0.23096400  0.05055100  1
  N  N13  1  0.23096400  0.65116600  0.55055100  1
