# generated using pymatgen
data_Y7(CuTe4)3
_symmetry_space_group_name_H-M   'P 1'
_cell_length_a   14.30550680
_cell_length_b   42.85497915
_cell_length_c   28.25302776
_cell_angle_alpha   8.77885580
_cell_angle_beta   15.21290869
_cell_angle_gamma   17.51558201
_symmetry_Int_Tables_number   1
_chemical_formula_structural   Y7(CuTe4)3
_chemical_formula_sum   'Y7 Cu3 Te12'
_cell_volume   693.67956926
_cell_formula_units_Z   1
loop_
 _symmetry_equiv_pos_site_id
 _symmetry_equiv_pos_as_xyz
  1  'x, y, z'
loop_
 _atom_site_type_symbol
 _atom_site_label
 _atom_site_symmetry_multiplicity
 _atom_site_fract_x
 _atom_site_fract_y
 _atom_site_fract_z
 _atom_site_occupancy
  Y  Y0  1  0.58616900  0.99541900  0.58674300  1
  Y  Y1  1  0.99981300  0.66717300  0.99832700  1
  Y  Y2  1  0.40820300  0.33327000  0.42191100  1
  Y  Y3  1  0.58933300  0.33815800  0.57113300  1
  Y  Y4  1  0.42467400  0.67032500  0.40812400  1
  Y  Y5  1  0.57109700  0.66548700  0.58926900  1
  Y  Y6  1  0.41904600  0.99752700  0.42026000  1
  Cu  Cu7  1  0.18910800  0.33472200  0.18943300  1
  Cu  Cu8  1  0.80847800  0.99874200  0.81307200  1
  Cu  Cu9  1  0.81321000  0.33365500  0.80821300  1
  Te  Te10  1  0.12480300  0.99758600  0.13228600  1
  Te  Te11  1  0.29053400  0.00052700  0.29145300  1
  Te  Te12  1  0.12195000  0.33819700  0.12200500  1
  Te  Te13  1  0.29209300  0.33299000  0.29183200  1
  Te  Te14  1  0.13219700  0.66718900  0.12449900  1
  Te  Te15  1  0.29147300  0.66725900  0.29089600  1
  Te  Te16  1  0.70707800  0.33348900  0.70916300  1
  Te  Te17  1  0.87969700  0.33243900  0.87138400  1
  Te  Te18  1  0.70872000  0.66509000  0.71079500  1
  Te  Te19  1  0.87223000  0.66742600  0.87244200  1
  Te  Te20  1  0.71032200  0.00038700  0.70716300  1
  Te  Te21  1  0.87047100  0.99627700  0.88029700  1
