# generated using pymatgen
data_VO2
_symmetry_space_group_name_H-M   'P 1'
_cell_length_a   5.44574116
_cell_length_b   5.44574116
_cell_length_c   4.61854542
_cell_angle_alpha   89.14617621
_cell_angle_beta   89.14617621
_cell_angle_gamma   65.91769294
_symmetry_Int_Tables_number   1
_chemical_formula_structural   VO2
_chemical_formula_sum   'V4 O8'
_cell_volume   125.02664178
_cell_formula_units_Z   4
loop_
 _symmetry_equiv_pos_site_id
 _symmetry_equiv_pos_as_xyz
  1  'x, y, z'
loop_
 _atom_site_type_symbol
 _atom_site_label
 _atom_site_symmetry_multiplicity
 _atom_site_fract_x
 _atom_site_fract_y
 _atom_site_fract_z
 _atom_site_occupancy
  V  V0  1  0.26857800  0.73142200  0.00000000  1
  V  V1  1  0.73142200  0.26857800  0.00000000  1
  V  V2  1  0.76526200  0.76526200  0.52453500  1
  V  V3  1  0.23473800  0.23473800  0.47546500  1
  O  O4  1  0.90157600  0.90157600  0.80853400  1
  O  O5  1  0.10141800  0.59926400  0.30421500  1
  O  O6  1  0.59926400  0.10141800  0.30421500  1
  O  O7  1  0.60274700  0.60274700  0.19980000  1
  O  O8  1  0.39725300  0.39725300  0.80020000  1
  O  O9  1  0.40073600  0.89858200  0.69578500  1
  O  O10  1  0.89858200  0.40073600  0.69578500  1
  O  O11  1  0.09842400  0.09842400  0.19146600  1
