# generated using pymatgen
data_KV2Fe(AgO4)2
_symmetry_space_group_name_H-M   'P 1'
_cell_length_a   5.53729621
_cell_length_b   14.94662708
_cell_length_c   5.53785737
_cell_angle_alpha   89.98937560
_cell_angle_beta   59.97243519
_cell_angle_gamma   89.99287926
_symmetry_Int_Tables_number   1
_chemical_formula_structural   KV2Fe(AgO4)2
_chemical_formula_sum   'K2 V4 Fe2 Ag4 O16'
_cell_volume   396.81917313
_cell_formula_units_Z   2
loop_
 _symmetry_equiv_pos_site_id
 _symmetry_equiv_pos_as_xyz
  1  'x, y, z'
loop_
 _atom_site_type_symbol
 _atom_site_label
 _atom_site_symmetry_multiplicity
 _atom_site_fract_x
 _atom_site_fract_y
 _atom_site_fract_z
 _atom_site_occupancy
  K  K0  1  0.00028500  0.00003400  0.99964400  1
  K  K1  1  0.99968400  0.49996500  0.00032700  1
  V  V2  1  0.66648700  0.86649800  0.66687300  1
  V  V3  1  0.33339300  0.63352400  0.33314600  1
  V  V4  1  0.66680100  0.36646200  0.66673800  1
  V  V5  1  0.33338700  0.13349200  0.33323100  1
  Fe  Fe6  1  0.00005700  0.24996200  0.99998600  1
  Fe  Fe7  1  0.99994600  0.75003000  0.99999700  1
  Ag  Ag8  1  0.66691700  0.13593900  0.66634800  1
  Ag  Ag9  1  0.66691500  0.63594700  0.66638700  1
  Ag  Ag10  1  0.33307600  0.36409300  0.33369000  1
  Ag  Ag11  1  0.33295800  0.86405800  0.33361800  1
  O  O12  1  0.66703500  0.47932700  0.66672100  1
  O  O13  1  0.66668500  0.97938800  0.66689800  1
  O  O14  1  0.33310200  0.02058700  0.33325300  1
  O  O15  1  0.33320500  0.52064900  0.33312700  1
  O  O16  1  0.92232900  0.32983400  0.32870200  1
  O  O17  1  0.92202400  0.82985500  0.32887300  1
  O  O18  1  0.32892900  0.32992300  0.74892400  1
  O  O19  1  0.32873200  0.82999400  0.74896100  1
  O  O20  1  0.74890100  0.32974100  0.92227500  1
  O  O21  1  0.74860900  0.82973600  0.92224900  1
  O  O22  1  0.07766600  0.17014500  0.67145400  1
  O  O23  1  0.07784500  0.67019200  0.67114600  1
  O  O24  1  0.67139100  0.17002000  0.25098900  1
  O  O25  1  0.67116900  0.67005600  0.25106300  1
  O  O26  1  0.25119400  0.17024000  0.07764200  1
  O  O27  1  0.25128100  0.67030700  0.07774000  1
