# generated using pymatgen
data_V2H38S4(N2O9)3
_symmetry_space_group_name_H-M   'P 1'
_cell_length_a   7.24670662
_cell_length_b   7.92121035
_cell_length_c   13.61126329
_cell_angle_alpha   90.74073365
_cell_angle_beta   91.92241361
_cell_angle_gamma   83.90241963
_symmetry_Int_Tables_number   1
_chemical_formula_structural   V2H38S4(N2O9)3
_chemical_formula_sum   'V2 H38 S4 N6 O27'
_cell_volume   776.43096479
_cell_formula_units_Z   1
loop_
 _symmetry_equiv_pos_site_id
 _symmetry_equiv_pos_as_xyz
  1  'x, y, z'
loop_
 _atom_site_type_symbol
 _atom_site_label
 _atom_site_symmetry_multiplicity
 _atom_site_fract_x
 _atom_site_fract_y
 _atom_site_fract_z
 _atom_site_occupancy
  V  V0  1  0.45618900  0.57147400  0.76783400  1
  V  V1  1  0.54381100  0.42852600  0.23216600  1
  H  H2  1  0.02199400  0.06027600  0.89667200  1
  H  H3  1  0.10384700  0.56397600  0.00148700  1
  H  H4  1  0.15277200  0.17773800  0.68217000  1
  H  H5  1  0.09829700  0.34017400  0.26767800  1
  H  H6  1  0.10381900  0.53337000  0.28480100  1
  H  H7  1  0.18644600  0.39681300  0.43253300  1
  H  H8  1  0.12954200  0.93166900  0.81208500  1
  H  H9  1  0.17078500  0.34145900  0.74757000  1
  H  H10  1  0.18284500  0.30187700  0.54732400  1
  H  H11  1  0.24470700  0.07605700  0.87620100  1
  H  H12  1  0.18817600  0.90443900  0.93634500  1
  H  H13  1  0.23595800  0.50441900  0.54004600  1
  H  H14  1  0.19034300  0.98623700  0.35808500  1
  H  H15  1  0.27996500  0.81397700  0.42090900  1
  H  H16  1  0.38137500  0.34486200  0.50147400  1
  H  H17  1  0.40336700  0.25898000  0.07703900  1
  H  H18  1  0.42762900  0.12963100  0.16794000  1
  H  H19  1  0.34909500  0.85010700  0.30076500  1
  H  H20  1  0.41774500  0.96392000  0.39606800  1
  H  H21  1  0.58225500  0.03608000  0.60393200  1
  H  H22  1  0.65090500  0.14989300  0.69923500  1
  H  H23  1  0.57237100  0.87036900  0.83205900  1
  H  H24  1  0.59663300  0.74102000  0.92296100  1
  H  H25  1  0.61862500  0.65513800  0.49852600  1
  H  H26  1  0.72003500  0.18602300  0.57909100  1
  H  H27  1  0.80965700  0.01376300  0.64191500  1
  H  H28  1  0.76404200  0.49558100  0.45995400  1
  H  H29  1  0.81182400  0.09556100  0.06365500  1
  H  H30  1  0.75529300  0.92394300  0.12379900  1
  H  H31  1  0.81715500  0.69812300  0.45267600  1
  H  H32  1  0.82921500  0.65854100  0.25243000  1
  H  H33  1  0.87045800  0.06833100  0.18791500  1
  H  H34  1  0.81355400  0.60318600  0.56746700  1
  H  H35  1  0.89618100  0.46663000  0.71519900  1
  H  H36  1  0.90170300  0.65982600  0.73232200  1
  H  H37  1  0.84722800  0.82226200  0.31783000  1
  H  H38  1  0.89615300  0.43602400  0.99851300  1
  H  H39  1  0.97800600  0.93972400  0.10332800  1
  S  S40  1  0.23775100  0.85794100  0.62462700  1
  S  S41  1  0.40881200  0.75648100  0.10105600  1
  S  S42  1  0.59118800  0.24351900  0.89894400  1
  S  S43  1  0.76224900  0.14205900  0.37537300  1
  N  N44  1  0.14633700  0.99141900  0.87993800  1
  N  N45  1  0.24298200  0.38607800  0.50500100  1
  N  N46  1  0.30810700  0.90222900  0.36912200  1
  N  N47  1  0.69189300  0.09777100  0.63087800  1
  N  N48  1  0.75701800  0.61392200  0.49499900  1
  N  N49  1  0.85366300  0.00858100  0.12006200  1
  O  O50  1  0.08039500  0.27236800  0.71567900  1
  O  O51  1  0.06528300  0.87971400  0.68152800  1
  O  O52  1  0.16441500  0.42172500  0.30560800  1
  O  O53  1  0.28378700  0.02377700  0.58812800  1
  O  O54  1  0.22126000  0.73546200  0.54175000  1
  O  O55  1  0.23140200  0.80243200  0.04494600  1
  O  O56  1  0.24905100  0.56113700  0.81156200  1
  O  O57  1  0.39915700  0.24952600  0.15085400  1
  O  O58  1  0.39286800  0.57907300  0.13948900  1
  O  O59  1  0.42677900  0.24496800  0.96012100  1
  O  O60  1  0.46733100  0.44895200  0.66791800  1
  O  O61  1  0.40023000  0.79374000  0.69287300  1
  O  O62  1  0.43033800  0.87375500  0.18586800  1
  O  O63  1  0.56966200  0.12624500  0.81413200  1
  O  O64  1  0.59977000  0.20626000  0.30712700  1
  O  O65  1  0.53266900  0.55104800  0.33208200  1
  O  O66  1  0.57322100  0.75503200  0.03987900  1
  O  O67  1  0.60713200  0.42092700  0.86051100  1
  O  O68  1  0.60084300  0.75047400  0.84914600  1
  O  O69  1  0.75094900  0.43886300  0.18843800  1
  O  O70  1  0.76859800  0.19756800  0.95505400  1
  O  O71  1  0.77874000  0.26453800  0.45825000  1
  O  O72  1  0.71621300  0.97622300  0.41187200  1
  O  O73  1  0.83558500  0.57827500  0.69439200  1
  O  O74  1  0.93471700  0.12028600  0.31847200  1
  O  O75  1  0.91960500  0.72763200  0.28432100  1
  O  O76  1  0.00000000  0.50000000  0.00000000  1
