# generated using pymatgen
data_VSbO4
_symmetry_space_group_name_H-M   'P 1'
_cell_length_a   17.05509494
_cell_length_b   21.76624210
_cell_length_c   21.76624210
_cell_angle_alpha   93.93754878
_cell_angle_beta   90.00000000
_cell_angle_gamma   90.00000000
_symmetry_Int_Tables_number   1
_chemical_formula_structural   VSbO4
_chemical_formula_sum   'V1 Sb1 O4'
_cell_volume   8061.10696554
_cell_formula_units_Z   1
loop_
 _symmetry_equiv_pos_site_id
 _symmetry_equiv_pos_as_xyz
  1  'x, y, z'
loop_
 _atom_site_type_symbol
 _atom_site_label
 _atom_site_symmetry_multiplicity
 _atom_site_fract_x
 _atom_site_fract_y
 _atom_site_fract_z
 _atom_site_occupancy
  V  V0  1  -0.00000000  -0.00000000  -0.00000000  1
  Sb  Sb1  1  0.50000000  0.50000000  0.50000000  1
  O  O2  1  -0.00000000  0.36862268  0.36862268  1
  O  O3  1  0.50000000  0.55918021  0.44081979  1
  O  O4  1  0.50000000  0.44081979  0.55918021  1
  O  O5  1  -0.00000000  0.63137732  0.63137732  1
