# generated using pymatgen
data_V5(FeO6)2
_symmetry_space_group_name_H-M   'P 1'
_cell_length_a   7.11783921
_cell_length_b   6.65904072
_cell_length_c   21.27222675
_cell_angle_alpha   93.33550820
_cell_angle_beta   91.09417823
_cell_angle_gamma   110.36980164
_symmetry_Int_Tables_number   1
_chemical_formula_structural   V5(FeO6)2
_chemical_formula_sum   'V20 Fe8 O48'
_cell_volume   942.77400336
_cell_formula_units_Z   4
loop_
 _symmetry_equiv_pos_site_id
 _symmetry_equiv_pos_as_xyz
  1  'x, y, z'
loop_
 _atom_site_type_symbol
 _atom_site_label
 _atom_site_symmetry_multiplicity
 _atom_site_fract_x
 _atom_site_fract_y
 _atom_site_fract_z
 _atom_site_occupancy
  V  V0  1  0.21459234  0.87972602  0.51885547  1
  V  V1  1  0.17486100  0.88235706  0.85327128  1
  V  V2  1  0.36594643  0.53469846  0.10859434  1
  V  V3  1  0.41210238  0.59249666  0.58159726  1
  V  V4  1  0.17854898  0.73744635  0.21129713  1
  V  V5  1  0.06796193  0.28808300  0.21303643  1
  V  V6  1  0.04310720  0.28076907  0.52673482  1
  V  V7  1  0.03589781  0.27616146  0.84984343  1
  V  V8  1  0.76819102  0.85596432  0.20347175  1
  V  V9  1  0.69432562  0.89837378  0.48577536  1
  V  V10  1  0.73100880  0.89865929  0.86211151  1
  V  V11  1  0.33098873  0.12141112  0.32054152  1
  V  V12  1  0.33834200  0.04981002  0.70643858  1
  V  V13  1  0.88260348  0.66478682  0.97936953  1
  V  V14  1  0.86535924  0.75196780  0.34525425  1
  V  V15  1  0.87900203  0.73438945  0.65225327  1
  V  V16  1  0.59762502  0.37981439  0.42899843  1
  V  V17  1  0.87945726  0.21422373  0.36838455  1
  V  V18  1  0.93316656  0.19410746  0.01902217  1
  V  V19  1  0.85767355  0.21405319  0.68861439  1
  Fe  Fe20  1  0.23501607  0.58421724  0.37517648  1
  Fe  Fe21  1  0.31972487  0.56157843  0.75171082  1
  Fe  Fe22  1  0.31451017  0.63808759  0.95078840  1
  Fe  Fe23  1  0.70176180  0.46251068  0.78193234  1
  Fe  Fe24  1  0.20792354  0.04308037  0.10194356  1
  Fe  Fe25  1  0.63425014  0.35214437  0.19608498  1
  Fe  Fe26  1  0.59642281  0.24526130  0.57737375  1
  Fe  Fe27  1  0.55009766  0.21988663  0.90772119  1
  O  O28  1  0.27747529  0.80999574  0.13210655  1
  O  O29  1  0.24625746  0.84423472  0.44036921  1
  O  O30  1  0.28663270  0.84780849  0.76787852  1
  O  O31  1  0.94119386  0.50394281  0.19589964  1
  O  O32  1  0.16773130  0.56200371  0.86470857  1
  O  O33  1  0.15672531  0.59555904  0.54212462  1
  O  O34  1  0.40929127  0.61566066  0.03430482  1
  O  O35  1  0.35348415  0.59631614  0.66014434  1
  O  O36  1  0.23860212  0.80372590  0.29679831  1
  O  O37  1  0.73803945  0.10072303  0.21834513  1
  O  O38  1  0.48509208  0.89103265  0.55056615  1
  O  O39  1  0.47155235  0.91316459  0.90831777  1
  O  O40  1  0.09812277  0.28437013  0.10261179  1
  O  O41  1  0.01726891  0.93017717  0.02725641  1
  O  O42  1  0.05405702  0.30099369  0.44151105  1
  O  O43  1  0.03277030  0.96279540  0.18856729  1
  O  O44  1  0.04861099  0.03098348  0.34095599  1
  O  O45  1  0.94711503  0.94196996  0.51557839  1
  O  O46  1  0.05812047  0.34268598  0.75809130  1
  O  O47  1  0.14503289  0.91816164  0.64225405  1
  O  O48  1  0.96119948  0.98254891  0.81316197  1
  O  O49  1  0.30897783  0.53722064  0.20326353  1
  O  O50  1  0.55530154  0.60463084  0.48017036  1
  O  O51  1  0.56804521  0.67639331  0.81301203  1
  O  O52  1  0.64847279  0.71136346  0.13799632  1
  O  O53  1  0.73795308  0.90853375  0.39986403  1
  O  O54  1  0.78948050  0.91546462  0.69324553  1
  O  O55  1  0.36157451  0.21025563  0.24638348  1
  O  O56  1  0.27932563  0.19151108  0.87926685  1
  O  O57  1  0.30018015  0.27104065  0.55023277  1
  O  O58  1  0.39339913  0.38914160  0.37404140  1
  O  O59  1  0.63673493  0.47189436  0.96130407  1
  O  O60  1  0.40565872  0.30874613  0.74999145  1
  O  O61  1  0.70136704  0.12486775  0.03913517  1
  O  O62  1  0.72830595  0.22900738  0.83535928  1
  O  O63  1  0.44867764  0.28785763  0.11826954  1
  O  O64  1  0.59142225  0.15999609  0.35653918  1
  O  O65  1  0.56534088  0.13883208  0.66394748  1
  O  O66  1  0.66988079  0.20776014  0.48357436  1
  O  O67  1  0.71217293  0.68617572  0.26685157  1
  O  O68  1  0.68127279  0.58128486  0.59323315  1
  O  O69  1  0.90977228  0.75250216  0.89816066  1
  O  O70  1  0.84727466  0.51794209  0.39586529  1
  O  O71  1  0.03289802  0.50230677  0.99399621  1
  O  O72  1  0.85419749  0.52636661  0.70519291  1
  O  O73  1  0.02833521  0.36502987  0.30701917  1
  O  O74  1  0.90171975  0.25340313  0.59736301  1
  O  O75  1  0.89731363  0.13555078  0.92456832  1
