# generated using pymatgen
data_UNb4O12
_symmetry_space_group_name_H-M   'P 1'
_cell_length_a   5.92804042
_cell_length_b   4.19175758
_cell_length_c   23.28596471
_cell_angle_alpha   84.83604217
_cell_angle_beta   82.68710493
_cell_angle_gamma   45.00000000
_symmetry_Int_Tables_number   1
_chemical_formula_structural   UNb4O12
_chemical_formula_sum   'U1 Nb4 O12'
_cell_volume   405.82563441
_cell_formula_units_Z   1
loop_
 _symmetry_equiv_pos_site_id
 _symmetry_equiv_pos_as_xyz
  1  'x, y, z'
loop_
 _atom_site_type_symbol
 _atom_site_label
 _atom_site_symmetry_multiplicity
 _atom_site_fract_x
 _atom_site_fract_y
 _atom_site_fract_z
 _atom_site_occupancy
  U  U0  1  0.50000000  0.00000000  -0.00000000  1
  Nb  Nb1  1  0.45318794  0.50000000  0.09362312  1
  Nb  Nb2  1  0.04681206  0.50000000  0.90637688  1
  Nb  Nb3  1  0.54681206  0.50000000  0.90637688  1
  Nb  Nb4  1  0.95318794  0.50000000  0.09362312  1
  O  O5  1  -0.00000000  0.50000000  -0.00000000  1
  O  O6  1  0.02751733  0.00000000  0.30057068  1
  O  O7  1  0.02751733  0.64439366  0.30057068  1
  O  O8  1  0.25000000  0.50000000  0.50000000  1
  O  O9  1  0.50000000  0.50000000  -0.00000000  1
  O  O10  1  0.67191199  0.00000000  0.30057068  1
  O  O11  1  0.67191199  0.35560634  0.30057068  1
  O  O12  1  0.32808801  0.64439366  0.69942932  1
  O  O13  1  0.75000000  0.50000000  0.50000000  1
  O  O14  1  0.32808801  0.00000000  0.69942932  1
  O  O15  1  0.97248267  0.35560634  0.69942932  1
  O  O16  1  0.97248267  0.00000000  0.69942932  1
