# generated using pymatgen
data_V3(Bi4O11)2
_symmetry_space_group_name_H-M   'P 1'
_cell_length_a   5.61994541
_cell_length_b   8.54042812
_cell_length_c   10.98179459
_cell_angle_alpha   88.85144643
_cell_angle_beta   87.11835376
_cell_angle_gamma   113.40154430
_symmetry_Int_Tables_number   1
_chemical_formula_structural   V3(Bi4O11)2
_chemical_formula_sum   'V3 Bi8 O22'
_cell_volume   482.66173949
_cell_formula_units_Z   1
loop_
 _symmetry_equiv_pos_site_id
 _symmetry_equiv_pos_as_xyz
  1  'x, y, z'
loop_
 _atom_site_type_symbol
 _atom_site_label
 _atom_site_symmetry_multiplicity
 _atom_site_fract_x
 _atom_site_fract_y
 _atom_site_fract_z
 _atom_site_occupancy
  V  V0  1  0.11678800  0.96958600  0.26064800  1
  V  V1  1  0.50000000  0.00000000  0.00000000  1
  V  V2  1  0.88321200  0.03041400  0.73935200  1
  Bi  Bi3  1  0.13414200  0.31631300  0.02380600  1
  Bi  Bi4  1  0.08562200  0.32115300  0.47728500  1
  Bi  Bi5  1  0.33311200  0.63757500  0.75535800  1
  Bi  Bi6  1  0.40380100  0.68640000  0.24578700  1
  Bi  Bi7  1  0.59619900  0.31360000  0.75421300  1
  Bi  Bi8  1  0.66688800  0.36242500  0.24464200  1
  Bi  Bi9  1  0.86585800  0.68368700  0.97619400  1
  Bi  Bi10  1  0.91437800  0.67884700  0.52271500  1
  O  O11  1  0.02872800  0.51328100  0.13322400  1
  O  O12  1  0.05724800  0.54859300  0.38211500  1
  O  O13  1  0.23227500  0.19843100  0.24019800  1
  O  O14  1  0.27750000  0.78195000  0.61778900  1
  O  O15  1  0.31124300  0.83166000  0.88830200  1
  O  O16  1  0.19865500  0.12799000  0.68505000  1
  O  O17  1  0.19012200  0.88497800  0.12043100  1
  O  O18  1  0.27558500  0.90950900  0.36649200  1
  O  O19  1  0.64677900  0.85748500  0.05569100  1
  O  O20  1  0.48595200  0.49620500  0.63618600  1
  O  O21  1  0.46096600  0.49373400  0.88327700  1
  O  O22  1  0.53903400  0.50626600  0.11672300  1
  O  O23  1  0.51404800  0.50379500  0.36381400  1
  O  O24  1  0.35322100  0.14251500  0.94430900  1
  O  O25  1  0.80987800  0.11502200  0.87956900  1
  O  O26  1  0.80134500  0.87201000  0.31495000  1
  O  O27  1  0.68875700  0.16834000  0.11169800  1
  O  O28  1  0.72250000  0.21805000  0.38221100  1
  O  O29  1  0.76772500  0.80156900  0.75980200  1
  O  O30  1  0.72441500  0.09049100  0.63350800  1
  O  O31  1  0.94275200  0.45140700  0.61788500  1
  O  O32  1  0.97127200  0.48671900  0.86677600  1
