# generated using pymatgen
data_V2Bi4O11
_symmetry_space_group_name_H-M   'P 1'
_cell_length_a   6.03349563
_cell_length_b   5.96735023
_cell_length_c   8.13041471
_cell_angle_alpha   93.49417196
_cell_angle_beta   111.75539427
_cell_angle_gamma   80.34768152
_symmetry_Int_Tables_number   1
_chemical_formula_structural   V2Bi4O11
_chemical_formula_sum   'V2 Bi4 O11'
_cell_volume   268.02859149
_cell_formula_units_Z   1
loop_
 _symmetry_equiv_pos_site_id
 _symmetry_equiv_pos_as_xyz
  1  'x, y, z'
loop_
 _atom_site_type_symbol
 _atom_site_label
 _atom_site_symmetry_multiplicity
 _atom_site_fract_x
 _atom_site_fract_y
 _atom_site_fract_z
 _atom_site_occupancy
  V  V0  1  0.51034900  0.42854000  0.99848300  1
  V  V1  1  0.94687000  0.98842000  0.99787600  1
  Bi  Bi2  1  0.11022700  0.45283500  0.33915900  1
  Bi  Bi3  1  0.25718100  0.94708300  0.65264800  1
  Bi  Bi4  1  0.60119300  0.94640000  0.34294900  1
  Bi  Bi5  1  0.76952400  0.44909000  0.65612300  1
  O  O6  1  0.99036900  0.73647700  0.50738000  1
  O  O7  1  0.98581300  0.23812100  0.48525900  1
  O  O8  1  0.24399500  0.40079300  0.99927000  1
  O  O9  1  0.17572600  0.05420700  0.19438100  1
  O  O10  1  0.47326300  0.56159200  0.80077700  1
  O  O11  1  0.47953200  0.73422200  0.48735500  1
  O  O12  1  0.49890100  0.23516300  0.51160900  1
  O  O13  1  0.65671900  0.13514900  0.99677200  1
  O  O14  1  0.67289700  0.55933100  0.19681600  1
  O  O15  1  0.97871900  0.05301600  0.80039400  1
  O  O16  1  0.92472200  0.71646100  0.99935000  1
