# generated using pymatgen
data_Tm3B3O7
_symmetry_space_group_name_H-M   'P 1'
_cell_length_a   3.94289725
_cell_length_b   3.94289710
_cell_length_c   24.90690700
_cell_angle_alpha   90.00000000
_cell_angle_beta   90.00000000
_cell_angle_gamma   124.27092604
_symmetry_Int_Tables_number   1
_chemical_formula_structural   Tm3B3O7
_chemical_formula_sum   'Tm6 B6 O14'
_cell_volume   319.98725204
_cell_formula_units_Z   2
loop_
 _symmetry_equiv_pos_site_id
 _symmetry_equiv_pos_as_xyz
  1  'x, y, z'
loop_
 _atom_site_type_symbol
 _atom_site_label
 _atom_site_symmetry_multiplicity
 _atom_site_fract_x
 _atom_site_fract_y
 _atom_site_fract_z
 _atom_site_occupancy
  Tm  Tm0  1  0.00536400  0.99463600  0.00430400  1
  Tm  Tm1  1  0.00006300  0.99993700  0.16796800  1
  Tm  Tm2  1  0.00006300  0.99993700  0.33203200  1
  Tm  Tm3  1  0.00536400  0.99463600  0.49569600  1
  Tm  Tm4  1  0.01124100  0.98875900  0.66827700  1
  Tm  Tm5  1  0.01124100  0.98875900  0.83172300  1
  B  B6  1  0.24344800  0.75655200  0.08574500  1
  B  B7  1  0.24344800  0.75655200  0.41425500  1
  B  B8  1  0.25335600  0.74664400  0.75000000  1
  B  B9  1  0.75974400  0.24025600  0.25000000  1
  B  B10  1  0.64084900  0.35915100  0.91813400  1
  B  B11  1  0.64084900  0.35915100  0.58186600  1
  O  O12  1  0.02720700  0.97279300  0.91800500  1
  O  O13  1  0.34888300  0.65111700  0.03804600  1
  O  O14  1  0.33984200  0.66015800  0.36536400  1
  O  O15  1  0.35493600  0.64506400  0.70169700  1
  O  O16  1  0.33984200  0.66015800  0.13463600  1
  O  O17  1  0.34888300  0.65111700  0.46195400  1
  O  O18  1  0.35493600  0.64506400  0.79830300  1
  O  O19  1  0.02720700  0.97279300  0.58199500  1
  O  O20  1  0.65953600  0.34046400  0.29831100  1
  O  O21  1  0.65953600  0.34046400  0.20168900  1
  O  O22  1  0.67960200  0.32039800  0.52901800  1
  O  O23  1  0.68248000  0.31752000  0.86531300  1
  O  O24  1  0.68248000  0.31752000  0.63468700  1
  O  O25  1  0.67960200  0.32039800  0.97098200  1
