# generated using pymatgen
data_V18Cu2O45
_symmetry_space_group_name_H-M   'P 1'
_cell_length_a   16.97431636
_cell_length_b   9.25285763
_cell_length_c   14.52702564
_cell_angle_alpha   68.04914236
_cell_angle_beta   37.54622566
_cell_angle_gamma   58.72738058
_symmetry_Int_Tables_number   1
_chemical_formula_structural   V18Cu2O45
_chemical_formula_sum   'V18 Cu2 O45'
_cell_volume   1185.27886129
_cell_formula_units_Z   1
loop_
 _symmetry_equiv_pos_site_id
 _symmetry_equiv_pos_as_xyz
  1  'x, y, z'
loop_
 _atom_site_type_symbol
 _atom_site_label
 _atom_site_symmetry_multiplicity
 _atom_site_fract_x
 _atom_site_fract_y
 _atom_site_fract_z
 _atom_site_occupancy
  V  V0  1  0.28165900  0.10508400  0.11095700  1
  V  V1  1  0.07161700  0.78312400  0.09282300  1
  V  V2  1  0.06151400  0.40493300  0.54111900  1
  V  V3  1  0.57019100  0.21100900  0.07555200  1
  V  V4  1  0.24215800  0.61560100  0.43104600  1
  V  V5  1  0.50674100  0.74021500  0.09087300  1
  V  V6  1  0.17307600  0.24731000  0.89221600  1
  V  V7  1  0.37893100  0.39890700  0.55448200  1
  V  V8  1  0.05170200  0.87893200  0.89069900  1
  V  V9  1  0.94619200  0.17188900  0.11968800  1
  V  V10  1  0.56145400  0.61792800  0.43806600  1
  V  V11  1  0.85061800  0.70820900  0.11553100  1
  V  V12  1  0.49973100  0.26910100  0.90448200  1
  V  V13  1  0.69969000  0.41507800  0.56466000  1
  V  V14  1  0.35848700  0.82077500  0.91439800  1
  V  V15  1  0.90610100  0.61035100  0.43389200  1
  V  V16  1  0.84639600  0.25955200  0.89717900  1
  V  V17  1  0.77613000  0.77505300  0.94757600  1
  Cu  Cu18  1  0.55406200  0.00786400  0.39514700  1
  Cu  Cu19  1  0.76479100  0.99688200  0.59612600  1
  O  O20  1  0.02865900  0.98110000  0.99494200  1
  O  O21  1  0.04885700  0.26864000  0.08776400  1
  O  O22  1  0.01166000  0.70416800  0.03145400  1
  O  O23  1  0.30120900  0.99521900  0.01808200  1
  O  O24  1  0.11810100  0.18796300  0.27376000  1
  O  O25  1  0.03306700  0.62410300  0.23348500  1
  O  O26  1  0.99637400  0.95045500  0.19538900  1
  O  O27  1  0.18836900  0.22123800  0.45968500  1
  O  O28  1  0.46427100  0.28597200  0.05550500  1
  O  O29  1  0.13024800  0.56030100  0.46904200  1
  O  O30  1  0.35740600  0.66934000  0.02182900  1
  O  O31  1  0.67659600  0.99279400  0.01223100  1
  O  O32  1  0.47482800  0.23318600  0.25022900  1
  O  O33  1  0.27717300  0.47157200  0.52827800  1
  O  O34  1  0.40382700  0.61274900  0.23380700  1
  O  O35  1  0.15425400  0.80464900  0.50527400  1
  O  O36  1  0.39038500  0.95772000  0.13520300  1
  O  O37  1  0.27966900  0.03905500  0.84559800  1
  O  O38  1  0.49435800  0.20101200  0.47530900  1
  O  O39  1  0.78090800  0.32217500  0.04345100  1
  O  O40  1  0.26539400  0.39331900  0.75184500  1
  O  O41  1  0.46559000  0.53495200  0.46484800  1
  O  O42  1  0.63766700  0.70411600  0.07014000  1
  O  O43  1  0.21643300  0.79636700  0.73185100  1
  O  O44  1  0.77589700  0.26341700  0.26106100  1
  O  O45  1  0.34369600  0.27923100  0.99241900  1
  O  O46  1  0.60120900  0.48796900  0.53912900  1
  O  O47  1  0.75507400  0.58822900  0.25299600  1
  O  O48  1  0.24552600  0.72954000  0.94993700  1
  O  O49  1  0.49842600  0.82828100  0.46372700  1
  O  O50  1  0.73677300  0.90712900  0.19196100  1
  O  O51  1  0.62769400  0.08289100  0.80217000  1
  O  O52  1  0.79529100  0.20723700  0.51363100  1
  O  O53  1  0.56904100  0.41639100  0.76749100  1
  O  O54  1  0.79661200  0.54081400  0.48229700  1
  O  O55  1  0.52220100  0.77354300  0.74402800  1
  O  O56  1  0.70161400  0.29843400  0.94453800  1
  O  O57  1  0.97910100  0.45936800  0.49202900  1
  O  O58  1  0.59482100  0.67966900  0.92969300  1
  O  O59  1  0.82596500  0.80131100  0.51229000  1
  O  O60  1  0.95573300  0.03386100  0.85685700  1
  O  O61  1  0.94040500  0.38566800  0.74299900  1
  O  O62  1  0.87014200  0.76041600  0.77325300  1
  O  O63  1  0.05119100  0.26962000  0.91415400  1
  O  O64  1  0.89197600  0.69421800  0.95962900  1
