# generated using pymatgen
data_TlCu7S4
_symmetry_space_group_name_H-M   'P 1'
_cell_length_a   3.83898500
_cell_length_b   7.42789114
_cell_length_c   7.44708377
_cell_angle_alpha   86.28540807
_cell_angle_beta   104.81694300
_cell_angle_gamma   104.78437681
_symmetry_Int_Tables_number   1
_chemical_formula_structural   TlCu7S4
_chemical_formula_sum   'Tl1 Cu7 S4'
_cell_volume   198.49964981
_cell_formula_units_Z   1
loop_
 _symmetry_equiv_pos_site_id
 _symmetry_equiv_pos_as_xyz
  1  'x, y, z'
loop_
 _atom_site_type_symbol
 _atom_site_label
 _atom_site_symmetry_multiplicity
 _atom_site_fract_x
 _atom_site_fract_y
 _atom_site_fract_z
 _atom_site_occupancy
  Tl  Tl0  1  0.24784900  0.50657900  0.50010600  1
  Cu  Cu1  1  0.61745900  0.83901700  0.88461600  1
  Cu  Cu2  1  0.90589700  0.15734000  0.11240300  1
  Cu  Cu3  1  0.23576000  0.88021300  0.15508900  1
  Cu  Cu4  1  0.20032000  0.10821300  0.85242400  1
  Cu  Cu5  1  0.57308600  0.43179200  0.02348200  1
  Cu  Cu6  1  0.84935700  0.93711300  0.40735200  1
  Cu  Cu7  1  0.50889400  0.06724500  0.60229700  1
  S  S8  1  0.79665400  0.30624000  0.82675500  1
  S  S9  1  0.66077200  0.69778000  0.16442100  1
  S  S10  1  0.02230100  0.82441900  0.69527000  1
  S  S11  1  0.50765000  0.16805000  0.30378500  1
