# generated using pymatgen
data_TiNF
_symmetry_space_group_name_H-M   'P 1'
_cell_length_a   25.12999567
_cell_length_b   25.12999562
_cell_length_c   24.65107032
_cell_angle_alpha   111.37697763
_cell_angle_beta   111.37697762
_cell_angle_gamma   90.15292815
_symmetry_Int_Tables_number   1
_chemical_formula_structural   TiNF
_chemical_formula_sum   'Ti2 N2 F2'
_cell_volume   13333.31732524
_cell_formula_units_Z   2
loop_
 _symmetry_equiv_pos_site_id
 _symmetry_equiv_pos_as_xyz
  1  'x, y, z'
loop_
 _atom_site_type_symbol
 _atom_site_label
 _atom_site_symmetry_multiplicity
 _atom_site_fract_x
 _atom_site_fract_y
 _atom_site_fract_z
 _atom_site_occupancy
  Ti  Ti0  1  0.37212780  0.12212684  0.24425765  1
  Ti  Ti1  1  0.62212684  0.87212780  0.74425765  1
  N  N2  1  0.33503551  0.08503592  0.17007077  1
  N  N3  1  0.58503592  0.83503551  0.67007077  1
  F  F4  1  0.41783698  0.16783695  0.33567158  1
  F  F5  1  0.66783695  0.91783698  0.83567158  1
