# generated using pymatgen
data_Dy3(In2Co)2
_symmetry_space_group_name_H-M   'P 1'
_cell_length_a   8.18234643
_cell_length_b   8.18234643
_cell_length_c   3.49854900
_cell_angle_alpha   90.00000000
_cell_angle_beta   90.00000000
_cell_angle_gamma   120.00000351
_symmetry_Int_Tables_number   1
_chemical_formula_structural   Dy3(In2Co)2
_chemical_formula_sum   'Dy3 In4 Co2'
_cell_volume   202.84966918
_cell_formula_units_Z   1
loop_
 _symmetry_equiv_pos_site_id
 _symmetry_equiv_pos_as_xyz
  1  'x, y, z'
loop_
 _atom_site_type_symbol
 _atom_site_label
 _atom_site_symmetry_multiplicity
 _atom_site_fract_x
 _atom_site_fract_y
 _atom_site_fract_z
 _atom_site_occupancy
  Dy  Dy0  1  0.41777400  0.07281100  0.50000000  1
  Dy  Dy1  1  0.65503700  0.58222600  0.50000000  1
  Dy  Dy2  1  0.92718900  0.34496300  0.50000000  1
  In  In3  1  0.33333300  0.66666700  0.50000000  1
  In  In4  1  0.24382600  0.27903600  0.00000000  1
  In  In5  1  0.03521000  0.75617400  0.00000000  1
  In  In6  1  0.72096400  0.96479000  0.00000000  1
  Co  Co7  1  0.66666700  0.33333300  0.00000000  1
  Co  Co8  1  0.00000000  0.00000000  0.50000000  1
