# generated using pymatgen
data_Ho2Mo2C3
_symmetry_space_group_name_H-M   'P 1'
_cell_length_a   5.91688175
_cell_length_b   5.91688175
_cell_length_c   5.69187242
_cell_angle_alpha   72.56186139
_cell_angle_beta   72.56186139
_cell_angle_gamma   33.24690249
_symmetry_Int_Tables_number   1
_chemical_formula_structural   Ho2Mo2C3
_chemical_formula_sum   'Ho2 Mo2 C3'
_cell_volume   103.76881257
_cell_formula_units_Z   1
loop_
 _symmetry_equiv_pos_site_id
 _symmetry_equiv_pos_as_xyz
  1  'x, y, z'
loop_
 _atom_site_type_symbol
 _atom_site_label
 _atom_site_symmetry_multiplicity
 _atom_site_fract_x
 _atom_site_fract_y
 _atom_site_fract_z
 _atom_site_occupancy
  Ho  Ho0  1  0.38601300  0.38601300  0.81901600  1
  Ho  Ho1  1  0.61398700  0.61398700  0.18098400  1
  Mo  Mo2  1  0.14945200  0.14945200  0.62693700  1
  Mo  Mo3  1  0.85054800  0.85054800  0.37306300  1
  C  C4  1  0.00000000  0.00000000  0.50000000  1
  C  C5  1  0.72857100  0.72857100  0.74284900  1
  C  C6  1  0.27142900  0.27142900  0.25715100  1
