# generated using pymatgen
data_V2Bi4O11
_symmetry_space_group_name_H-M   'P 1'
_cell_length_a   7.42156587
_cell_length_b   9.08043964
_cell_length_c   12.29319604
_cell_angle_alpha   94.79856578
_cell_angle_beta   90.05739918
_cell_angle_gamma   76.52085508
_symmetry_Int_Tables_number   1
_chemical_formula_structural   V2Bi4O11
_chemical_formula_sum   'V6 Bi12 O33'
_cell_volume   802.66188258
_cell_formula_units_Z   3
loop_
 _symmetry_equiv_pos_site_id
 _symmetry_equiv_pos_as_xyz
  1  'x, y, z'
loop_
 _atom_site_type_symbol
 _atom_site_label
 _atom_site_symmetry_multiplicity
 _atom_site_fract_x
 _atom_site_fract_y
 _atom_site_fract_z
 _atom_site_occupancy
  V  V0  1  0.19884700  0.97725900  0.42913000  1
  V  V1  1  0.23884000  0.99546300  0.05573200  1
  V  V2  1  0.28489400  0.00159600  0.74161700  1
  V  V3  1  0.65861700  0.98850300  0.21378200  1
  V  V4  1  0.78007200  0.98165800  0.89765900  1
  V  V5  1  0.73549000  0.00371600  0.62890600  1
  Bi  Bi6  1  0.98240000  0.30389600  0.25299400  1
  Bi  Bi7  1  0.99560700  0.32942400  0.91999200  1
  Bi  Bi8  1  0.12983200  0.29778800  0.60272300  1
  Bi  Bi9  1  0.49258200  0.65397500  0.86505100  1
  Bi  Bi10  1  0.36373200  0.68372800  0.25932300  1
  Bi  Bi11  1  0.47726200  0.69268700  0.56038000  1
  Bi  Bi12  1  0.58444300  0.25233300  0.41551100  1
  Bi  Bi13  1  0.57790600  0.25927000  0.06601500  1
  Bi  Bi14  1  0.61984300  0.40114100  0.68223700  1
  Bi  Bi15  1  0.92112000  0.69115100  0.40589800  1
  Bi  Bi16  1  0.98104800  0.67666900  0.75509400  1
  Bi  Bi17  1  0.97902400  0.68776500  0.05677500  1
  O  O18  1  0.19944100  0.98613200  0.57342100  1
  O  O19  1  0.11124600  0.20480200  0.75473300  1
  O  O20  1  0.06811900  0.16226500  0.09263600  1
  O  O21  1  0.11791500  0.16255800  0.38011600  1
  O  O22  1  0.27564100  0.01470600  0.91920100  1
  O  O23  1  0.08676200  0.84208400  0.34234700  1
  O  O24  1  0.28054900  0.46256400  0.69120900  1
  O  O25  1  0.23230200  0.50861300  0.81027200  1
  O  O26  1  0.23835100  0.48906300  0.02657900  1
  O  O27  1  0.22301600  0.58653500  0.47926700  1
  O  O28  1  0.21558300  0.49502700  0.14878500  1
  O  O29  1  0.26302100  0.52139300  0.36452700  1
  O  O30  1  0.32321300  0.78258200  0.74019900  1
  O  O31  1  0.20039000  0.82396300  0.10217300  1
  O  O32  1  0.74236600  0.01984800  0.05955000  1
  O  O33  1  0.42107400  0.82112200  0.40416400  1
  O  O34  1  0.42712800  0.01176000  0.13678500  1
  O  O35  1  0.49733100  0.05502500  0.67978700  1
  O  O36  1  0.74690800  0.21599100  0.91719400  1
  O  O37  1  0.74300700  0.18441300  0.25263400  1
  O  O38  1  0.51467400  0.05376500  0.33929700  1
  O  O39  1  0.77996400  0.11350600  0.51845100  1
  O  O40  1  0.85870900  0.56583400  0.87891700  1
  O  O41  1  0.78053300  0.49906500  0.05408600  1
  O  O42  1  0.65347200  0.56427200  0.39899200  1
  O  O43  1  0.79725100  0.42435600  0.40956100  1
  O  O44  1  0.89522400  0.46884400  0.65297900  1
  O  O45  1  0.71822100  0.43173800  0.14679300  1
  O  O46  1  0.63459000  0.86334900  0.85602700  1
  O  O47  1  0.78164000  0.80132200  0.56271200  1
  O  O48  1  0.99402200  0.82836100  0.91634100  1
  O  O49  1  0.77454400  0.80284800  0.23219000  1
  O  O50  1  0.87823800  0.98627100  0.74825300  1
