# generated using pymatgen
data_Ti2FeO5
_symmetry_space_group_name_H-M   'P 1'
_cell_length_a   11.41661878
_cell_length_b   5.30601666
_cell_length_c   10.15999400
_cell_angle_alpha   90.00000000
_cell_angle_beta   90.00000000
_cell_angle_gamma   111.14514176
_symmetry_Int_Tables_number   1
_chemical_formula_structural   Ti2FeO5
_chemical_formula_sum   'Ti12 Fe6 O30'
_cell_volume   574.02048086
_cell_formula_units_Z   6
loop_
 _symmetry_equiv_pos_site_id
 _symmetry_equiv_pos_as_xyz
  1  'x, y, z'
loop_
 _atom_site_type_symbol
 _atom_site_label
 _atom_site_symmetry_multiplicity
 _atom_site_fract_x
 _atom_site_fract_y
 _atom_site_fract_z
 _atom_site_occupancy
  Ti  Ti0  1  0.04209000  0.26859700  0.56005600  1
  Ti  Ti1  1  0.04494600  0.27016200  0.93872000  1
  Ti  Ti2  1  0.26782100  0.61657000  0.75092800  1
  Ti  Ti3  1  0.29206700  0.73113600  0.06331300  1
  Ti  Ti4  1  0.37460000  0.26886400  0.56331300  1
  Ti  Ti5  1  0.39884600  0.38343000  0.25092800  1
  Ti  Ti6  1  0.62457600  0.73140300  0.06005600  1
  Ti  Ti7  1  0.62172000  0.72983800  0.43872000  1
  Ti  Ti8  1  0.70954300  0.26802500  0.56817400  1
  Ti  Ti9  1  0.71172600  0.27426400  0.93428300  1
  Ti  Ti10  1  0.95712400  0.73197500  0.06817400  1
  Ti  Ti11  1  0.95494100  0.72573600  0.43428300  1
  Fe  Fe12  1  0.06373100  0.38961400  0.25130200  1
  Fe  Fe13  1  0.28679600  0.72545100  0.43057500  1
  Fe  Fe14  1  0.37987100  0.27454900  0.93057500  1
  Fe  Fe15  1  0.60293600  0.61038600  0.75130200  1
  Fe  Fe16  1  0.72982500  0.37783400  0.25032300  1
  Fe  Fe17  1  0.93684100  0.62216600  0.75032300  1
  O  O18  1  0.01704200  0.09559400  0.11140900  1
  O  O19  1  0.02044600  0.08891200  0.38779300  1
  O  O20  1  0.08318400  0.45608000  0.74617900  1
  O  O21  1  0.09371700  0.61724400  0.43715100  1
  O  O22  1  0.10932000  0.64245800  0.06908100  1
  O  O23  1  0.22681900  0.37628700  0.56897200  1
  O  O24  1  0.22266800  0.38557200  0.92926900  1
  O  O25  1  0.26631500  0.52071400  0.23892800  1
  O  O26  1  0.31426600  0.92075100  0.62963600  1
  O  O27  1  0.31743900  0.88105800  0.88627900  1
  O  O28  1  0.35240100  0.07924900  0.12963600  1
  O  O29  1  0.34922800  0.11894200  0.38627900  1
  O  O30  1  0.40035200  0.47928600  0.73892800  1
  O  O31  1  0.44399800  0.61442800  0.42926900  1
  O  O32  1  0.43984700  0.62371300  0.06897200  1
  O  O33  1  0.55734700  0.35754200  0.56908100  1
  O  O34  1  0.57295000  0.38275600  0.93715100  1
  O  O35  1  0.58348300  0.54392000  0.24617900  1
  O  O36  1  0.64962500  0.90440600  0.61140900  1
  O  O37  1  0.64622100  0.91108800  0.88779300  1
  O  O38  1  0.68966600  0.08603100  0.11131400  1
  O  O39  1  0.68195400  0.07999400  0.38661200  1
  O  O40  1  0.73933500  0.41377500  0.74785900  1
  O  O41  1  0.77314800  0.63200300  0.06236100  1
  O  O42  1  0.76572400  0.61077500  0.43948400  1
  O  O43  1  0.89351900  0.36799700  0.56236100  1
  O  O44  1  0.90094300  0.38922500  0.93948400  1
  O  O45  1  0.92733100  0.58622500  0.24785900  1
  O  O46  1  0.97700000  0.91396900  0.61131400  1
  O  O47  1  0.98471200  0.92000600  0.88661200  1
