# generated using pymatgen
data_V4OF11
_symmetry_space_group_name_H-M   'P 1'
_cell_length_a   5.23004100
_cell_length_b   5.46060773
_cell_length_c   17.55084945
_cell_angle_alpha   91.12158123
_cell_angle_beta   98.56879280
_cell_angle_gamma   61.38719349
_symmetry_Int_Tables_number   1
_chemical_formula_structural   V4OF11
_chemical_formula_sum   'V8 O2 F22'
_cell_volume   434.33859658
_cell_formula_units_Z   2
loop_
 _symmetry_equiv_pos_site_id
 _symmetry_equiv_pos_as_xyz
  1  'x, y, z'
loop_
 _atom_site_type_symbol
 _atom_site_label
 _atom_site_symmetry_multiplicity
 _atom_site_fract_x
 _atom_site_fract_y
 _atom_site_fract_z
 _atom_site_occupancy
  V  V0  1  0.74024100  0.62774700  0.12311000  1
  V  V1  1  0.75078500  0.12590900  0.62472000  1
  V  V2  1  0.49487900  0.24725300  0.25189000  1
  V  V3  1  0.50197500  0.74909100  0.75028000  1
  V  V4  1  0.26403300  0.89306400  0.37230100  1
  V  V5  1  0.25722400  0.37137000  0.87668900  1
  V  V6  1  0.03479700  0.98193600  0.00269900  1
  V  V7  1  0.00190500  0.50363000  0.49831100  1
  O  O8  1  0.39514600  0.80053100  0.03899100  1
  O  O9  1  0.40668700  0.07446900  0.33600900  1
  F  F10  1  0.91608300  0.84170500  0.08699200  1
  F  F11  1  0.96810500  0.31641500  0.06095400  1
  F  F12  1  0.97867600  0.81232600  0.56221300  1
  F  F13  1  0.52414600  0.93750000  0.18750000  1
  F  F14  1  0.92079800  0.03329500  0.28800800  1
  F  F15  1  0.92694700  0.33948900  0.58760500  1
  F  F16  1  0.92883100  0.53551100  0.78739500  1
  F  F17  1  0.57544700  0.41236200  0.16249600  1
  F  F18  1  0.57301600  0.91253600  0.66091200  1
  F  F19  1  0.57086900  0.71384400  0.46280700  1
  F  F20  1  0.47356500  0.55858500  0.31404600  1
  F  F21  1  0.52193900  0.43750000  0.68750000  1
  F  F22  1  0.42727700  0.28633200  0.53547500  1
  F  F23  1  0.42813500  0.58866800  0.83952500  1
  F  F24  1  0.59174400  0.20172600  0.96340500  1
  F  F25  1  0.08006400  0.67327400  0.41159500  1
  F  F26  1  0.07531400  0.46263800  0.21250400  1
  F  F27  1  0.07464100  0.96246400  0.71408800  1
  F  F28  1  0.47878800  0.06267400  0.81278700  1
  F  F29  1  0.02216900  0.68915200  0.93745000  1
  F  F30  1  0.02386900  0.18584800  0.43755000  1
  F  F31  1  0.07190500  0.16115600  0.91219300  1
