# generated using pymatgen
data_VF5
_symmetry_space_group_name_H-M   'P 1'
_cell_length_a   5.12760300
_cell_length_b   8.24298900
_cell_length_c   10.17659100
_cell_angle_alpha   90.00000000
_cell_angle_beta   90.00000000
_cell_angle_gamma   90.00000000
_symmetry_Int_Tables_number   1
_chemical_formula_structural   VF5
_chemical_formula_sum   'V4 F20'
_cell_volume   430.13168334
_cell_formula_units_Z   4
loop_
 _symmetry_equiv_pos_site_id
 _symmetry_equiv_pos_as_xyz
  1  'x, y, z'
loop_
 _atom_site_type_symbol
 _atom_site_label
 _atom_site_symmetry_multiplicity
 _atom_site_fract_x
 _atom_site_fract_y
 _atom_site_fract_z
 _atom_site_occupancy
  V  V0  1  0.28522300  0.08286700  0.25000000  1
  V  V1  1  0.78522300  0.41713300  0.75000000  1
  V  V2  1  0.21477700  0.58286700  0.25000000  1
  V  V3  1  0.71477700  0.91713300  0.75000000  1
  F  F4  1  0.03614200  0.07312500  0.13049100  1
  F  F5  1  0.03614200  0.07312500  0.36950900  1
  F  F6  1  0.59287700  0.11584600  0.75000000  1
  F  F7  1  0.47847500  0.18235300  0.13038900  1
  F  F8  1  0.47847500  0.18235300  0.36961100  1
  F  F9  1  0.97847500  0.31764700  0.63038900  1
  F  F10  1  0.97847500  0.31764700  0.86961100  1
  F  F11  1  0.09287700  0.38415400  0.25000000  1
  F  F12  1  0.53614200  0.42687500  0.63049100  1
  F  F13  1  0.53614200  0.42687500  0.86950900  1
  F  F14  1  0.46385800  0.57312500  0.13049100  1
  F  F15  1  0.46385800  0.57312500  0.36950900  1
  F  F16  1  0.90712300  0.61584600  0.75000000  1
  F  F17  1  0.02152500  0.68235300  0.13038900  1
  F  F18  1  0.02152500  0.68235300  0.36961100  1
  F  F19  1  0.52152500  0.81764700  0.63038900  1
  F  F20  1  0.52152500  0.81764700  0.86961100  1
  F  F21  1  0.40712300  0.88415400  0.25000000  1
  F  F22  1  0.96385800  0.92687500  0.63049100  1
  F  F23  1  0.96385800  0.92687500  0.86950900  1
