# generated using pymatgen
data_VNi(PO4)2
_symmetry_space_group_name_H-M   'P 1'
_cell_length_a   4.80424389
_cell_length_b   9.92346907
_cell_length_c   5.82728600
_cell_angle_alpha   89.99996239
_cell_angle_beta   90.00014054
_cell_angle_gamma   90.97947416
_symmetry_Int_Tables_number   1
_chemical_formula_structural   VNi(PO4)2
_chemical_formula_sum   'V2 Ni2 P4 O16'
_cell_volume   277.77390097
_cell_formula_units_Z   2
loop_
 _symmetry_equiv_pos_site_id
 _symmetry_equiv_pos_as_xyz
  1  'x, y, z'
loop_
 _atom_site_type_symbol
 _atom_site_label
 _atom_site_symmetry_multiplicity
 _atom_site_fract_x
 _atom_site_fract_y
 _atom_site_fract_z
 _atom_site_occupancy
  V  V0  1  0.54983300  0.77817200  0.25000200  1
  V  V1  1  0.45016100  0.22183300  0.75000200  1
  Ni  Ni2  1  0.05046600  0.72602900  0.74999800  1
  Ni  Ni3  1  0.94953300  0.27399200  0.25000000  1
  P  P4  1  0.42189200  0.08990500  0.25000200  1
  P  P5  1  0.57806400  0.91015800  0.75000200  1
  P  P6  1  0.88998000  0.40322000  0.74999900  1
  P  P7  1  0.10995900  0.59676900  0.24999600  1
  O  O8  1  0.67692000  0.05889400  0.75000200  1
  O  O9  1  0.32318100  0.94116000  0.24999900  1
  O  O10  1  0.73414600  0.10315800  0.25000400  1
  O  O11  1  0.26586400  0.89685100  0.75000000  1
  O  O12  1  0.20430500  0.37229700  0.74999900  1
  O  O13  1  0.79567700  0.62764000  0.24999400  1
  O  O14  1  0.15794600  0.44757700  0.25000000  1
  O  O15  1  0.84210900  0.55232300  0.74999700  1
  O  O16  1  0.28122000  0.16624000  0.03963600  1
  O  O17  1  0.28121700  0.16623900  0.46036700  1
  O  O18  1  0.71880100  0.83380300  0.53964400  1
  O  O19  1  0.71880000  0.83380600  0.96036500  1
  O  O20  1  0.73382000  0.32552600  0.95149000  1
  O  O21  1  0.73381700  0.32552600  0.54850800  1
  O  O22  1  0.26614400  0.67444000  0.04853800  1
  O  O23  1  0.26614400  0.67444200  0.45145500  1
