# generated using pymatgen
data_V2OF5
_symmetry_space_group_name_H-M   'P 1'
_cell_length_a   4.62986000
_cell_length_b   8.52142144
_cell_length_c   8.58053073
_cell_angle_alpha   119.49397668
_cell_angle_beta   90.13626617
_cell_angle_gamma   90.46067494
_symmetry_Int_Tables_number   1
_chemical_formula_structural   V2OF5
_chemical_formula_sum   'V6 O3 F15'
_cell_volume   294.63959545
_cell_formula_units_Z   3
loop_
 _symmetry_equiv_pos_site_id
 _symmetry_equiv_pos_as_xyz
  1  'x, y, z'
loop_
 _atom_site_type_symbol
 _atom_site_label
 _atom_site_symmetry_multiplicity
 _atom_site_fract_x
 _atom_site_fract_y
 _atom_site_fract_z
 _atom_site_occupancy
  V  V0  1  0.99814600  0.33489400  0.99260800  1
  V  V1  1  0.52000300  0.01914900  0.67650800  1
  V  V2  1  0.98320200  0.65943900  0.64550400  1
  V  V3  1  0.50525600  0.33780800  0.33411900  1
  V  V4  1  0.99395900  0.99430700  0.32838400  1
  V  V5  1  0.51753500  0.68819500  0.00234600  1
  O  O6  1  0.73810500  0.20202900  0.78312500  1
  O  O7  1  0.76824800  0.55009100  0.46346900  1
  O  O8  1  0.73318100  0.87080500  0.11433800  1
  F  F9  1  0.24647100  0.11879000  0.88228900  1
  F  F10  1  0.25371200  0.46519800  0.91239800  1
  F  F11  1  0.24920000  0.09137400  0.55258700  1
  F  F12  1  0.24108700  0.75220500  0.87099600  1
  F  F13  1  0.75204600  0.57050600  0.78390500  1
  F  F14  1  0.74730200  0.20944400  0.42831600  1
  F  F15  1  0.74828000  0.87889300  0.76301000  1
  F  F16  1  0.25487200  0.44901500  0.54503400  1
  F  F17  1  0.26048800  0.79108700  0.58146500  1
  F  F18  1  0.24213100  0.11764600  0.23847500  1
  F  F19  1  0.74536800  0.90014700  0.45284200  1
  F  F20  1  0.75436400  0.24057200  0.12142400  1
  F  F21  1  0.25602400  0.42848800  0.21178900  1
  F  F22  1  0.24688700  0.78638900  0.21458800  1
  F  F23  1  0.74285100  0.54781000  0.09164500  1
