# generated using pymatgen
data_V4(OF3)3
_symmetry_space_group_name_H-M   'P 1'
_cell_length_a   5.18051400
_cell_length_b   5.41666036
_cell_length_c   7.57846357
_cell_angle_alpha   92.46237331
_cell_angle_beta   89.95560566
_cell_angle_gamma   91.09676236
_symmetry_Int_Tables_number   1
_chemical_formula_structural   V4(OF3)3
_chemical_formula_sum   'V4 O3 F9'
_cell_volume   212.42462529
_cell_formula_units_Z   1
loop_
 _symmetry_equiv_pos_site_id
 _symmetry_equiv_pos_as_xyz
  1  'x, y, z'
loop_
 _atom_site_type_symbol
 _atom_site_label
 _atom_site_symmetry_multiplicity
 _atom_site_fract_x
 _atom_site_fract_y
 _atom_site_fract_z
 _atom_site_occupancy
  V  V0  1  0.52214300  0.51104000  0.49565500  1
  V  V1  1  0.51899600  0.52694600  0.00378000  1
  V  V2  1  0.99864500  0.99601400  0.49927700  1
  V  V3  1  0.02653900  0.02009400  0.99510300  1
  O  O4  1  0.27483500  0.21262500  0.96298100  1
  O  O5  1  0.71142900  0.77502400  0.03635300  1
  O  O6  1  0.78267500  0.69263700  0.45935600  1
  F  F7  1  0.09571700  0.99001300  0.25034500  1
  F  F8  1  0.20858300  0.31057200  0.54291600  1
  F  F9  1  0.20425700  0.70599600  0.94431200  1
  F  F10  1  0.29806900  0.80096100  0.55433400  1
  F  F11  1  0.39366400  0.50601100  0.24911000  1
  F  F12  1  0.59367700  0.47756100  0.75046700  1
  F  F13  1  0.69417400  0.19147800  0.44804300  1
  F  F14  1  0.77757000  0.27872200  0.05843500  1
  F  F15  1  0.89902600  0.00430300  0.74953200  1
