# generated using pymatgen
data_TiCo3O8
_symmetry_space_group_name_H-M   'P 1'
_cell_length_a   5.63205191
_cell_length_b   5.63205191
_cell_length_c   8.94221500
_cell_angle_alpha   90.00000000
_cell_angle_beta   90.00000000
_cell_angle_gamma   119.99999891
_symmetry_Int_Tables_number   1
_chemical_formula_structural   TiCo3O8
_chemical_formula_sum   'Ti2 Co6 O16'
_cell_volume   245.64562944
_cell_formula_units_Z   2
loop_
 _symmetry_equiv_pos_site_id
 _symmetry_equiv_pos_as_xyz
  1  'x, y, z'
loop_
 _atom_site_type_symbol
 _atom_site_label
 _atom_site_symmetry_multiplicity
 _atom_site_fract_x
 _atom_site_fract_y
 _atom_site_fract_z
 _atom_site_occupancy
  Ti  Ti0  1  0.33333300  0.66666700  0.49613100  1
  Ti  Ti1  1  0.66666700  0.33333300  0.99613100  1
  Co  Co2  1  0.16784200  0.83215800  0.21297400  1
  Co  Co3  1  0.16784200  0.33568400  0.21297400  1
  Co  Co4  1  0.66431600  0.83215800  0.21297400  1
  Co  Co5  1  0.33568400  0.16784200  0.71297400  1
  Co  Co6  1  0.83215800  0.66431600  0.71297400  1
  Co  Co7  1  0.83215800  0.16784200  0.71297400  1
  O  O8  1  0.16349800  0.83650200  0.60286300  1
  O  O9  1  0.03879600  0.51939800  0.33035800  1
  O  O10  1  0.33333300  0.66666700  0.10240000  1
  O  O11  1  0.00000000  0.00000000  0.32071400  1
  O  O12  1  0.00000000  0.00000000  0.82071400  1
  O  O13  1  0.16349800  0.32699700  0.60286300  1
  O  O14  1  0.48060200  0.96120400  0.33035800  1
  O  O15  1  0.48060200  0.51939800  0.33035800  1
  O  O16  1  0.32699700  0.16349800  0.10286300  1
  O  O17  1  0.67300300  0.83650200  0.60286300  1
  O  O18  1  0.51939800  0.48060200  0.83035800  1
  O  O19  1  0.51939800  0.03879600  0.83035800  1
  O  O20  1  0.66666700  0.33333300  0.60240000  1
  O  O21  1  0.83650200  0.67300300  0.10286300  1
  O  O22  1  0.96120400  0.48060200  0.83035800  1
  O  O23  1  0.83650200  0.16349800  0.10286300  1
