# generated using pymatgen
data_Ti3MnSn2(PO4)6
_symmetry_space_group_name_H-M   'P 1'
_cell_length_a   9.14595293
_cell_length_b   9.14595293
_cell_length_c   9.14595260
_cell_angle_alpha   56.22999567
_cell_angle_beta   56.22999567
_cell_angle_gamma   56.22999267
_symmetry_Int_Tables_number   1
_chemical_formula_structural   Ti3MnSn2(PO4)6
_chemical_formula_sum   'Ti3 Mn1 Sn2 P6 O24'
_cell_volume   493.76980450
_cell_formula_units_Z   1
loop_
 _symmetry_equiv_pos_site_id
 _symmetry_equiv_pos_as_xyz
  1  'x, y, z'
loop_
 _atom_site_type_symbol
 _atom_site_label
 _atom_site_symmetry_multiplicity
 _atom_site_fract_x
 _atom_site_fract_y
 _atom_site_fract_z
 _atom_site_occupancy
  Ti  Ti0  1  0.85485300  0.85485300  0.85485300  1
  Ti  Ti1  1  0.64732500  0.64732500  0.64732500  1
  Ti  Ti2  1  0.34489100  0.34489100  0.34489100  1
  Mn  Mn3  1  0.15126500  0.15126500  0.15126500  1
  Sn  Sn4  1  0.01507500  0.01507500  0.01507500  1
  Sn  Sn5  1  0.48766900  0.48766900  0.48766900  1
  P  P6  1  0.46889500  0.03697700  0.74452500  1
  P  P7  1  0.03697700  0.74452500  0.46889500  1
  P  P8  1  0.74452500  0.46889500  0.03697700  1
  P  P9  1  0.25019000  0.53850800  0.95647100  1
  P  P10  1  0.95647100  0.25019000  0.53850800  1
  P  P11  1  0.53850800  0.95647100  0.25019000  1
  O  O12  1  0.69703900  0.50997400  0.87835100  1
  O  O13  1  0.50997400  0.87835100  0.69703900  1
  O  O14  1  0.06653200  0.71235500  0.94326100  1
  O  O15  1  0.87835100  0.69703900  0.50997400  1
  O  O16  1  0.24897700  0.36880100  0.96681600  1
  O  O17  1  0.41662200  0.59393300  0.78086700  1
  O  O18  1  0.94326100  0.06653200  0.71235500  1
  O  O19  1  0.78086700  0.41662200  0.59393300  1
  O  O20  1  0.63164000  0.00660100  0.77968300  1
  O  O21  1  0.59393300  0.78086700  0.41662200  1
  O  O22  1  0.28368700  0.05526300  0.91720300  1
  O  O23  1  0.00660100  0.77968300  0.63164000  1
  O  O24  1  0.96681600  0.24897700  0.36880100  1
  O  O25  1  0.71235500  0.94326100  0.06653200  1
  O  O26  1  0.44225400  0.22371500  0.56903300  1
  O  O27  1  0.36880100  0.96681600  0.24897700  1
  O  O28  1  0.22371500  0.56903300  0.44225400  1
  O  O29  1  0.05526300  0.91720300  0.28368700  1
  O  O30  1  0.56903300  0.44225400  0.22371500  1
  O  O31  1  0.77968300  0.63164000  0.00660100  1
  O  O32  1  0.13430300  0.27356200  0.50288200  1
  O  O33  1  0.91720300  0.28368700  0.05526300  1
  O  O34  1  0.50288200  0.13430300  0.27356200  1
  O  O35  1  0.27356200  0.50288200  0.13430300  1
