# generated using pymatgen
data_Ti2O3
_symmetry_space_group_name_H-M   'P 1'
_cell_length_a   3.00185200
_cell_length_b   5.14813100
_cell_length_c   7.36359807
_cell_angle_alpha   78.34138895
_cell_angle_beta   90.00000000
_cell_angle_gamma   90.00000000
_symmetry_Int_Tables_number   1
_chemical_formula_structural   Ti2O3
_chemical_formula_sum   'Ti4 O6'
_cell_volume   111.44877871
_cell_formula_units_Z   2
loop_
 _symmetry_equiv_pos_site_id
 _symmetry_equiv_pos_as_xyz
  1  'x, y, z'
loop_
 _atom_site_type_symbol
 _atom_site_label
 _atom_site_symmetry_multiplicity
 _atom_site_fract_x
 _atom_site_fract_y
 _atom_site_fract_z
 _atom_site_occupancy
  Ti  Ti0  1  0.75000000  0.84104500  0.65781000  1
  Ti  Ti1  1  0.75000000  0.73142000  0.02250900  1
  Ti  Ti2  1  0.25000000  0.26858000  0.97749100  1
  Ti  Ti3  1  0.25000000  0.15895500  0.34219000  1
  O  O4  1  0.25000000  0.94097000  0.84586800  1
  O  O5  1  0.25000000  0.78642100  0.50419800  1
  O  O6  1  0.75000000  0.48543800  0.83086900  1
  O  O7  1  0.25000000  0.51456200  0.16913100  1
  O  O8  1  0.75000000  0.21357900  0.49580200  1
  O  O9  1  0.75000000  0.05903000  0.15413200  1
