# generated using pymatgen
data_ZrU4O10
_symmetry_space_group_name_H-M   'P 1'
_cell_length_a   15.63546768
_cell_length_b   15.63546768
_cell_length_c   6.59000603
_cell_angle_alpha   86.00494140
_cell_angle_beta   86.00494140
_cell_angle_gamma   14.02903297
_symmetry_Int_Tables_number   1
_chemical_formula_structural   ZrU4O10
_chemical_formula_sum   'Zr2 U8 O20'
_cell_volume   389.57564495
_cell_formula_units_Z   2
loop_
 _symmetry_equiv_pos_site_id
 _symmetry_equiv_pos_as_xyz
  1  'x, y, z'
loop_
 _atom_site_type_symbol
 _atom_site_label
 _atom_site_symmetry_multiplicity
 _atom_site_fract_x
 _atom_site_fract_y
 _atom_site_fract_z
 _atom_site_occupancy
  Zr  Zr0  1  0.40040500  0.40040500  0.69954200  1
  Zr  Zr1  1  0.59959500  0.59959500  0.30045800  1
  U  U2  1  0.00000000  0.00000000  0.50000000  1
  U  U3  1  0.50000000  0.50000000  0.00000000  1
  U  U4  1  0.30057900  0.30057900  0.40083600  1
  U  U5  1  0.69942100  0.69942100  0.59916400  1
  U  U6  1  0.90026200  0.90026200  0.20011500  1
  U  U7  1  0.80112500  0.80112500  0.89942900  1
  U  U8  1  0.19887500  0.19887500  0.10057100  1
  U  U9  1  0.09973800  0.09973800  0.79988500  1
  O  O10  1  0.52656400  0.52656400  0.32662400  1
  O  O11  1  0.07568800  0.07568800  0.46769300  1
  O  O12  1  0.92431200  0.92431200  0.53230700  1
  O  O13  1  0.57582900  0.57582900  0.98229000  1
  O  O14  1  0.37650000  0.37650000  0.38209400  1
  O  O15  1  0.47343600  0.47343600  0.67337600  1
  O  O16  1  0.02497000  0.02497000  0.82330300  1
  O  O17  1  0.32759100  0.32759100  0.72467200  1
  O  O18  1  0.97503000  0.97503000  0.17669700  1
  O  O19  1  0.77524000  0.77524000  0.57562800  1
  O  O20  1  0.22476000  0.22476000  0.42437200  1
  O  O21  1  0.87672500  0.87672500  0.86722200  1
  O  O22  1  0.42417100  0.42417100  0.01771000  1
  O  O23  1  0.72472100  0.72472100  0.92573100  1
  O  O24  1  0.62350000  0.62350000  0.61790600  1
  O  O25  1  0.82587900  0.82587900  0.22401400  1
  O  O26  1  0.17412100  0.17412100  0.77598600  1
  O  O27  1  0.27527900  0.27527900  0.07426900  1
  O  O28  1  0.67240900  0.67240900  0.27532800  1
  O  O29  1  0.12327500  0.12327500  0.13277800  1
