# generated using pymatgen
data_Tm3Ga8Ag3
_symmetry_space_group_name_H-M   'P 1'
_cell_length_a   4.36009900
_cell_length_b   8.26204067
_cell_length_c   8.26204067
_cell_angle_alpha   70.55916471
_cell_angle_beta   74.70058142
_cell_angle_gamma   74.70058142
_symmetry_Int_Tables_number   1
_chemical_formula_structural   Tm3Ga8Ag3
_chemical_formula_sum   'Tm3 Ga8 Ag3'
_cell_volume   265.59199718
_cell_formula_units_Z   1
loop_
 _symmetry_equiv_pos_site_id
 _symmetry_equiv_pos_as_xyz
  1  'x, y, z'
loop_
 _atom_site_type_symbol
 _atom_site_label
 _atom_site_symmetry_multiplicity
 _atom_site_fract_x
 _atom_site_fract_y
 _atom_site_fract_z
 _atom_site_occupancy
  Tm  Tm0  1  0.50000000  0.50000000  0.50000000  1
  Tm  Tm1  1  0.20417800  0.79582200  0.79582200  1
  Tm  Tm2  1  0.79582200  0.20417800  0.20417800  1
  Ga  Ga3  1  0.35801700  0.36104100  0.92292500  1
  Ga  Ga4  1  0.64198300  0.63895900  0.07707500  1
  Ga  Ga5  1  0.35801700  0.92292500  0.36104100  1
  Ga  Ga6  1  0.64198300  0.07707500  0.63895900  1
  Ga  Ga7  1  0.15720600  0.47319400  0.21239400  1
  Ga  Ga8  1  0.84279400  0.52680600  0.78760600  1
  Ga  Ga9  1  0.15720600  0.21239400  0.47319400  1
  Ga  Ga10  1  0.84279400  0.78760600  0.52680600  1
  Ag  Ag11  1  0.50000000  0.00000000  0.00000000  1
  Ag  Ag12  1  0.00000000  0.81221200  0.18778800  1
  Ag  Ag13  1  0.00000000  0.18778800  0.81221200  1
