# generated using pymatgen
data_Tb(Mo3S4)2
_symmetry_space_group_name_H-M   'P 1'
_cell_length_a   6.50968593
_cell_length_b   6.50968593
_cell_length_c   6.50968629
_cell_angle_alpha   89.34337839
_cell_angle_beta   89.34337839
_cell_angle_gamma   89.34338520
_symmetry_Int_Tables_number   1
_chemical_formula_structural   Tb(Mo3S4)2
_chemical_formula_sum   'Tb1 Mo6 S8'
_cell_volume   275.80060552
_cell_formula_units_Z   1
loop_
 _symmetry_equiv_pos_site_id
 _symmetry_equiv_pos_as_xyz
  1  'x, y, z'
loop_
 _atom_site_type_symbol
 _atom_site_label
 _atom_site_symmetry_multiplicity
 _atom_site_fract_x
 _atom_site_fract_y
 _atom_site_fract_z
 _atom_site_occupancy
  Tb  Tb0  1  0.00000000  0.00000000  0.00000000  1
  Mo  Mo1  1  0.77623900  0.57980000  0.43945400  1
  Mo  Mo2  1  0.43945400  0.77623900  0.57980000  1
  Mo  Mo3  1  0.57980000  0.43945400  0.77623900  1
  Mo  Mo4  1  0.22376100  0.42020000  0.56054600  1
  Mo  Mo5  1  0.56054600  0.22376100  0.42020000  1
  Mo  Mo6  1  0.42020000  0.56054600  0.22376100  1
  S  S7  1  0.76098400  0.76098400  0.76098400  1
  S  S8  1  0.23901600  0.23901600  0.23901600  1
  S  S9  1  0.24851400  0.63126400  0.87190900  1
  S  S10  1  0.87190900  0.24851400  0.63126400  1
  S  S11  1  0.63126400  0.87190900  0.24851400  1
  S  S12  1  0.75148600  0.36873600  0.12809100  1
  S  S13  1  0.12809100  0.75148600  0.36873600  1
  S  S14  1  0.36873600  0.12809100  0.75148600  1
