# generated using pymatgen
data_SrCa2I6
_symmetry_space_group_name_H-M   'P 1'
_cell_length_a   8.05460100
_cell_length_b   7.41907100
_cell_length_c   14.67907633
_cell_angle_alpha   62.75496620
_cell_angle_beta   90.00000000
_cell_angle_gamma   90.00000000
_symmetry_Int_Tables_number   1
_chemical_formula_structural   SrCa2I6
_chemical_formula_sum   'Sr2 Ca4 I12'
_cell_volume   779.86927071
_cell_formula_units_Z   2
loop_
 _symmetry_equiv_pos_site_id
 _symmetry_equiv_pos_as_xyz
  1  'x, y, z'
loop_
 _atom_site_type_symbol
 _atom_site_label
 _atom_site_symmetry_multiplicity
 _atom_site_fract_x
 _atom_site_fract_y
 _atom_site_fract_z
 _atom_site_occupancy
  Sr  Sr0  1  0.00000000  0.00000000  0.00000000  1
  Sr  Sr1  1  0.50000000  0.00000000  0.50000000  1
  Ca  Ca2  1  0.60387800  0.66954700  0.25497900  1
  Ca  Ca3  1  0.10387800  0.33045300  0.24502100  1
  Ca  Ca4  1  0.89612200  0.66954700  0.75497900  1
  Ca  Ca5  1  0.39612200  0.33045300  0.74502100  1
  I  I6  1  0.32721800  0.70610100  0.09147700  1
  I  I7  1  0.81039300  0.56974100  0.09340000  1
  I  I8  1  0.42726400  0.06031800  0.26441000  1
  I  I9  1  0.92726400  0.93968200  0.23559000  1
  I  I10  1  0.31039300  0.43025900  0.40660000  1
  I  I11  1  0.82721800  0.29389900  0.40852300  1
  I  I12  1  0.17278200  0.70610100  0.59147700  1
  I  I13  1  0.68960700  0.56974100  0.59340000  1
  I  I14  1  0.07273600  0.06031800  0.76441000  1
  I  I15  1  0.57273600  0.93968200  0.73559000  1
  I  I16  1  0.18960700  0.43025900  0.90660000  1
  I  I17  1  0.67278200  0.29389900  0.90852300  1
