# generated using pymatgen
data_Ti3Fe2Sn(PO4)6
_symmetry_space_group_name_H-M   'P 1'
_cell_length_a   8.63161391
_cell_length_b   8.63161391
_cell_length_c   8.63161352
_cell_angle_alpha   60.74485392
_cell_angle_beta   60.74485392
_cell_angle_gamma   60.74485714
_symmetry_Int_Tables_number   1
_chemical_formula_structural   Ti3Fe2Sn(PO4)6
_chemical_formula_sum   'Ti3 Fe2 Sn1 P6 O24'
_cell_volume   462.38029344
_cell_formula_units_Z   1
loop_
 _symmetry_equiv_pos_site_id
 _symmetry_equiv_pos_as_xyz
  1  'x, y, z'
loop_
 _atom_site_type_symbol
 _atom_site_label
 _atom_site_symmetry_multiplicity
 _atom_site_fract_x
 _atom_site_fract_y
 _atom_site_fract_z
 _atom_site_occupancy
  Ti  Ti0  1  0.85593800  0.85593800  0.85593800  1
  Ti  Ti1  1  0.64439400  0.64439400  0.64439400  1
  Ti  Ti2  1  0.35691900  0.35691900  0.35691900  1
  Fe  Fe3  1  0.99618400  0.99618400  0.99618400  1
  Fe  Fe4  1  0.50078300  0.50078300  0.50078300  1
  Sn  Sn5  1  0.14361400  0.14361400  0.14361400  1
  P  P6  1  0.04413700  0.74820000  0.45827100  1
  P  P7  1  0.74820000  0.45827100  0.04413700  1
  P  P8  1  0.45827100  0.04413700  0.74820000  1
  P  P9  1  0.54659600  0.95418400  0.25215700  1
  P  P10  1  0.25215700  0.54659600  0.95418400  1
  P  P11  1  0.95418400  0.25215700  0.54659600  1
  O  O12  1  0.49772500  0.88636800  0.68536200  1
  O  O13  1  0.88636800  0.68536200  0.49772500  1
  O  O14  1  0.73902500  0.94035500  0.08996100  1
  O  O15  1  0.68536200  0.49772500  0.88636800  1
  O  O16  1  0.39157800  0.98618200  0.18861300  1
  O  O17  1  0.56255700  0.76017000  0.41144600  1
  O  O18  1  0.08996100  0.73902500  0.94035500  1
  O  O19  1  0.41144600  0.56255700  0.76017000  1
  O  O20  1  0.00254800  0.81621300  0.61312300  1
  O  O21  1  0.76017000  0.41144600  0.56255700  1
  O  O22  1  0.05666500  0.90917800  0.26083600  1
  O  O23  1  0.81621300  0.61312300  0.00254800  1
  O  O24  1  0.18861300  0.39157800  0.98618200  1
  O  O25  1  0.94035500  0.08996100  0.73902500  1
  O  O26  1  0.23879300  0.59050600  0.44134500  1
  O  O27  1  0.98618200  0.18861300  0.39157800  1
  O  O28  1  0.59050600  0.44134500  0.23879300  1
  O  O29  1  0.90917800  0.26083600  0.05666500  1
  O  O30  1  0.44134500  0.23879300  0.59050600  1
  O  O31  1  0.61312300  0.00254800  0.81621300  1
  O  O32  1  0.31392700  0.50175600  0.11439100  1
  O  O33  1  0.26083600  0.05666500  0.90917800  1
  O  O34  1  0.11439100  0.31392700  0.50175600  1
  O  O35  1  0.50175600  0.11439100  0.31392700  1
