# generated using pymatgen
data_Sr2CaI6
_symmetry_space_group_name_H-M   'P 1'
_cell_length_a   8.86065314
_cell_length_b   8.86065314
_cell_length_c   11.51564640
_cell_angle_alpha   86.56854278
_cell_angle_beta   86.56854278
_cell_angle_gamma   121.65174667
_symmetry_Int_Tables_number   1
_chemical_formula_structural   Sr2CaI6
_chemical_formula_sum   'Sr4 Ca2 I12'
_cell_volume   763.80033005
_cell_formula_units_Z   2
loop_
 _symmetry_equiv_pos_site_id
 _symmetry_equiv_pos_as_xyz
  1  'x, y, z'
loop_
 _atom_site_type_symbol
 _atom_site_label
 _atom_site_symmetry_multiplicity
 _atom_site_fract_x
 _atom_site_fract_y
 _atom_site_fract_z
 _atom_site_occupancy
  Sr  Sr0  1  0.29911800  0.61834300  0.54085700  1
  Sr  Sr1  1  0.38165700  0.70088200  0.95914300  1
  Sr  Sr2  1  0.61834300  0.29911800  0.04085700  1
  Sr  Sr3  1  0.70088200  0.38165700  0.45914300  1
  Ca  Ca4  1  0.04615400  0.95384600  0.25000000  1
  Ca  Ca5  1  0.95384600  0.04615400  0.75000000  1
  I  I6  1  0.29454600  0.36414700  0.14419000  1
  I  I7  1  0.95271000  0.56035400  0.19642100  1
  I  I8  1  0.02505800  0.77051900  0.53909000  1
  I  I9  1  0.22948100  0.97494200  0.96091000  1
  I  I10  1  0.43964600  0.04729000  0.30357900  1
  I  I11  1  0.63585300  0.70545400  0.35581000  1
  I  I12  1  0.36414700  0.29454600  0.64419000  1
  I  I13  1  0.56035400  0.95271000  0.69642100  1
  I  I14  1  0.77051900  0.02505800  0.03909000  1
  I  I15  1  0.97494200  0.22948100  0.46091000  1
  I  I16  1  0.04729000  0.43964600  0.80357900  1
  I  I17  1  0.70545400  0.63585300  0.85581000  1
