# generated using pymatgen
data_TiCu2O3
_symmetry_space_group_name_H-M   'P 1'
_cell_length_a   8.78140321
_cell_length_b   8.78140321
_cell_length_c   4.96866330
_cell_angle_alpha   78.33523119
_cell_angle_beta   78.33523119
_cell_angle_gamma   49.65538082
_symmetry_Int_Tables_number   1
_chemical_formula_structural   TiCu2O3
_chemical_formula_sum   'Ti4 Cu8 O12'
_cell_volume   284.68376829
_cell_formula_units_Z   4
loop_
 _symmetry_equiv_pos_site_id
 _symmetry_equiv_pos_as_xyz
  1  'x, y, z'
loop_
 _atom_site_type_symbol
 _atom_site_label
 _atom_site_symmetry_multiplicity
 _atom_site_fract_x
 _atom_site_fract_y
 _atom_site_fract_z
 _atom_site_occupancy
  Ti  Ti0  1  0.44798100  0.71544500  0.97814300  1
  Ti  Ti1  1  0.71544500  0.44798100  0.47814300  1
  Ti  Ti2  1  0.28455500  0.55201900  0.52185700  1
  Ti  Ti3  1  0.55201900  0.28455500  0.02185700  1
  Cu  Cu4  1  0.88057100  0.63565000  0.73899500  1
  Cu  Cu5  1  0.63565000  0.88057100  0.23899500  1
  Cu  Cu6  1  0.00221500  0.18373300  0.90400300  1
  Cu  Cu7  1  0.18373300  0.00221500  0.40400300  1
  Cu  Cu8  1  0.81626700  0.99778500  0.59599700  1
  Cu  Cu9  1  0.99778500  0.81626700  0.09599700  1
  Cu  Cu10  1  0.36435000  0.11942900  0.76100500  1
  Cu  Cu11  1  0.11942900  0.36435000  0.26100500  1
  O  O12  1  0.29671400  0.95999700  0.75611900  1
  O  O13  1  0.57324200  0.71806700  0.24422900  1
  O  O14  1  0.95999700  0.29671400  0.25611900  1
  O  O15  1  0.71806700  0.57324200  0.74422900  1
  O  O16  1  0.21148400  0.78851600  0.25000000  1
  O  O17  1  0.56622200  0.43377800  0.25000000  1
  O  O18  1  0.78851600  0.21148400  0.75000000  1
  O  O19  1  0.43377800  0.56622200  0.75000000  1
  O  O20  1  0.28193300  0.42675800  0.25577100  1
  O  O21  1  0.04000300  0.70328600  0.74388100  1
  O  O22  1  0.42675800  0.28193300  0.75577100  1
  O  O23  1  0.70328600  0.04000300  0.24388100  1
