# generated using pymatgen
data_TiCo(PO4)2
_symmetry_space_group_name_H-M   'P 1'
_cell_length_a   8.52975762
_cell_length_b   8.52975762
_cell_length_c   8.52975698
_cell_angle_alpha   60.81538560
_cell_angle_beta   60.81538560
_cell_angle_gamma   60.81538398
_symmetry_Int_Tables_number   1
_chemical_formula_structural   TiCo(PO4)2
_chemical_formula_sum   'Ti3 Co3 P6 O24'
_cell_volume   446.89845343
_cell_formula_units_Z   3
loop_
 _symmetry_equiv_pos_site_id
 _symmetry_equiv_pos_as_xyz
  1  'x, y, z'
loop_
 _atom_site_type_symbol
 _atom_site_label
 _atom_site_symmetry_multiplicity
 _atom_site_fract_x
 _atom_site_fract_y
 _atom_site_fract_z
 _atom_site_occupancy
  Ti  Ti0  1  0.35582100  0.35582100  0.35582100  1
  Ti  Ti1  1  0.14188500  0.14188500  0.14188500  1
  Ti  Ti2  1  0.64415800  0.64415800  0.64415800  1
  Co  Co3  1  0.99769800  0.99769800  0.99769800  1
  Co  Co4  1  0.85786000  0.85786000  0.85786000  1
  Co  Co5  1  0.49838300  0.49838300  0.49838300  1
  P  P6  1  0.75147400  0.04383800  0.45951500  1
  P  P7  1  0.04383800  0.45951500  0.75147400  1
  P  P8  1  0.45951500  0.75147400  0.04383800  1
  P  P9  1  0.54558900  0.24778300  0.95561100  1
  P  P10  1  0.95561100  0.54558900  0.24778300  1
  P  P11  1  0.24778300  0.95561100  0.54558900  1
  O  O12  1  0.88069000  0.50519800  0.68488100  1
  O  O13  1  0.50519800  0.68488100  0.88069000  1
  O  O14  1  0.68488100  0.88069000  0.50519800  1
  O  O15  1  0.91237100  0.05465500  0.26171400  1
  O  O16  1  0.81258300  0.00995900  0.61452000  1
  O  O17  1  0.58813900  0.23908600  0.43551200  1
  O  O18  1  0.05465500  0.26171400  0.91237100  1
  O  O19  1  0.23908600  0.43551200  0.58813900  1
  O  O20  1  0.38168800  0.18240400  0.00405000  1
  O  O21  1  0.43551200  0.58813900  0.23908600  1
  O  O22  1  0.73890700  0.08995600  0.94679600  1
  O  O23  1  0.00405000  0.38168800  0.18240400  1
  O  O24  1  0.00995900  0.61452000  0.81258300  1
  O  O25  1  0.26171400  0.91237100  0.05465500  1
  O  O26  1  0.55676000  0.41065500  0.76100500  1
  O  O27  1  0.61452000  0.81258300  0.00995900  1
  O  O28  1  0.76100500  0.55676000  0.41065500  1
  O  O29  1  0.94679600  0.73890700  0.08995600  1
  O  O30  1  0.41065500  0.76100500  0.55676000  1
  O  O31  1  0.18240400  0.00405000  0.38168800  1
  O  O32  1  0.08995600  0.94679600  0.73890700  1
  O  O33  1  0.31880000  0.11658100  0.49346400  1
  O  O34  1  0.49346400  0.31880000  0.11658100  1
  O  O35  1  0.11658100  0.49346400  0.31880000  1
