# generated using pymatgen
data_SmHO2
_symmetry_space_group_name_H-M   'P 1'
_cell_length_a   3.69235000
_cell_length_b   5.11768000
_cell_length_c   11.36177800
_cell_angle_alpha   90.00000000
_cell_angle_beta   90.00000000
_cell_angle_gamma   90.00000000
_symmetry_Int_Tables_number   1
_chemical_formula_structural   SmHO2
_chemical_formula_sum   'Sm4 H4 O8'
_cell_volume   214.69517646
_cell_formula_units_Z   4
loop_
 _symmetry_equiv_pos_site_id
 _symmetry_equiv_pos_as_xyz
  1  'x, y, z'
loop_
 _atom_site_type_symbol
 _atom_site_label
 _atom_site_symmetry_multiplicity
 _atom_site_fract_x
 _atom_site_fract_y
 _atom_site_fract_z
 _atom_site_occupancy
  Sm  Sm0  1  0.25000000  0.08562400  0.85408000  1
  Sm  Sm1  1  0.25000000  0.41437600  0.35408000  1
  Sm  Sm2  1  0.75000000  0.58562400  0.64592000  1
  Sm  Sm3  1  0.75000000  0.91437600  0.14592000  1
  H  H4  1  0.25000000  0.12667900  0.59060200  1
  H  H5  1  0.25000000  0.37332100  0.09060200  1
  H  H6  1  0.75000000  0.62667900  0.90939800  1
  H  H7  1  0.75000000  0.87332100  0.40939800  1
  O  O8  1  0.25000000  0.18910800  0.06388700  1
  O  O9  1  0.75000000  0.17434700  0.30816900  1
  O  O10  1  0.75000000  0.32565300  0.80816900  1
  O  O11  1  0.25000000  0.31089200  0.56388700  1
  O  O12  1  0.75000000  0.68910800  0.43611300  1
  O  O13  1  0.25000000  0.67434700  0.19183100  1
  O  O14  1  0.25000000  0.82565300  0.69183100  1
  O  O15  1  0.75000000  0.81089200  0.93611300  1
