# generated using pymatgen
data_TiMn3Co2(PO4)6
_symmetry_space_group_name_H-M   'P 1'
_cell_length_a   8.50356217
_cell_length_b   8.50356217
_cell_length_c   8.50356192
_cell_angle_alpha   61.23213032
_cell_angle_beta   61.23213032
_cell_angle_gamma   61.23213919
_symmetry_Int_Tables_number   1
_chemical_formula_structural   TiMn3Co2(PO4)6
_chemical_formula_sum   'Ti1 Mn3 Co2 P6 O24'
_cell_volume   446.84625966
_cell_formula_units_Z   1
loop_
 _symmetry_equiv_pos_site_id
 _symmetry_equiv_pos_as_xyz
  1  'x, y, z'
loop_
 _atom_site_type_symbol
 _atom_site_label
 _atom_site_symmetry_multiplicity
 _atom_site_fract_x
 _atom_site_fract_y
 _atom_site_fract_z
 _atom_site_occupancy
  Ti  Ti0  1  0.85639800  0.85639800  0.85639800  1
  Mn  Mn1  1  0.14388100  0.14388100  0.14388100  1
  Mn  Mn2  1  0.35721800  0.35721800  0.35721800  1
  Mn  Mn3  1  0.64329900  0.64329900  0.64329900  1
  Co  Co4  1  0.00002500  0.00002500  0.00002500  1
  Co  Co5  1  0.50109600  0.50109600  0.50109600  1
  P  P6  1  0.95547100  0.54497300  0.25071500  1
  P  P7  1  0.25071500  0.95547100  0.54497300  1
  P  P8  1  0.54497300  0.25071500  0.95547100  1
  P  P9  1  0.45304500  0.75044100  0.04539700  1
  P  P10  1  0.75044100  0.04539700  0.45304500  1
  P  P11  1  0.04539700  0.45304500  0.75044100  1
  O  O12  1  0.51274100  0.31531600  0.10963800  1
  O  O13  1  0.10963800  0.51274100  0.31531600  1
  O  O14  1  0.25510900  0.91093700  0.06115300  1
  O  O15  1  0.31531600  0.10963800  0.51274100  1
  O  O16  1  0.61608000  0.82025500  0.99210900  1
  O  O17  1  0.44746700  0.59428100  0.24349800  1
  O  O18  1  0.91093700  0.06115300  0.25510900  1
  O  O19  1  0.59428100  0.24349800  0.44746700  1
  O  O20  1  0.99016000  0.38797100  0.18622400  1
  O  O21  1  0.24349800  0.44746700  0.59428100  1
  O  O22  1  0.93621000  0.74439000  0.08896800  1
  O  O23  1  0.18622400  0.99016000  0.38797100  1
  O  O24  1  0.82025500  0.99210900  0.61608000  1
  O  O25  1  0.06115300  0.25510900  0.91093700  1
  O  O26  1  0.75469000  0.56044300  0.40848100  1
  O  O27  1  0.99210900  0.61608000  0.82025500  1
  O  O28  1  0.40848100  0.75469000  0.56044300  1
  O  O29  1  0.08896800  0.93621000  0.74439000  1
  O  O30  1  0.56044300  0.40848100  0.75469000  1
  O  O31  1  0.38797100  0.18622400  0.99016000  1
  O  O32  1  0.68412300  0.89099600  0.48680300  1
  O  O33  1  0.74439000  0.08896800  0.93621000  1
  O  O34  1  0.89099600  0.48680300  0.68412300  1
  O  O35  1  0.48680300  0.68412300  0.89099600  1
