# generated using pymatgen
data_NbVO4
_symmetry_space_group_name_H-M   'P 1'
_cell_length_a   6.16014853
_cell_length_b   6.16014853
_cell_length_c   4.95856538
_cell_angle_alpha   68.92375170
_cell_angle_beta   68.92375170
_cell_angle_gamma   114.81022441
_symmetry_Int_Tables_number   1
_chemical_formula_structural   NbVO4
_chemical_formula_sum   'Nb2 V2 O8'
_cell_volume   127.16890739
_cell_formula_units_Z   2
loop_
 _symmetry_equiv_pos_site_id
 _symmetry_equiv_pos_as_xyz
  1  'x, y, z'
loop_
 _atom_site_type_symbol
 _atom_site_label
 _atom_site_symmetry_multiplicity
 _atom_site_fract_x
 _atom_site_fract_y
 _atom_site_fract_z
 _atom_site_occupancy
  Nb  Nb0  1  0.13173900  0.86826100  0.25000000  1
  Nb  Nb1  1  0.86826100  0.13173900  0.75000000  1
  V  V2  1  0.59365000  0.40635000  0.25000000  1
  V  V3  1  0.40635000  0.59365000  0.75000000  1
  O  O4  1  0.26936000  0.20038400  0.76152200  1
  O  O5  1  0.20038400  0.26936000  0.26152200  1
  O  O6  1  0.47853600  0.89765000  0.83598400  1
  O  O7  1  0.89765000  0.47853600  0.33598400  1
  O  O8  1  0.10235000  0.52146400  0.66401600  1
  O  O9  1  0.52146400  0.10235000  0.16401600  1
  O  O10  1  0.79961600  0.73064000  0.73847800  1
  O  O11  1  0.73064000  0.79961600  0.23847800  1
