# generated using pymatgen
data_NdYO2
_symmetry_space_group_name_H-M   'P 1'
_cell_length_a   6.25623314
_cell_length_b   6.25623314
_cell_length_c   6.25623335
_cell_angle_alpha   32.09132146
_cell_angle_beta   32.09132146
_cell_angle_gamma   32.09132811
_symmetry_Int_Tables_number   1
_chemical_formula_structural   NdYO2
_chemical_formula_sum   'Nd1 Y1 O2'
_cell_volume   61.41674438
_cell_formula_units_Z   1
loop_
 _symmetry_equiv_pos_site_id
 _symmetry_equiv_pos_as_xyz
  1  'x, y, z'
loop_
 _atom_site_type_symbol
 _atom_site_label
 _atom_site_symmetry_multiplicity
 _atom_site_fract_x
 _atom_site_fract_y
 _atom_site_fract_z
 _atom_site_occupancy
  Nd  Nd0  1  0.00000000  0.00000000  0.00000000  1
  Y  Y1  1  0.50000000  0.50000000  0.50000000  1
  O  O2  1  0.23433800  0.23433800  0.23433800  1
  O  O3  1  0.76566200  0.76566200  0.76566200  1
