# generated using pymatgen
data_NaSiPCO7
_symmetry_space_group_name_H-M   'P 1'
_cell_length_a   6.03656300
_cell_length_b   5.00815000
_cell_length_c   9.54884149
_cell_angle_alpha   87.08204781
_cell_angle_beta   90.00000000
_cell_angle_gamma   90.00000000
_symmetry_Int_Tables_number   1
_chemical_formula_structural   NaSiPCO7
_chemical_formula_sum   'Na2 Si2 P2 C2 O14'
_cell_volume   288.30641282
_cell_formula_units_Z   2
loop_
 _symmetry_equiv_pos_site_id
 _symmetry_equiv_pos_as_xyz
  1  'x, y, z'
loop_
 _atom_site_type_symbol
 _atom_site_label
 _atom_site_symmetry_multiplicity
 _atom_site_fract_x
 _atom_site_fract_y
 _atom_site_fract_z
 _atom_site_occupancy
  Na  Na0  1  0.55527300  0.77520900  0.80705500  1
  Na  Na1  1  0.05527300  0.22479100  0.19294500  1
  Si  Si2  1  0.23595600  0.22203500  0.64923600  1
  Si  Si3  1  0.73595600  0.77796500  0.35076400  1
  P  P4  1  0.74155100  0.26514300  0.55703500  1
  P  P5  1  0.24155100  0.73485700  0.44296500  1
  C  C6  1  0.25102200  0.29596400  0.88193900  1
  C  C7  1  0.75102200  0.70403600  0.11806100  1
  O  O8  1  0.76158100  0.66252400  0.99291500  1
  O  O9  1  0.24307200  0.05799300  0.82349800  1
  O  O10  1  0.25014000  0.48186200  0.77484400  1
  O  O11  1  0.94226300  0.21599600  0.65352400  1
  O  O12  1  0.54055400  0.20893500  0.65354400  1
  O  O13  1  0.24284500  0.91763100  0.56696200  1
  O  O14  1  0.73789100  0.56269100  0.50219600  1
  O  O15  1  0.23789100  0.43730900  0.49780400  1
  O  O16  1  0.74284500  0.08236900  0.43303800  1
  O  O17  1  0.04055400  0.79106500  0.34645600  1
  O  O18  1  0.44226300  0.78400400  0.34647600  1
  O  O19  1  0.75014000  0.51813800  0.22515600  1
  O  O20  1  0.74307200  0.94200700  0.17650200  1
  O  O21  1  0.26158100  0.33747600  0.00708500  1
