# generated using pymatgen
data_Sb3(PO4)4
_symmetry_space_group_name_H-M   'P 1'
_cell_length_a   8.53184200
_cell_length_b   9.21016431
_cell_length_c   13.14453227
_cell_angle_alpha   92.23709222
_cell_angle_beta   90.43438657
_cell_angle_gamma   90.13433487
_symmetry_Int_Tables_number   1
_chemical_formula_structural   Sb3(PO4)4
_chemical_formula_sum   'Sb9 P12 O48'
_cell_volume   1032.07248569
_cell_formula_units_Z   3
loop_
 _symmetry_equiv_pos_site_id
 _symmetry_equiv_pos_as_xyz
  1  'x, y, z'
loop_
 _atom_site_type_symbol
 _atom_site_label
 _atom_site_symmetry_multiplicity
 _atom_site_fract_x
 _atom_site_fract_y
 _atom_site_fract_z
 _atom_site_occupancy
  Sb  Sb0  1  0.64148100  0.27410400  0.11767500  1
  Sb  Sb1  1  0.14441700  0.90472400  0.52494300  1
  Sb  Sb2  1  0.85052200  0.42331300  0.81708000  1
  Sb  Sb3  1  0.00641100  0.82724100  0.84296500  1
  Sb  Sb4  1  0.49333400  0.67989500  0.16690600  1
  Sb  Sb5  1  0.99326900  0.49564800  0.48743000  1
  Sb  Sb6  1  0.42956800  0.33140300  0.83502200  1
  Sb  Sb7  1  0.03936100  0.14676200  0.17400000  1
  Sb  Sb8  1  0.55204000  0.00996300  0.49041200  1
  P  P9  1  0.81599300  0.79389000  0.61606900  1
  P  P10  1  0.29531700  0.67621100  0.38428800  1
  P  P11  1  0.70423000  0.98162100  0.25509700  1
  P  P12  1  0.17613700  0.52841800  0.71367700  1
  P  P13  1  0.20533600  0.19481500  0.40453700  1
  P  P14  1  0.81658700  0.12919500  0.94001800  1
  P  P15  1  0.79797600  0.49541900  0.27239600  1
  P  P16  1  0.28941700  0.02168900  0.74503800  1
  P  P17  1  0.19303200  0.84700400  0.06243800  1
  P  P18  1  0.29106300  0.37010700  0.07015900  1
  P  P19  1  0.70119400  0.64960700  0.95149100  1
  P  P20  1  0.71102500  0.31426500  0.59129700  1
  O  O21  1  0.70218200  0.03363100  0.36930900  1
  O  O22  1  0.70862000  0.32223400  0.71526900  1
  O  O23  1  0.10944700  0.98095900  0.76416600  1
  O  O24  1  0.10905400  0.64996700  0.41167600  1
  O  O25  1  0.90875100  0.59151100  0.22381500  1
  O  O26  1  0.28862100  0.19332600  0.75618300  1
  O  O27  1  0.18575900  0.83000900  0.93957600  1
  O  O28  1  0.16663700  0.51254800  0.59585000  1
  O  O29  1  0.37684200  0.82801000  0.08765300  1
  O  O30  1  0.91394300  0.91451800  0.56248100  1
  O  O31  1  0.29394200  0.85150400  0.40711100  1
  O  O32  1  0.61512300  0.83165400  0.25120300  1
  O  O33  1  0.37223600  0.19073600  0.44401100  1
  O  O34  1  0.16699800  0.01898500  0.08051900  1
  O  O35  1  0.89250300  0.34111500  0.56606400  1
  O  O36  1  0.69053700  0.14529100  0.57370300  1
  O  O37  1  0.91167600  0.23214200  0.87123900  1
  O  O38  1  0.34473400  0.49804900  0.74917200  1
  O  O39  1  0.12690000  0.35176300  0.11710200  1
  O  O40  1  0.86559400  0.16783400  0.05429700  1
  O  O41  1  0.12251300  0.34665600  0.40934500  1
  O  O42  1  0.64832800  0.82258100  0.58404800  1
  O  O43  1  0.31438600  0.66652500  0.26523200  1
  O  O44  1  0.37393100  0.52211900  0.08428500  1
  O  O45  1  0.58881200  0.70432900  0.87703500  1
  O  O46  1  0.71374400  0.47208700  0.94862500  1
  O  O47  1  0.88123700  0.64089900  0.58401800  1
  O  O48  1  0.86999400  0.97268300  0.91529900  1
  O  O49  1  0.59351600  0.40936100  0.54742500  1
  O  O50  1  0.88715700  0.67949400  0.92351500  1
  O  O51  1  0.09208500  0.09151900  0.46370700  1
  O  O52  1  0.67420300  0.68876800  0.06742900  1
  O  O53  1  0.87694800  0.97375000  0.22119000  1
  O  O54  1  0.41457100  0.94722000  0.79925500  1
  O  O55  1  0.80910000  0.50033200  0.39445600  1
  O  O56  1  0.08411900  0.75227800  0.11402000  1
  O  O57  1  0.40696700  0.59479000  0.44507700  1
  O  O58  1  0.39577000  0.25227700  0.11556500  1
  O  O59  1  0.12490100  0.68365000  0.74935000  1
  O  O60  1  0.61201100  0.52203400  0.24246600  1
  O  O61  1  0.27062900  0.34833600  0.95156400  1
  O  O62  1  0.60702200  0.08534800  0.18867500  1
  O  O63  1  0.64086900  0.15419900  0.93890600  1
  O  O64  1  0.83675900  0.81234600  0.73432600  1
  O  O65  1  0.07213000  0.41079300  0.76213000  1
  O  O66  1  0.80576700  0.32493800  0.24314000  1
  O  O67  1  0.20485800  0.14117100  0.29014500  1
  O  O68  1  0.30171700  0.99802300  0.62244700  1
