# generated using pymatgen
data_Ba3SrNb2O9
_symmetry_space_group_name_H-M   'P 1'
_cell_length_a   6.04945125
_cell_length_b   6.04938858
_cell_length_c   7.69933100
_cell_angle_alpha   90.00014732
_cell_angle_beta   89.99943256
_cell_angle_gamma   119.99941944
_symmetry_Int_Tables_number   1
_chemical_formula_structural   Ba3SrNb2O9
_chemical_formula_sum   'Ba3 Sr1 Nb2 O9'
_cell_volume   244.01337198
_cell_formula_units_Z   1
loop_
 _symmetry_equiv_pos_site_id
 _symmetry_equiv_pos_as_xyz
  1  'x, y, z'
loop_
 _atom_site_type_symbol
 _atom_site_label
 _atom_site_symmetry_multiplicity
 _atom_site_fract_x
 _atom_site_fract_y
 _atom_site_fract_z
 _atom_site_occupancy
  Ba  Ba0  1  0.00000000  0.00000000  0.00000000  1
  Ba  Ba1  1  0.33334800  0.66667400  0.70017700  1
  Ba  Ba2  1  0.66665200  0.33332600  0.29982300  1
  Sr  Sr3  1  0.00000000  0.00000000  0.50000000  1
  Nb  Nb4  1  0.33333100  0.66666500  0.16840000  1
  Nb  Nb5  1  0.66666900  0.33333500  0.83160000  1
  O  O6  1  0.64569900  0.82284500  0.30068900  1
  O  O7  1  0.17716300  0.82285300  0.30069300  1
  O  O8  1  0.17716000  0.35430300  0.30069300  1
  O  O9  1  0.35430100  0.17715500  0.69931100  1
  O  O10  1  0.82283700  0.17714700  0.69930700  1
  O  O11  1  0.82284000  0.64569700  0.69930700  1
  O  O12  1  0.50000000  0.50000000  0.00000000  1
  O  O13  1  0.50000000  0.00000000  0.00000000  1
  O  O14  1  0.00000000  0.50000000  0.00000000  1
