# generated using pymatgen
data_Mo2(PO4)3
_symmetry_space_group_name_H-M   'P 1'
_cell_length_a   8.83342537
_cell_length_b   8.83342537
_cell_length_c   8.83342438
_cell_angle_alpha   60.03902747
_cell_angle_beta   60.03902747
_cell_angle_gamma   60.03902977
_symmetry_Int_Tables_number   1
_chemical_formula_structural   Mo2(PO4)3
_chemical_formula_sum   'Mo4 P6 O24'
_cell_volume   487.81642003
_cell_formula_units_Z   2
loop_
 _symmetry_equiv_pos_site_id
 _symmetry_equiv_pos_as_xyz
  1  'x, y, z'
loop_
 _atom_site_type_symbol
 _atom_site_label
 _atom_site_symmetry_multiplicity
 _atom_site_fract_x
 _atom_site_fract_y
 _atom_site_fract_z
 _atom_site_occupancy
  Mo  Mo0  1  0.89163700  0.89163700  0.89163700  1
  Mo  Mo1  1  0.10836300  0.10836300  0.10836300  1
  Mo  Mo2  1  0.61145300  0.61145300  0.61145300  1
  Mo  Mo3  1  0.38854700  0.38854700  0.38854700  1
  P  P4  1  0.50000000  0.21144700  0.78855300  1
  P  P5  1  0.21144700  0.78855300  0.50000000  1
  P  P6  1  0.71208900  0.00000000  0.28791100  1
  P  P7  1  0.78855300  0.50000000  0.21144700  1
  P  P8  1  0.00000000  0.28791100  0.71208900  1
  P  P9  1  0.28791100  0.71208900  0.00000000  1
  O  O10  1  0.46873600  0.69622700  0.83586000  1
  O  O11  1  0.23878000  0.62799300  0.46020100  1
  O  O12  1  0.03000700  0.82036800  0.66546700  1
  O  O13  1  0.95477600  0.12202900  0.75113800  1
  O  O14  1  0.33453300  0.17963200  0.96999300  1
  O  O15  1  0.17963200  0.96999300  0.33453300  1
  O  O16  1  0.53979900  0.37200700  0.76122000  1
  O  O17  1  0.87797100  0.04522400  0.24886200  1
  O  O18  1  0.30377300  0.53126400  0.16414000  1
  O  O19  1  0.75113800  0.95477600  0.12202900  1
  O  O20  1  0.37200700  0.76122000  0.53979900  1
  O  O21  1  0.69622700  0.83586000  0.46873600  1
  O  O22  1  0.04522400  0.24886200  0.87797100  1
  O  O23  1  0.76122000  0.53979900  0.37200700  1
  O  O24  1  0.12202900  0.75113800  0.95477600  1
  O  O25  1  0.53126400  0.16414000  0.30377300  1
  O  O26  1  0.83586000  0.46873600  0.69622700  1
  O  O27  1  0.82036800  0.66546700  0.03000700  1
  O  O28  1  0.66546700  0.03000700  0.82036800  1
  O  O29  1  0.62799300  0.46020100  0.23878000  1
  O  O30  1  0.16414000  0.30377300  0.53126400  1
  O  O31  1  0.24886200  0.87797100  0.04522400  1
  O  O32  1  0.96999300  0.33453300  0.17963200  1
  O  O33  1  0.46020100  0.23878000  0.62799300  1
