# generated using pymatgen
data_Cr2(PO3)5
_symmetry_space_group_name_H-M   'P 1'
_cell_length_a   8.62455400
_cell_length_b   5.38369800
_cell_length_c   13.52942064
_cell_angle_alpha   70.71607302
_cell_angle_beta   90.00000000
_cell_angle_gamma   90.00000000
_symmetry_Int_Tables_number   1
_chemical_formula_structural   Cr2(PO3)5
_chemical_formula_sum   'Cr4 P10 O30'
_cell_volume   592.95207321
_cell_formula_units_Z   2
loop_
 _symmetry_equiv_pos_site_id
 _symmetry_equiv_pos_as_xyz
  1  'x, y, z'
loop_
 _atom_site_type_symbol
 _atom_site_label
 _atom_site_symmetry_multiplicity
 _atom_site_fract_x
 _atom_site_fract_y
 _atom_site_fract_z
 _atom_site_occupancy
  Cr  Cr0  1  0.71732800  0.89840200  0.95081300  1
  Cr  Cr1  1  0.28267200  0.89840200  0.45081300  1
  Cr  Cr2  1  0.71732800  0.10159800  0.54918700  1
  Cr  Cr3  1  0.28267200  0.10159800  0.04918700  1
  P  P4  1  0.51312400  0.46254600  0.13989100  1
  P  P5  1  0.48687600  0.53745400  0.86010900  1
  P  P6  1  0.48687600  0.46254600  0.63989100  1
  P  P7  1  0.94592100  0.00000000  0.75000000  1
  P  P8  1  0.17674700  0.30118000  0.58696300  1
  P  P9  1  0.17674700  0.69882000  0.91303700  1
  P  P10  1  0.51312400  0.53745400  0.36010900  1
  P  P11  1  0.82325300  0.30118000  0.08696300  1
  P  P12  1  0.05407900  0.00000000  0.25000000  1
  P  P13  1  0.82325300  0.69882000  0.41303700  1
  O  O14  1  0.14070500  0.90803500  0.17224600  1
  O  O15  1  0.93605200  0.23369300  0.18706800  1
  O  O16  1  0.62956400  0.69552700  0.86088400  1
  O  O17  1  0.62956400  0.30447300  0.63911600  1
  O  O18  1  0.46662700  0.73262600  0.55733600  1
  O  O19  1  0.52656400  0.50000000  0.25000000  1
  O  O20  1  0.85929500  0.90803500  0.67224600  1
  O  O21  1  0.53337300  0.26737400  0.44266400  1
  O  O22  1  0.17415400  0.90299900  0.96539100  1
  O  O23  1  0.34233100  0.72871600  0.85464400  1
  O  O24  1  0.93605200  0.76630700  0.31293200  1
  O  O25  1  0.82584600  0.90299900  0.46539100  1
  O  O26  1  0.53337300  0.73262600  0.05733600  1
  O  O27  1  0.14672300  0.41556200  0.97349500  1
  O  O28  1  0.06394800  0.23369300  0.68706800  1
  O  O29  1  0.65766900  0.27128400  0.14535600  1
  O  O30  1  0.37043600  0.30447300  0.13911600  1
  O  O31  1  0.85327700  0.58443800  0.02650500  1
  O  O32  1  0.14672300  0.58443800  0.52650500  1
  O  O33  1  0.65766900  0.72871600  0.35464400  1
  O  O34  1  0.34233100  0.27128400  0.64535600  1
  O  O35  1  0.85327700  0.41556200  0.47349500  1
  O  O36  1  0.17415400  0.09700100  0.53460900  1
  O  O37  1  0.82584600  0.09700100  0.03460900  1
  O  O38  1  0.37043600  0.69552700  0.36088400  1
  O  O39  1  0.85929500  0.09196500  0.82775400  1
  O  O40  1  0.06394800  0.76630700  0.81293200  1
  O  O41  1  0.46662700  0.26737400  0.94266400  1
  O  O42  1  0.47343600  0.50000000  0.75000000  1
  O  O43  1  0.14070500  0.09196500  0.32775400  1
