# generated using pymatgen
data_LiMn4P7O24
_symmetry_space_group_name_H-M   'P 1'
_cell_length_a   10.39040919
_cell_length_b   10.61176495
_cell_length_c   10.79802845
_cell_angle_alpha   112.36628969
_cell_angle_beta   108.69852232
_cell_angle_gamma   105.82470074
_symmetry_Int_Tables_number   1
_chemical_formula_structural   LiMn4P7O24
_chemical_formula_sum   'Li2 Mn8 P14 O48'
_cell_volume   931.04877320
_cell_formula_units_Z   2
loop_
 _symmetry_equiv_pos_site_id
 _symmetry_equiv_pos_as_xyz
  1  'x, y, z'
loop_
 _atom_site_type_symbol
 _atom_site_label
 _atom_site_symmetry_multiplicity
 _atom_site_fract_x
 _atom_site_fract_y
 _atom_site_fract_z
 _atom_site_occupancy
  Li  Li0  1  0.01782000  0.40701700  0.57214900  1
  Li  Li1  1  0.98218000  0.59298300  0.42785100  1
  Mn  Mn2  1  0.24328300  0.84973900  0.74460200  1
  Mn  Mn3  1  0.05842700  0.69509100  0.07085700  1
  Mn  Mn4  1  0.39134500  0.23205100  0.89773000  1
  Mn  Mn5  1  0.43036300  0.59892400  0.41613500  1
  Mn  Mn6  1  0.56963700  0.40107600  0.58386600  1
  Mn  Mn7  1  0.60865500  0.76794900  0.10227000  1
  Mn  Mn8  1  0.94157300  0.30490900  0.92914300  1
  Mn  Mn9  1  0.75671700  0.15026100  0.25539800  1
  P  P10  1  0.99528000  0.97014600  0.76457400  1
  P  P11  1  0.23645000  0.81557200  0.42861200  1
  P  P12  1  0.07670700  0.33964200  0.27387400  1
  P  P13  1  0.49660100  0.74434000  0.75666600  1
  P  P14  1  0.27071000  0.13452900  0.52781600  1
  P  P15  1  0.37641800  0.92032500  0.11012500  1
  P  P16  1  0.30064200  0.49399600  0.04828100  1
  P  P17  1  0.69935800  0.50600400  0.95171900  1
  P  P18  1  0.62358200  0.07967500  0.88987500  1
  P  P19  1  0.72929000  0.86547100  0.47218400  1
  P  P20  1  0.50339900  0.25566000  0.24333400  1
  P  P21  1  0.92329300  0.66035800  0.72612600  1
  P  P22  1  0.76355000  0.18442800  0.57138800  1
  P  P23  1  0.00472000  0.02985400  0.23542600  1
  O  O24  1  0.00535600  0.66081300  0.86992700  1
  O  O25  1  0.01189400  0.64291700  0.63461700  1
  O  O26  1  0.01919900  0.90006300  0.13435700  1
  O  O27  1  0.30569400  0.87901300  0.94537000  1
  O  O28  1  0.16213900  0.80377400  0.53141100  1
  O  O29  1  0.10003900  0.71674700  0.26760600  1
  O  O30  1  0.27327500  0.33553600  0.92893200  1
  O  O31  1  0.30138300  0.99045700  0.46501700  1
  O  O32  1  0.15649300  0.99355200  0.79169500  1
  O  O33  1  0.32812000  0.71336700  0.69735100  1
  O  O34  1  0.09572600  0.08074600  0.41311400  1
  O  O35  1  0.08054100  0.17582900  0.22525300  1
  O  O36  1  0.24060500  0.45867400  0.37649600  1
  O  O37  1  0.28208700  0.17836200  0.68111700  1
  O  O38  1  0.13591000  0.48116600  0.00795200  1
  O  O39  1  0.36923700  0.78036100  0.45441300  1
  O  O40  1  0.27533200  0.82469700  0.14770900  1
  O  O41  1  0.56316700  0.74794900  0.90402800  1
  O  O42  1  0.59471500  0.90849300  0.78465200  1
  O  O43  1  0.36345800  0.25592200  0.50948500  1
  O  O44  1  0.50856600  0.62952300  0.62670100  1
  O  O45  1  0.45904800  0.06730700  0.83176300  1
  O  O46  1  0.38142500  0.52145800  0.20989000  1
  O  O47  1  0.60717200  0.38240800  0.96997700  1
  O  O48  1  0.39282800  0.61759200  0.03002300  1
  O  O49  1  0.61857500  0.47854200  0.79011000  1
  O  O50  1  0.54095200  0.93269300  0.16823700  1
  O  O51  1  0.49143400  0.37047700  0.37329900  1
  O  O52  1  0.63654200  0.74407800  0.49051500  1
  O  O53  1  0.40528500  0.09150700  0.21534800  1
  O  O54  1  0.43683300  0.25205100  0.09597200  1
  O  O55  1  0.72466800  0.17530300  0.85229000  1
  O  O56  1  0.63076300  0.21963900  0.54558700  1
  O  O57  1  0.86409000  0.51883400  0.99204800  1
  O  O58  1  0.71791300  0.82163800  0.31888300  1
  O  O59  1  0.75939500  0.54132600  0.62350400  1
  O  O60  1  0.91945900  0.82417100  0.77474700  1
  O  O61  1  0.90427400  0.91925400  0.58688600  1
  O  O62  1  0.67188000  0.28663300  0.30264900  1
  O  O63  1  0.84350700  0.00644800  0.20830500  1
  O  O64  1  0.69861700  0.00954300  0.53498300  1
  O  O65  1  0.72672500  0.66446400  0.07106800  1
  O  O66  1  0.89996100  0.28325300  0.73239400  1
  O  O67  1  0.83786100  0.19622600  0.46858900  1
  O  O68  1  0.69430600  0.12098700  0.05463000  1
  O  O69  1  0.98080100  0.09993700  0.86564300  1
  O  O70  1  0.98810600  0.35708300  0.36538300  1
  O  O71  1  0.99464400  0.33918700  0.13007300  1
