# generated using pymatgen
data_Cu4(PO4)3
_symmetry_space_group_name_H-M   'P 1'
_cell_length_a   6.03208800
_cell_length_b   14.51813600
_cell_length_c   10.16605100
_cell_angle_alpha   90.00000000
_cell_angle_beta   90.00000000
_cell_angle_gamma   90.00000000
_symmetry_Int_Tables_number   1
_chemical_formula_structural   Cu4(PO4)3
_chemical_formula_sum   'Cu16 P12 O48'
_cell_volume   890.28860166
_cell_formula_units_Z   4
loop_
 _symmetry_equiv_pos_site_id
 _symmetry_equiv_pos_as_xyz
  1  'x, y, z'
loop_
 _atom_site_type_symbol
 _atom_site_label
 _atom_site_symmetry_multiplicity
 _atom_site_fract_x
 _atom_site_fract_y
 _atom_site_fract_z
 _atom_site_occupancy
  Cu  Cu0  1  0.56104800  0.63445000  0.64686300  1
  Cu  Cu1  1  0.85701900  0.40538900  0.56706500  1
  Cu  Cu2  1  0.43895200  0.13445000  0.35313700  1
  Cu  Cu3  1  0.14298100  0.90538900  0.43293500  1
  Cu  Cu4  1  0.93895200  0.36555000  0.14686300  1
  Cu  Cu5  1  0.06104800  0.63445000  0.85313700  1
  Cu  Cu6  1  0.85701900  0.09461100  0.56706500  1
  Cu  Cu7  1  0.06104800  0.86555000  0.85313700  1
  Cu  Cu8  1  0.35701900  0.09461100  0.93293500  1
  Cu  Cu9  1  0.35701900  0.40538900  0.93293500  1
  Cu  Cu10  1  0.14298100  0.59461100  0.43293500  1
  Cu  Cu11  1  0.64298100  0.90538900  0.06706500  1
  Cu  Cu12  1  0.64298100  0.59461100  0.06706500  1
  Cu  Cu13  1  0.56104800  0.86555000  0.64686300  1
  Cu  Cu14  1  0.43895200  0.36555000  0.35313700  1
  Cu  Cu15  1  0.93895200  0.13445000  0.14686300  1
  P  P16  1  0.63647100  0.56897100  0.36430200  1
  P  P17  1  0.86352900  0.43102900  0.86430200  1
  P  P18  1  0.13647100  0.93102900  0.13569800  1
  P  P19  1  0.36352800  0.43102900  0.63569800  1
  P  P20  1  0.01246200  0.25000000  0.39884100  1
  P  P21  1  0.48753800  0.75000000  0.89884100  1
  P  P22  1  0.36352800  0.06897100  0.63569800  1
  P  P23  1  0.98753800  0.75000000  0.60115900  1
  P  P24  1  0.51246200  0.25000000  0.10115900  1
  P  P25  1  0.13647100  0.56897100  0.13569800  1
  P  P26  1  0.86352900  0.06897100  0.86430200  1
  P  P27  1  0.63647100  0.93102900  0.36430200  1
  O  O28  1  0.94269600  0.25000000  0.54248800  1
  O  O29  1  0.96207900  0.98170700  0.80084600  1
  O  O30  1  0.96212100  0.88770500  0.03320200  1
  O  O31  1  0.96207900  0.51829300  0.80084600  1
  O  O32  1  0.53792100  0.01829300  0.30084600  1
  O  O33  1  0.15999800  0.45050200  0.54568900  1
  O  O34  1  0.65999800  0.45050200  0.95431100  1
  O  O35  1  0.91976100  0.16063200  0.33479800  1
  O  O36  1  0.53792100  0.48170700  0.30084600  1
  O  O37  1  0.58023900  0.66063200  0.83479800  1
  O  O38  1  0.81575500  0.36571500  0.75073200  1
  O  O39  1  0.91976100  0.33936800  0.33479800  1
  O  O40  1  0.03787900  0.11229500  0.96679800  1
  O  O41  1  0.65999800  0.04949800  0.95431100  1
  O  O42  1  0.18424500  0.86571500  0.24926800  1
  O  O43  1  0.46212100  0.88770500  0.46679800  1
  O  O44  1  0.41976100  0.33936800  0.16520200  1
  O  O45  1  0.27846100  0.25000000  0.38525700  1
  O  O46  1  0.84000200  0.95050200  0.45431100  1
  O  O47  1  0.31575500  0.13428500  0.74926800  1
  O  O48  1  0.34000200  0.54949800  0.04568900  1
  O  O49  1  0.08023900  0.83936800  0.66520200  1
  O  O50  1  0.84000200  0.54949800  0.45431100  1
  O  O51  1  0.03792100  0.01829300  0.19915400  1
  O  O52  1  0.68424500  0.86571500  0.25073200  1
  O  O53  1  0.34000200  0.95050200  0.04568900  1
  O  O54  1  0.31575500  0.36571500  0.74926800  1
  O  O55  1  0.53787900  0.11229500  0.53320200  1
  O  O56  1  0.18424500  0.63428500  0.24926800  1
  O  O57  1  0.08023900  0.66063200  0.66520200  1
  O  O58  1  0.96212100  0.61229500  0.03320200  1
  O  O59  1  0.22153900  0.75000000  0.88525700  1
  O  O60  1  0.77846100  0.25000000  0.11474300  1
  O  O61  1  0.55730400  0.75000000  0.04248800  1
  O  O62  1  0.46207900  0.98170700  0.69915400  1
  O  O63  1  0.58023900  0.83936800  0.83479800  1
  O  O64  1  0.03787900  0.38770500  0.96679800  1
  O  O65  1  0.72153900  0.75000000  0.61474300  1
  O  O66  1  0.46207900  0.51829300  0.69915400  1
  O  O67  1  0.68424500  0.63428500  0.25073200  1
  O  O68  1  0.81575500  0.13428500  0.75073200  1
  O  O69  1  0.41976100  0.16063200  0.16520200  1
  O  O70  1  0.03792100  0.48170700  0.19915400  1
  O  O71  1  0.05730400  0.75000000  0.45751200  1
  O  O72  1  0.15999800  0.04949800  0.54568900  1
  O  O73  1  0.53787900  0.38770500  0.53320200  1
  O  O74  1  0.46212100  0.61229500  0.46679800  1
  O  O75  1  0.44269600  0.25000000  0.95751200  1
