# generated using pymatgen
data_Ba8Bi4O17
_symmetry_space_group_name_H-M   'P 1'
_cell_length_a   6.41793382
_cell_length_b   19.34537547
_cell_length_c   17.08402249
_cell_angle_alpha   19.01710658
_cell_angle_beta   55.70159442
_cell_angle_gamma   60.15647135
_symmetry_Int_Tables_number   1
_chemical_formula_structural   Ba8Bi4O17
_chemical_formula_sum   'Ba8 Bi4 O17'
_cell_volume   566.10109624
_cell_formula_units_Z   1
loop_
 _symmetry_equiv_pos_site_id
 _symmetry_equiv_pos_as_xyz
  1  'x, y, z'
loop_
 _atom_site_type_symbol
 _atom_site_label
 _atom_site_symmetry_multiplicity
 _atom_site_fract_x
 _atom_site_fract_y
 _atom_site_fract_z
 _atom_site_occupancy
  Ba  Ba0  1  0.24171300  0.24723800  0.25828700  1
  Ba  Ba1  1  0.49579100  0.16526400  0.50420900  1
  Ba  Ba2  1  0.17832400  0.55944100  0.32167600  1
  Ba  Ba3  1  0.67832400  0.05944100  0.82167600  1
  Ba  Ba4  1  0.20522000  0.90174000  0.29478000  1
  Ba  Ba5  1  0.70522000  0.40174000  0.79478000  1
  Ba  Ba6  1  0.45946200  0.81982000  0.54053800  1
  Ba  Ba7  1  0.74171300  0.74723800  0.75828700  1
  Bi  Bi8  1  0.98141400  0.99380500  0.01858600  1
  Bi  Bi9  1  0.99515600  0.33171800  0.00484400  1
  Bi  Bi10  1  0.00448200  0.66816100  0.99551800  1
  Bi  Bi11  1  0.47327100  0.49109000  0.52672900  1
  O  O12  1  0.24545600  0.10460500  0.22036500  1
  O  O13  1  0.29994300  0.47213700  0.14182400  1
  O  O14  1  0.77963500  0.10460500  0.22036500  1
  O  O15  1  0.21561200  0.07187100  0.78438800  1
  O  O16  1  0.76956900  0.25652300  0.23043100  1
  O  O17  1  0.24333900  0.75695800  0.24289300  1
  O  O18  1  0.24333900  0.24319000  0.75666100  1
  O  O19  1  0.85817600  0.47213700  0.14182400  1
  O  O20  1  0.77485000  0.59161700  0.22515000  1
  O  O21  1  0.24336000  0.41445300  0.75664100  1
  O  O22  1  0.24545600  0.57042500  0.75454400  1
  O  O23  1  0.75710700  0.24319000  0.75666100  1
  O  O24  1  0.75710700  0.75695800  0.24289300  1
  O  O25  1  0.75420900  0.91806900  0.24579100  1
  O  O26  1  0.29994300  0.91390300  0.70005700  1
  O  O27  1  0.77963500  0.57042500  0.75454400  1
  O  O28  1  0.85817600  0.91390300  0.70005700  1
