# generated using pymatgen
data_MnTl(VS2)4
_symmetry_space_group_name_H-M   'P 1'
_cell_length_a   3.28952400
_cell_length_b   8.48739039
_cell_length_c   8.91440874
_cell_angle_alpha   104.32859850
_cell_angle_beta   100.63232661
_cell_angle_gamma   90.00000000
_symmetry_Int_Tables_number   1
_chemical_formula_structural   MnTl(VS2)4
_chemical_formula_sum   'Mn1 Tl1 V4 S8'
_cell_volume   236.73063059
_cell_formula_units_Z   1
loop_
 _symmetry_equiv_pos_site_id
 _symmetry_equiv_pos_as_xyz
  1  'x, y, z'
loop_
 _atom_site_type_symbol
 _atom_site_label
 _atom_site_symmetry_multiplicity
 _atom_site_fract_x
 _atom_site_fract_y
 _atom_site_fract_z
 _atom_site_occupancy
  Mn  Mn0  1  0.00000000  0.50000000  0.00000000  1
  Tl  Tl1  1  0.50000000  0.00000000  0.00000000  1
  V  V2  1  0.71135600  0.85945700  0.42271200  1
  V  V3  1  0.28864400  0.14054300  0.57728800  1
  V  V4  1  0.64857800  0.49782900  0.29715600  1
  V  V5  1  0.35142200  0.50217100  0.70284400  1
  S  S6  1  0.84085300  0.00420300  0.68170600  1
  S  S7  1  0.15914700  0.99579700  0.31829400  1
  S  S8  1  0.75877300  0.33781100  0.51754500  1
  S  S9  1  0.24122700  0.66218900  0.48245500  1
  S  S10  1  0.91832900  0.67702000  0.83665800  1
  S  S11  1  0.08167100  0.32298000  0.16334200  1
  S  S12  1  0.57102700  0.67389900  0.14205400  1
  S  S13  1  0.42897300  0.32610100  0.85794600  1
