# generated using pymatgen
data_Dy3NbO7
_symmetry_space_group_name_H-M   'P 1'
_cell_length_a   8.17033609
_cell_length_b   8.17033609
_cell_length_c   5.37094700
_cell_angle_alpha   90.00000000
_cell_angle_beta   90.00000000
_cell_angle_gamma   125.35572356
_symmetry_Int_Tables_number   1
_chemical_formula_structural   Dy3NbO7
_chemical_formula_sum   'Dy6 Nb2 O14'
_cell_volume   292.41168528
_cell_formula_units_Z   2
loop_
 _symmetry_equiv_pos_site_id
 _symmetry_equiv_pos_as_xyz
  1  'x, y, z'
loop_
 _atom_site_type_symbol
 _atom_site_label
 _atom_site_symmetry_multiplicity
 _atom_site_fract_x
 _atom_site_fract_y
 _atom_site_fract_z
 _atom_site_occupancy
  Dy  Dy0  1  0.00000000  0.50000000  0.00000000  1
  Dy  Dy1  1  0.50000000  0.00000000  0.00000000  1
  Dy  Dy2  1  0.62023800  0.37976200  0.47021600  1
  Dy  Dy3  1  0.12023800  0.87976200  0.52978400  1
  Dy  Dy4  1  0.87976200  0.12023800  0.47021600  1
  Dy  Dy5  1  0.37976200  0.62023800  0.52978400  1
  Nb  Nb6  1  0.75000000  0.75000000  0.00000000  1
  Nb  Nb7  1  0.25000000  0.25000000  0.00000000  1
  O  O8  1  0.75000000  0.25000000  0.23944300  1
  O  O9  1  0.83807400  0.59681800  0.76239400  1
  O  O10  1  0.98783000  0.01217000  0.21329800  1
  O  O11  1  0.25000000  0.75000000  0.76055700  1
  O  O12  1  0.40318200  0.16192600  0.76239400  1
  O  O13  1  0.09681800  0.33807400  0.76239400  1
  O  O14  1  0.33807400  0.09681800  0.23760600  1
  O  O15  1  0.51217000  0.48783000  0.21329800  1
  O  O16  1  0.48783000  0.51217000  0.78670200  1
  O  O17  1  0.66192600  0.90318200  0.76239400  1
  O  O18  1  0.59681800  0.83807400  0.23760600  1
  O  O19  1  0.90318200  0.66192600  0.23760600  1
  O  O20  1  0.01217000  0.98783000  0.78670200  1
  O  O21  1  0.16192600  0.40318200  0.23760600  1
