# generated using pymatgen
data_Ta3InO9
_symmetry_space_group_name_H-M   'P 1'
_cell_length_a   6.39939900
_cell_length_b   7.64009200
_cell_length_c   12.71663900
_cell_angle_alpha   90.00000000
_cell_angle_beta   90.00000000
_cell_angle_gamma   90.00000000
_symmetry_Int_Tables_number   1
_chemical_formula_structural   Ta3InO9
_chemical_formula_sum   'Ta12 In4 O36'
_cell_volume   621.74187717
_cell_formula_units_Z   4
loop_
 _symmetry_equiv_pos_site_id
 _symmetry_equiv_pos_as_xyz
  1  'x, y, z'
loop_
 _atom_site_type_symbol
 _atom_site_label
 _atom_site_symmetry_multiplicity
 _atom_site_fract_x
 _atom_site_fract_y
 _atom_site_fract_z
 _atom_site_occupancy
  Ta  Ta0  1  0.00000000  0.00000000  0.00000000  1
  Ta  Ta1  1  0.00000000  0.50000000  0.00000000  1
  Ta  Ta2  1  0.20596700  0.00264300  0.71306900  1
  Ta  Ta3  1  0.20596700  0.49735700  0.71306900  1
  Ta  Ta4  1  0.29403300  0.50264300  0.21306900  1
  Ta  Ta5  1  0.29403300  0.99735700  0.21306900  1
  Ta  Ta6  1  0.50000000  0.00000000  0.50000000  1
  Ta  Ta7  1  0.50000000  0.50000000  0.50000000  1
  Ta  Ta8  1  0.70596700  0.00264300  0.78693100  1
  Ta  Ta9  1  0.70596700  0.49735700  0.78693100  1
  Ta  Ta10  1  0.79403300  0.50264300  0.28693100  1
  Ta  Ta11  1  0.79403300  0.99735700  0.28693100  1
  In  In12  1  0.05248200  0.25000000  0.45248700  1
  In  In13  1  0.44751800  0.75000000  0.95248700  1
  In  In14  1  0.55248200  0.25000000  0.04751300  1
  In  In15  1  0.94751800  0.75000000  0.54751300  1
  O  O16  1  0.01565300  0.04079600  0.84378700  1
  O  O17  1  0.01565300  0.45920300  0.84378700  1
  O  O18  1  0.09535400  0.75000000  0.97760800  1
  O  O19  1  0.10056600  0.03628900  0.33307300  1
  O  O20  1  0.10056600  0.46371100  0.33307300  1
  O  O21  1  0.16707700  0.25000000  0.67416300  1
  O  O22  1  0.21089900  0.75000000  0.70114600  1
  O  O23  1  0.20540600  0.54899400  0.53687800  1
  O  O24  1  0.20540600  0.95100600  0.53687800  1
  O  O25  1  0.29459400  0.04899400  0.03687800  1
  O  O26  1  0.29459400  0.45100600  0.03687800  1
  O  O27  1  0.28910100  0.25000000  0.20114600  1
  O  O28  1  0.33292300  0.75000000  0.17416300  1
  O  O29  1  0.39943400  0.53628900  0.83307300  1
  O  O30  1  0.39943400  0.96371100  0.83307300  1
  O  O31  1  0.40464600  0.25000000  0.47760800  1
  O  O32  1  0.48434700  0.54079700  0.34378700  1
  O  O33  1  0.48434700  0.95920300  0.34378700  1
  O  O34  1  0.51565300  0.04079600  0.65621300  1
  O  O35  1  0.51565300  0.45920300  0.65621300  1
  O  O36  1  0.59535400  0.75000000  0.52239200  1
  O  O37  1  0.60056600  0.03628900  0.16692700  1
  O  O38  1  0.60056600  0.46371100  0.16692700  1
  O  O39  1  0.66707700  0.25000000  0.82583700  1
  O  O40  1  0.71089900  0.75000000  0.79885400  1
  O  O41  1  0.70540600  0.54899400  0.96312200  1
  O  O42  1  0.70540600  0.95100600  0.96312200  1
  O  O43  1  0.79459400  0.04899400  0.46312200  1
  O  O44  1  0.79459400  0.45100600  0.46312200  1
  O  O45  1  0.78910100  0.25000000  0.29885400  1
  O  O46  1  0.83292300  0.75000000  0.32583700  1
  O  O47  1  0.89943400  0.53628900  0.66692700  1
  O  O48  1  0.89943400  0.96371100  0.66692700  1
  O  O49  1  0.90464600  0.25000000  0.02239200  1
  O  O50  1  0.98434700  0.54079700  0.15621300  1
  O  O51  1  0.98434700  0.95920300  0.15621300  1
