# generated using pymatgen
data_NaCoBO3
_symmetry_space_group_name_H-M   'P 1'
_cell_length_a   5.03931857
_cell_length_b   7.34041389
_cell_length_c   7.33964573
_cell_angle_alpha   74.39655970
_cell_angle_beta   102.91116803
_cell_angle_gamma   102.90854131
_symmetry_Int_Tables_number   1
_chemical_formula_structural   NaCoBO3
_chemical_formula_sum   'Na4 Co4 B4 O12'
_cell_volume   250.99627826
_cell_formula_units_Z   4
loop_
 _symmetry_equiv_pos_site_id
 _symmetry_equiv_pos_as_xyz
  1  'x, y, z'
loop_
 _atom_site_type_symbol
 _atom_site_label
 _atom_site_symmetry_multiplicity
 _atom_site_fract_x
 _atom_site_fract_y
 _atom_site_fract_z
 _atom_site_occupancy
  Na  Na0  1  0.37500700  0.71108700  0.03891300  1
  Na  Na1  1  0.87497800  0.21107500  0.53891600  1
  Na  Na2  1  0.62500700  0.28893700  0.96106700  1
  Na  Na3  1  0.12499000  0.78887000  0.46112800  1
  Co  Co4  1  0.74969700  0.75010800  0.75003900  1
  Co  Co5  1  0.50029800  0.49994600  0.49991300  1
  Co  Co6  1  0.24971100  0.25013300  0.25001600  1
  Co  Co7  1  0.00028500  0.99999100  0.99986100  1
  B  B8  1  0.87497200  0.54258100  0.20736200  1
  B  B9  1  0.37501900  0.04264000  0.70741800  1
  B  B10  1  0.12500100  0.45737500  0.79261400  1
  B  B11  1  0.62501000  0.95739900  0.29261300  1
  O  O12  1  0.87495600  0.69878700  0.05110000  1
  O  O13  1  0.37499400  0.19885300  0.55117300  1
  O  O14  1  0.12502700  0.30117700  0.94885100  1
  O  O15  1  0.62503200  0.80117200  0.44888600  1
  O  O16  1  0.62678600  0.43917700  0.25958200  1
  O  O17  1  0.12684800  0.93919300  0.75964300  1
  O  O18  1  0.12318300  0.49039300  0.31080600  1
  O  O19  1  0.62324800  0.99046500  0.81083500  1
  O  O20  1  0.87676600  0.50947000  0.68913100  1
  O  O21  1  0.37676800  0.00948600  0.18917700  1
  O  O22  1  0.37320000  0.56086200  0.74047400  1
  O  O23  1  0.87321800  0.06082300  0.24048500  1
