# generated using pymatgen
data_Co(CN)6
_symmetry_space_group_name_H-M   'P 1'
_cell_length_a   6.02554200
_cell_length_b   6.81428395
_cell_length_c   6.81428395
_cell_angle_alpha   119.99999956
_cell_angle_beta   90.00000000
_cell_angle_gamma   90.00000000
_symmetry_Int_Tables_number   1
_chemical_formula_structural   Co(CN)6
_chemical_formula_sum   'Co1 C6 N6'
_cell_volume   242.30769446
_cell_formula_units_Z   1
loop_
 _symmetry_equiv_pos_site_id
 _symmetry_equiv_pos_as_xyz
  1  'x, y, z'
loop_
 _atom_site_type_symbol
 _atom_site_label
 _atom_site_symmetry_multiplicity
 _atom_site_fract_x
 _atom_site_fract_y
 _atom_site_fract_z
 _atom_site_occupancy
  Co  Co0  1  0.00000000  0.00000000  0.00000000  1
  C  C1  1  0.18954700  0.78168400  0.00000000  1
  C  C2  1  0.18954700  0.00000000  0.78168400  1
  C  C3  1  0.18954700  0.21831600  0.21831600  1
  C  C4  1  0.81045300  0.21831600  0.00000000  1
  C  C5  1  0.81045300  0.00000000  0.21831600  1
  C  C6  1  0.81045300  0.78168400  0.78168400  1
  N  N7  1  0.30105500  0.63911600  0.00000000  1
  N  N8  1  0.30105500  0.00000000  0.63911600  1
  N  N9  1  0.30105500  0.36088400  0.36088400  1
  N  N10  1  0.69894500  0.36088400  0.00000000  1
  N  N11  1  0.69894500  0.00000000  0.36088400  1
  N  N12  1  0.69894500  0.63911600  0.63911600  1
