# generated using pymatgen
data_VCrO3
_symmetry_space_group_name_H-M   'P 1'
_cell_length_a   5.11995569
_cell_length_b   5.49427243
_cell_length_c   9.10816593
_cell_angle_alpha   85.36733582
_cell_angle_beta   73.50751843
_cell_angle_gamma   117.53976034
_symmetry_Int_Tables_number   1
_chemical_formula_structural   VCrO3
_chemical_formula_sum   'V4 Cr4 O12'
_cell_volume   210.95513111
_cell_formula_units_Z   4
loop_
 _symmetry_equiv_pos_site_id
 _symmetry_equiv_pos_as_xyz
  1  'x, y, z'
loop_
 _atom_site_type_symbol
 _atom_site_label
 _atom_site_symmetry_multiplicity
 _atom_site_fract_x
 _atom_site_fract_y
 _atom_site_fract_z
 _atom_site_occupancy
  V  V0  1  0.14831100  0.87023000  0.57624900  1
  V  V1  1  0.35000100  0.87817300  0.17554600  1
  V  V2  1  0.65028900  0.62174900  0.32430800  1
  V  V3  1  0.85175700  0.62984800  0.92354500  1
  Cr  Cr4  1  0.15223800  0.37879800  0.07320700  1
  Cr  Cr5  1  0.34932600  0.37216000  0.67384200  1
  Cr  Cr6  1  0.65028400  0.12764300  0.82608300  1
  Cr  Cr7  1  0.84775200  0.12133900  0.42641700  1
  O  O8  1  0.05217500  0.52246300  0.72331300  1
  O  O9  1  0.05620200  0.03193400  0.22273000  1
  O  O10  1  0.44897800  0.87777300  0.37541900  1
  O  O11  1  0.55152300  0.62241200  0.12467700  1
  O  O12  1  0.25212400  0.77743500  0.97292500  1
  O  O13  1  0.24746800  0.27516400  0.47408600  1
  O  O14  1  0.74755600  0.72258200  0.52688600  1
  O  O15  1  0.75032600  0.22344200  0.02699800  1
  O  O16  1  0.44557900  0.37380800  0.87343200  1
  O  O17  1  0.55441400  0.12623100  0.62637300  1
  O  O18  1  0.94766400  0.97751200  0.77703700  1
  O  O19  1  0.94603000  0.46930300  0.27692400  1
