# generated using pymatgen
data_ErGa6
_symmetry_space_group_name_H-M   'P 1'
_cell_length_a   5.99068300
_cell_length_b   5.99068300
_cell_length_c   7.54594200
_cell_angle_alpha   90.00000000
_cell_angle_beta   90.00000000
_cell_angle_gamma   90.00000000
_symmetry_Int_Tables_number   1
_chemical_formula_structural   ErGa6
_chemical_formula_sum   'Er2 Ga12'
_cell_volume   270.81090054
_cell_formula_units_Z   2
loop_
 _symmetry_equiv_pos_site_id
 _symmetry_equiv_pos_as_xyz
  1  'x, y, z'
loop_
 _atom_site_type_symbol
 _atom_site_label
 _atom_site_symmetry_multiplicity
 _atom_site_fract_x
 _atom_site_fract_y
 _atom_site_fract_z
 _atom_site_occupancy
  Er  Er0  1  0.50000000  0.00000000  0.00000000  1
  Er  Er1  1  0.00000000  0.50000000  0.00000000  1
  Ga  Ga2  1  0.50000000  0.50000000  0.16050600  1
  Ga  Ga3  1  0.00000000  0.00000000  0.16050600  1
  Ga  Ga4  1  0.00000000  0.00000000  0.83949400  1
  Ga  Ga5  1  0.50000000  0.50000000  0.83949400  1
  Ga  Ga6  1  0.80953600  0.69046400  0.34795500  1
  Ga  Ga7  1  0.30953600  0.80953600  0.34795500  1
  Ga  Ga8  1  0.69046400  0.19046400  0.34795500  1
  Ga  Ga9  1  0.19046400  0.30953600  0.34795500  1
  Ga  Ga10  1  0.69046400  0.80953600  0.65204500  1
  Ga  Ga11  1  0.19046400  0.69046400  0.65204500  1
  Ga  Ga12  1  0.80953600  0.30953600  0.65204500  1
  Ga  Ga13  1  0.30953600  0.19046400  0.65204500  1
