# generated using pymatgen
data_Mg2Si
_symmetry_space_group_name_H-M   'P 1'
_cell_length_a   4.20420300
_cell_length_b   7.00953100
_cell_length_c   8.03950700
_cell_angle_alpha   90.00000000
_cell_angle_beta   90.00000000
_cell_angle_gamma   90.00000000
_symmetry_Int_Tables_number   1
_chemical_formula_structural   Mg2Si
_chemical_formula_sum   'Mg8 Si4'
_cell_volume   236.92018126
_cell_formula_units_Z   4
loop_
 _symmetry_equiv_pos_site_id
 _symmetry_equiv_pos_as_xyz
  1  'x, y, z'
loop_
 _atom_site_type_symbol
 _atom_site_label
 _atom_site_symmetry_multiplicity
 _atom_site_fract_x
 _atom_site_fract_y
 _atom_site_fract_z
 _atom_site_occupancy
  Mg  Mg0  1  0.25000000  0.03138200  0.83448500  1
  Mg  Mg1  1  0.25000000  0.53138200  0.66551500  1
  Mg  Mg2  1  0.75000000  0.96861800  0.16551500  1
  Mg  Mg3  1  0.75000000  0.46861800  0.33448500  1
  Mg  Mg4  1  0.25000000  0.14065500  0.43864000  1
  Mg  Mg5  1  0.25000000  0.64065500  0.06136000  1
  Mg  Mg6  1  0.75000000  0.85934500  0.56136000  1
  Mg  Mg7  1  0.75000000  0.35934500  0.93864000  1
  Si  Si8  1  0.25000000  0.25301200  0.12580200  1
  Si  Si9  1  0.25000000  0.75301200  0.37419800  1
  Si  Si10  1  0.75000000  0.74698800  0.87419800  1
  Si  Si11  1  0.75000000  0.24698800  0.62580200  1
