# generated using pymatgen
data_Na2CO3
_symmetry_space_group_name_H-M   'P 1'
_cell_length_a   5.28543200
_cell_length_b   5.29514711
_cell_length_c   6.28515564
_cell_angle_alpha   94.93002162
_cell_angle_beta   90.00000000
_cell_angle_gamma   119.93932648
_symmetry_Int_Tables_number   1
_chemical_formula_structural   Na2CO3
_chemical_formula_sum   'Na4 C2 O6'
_cell_volume   151.67852637
_cell_formula_units_Z   2
loop_
 _symmetry_equiv_pos_site_id
 _symmetry_equiv_pos_as_xyz
  1  'x, y, z'
loop_
 _atom_site_type_symbol
 _atom_site_label
 _atom_site_symmetry_multiplicity
 _atom_site_fract_x
 _atom_site_fract_y
 _atom_site_fract_z
 _atom_site_occupancy
  Na  Na0  1  0.00000000  0.00000000  0.00000000  1
  Na  Na1  1  0.00000000  0.00000000  0.50000000  1
  Na  Na2  1  0.67378500  0.34757000  0.77132900  1
  Na  Na3  1  0.32621500  0.65243000  0.22867100  1
  C  C4  1  0.66966500  0.33932900  0.24519300  1
  C  C5  1  0.33033500  0.66067100  0.75480700  1
  O  O6  1  0.81449000  0.20222900  0.26037200  1
  O  O7  1  0.38773900  0.20222900  0.26037200  1
  O  O8  1  0.18551000  0.79777100  0.73962800  1
  O  O9  1  0.61226100  0.79777100  0.73962800  1
  O  O10  1  0.80751700  0.61503300  0.21166700  1
  O  O11  1  0.19248300  0.38496700  0.78833300  1
