# generated using pymatgen
data_TlPd2
_symmetry_space_group_name_H-M   'P 1'
_cell_length_a   4.26706000
_cell_length_b   5.85359000
_cell_length_c   8.60006000
_cell_angle_alpha   90.00000000
_cell_angle_beta   90.00000000
_cell_angle_gamma   90.00000000
_symmetry_Int_Tables_number   1
_chemical_formula_structural   TlPd2
_chemical_formula_sum   'Tl4 Pd8'
_cell_volume   214.80902847
_cell_formula_units_Z   4
loop_
 _symmetry_equiv_pos_site_id
 _symmetry_equiv_pos_as_xyz
  1  'x, y, z'
loop_
 _atom_site_type_symbol
 _atom_site_label
 _atom_site_symmetry_multiplicity
 _atom_site_fract_x
 _atom_site_fract_y
 _atom_site_fract_z
 _atom_site_occupancy
  Tl  Tl0  1  0.75000000  0.67847000  0.89787400  1
  Tl  Tl1  1  0.75000000  0.17847000  0.60212600  1
  Tl  Tl2  1  0.25000000  0.32153000  0.10212600  1
  Tl  Tl3  1  0.25000000  0.82153000  0.39787400  1
  Pd  Pd4  1  0.75000000  0.65698200  0.57203600  1
  Pd  Pd5  1  0.75000000  0.15698200  0.92796400  1
  Pd  Pd6  1  0.25000000  0.34301800  0.42796400  1
  Pd  Pd7  1  0.25000000  0.84301800  0.07203600  1
  Pd  Pd8  1  0.75000000  0.56947900  0.23422300  1
  Pd  Pd9  1  0.75000000  0.06947900  0.26577700  1
  Pd  Pd10  1  0.25000000  0.43052100  0.76577700  1
  Pd  Pd11  1  0.25000000  0.93052100  0.73422300  1
