# generated using pymatgen
data_AlNF4
_symmetry_space_group_name_H-M   'P 1'
_cell_length_a   7.16059163
_cell_length_b   7.16059163
_cell_length_c   7.16059163
_cell_angle_alpha   138.73241732
_cell_angle_beta   138.73241732
_cell_angle_gamma   59.78309880
_symmetry_Int_Tables_number   1
_chemical_formula_structural   AlNF4
_chemical_formula_sum   'Al2 N2 F8'
_cell_volume   158.11280839
_cell_formula_units_Z   2
loop_
 _symmetry_equiv_pos_site_id
 _symmetry_equiv_pos_as_xyz
  1  'x, y, z'
loop_
 _atom_site_type_symbol
 _atom_site_label
 _atom_site_symmetry_multiplicity
 _atom_site_fract_x
 _atom_site_fract_y
 _atom_site_fract_z
 _atom_site_occupancy
  Al  Al0  1  0.50000000  0.50000000  0.00000000  1
  Al  Al1  1  0.00000000  0.00000000  0.00000000  1
  N  N2  1  0.25000000  0.75000000  0.50000000  1
  N  N3  1  0.75000000  0.25000000  0.50000000  1
  F  F4  1  0.35418500  0.35418500  0.00000000  1
  F  F5  1  0.85418500  0.85418500  0.00000000  1
  F  F6  1  0.64581500  0.64581500  0.00000000  1
  F  F7  1  0.14581500  0.14581500  0.00000000  1
  F  F8  1  0.70408300  0.20408300  0.90816600  1
  F  F9  1  0.29591700  0.79591700  0.09183400  1
  F  F10  1  0.20408300  0.29591700  0.50000000  1
  F  F11  1  0.79591700  0.70408300  0.50000000  1
