# generated using pymatgen
data_Ga2Au
_symmetry_space_group_name_H-M   'P 1'
_cell_length_a   3.64901400
_cell_length_b   7.28267600
_cell_length_c   8.45403000
_cell_angle_alpha   90.00000000
_cell_angle_beta   90.00000000
_cell_angle_gamma   90.00000000
_symmetry_Int_Tables_number   1
_chemical_formula_structural   Ga2Au
_chemical_formula_sum   'Ga8 Au4'
_cell_volume   224.66235304
_cell_formula_units_Z   4
loop_
 _symmetry_equiv_pos_site_id
 _symmetry_equiv_pos_as_xyz
  1  'x, y, z'
loop_
 _atom_site_type_symbol
 _atom_site_label
 _atom_site_symmetry_multiplicity
 _atom_site_fract_x
 _atom_site_fract_y
 _atom_site_fract_z
 _atom_site_occupancy
  Ga  Ga0  1  0.25000000  0.87551800  0.44039600  1
  Ga  Ga1  1  0.25000000  0.37551800  0.05960400  1
  Ga  Ga2  1  0.75000000  0.12448200  0.55960400  1
  Ga  Ga3  1  0.75000000  0.62448200  0.94039600  1
  Ga  Ga4  1  0.25000000  0.44610700  0.64170400  1
  Ga  Ga5  1  0.25000000  0.94610700  0.85829600  1
  Ga  Ga6  1  0.75000000  0.55389300  0.35829600  1
  Ga  Ga7  1  0.75000000  0.05389300  0.14170400  1
  Au  Au8  1  0.25000000  0.25112300  0.34752700  1
  Au  Au9  1  0.25000000  0.75112300  0.15247300  1
  Au  Au10  1  0.75000000  0.74887700  0.65247300  1
  Au  Au11  1  0.75000000  0.24887700  0.84752700  1
