# generated using pymatgen
data_HgCBr3N
_symmetry_space_group_name_H-M   'P 1'
_cell_length_a   8.73154226
_cell_length_b   8.73154226
_cell_length_c   6.55248600
_cell_angle_alpha   90.00000000
_cell_angle_beta   90.00000000
_cell_angle_gamma   124.38913452
_symmetry_Int_Tables_number   1
_chemical_formula_structural   HgCBr3N
_chemical_formula_sum   'Hg2 C2 Br6 N2'
_cell_volume   412.24756086
_cell_formula_units_Z   2
loop_
 _symmetry_equiv_pos_site_id
 _symmetry_equiv_pos_as_xyz
  1  'x, y, z'
loop_
 _atom_site_type_symbol
 _atom_site_label
 _atom_site_symmetry_multiplicity
 _atom_site_fract_x
 _atom_site_fract_y
 _atom_site_fract_z
 _atom_site_occupancy
  Hg  Hg0  1  0.58533900  0.41466100  0.75000000  1
  Hg  Hg1  1  0.41466100  0.58533900  0.25000000  1
  C  C2  1  0.92414100  0.07585900  0.75000000  1
  C  C3  1  0.07585900  0.92414100  0.25000000  1
  Br  Br4  1  0.41771100  0.58228900  0.75000000  1
  Br  Br5  1  0.58228900  0.41771100  0.25000000  1
  Br  Br6  1  0.94093400  0.60964400  0.75000000  1
  Br  Br7  1  0.60964400  0.94093400  0.25000000  1
  Br  Br8  1  0.05906600  0.39035600  0.25000000  1
  Br  Br9  1  0.39035600  0.05906600  0.75000000  1
  N  N10  1  0.84796900  0.15203100  0.75000000  1
  N  N11  1  0.15203100  0.84796900  0.25000000  1
