# generated using pymatgen
data_PbBrO
_symmetry_space_group_name_H-M   'P 1'
_cell_length_a   3.96747500
_cell_length_b   7.17324200
_cell_length_c   9.78517800
_cell_angle_alpha   90.00000000
_cell_angle_beta   90.00000000
_cell_angle_gamma   90.00000000
_symmetry_Int_Tables_number   1
_chemical_formula_structural   PbBrO
_chemical_formula_sum   'Pb4 Br4 O4'
_cell_volume   278.48282232
_cell_formula_units_Z   4
loop_
 _symmetry_equiv_pos_site_id
 _symmetry_equiv_pos_as_xyz
  1  'x, y, z'
loop_
 _atom_site_type_symbol
 _atom_site_label
 _atom_site_symmetry_multiplicity
 _atom_site_fract_x
 _atom_site_fract_y
 _atom_site_fract_z
 _atom_site_occupancy
  Pb  Pb0  1  0.25000000  0.68547000  0.42933900  1
  Pb  Pb1  1  0.25000000  0.18547000  0.07066100  1
  Pb  Pb2  1  0.75000000  0.31453000  0.57066100  1
  Pb  Pb3  1  0.75000000  0.81453000  0.92933900  1
  Br  Br4  1  0.25000000  0.96056000  0.67366300  1
  Br  Br5  1  0.25000000  0.46056000  0.82633700  1
  Br  Br6  1  0.75000000  0.03944000  0.32633700  1
  Br  Br7  1  0.75000000  0.53944000  0.17366300  1
  O  O8  1  0.25000000  0.87586300  0.03060800  1
  O  O9  1  0.25000000  0.37586300  0.46939200  1
  O  O10  1  0.75000000  0.12413700  0.96939200  1
  O  O11  1  0.75000000  0.62413700  0.53060800  1
