# generated using pymatgen
data_HCN
_symmetry_space_group_name_H-M   'P 1'
_cell_length_a   4.02722100
_cell_length_b   4.02722100
_cell_length_c   4.02722100
_cell_angle_alpha   90.00000000
_cell_angle_beta   90.00000000
_cell_angle_gamma   90.00000000
_symmetry_Int_Tables_number   1
_chemical_formula_structural   HCN
_chemical_formula_sum   'H4 C4 N4'
_cell_volume   65.31551996
_cell_formula_units_Z   4
loop_
 _symmetry_equiv_pos_site_id
 _symmetry_equiv_pos_as_xyz
  1  'x, y, z'
loop_
 _atom_site_type_symbol
 _atom_site_label
 _atom_site_symmetry_multiplicity
 _atom_site_fract_x
 _atom_site_fract_y
 _atom_site_fract_z
 _atom_site_occupancy
  H  H0  1  0.08226000  0.58226000  0.91774000  1
  H  H1  1  0.58226000  0.91774000  0.08226000  1
  H  H2  1  0.91774000  0.08226000  0.58226000  1
  H  H3  1  0.41774000  0.41774000  0.41774000  1
  C  C4  1  0.92520900  0.42520900  0.07479100  1
  C  C5  1  0.42520900  0.07479100  0.92520900  1
  C  C6  1  0.07479100  0.92520900  0.42520900  1
  C  C7  1  0.57479100  0.57479100  0.57479100  1
  N  N8  1  0.38817300  0.88817300  0.61182700  1
  N  N9  1  0.88817300  0.61182700  0.38817300  1
  N  N10  1  0.61182700  0.38817300  0.88817300  1
  N  N11  1  0.11182700  0.11182700  0.11182700  1
