# generated using pymatgen
data_Yb(Mo3Se4)2
_symmetry_space_group_name_H-M   'P 1'
_cell_length_a   6.82637283
_cell_length_b   6.82637283
_cell_length_c   6.82637258
_cell_angle_alpha   89.16867806
_cell_angle_beta   89.16867806
_cell_angle_gamma   89.16868318
_symmetry_Int_Tables_number   1
_chemical_formula_structural   Yb(Mo3Se4)2
_chemical_formula_sum   'Yb1 Mo6 Se8'
_cell_volume   318.00514703
_cell_formula_units_Z   1
loop_
 _symmetry_equiv_pos_site_id
 _symmetry_equiv_pos_as_xyz
  1  'x, y, z'
loop_
 _atom_site_type_symbol
 _atom_site_label
 _atom_site_symmetry_multiplicity
 _atom_site_fract_x
 _atom_site_fract_y
 _atom_site_fract_z
 _atom_site_occupancy
  Yb  Yb0  1  0.00000000  0.00000000  0.00000000  1
  Mo  Mo1  1  0.76400300  0.57683400  0.44120500  1
  Mo  Mo2  1  0.44120500  0.76400300  0.57683400  1
  Mo  Mo3  1  0.57683400  0.44120500  0.76400300  1
  Mo  Mo4  1  0.23599700  0.42316600  0.55879500  1
  Mo  Mo5  1  0.55879500  0.23599700  0.42316600  1
  Mo  Mo6  1  0.42316600  0.55879500  0.23599700  1
  Se  Se7  1  0.76082900  0.76082900  0.76082900  1
  Se  Se8  1  0.23917100  0.23917100  0.23917100  1
  Se  Se9  1  0.24778300  0.62471700  0.87690100  1
  Se  Se10  1  0.87690100  0.24778300  0.62471700  1
  Se  Se11  1  0.62471700  0.87690100  0.24778300  1
  Se  Se12  1  0.75221700  0.37528300  0.12309900  1
  Se  Se13  1  0.12309900  0.75221700  0.37528300  1
  Se  Se14  1  0.37528300  0.12309900  0.75221700  1
