# generated using pymatgen
data_MgF2
_symmetry_space_group_name_H-M   'P 1'
_cell_length_a   3.39760200
_cell_length_b   5.27153400
_cell_length_c   6.74447400
_cell_angle_alpha   90.00000000
_cell_angle_beta   90.00000000
_cell_angle_gamma   90.00000000
_symmetry_Int_Tables_number   1
_chemical_formula_structural   MgF2
_chemical_formula_sum   'Mg4 F8'
_cell_volume   120.79740378
_cell_formula_units_Z   4
loop_
 _symmetry_equiv_pos_site_id
 _symmetry_equiv_pos_as_xyz
  1  'x, y, z'
loop_
 _atom_site_type_symbol
 _atom_site_label
 _atom_site_symmetry_multiplicity
 _atom_site_fract_x
 _atom_site_fract_y
 _atom_site_fract_z
 _atom_site_occupancy
  Mg  Mg0  1  0.25000000  0.26301200  0.08457800  1
  Mg  Mg1  1  0.25000000  0.76301200  0.41542200  1
  Mg  Mg2  1  0.75000000  0.73698800  0.91542200  1
  Mg  Mg3  1  0.75000000  0.23698800  0.58457800  1
  F  F4  1  0.25000000  0.87557800  0.09994700  1
  F  F5  1  0.25000000  0.37557800  0.40005300  1
  F  F6  1  0.75000000  0.12442200  0.90005300  1
  F  F7  1  0.75000000  0.62442200  0.59994700  1
  F  F8  1  0.25000000  0.51424300  0.85861800  1
  F  F9  1  0.25000000  0.01424300  0.64138200  1
  F  F10  1  0.75000000  0.48575700  0.14138200  1
  F  F11  1  0.75000000  0.98575700  0.35861800  1
