# generated using pymatgen
data_Yb2Sn2Au3
_symmetry_space_group_name_H-M   'P 1'
_cell_length_a   16.03747195
_cell_length_b   16.03747195
_cell_length_c   16.03747168
_cell_angle_alpha   17.34492878
_cell_angle_beta   17.34492878
_cell_angle_gamma   17.34492761
_symmetry_Int_Tables_number   1
_chemical_formula_structural   Yb2Sn2Au3
_chemical_formula_sum   'Yb4 Sn4 Au6'
_cell_volume   319.91471177
_cell_formula_units_Z   2
loop_
 _symmetry_equiv_pos_site_id
 _symmetry_equiv_pos_as_xyz
  1  'x, y, z'
loop_
 _atom_site_type_symbol
 _atom_site_label
 _atom_site_symmetry_multiplicity
 _atom_site_fract_x
 _atom_site_fract_y
 _atom_site_fract_z
 _atom_site_occupancy
  Yb  Yb0  1  0.57754000  0.57754000  0.57754000  1
  Yb  Yb1  1  0.42246000  0.42246000  0.42246000  1
  Yb  Yb2  1  0.50000000  0.50000000  0.50000000  1
  Yb  Yb3  1  0.00000000  0.00000000  0.00000000  1
  Sn  Sn4  1  0.87417800  0.87417800  0.87417800  1
  Sn  Sn5  1  0.12582200  0.12582200  0.12582200  1
  Sn  Sn6  1  0.70849500  0.70849500  0.70849500  1
  Sn  Sn7  1  0.29150500  0.29150500  0.29150500  1
  Au  Au8  1  0.93508900  0.93508900  0.93508900  1
  Au  Au9  1  0.06491100  0.06491100  0.06491100  1
  Au  Au10  1  0.79791800  0.79791800  0.79791800  1
  Au  Au11  1  0.20208200  0.20208200  0.20208200  1
  Au  Au12  1  0.64328600  0.64328600  0.64328600  1
  Au  Au13  1  0.35671400  0.35671400  0.35671400  1
