# generated using pymatgen
data_Co2ClO3
_symmetry_space_group_name_H-M   'P 1'
_cell_length_a   5.75210892
_cell_length_b   5.75210892
_cell_length_c   5.75210870
_cell_angle_alpha   68.62136730
_cell_angle_beta   68.62136730
_cell_angle_gamma   68.62136249
_symmetry_Int_Tables_number   1
_chemical_formula_structural   Co2ClO3
_chemical_formula_sum   'Co4 Cl2 O6'
_cell_volume   159.03091507
_cell_formula_units_Z   2
loop_
 _symmetry_equiv_pos_site_id
 _symmetry_equiv_pos_as_xyz
  1  'x, y, z'
loop_
 _atom_site_type_symbol
 _atom_site_label
 _atom_site_symmetry_multiplicity
 _atom_site_fract_x
 _atom_site_fract_y
 _atom_site_fract_z
 _atom_site_occupancy
  Co  Co0  1  0.50000000  0.50000000  0.50000000  1
  Co  Co1  1  0.50000000  0.50000000  0.00000000  1
  Co  Co2  1  0.00000000  0.50000000  0.50000000  1
  Co  Co3  1  0.50000000  0.00000000  0.50000000  1
  Cl  Cl4  1  0.78959700  0.78959700  0.78959700  1
  Cl  Cl5  1  0.21040300  0.21040300  0.21040300  1
  O  O6  1  0.72324200  0.33428400  0.72324200  1
  O  O7  1  0.72324200  0.72324200  0.33428400  1
  O  O8  1  0.33428400  0.72324200  0.72324200  1
  O  O9  1  0.27675800  0.66571600  0.27675800  1
  O  O10  1  0.27675800  0.27675800  0.66571600  1
  O  O11  1  0.66571600  0.27675800  0.27675800  1
