# generated using pymatgen
data_YbCd2
_symmetry_space_group_name_H-M   'P 1'
_cell_length_a   5.94404168
_cell_length_b   5.94404168
_cell_length_c   9.98509500
_cell_angle_alpha   90.00000000
_cell_angle_beta   90.00000000
_cell_angle_gamma   119.99999640
_symmetry_Int_Tables_number   1
_chemical_formula_structural   YbCd2
_chemical_formula_sum   'Yb4 Cd8'
_cell_volume   305.52485052
_cell_formula_units_Z   4
loop_
 _symmetry_equiv_pos_site_id
 _symmetry_equiv_pos_as_xyz
  1  'x, y, z'
loop_
 _atom_site_type_symbol
 _atom_site_label
 _atom_site_symmetry_multiplicity
 _atom_site_fract_x
 _atom_site_fract_y
 _atom_site_fract_z
 _atom_site_occupancy
  Yb  Yb0  1  0.33333300  0.66666700  0.44133400  1
  Yb  Yb1  1  0.66666700  0.33333300  0.55866600  1
  Yb  Yb2  1  0.66666700  0.33333300  0.94133400  1
  Yb  Yb3  1  0.33333300  0.66666700  0.05866600  1
  Cd  Cd4  1  0.00000000  0.00000000  0.50000000  1
  Cd  Cd5  1  0.00000000  0.00000000  0.00000000  1
  Cd  Cd6  1  0.82967200  0.17032800  0.25000000  1
  Cd  Cd7  1  0.82967200  0.65934400  0.25000000  1
  Cd  Cd8  1  0.34065600  0.17032800  0.25000000  1
  Cd  Cd9  1  0.17032800  0.82967200  0.75000000  1
  Cd  Cd10  1  0.17032800  0.34065600  0.75000000  1
  Cd  Cd11  1  0.65934400  0.82967200  0.75000000  1
