# generated using pymatgen
data_H2SeO3
_symmetry_space_group_name_H-M   'P 1'
_cell_length_a   5.02270653
_cell_length_b   5.20389206
_cell_length_c   5.98397647
_cell_angle_alpha   102.64615023
_cell_angle_beta   90.57235929
_cell_angle_gamma   99.50658491
_symmetry_Int_Tables_number   1
_chemical_formula_structural   H2SeO3
_chemical_formula_sum   'H4 Se2 O6'
_cell_volume   150.34355460
_cell_formula_units_Z   2
loop_
 _symmetry_equiv_pos_site_id
 _symmetry_equiv_pos_as_xyz
  1  'x, y, z'
loop_
 _atom_site_type_symbol
 _atom_site_label
 _atom_site_symmetry_multiplicity
 _atom_site_fract_x
 _atom_site_fract_y
 _atom_site_fract_z
 _atom_site_occupancy
  H  H0  1  0.72936000  0.53736800  0.18085600  1
  H  H1  1  0.16958000  0.22260800  0.89012400  1
  H  H2  1  0.81586000  0.39645200  0.70635400  1
  H  H3  1  0.33195900  0.79477000  0.39473500  1
  Se  Se4  1  0.80292300  0.17435600  0.33004500  1
  Se  Se5  1  0.29737300  0.79940400  0.78147000  1
  O  O6  1  0.11208400  0.53890200  0.85661100  1
  O  O7  1  0.08914100  0.03726400  0.90169900  1
  O  O8  1  0.17260400  0.74132600  0.48785700  1
  O  O9  1  0.59986000  0.88061800  0.24613700  1
  O  O10  1  0.65696800  0.30037700  0.59756300  1
  O  O11  1  0.64418700  0.34595500  0.15325000  1
