# generated using pymatgen
data_TaZn2
_symmetry_space_group_name_H-M   'P 1'
_cell_length_a   5.06330900
_cell_length_b   5.06330992
_cell_length_c   8.15573600
_cell_angle_alpha   90.00000000
_cell_angle_beta   90.00000000
_cell_angle_gamma   120.00000049
_symmetry_Int_Tables_number   1
_chemical_formula_structural   TaZn2
_chemical_formula_sum   'Ta4 Zn8'
_cell_volume   181.07676711
_cell_formula_units_Z   4
loop_
 _symmetry_equiv_pos_site_id
 _symmetry_equiv_pos_as_xyz
  1  'x, y, z'
loop_
 _atom_site_type_symbol
 _atom_site_label
 _atom_site_symmetry_multiplicity
 _atom_site_fract_x
 _atom_site_fract_y
 _atom_site_fract_z
 _atom_site_occupancy
  Ta  Ta0  1  0.33333300  0.66666700  0.43402800  1
  Ta  Ta1  1  0.66666700  0.33333300  0.56597200  1
  Ta  Ta2  1  0.66666700  0.33333300  0.93402800  1
  Ta  Ta3  1  0.33333300  0.66666700  0.06597200  1
  Zn  Zn4  1  0.00000000  0.00000000  0.50000000  1
  Zn  Zn5  1  0.00000000  0.00000000  0.00000000  1
  Zn  Zn6  1  0.82782900  0.17217100  0.25000000  1
  Zn  Zn7  1  0.82782900  0.65565900  0.25000000  1
  Zn  Zn8  1  0.34434100  0.17217100  0.25000000  1
  Zn  Zn9  1  0.17217100  0.82782900  0.75000000  1
  Zn  Zn10  1  0.17217100  0.34434100  0.75000000  1
  Zn  Zn11  1  0.65565900  0.82782900  0.75000000  1
