# generated using pymatgen
data_HgCl2
_symmetry_space_group_name_H-M   'P 1'
_cell_length_a   16.65121600
_cell_length_b   8.30426200
_cell_length_c   6.08870300
_cell_angle_alpha   90.00000000
_cell_angle_beta   90.00000000
_cell_angle_gamma   90.00000000
_symmetry_Int_Tables_number   1
_chemical_formula_structural   HgCl2
_chemical_formula_sum   'Hg4 Cl8'
_cell_volume   841.92186307
_cell_formula_units_Z   4
loop_
 _symmetry_equiv_pos_site_id
 _symmetry_equiv_pos_as_xyz
  1  'x, y, z'
loop_
 _atom_site_type_symbol
 _atom_site_label
 _atom_site_symmetry_multiplicity
 _atom_site_fract_x
 _atom_site_fract_y
 _atom_site_fract_z
 _atom_site_occupancy
  Hg  Hg0  1  0.37559800  0.25000000  0.89811200  1
  Hg  Hg1  1  0.87559800  0.25000000  0.60188800  1
  Hg  Hg2  1  0.62440200  0.75000000  0.10188800  1
  Hg  Hg3  1  0.12440200  0.75000000  0.39811200  1
  Cl  Cl4  1  0.25131600  0.25000000  0.74015400  1
  Cl  Cl5  1  0.75131600  0.25000000  0.75984600  1
  Cl  Cl6  1  0.74868400  0.75000000  0.25984600  1
  Cl  Cl7  1  0.24868400  0.75000000  0.24015400  1
  Cl  Cl8  1  0.49912600  0.25000000  0.06072800  1
  Cl  Cl9  1  0.99912600  0.25000000  0.43927200  1
  Cl  Cl10  1  0.50087400  0.75000000  0.93927200  1
  Cl  Cl11  1  0.00087400  0.75000000  0.56072800  1
