# generated using pymatgen
data_CoTe2
_symmetry_space_group_name_H-M   'P 1'
_cell_length_a   6.31241600
_cell_length_b   6.31241600
_cell_length_c   6.31241600
_cell_angle_alpha   90.00000000
_cell_angle_beta   90.00000000
_cell_angle_gamma   90.00000000
_symmetry_Int_Tables_number   1
_chemical_formula_structural   CoTe2
_chemical_formula_sum   'Co4 Te8'
_cell_volume   251.52828860
_cell_formula_units_Z   4
loop_
 _symmetry_equiv_pos_site_id
 _symmetry_equiv_pos_as_xyz
  1  'x, y, z'
loop_
 _atom_site_type_symbol
 _atom_site_label
 _atom_site_symmetry_multiplicity
 _atom_site_fract_x
 _atom_site_fract_y
 _atom_site_fract_z
 _atom_site_occupancy
  Co  Co0  1  0.50000000  0.50000000  0.00000000  1
  Co  Co1  1  0.50000000  0.00000000  0.50000000  1
  Co  Co2  1  0.00000000  0.50000000  0.50000000  1
  Co  Co3  1  0.00000000  0.00000000  0.00000000  1
  Te  Te4  1  0.13430400  0.86569600  0.36569600  1
  Te  Te5  1  0.86569600  0.36569600  0.13430400  1
  Te  Te6  1  0.36569600  0.13430400  0.86569600  1
  Te  Te7  1  0.63430400  0.63430400  0.63430400  1
  Te  Te8  1  0.86569600  0.13430400  0.63430400  1
  Te  Te9  1  0.13430400  0.63430400  0.86569600  1
  Te  Te10  1  0.63430400  0.86569600  0.13430400  1
  Te  Te11  1  0.36569600  0.36569600  0.36569600  1
