# generated using pymatgen
data_BiOsSe
_symmetry_space_group_name_H-M   'P 1'
_cell_length_a   6.49700600
_cell_length_b   6.62519700
_cell_length_c   6.63507105
_cell_angle_alpha   66.68991603
_cell_angle_beta   90.00000000
_cell_angle_gamma   90.00000000
_symmetry_Int_Tables_number   1
_chemical_formula_structural   BiOsSe
_chemical_formula_sum   'Bi4 Os4 Se4'
_cell_volume   262.28806157
_cell_formula_units_Z   4
loop_
 _symmetry_equiv_pos_site_id
 _symmetry_equiv_pos_as_xyz
  1  'x, y, z'
loop_
 _atom_site_type_symbol
 _atom_site_label
 _atom_site_symmetry_multiplicity
 _atom_site_fract_x
 _atom_site_fract_y
 _atom_site_fract_z
 _atom_site_occupancy
  Bi  Bi0  1  0.63849700  0.85664500  0.37750200  1
  Bi  Bi1  1  0.13849700  0.14335500  0.12249800  1
  Bi  Bi2  1  0.36150300  0.14335500  0.62249800  1
  Bi  Bi3  1  0.86150300  0.85664500  0.87750200  1
  Os  Os4  1  0.01307900  0.70285600  0.30360500  1
  Os  Os5  1  0.51307900  0.29714400  0.19639500  1
  Os  Os6  1  0.98692100  0.29714400  0.69639500  1
  Os  Os7  1  0.48692100  0.70285600  0.80360500  1
  Se  Se8  1  0.36403100  0.64668500  0.17857500  1
  Se  Se9  1  0.86403100  0.35331500  0.32142500  1
  Se  Se10  1  0.63596900  0.35331500  0.82142500  1
  Se  Se11  1  0.13596900  0.64668500  0.67857500  1
