# generated using pymatgen
data_KSn2
_symmetry_space_group_name_H-M   'P 1'
_cell_length_a   6.69068150
_cell_length_b   6.69068150
_cell_length_c   9.89046200
_cell_angle_alpha   90.00000000
_cell_angle_beta   90.00000000
_cell_angle_gamma   119.99999503
_symmetry_Int_Tables_number   1
_chemical_formula_structural   KSn2
_chemical_formula_sum   'K4 Sn8'
_cell_volume   383.43163780
_cell_formula_units_Z   4
loop_
 _symmetry_equiv_pos_site_id
 _symmetry_equiv_pos_as_xyz
  1  'x, y, z'
loop_
 _atom_site_type_symbol
 _atom_site_label
 _atom_site_symmetry_multiplicity
 _atom_site_fract_x
 _atom_site_fract_y
 _atom_site_fract_z
 _atom_site_occupancy
  K  K0  1  0.33333300  0.66666700  0.43347200  1
  K  K1  1  0.66666700  0.33333300  0.56652800  1
  K  K2  1  0.66666700  0.33333300  0.93347200  1
  K  K3  1  0.33333300  0.66666700  0.06652800  1
  Sn  Sn4  1  0.00000000  0.00000000  0.50000000  1
  Sn  Sn5  1  0.00000000  0.00000000  0.00000000  1
  Sn  Sn6  1  0.82991400  0.17008600  0.25000000  1
  Sn  Sn7  1  0.82991400  0.65982800  0.25000000  1
  Sn  Sn8  1  0.34017200  0.17008600  0.25000000  1
  Sn  Sn9  1  0.17008600  0.82991400  0.75000000  1
  Sn  Sn10  1  0.17008600  0.34017200  0.75000000  1
  Sn  Sn11  1  0.65982800  0.82991400  0.75000000  1
