# generated using pymatgen
data_NdPO4
_symmetry_space_group_name_H-M   'P 1'
_cell_length_a   5.96653626
_cell_length_b   5.96653626
_cell_length_c   5.96653626
_cell_angle_alpha   105.83937349
_cell_angle_beta   105.83937349
_cell_angle_gamma   117.00814563
_symmetry_Int_Tables_number   1
_chemical_formula_structural   NdPO4
_chemical_formula_sum   'Nd2 P2 O8'
_cell_volume   161.36189142
_cell_formula_units_Z   2
loop_
 _symmetry_equiv_pos_site_id
 _symmetry_equiv_pos_as_xyz
  1  'x, y, z'
loop_
 _atom_site_type_symbol
 _atom_site_label
 _atom_site_symmetry_multiplicity
 _atom_site_fract_x
 _atom_site_fract_y
 _atom_site_fract_z
 _atom_site_occupancy
  Nd  Nd0  1  0.25000000  0.75000000  0.50000000  1
  Nd  Nd1  1  0.00000000  0.00000000  0.00000000  1
  P  P2  1  0.50000000  0.50000000  0.00000000  1
  P  P3  1  0.75000000  0.25000000  0.50000000  1
  O  O4  1  0.48451300  0.65470700  0.82980600  1
  O  O5  1  0.90470700  0.23451300  0.32980600  1
  O  O6  1  0.90470700  0.57490100  0.67019400  1
  O  O7  1  0.82490100  0.65470700  0.17019400  1
  O  O8  1  0.76548700  0.09529300  0.67019400  1
  O  O9  1  0.34529300  0.51548700  0.17019400  1
  O  O10  1  0.34529300  0.17509900  0.82980600  1
  O  O11  1  0.42509900  0.09529300  0.32980600  1
