# generated using pymatgen
data_TeO2
_symmetry_space_group_name_H-M   'P 1'
_cell_length_a   4.00832400
_cell_length_b   5.47440600
_cell_length_c   7.81101280
_cell_angle_alpha   88.23453527
_cell_angle_beta   90.00000000
_cell_angle_gamma   90.00000000
_symmetry_Int_Tables_number   1
_chemical_formula_structural   TeO2
_chemical_formula_sum   'Te4 O8'
_cell_volume   171.31720008
_cell_formula_units_Z   4
loop_
 _symmetry_equiv_pos_site_id
 _symmetry_equiv_pos_as_xyz
  1  'x, y, z'
loop_
 _atom_site_type_symbol
 _atom_site_label
 _atom_site_symmetry_multiplicity
 _atom_site_fract_x
 _atom_site_fract_y
 _atom_site_fract_z
 _atom_site_occupancy
  Te  Te0  1  0.25000000  0.71341000  0.85850800  1
  Te  Te1  1  0.75000000  0.28659000  0.14149200  1
  Te  Te2  1  0.75000000  0.19096400  0.61207000  1
  Te  Te3  1  0.25000000  0.80903600  0.38793000  1
  O  O4  1  0.25000000  0.37060600  0.90686100  1
  O  O5  1  0.75000000  0.62939400  0.09313900  1
  O  O6  1  0.75000000  0.89408800  0.78520500  1
  O  O7  1  0.25000000  0.10591200  0.21479500  1
  O  O8  1  0.25000000  0.61037000  0.62007600  1
  O  O9  1  0.75000000  0.38963000  0.37992400  1
  O  O10  1  0.25000000  0.08482000  0.56329900  1
  O  O11  1  0.75000000  0.91518000  0.43670100  1
