# generated using pymatgen
data_Tm(Mo3S4)2
_symmetry_space_group_name_H-M   'P 1'
_cell_length_a   6.48547920
_cell_length_b   6.48547920
_cell_length_c   6.48547958
_cell_angle_alpha   89.63848426
_cell_angle_beta   89.63848426
_cell_angle_gamma   89.63849046
_symmetry_Int_Tables_number   1
_chemical_formula_structural   Tm(Mo3S4)2
_chemical_formula_sum   'Tm1 Mo6 S8'
_cell_volume   272.77239130
_cell_formula_units_Z   1
loop_
 _symmetry_equiv_pos_site_id
 _symmetry_equiv_pos_as_xyz
  1  'x, y, z'
loop_
 _atom_site_type_symbol
 _atom_site_label
 _atom_site_symmetry_multiplicity
 _atom_site_fract_x
 _atom_site_fract_y
 _atom_site_fract_z
 _atom_site_occupancy
  Tm  Tm0  1  0.00000000  0.00000000  0.00000000  1
  Mo  Mo1  1  0.55935500  0.41981100  0.22234600  1
  Mo  Mo2  1  0.41981100  0.22234600  0.55935500  1
  Mo  Mo3  1  0.22234600  0.55935500  0.41981100  1
  Mo  Mo4  1  0.44064500  0.58018900  0.77765400  1
  Mo  Mo5  1  0.58018900  0.77765400  0.44064500  1
  Mo  Mo6  1  0.77765400  0.44064500  0.58018900  1
  S  S7  1  0.23600300  0.23600300  0.23600300  1
  S  S8  1  0.76399700  0.76399700  0.76399700  1
  S  S9  1  0.12814400  0.36625200  0.75309000  1
  S  S10  1  0.36625200  0.75309000  0.12814400  1
  S  S11  1  0.75309000  0.12814400  0.36625200  1
  S  S12  1  0.87185600  0.63374800  0.24691000  1
  S  S13  1  0.63374800  0.24691000  0.87185600  1
  S  S14  1  0.24691000  0.87185600  0.63374800  1
