# generated using pymatgen
data_CaB2(H5N)2
_symmetry_space_group_name_H-M   'P 1'
_cell_length_a   5.05187147
_cell_length_b   5.05187147
_cell_length_c   6.35367695
_cell_angle_alpha   86.92509127
_cell_angle_beta   86.92509127
_cell_angle_gamma   52.54746089
_symmetry_Int_Tables_number   1
_chemical_formula_structural   CaB2(H5N)2
_chemical_formula_sum   'Ca1 B2 H10 N2'
_cell_volume   128.49720785
_cell_formula_units_Z   1
loop_
 _symmetry_equiv_pos_site_id
 _symmetry_equiv_pos_as_xyz
  1  'x, y, z'
loop_
 _atom_site_type_symbol
 _atom_site_label
 _atom_site_symmetry_multiplicity
 _atom_site_fract_x
 _atom_site_fract_y
 _atom_site_fract_z
 _atom_site_occupancy
  Ca  Ca0  1  0.43588200  0.56411800  0.00000000  1
  B  B1  1  0.80142500  0.86440800  0.21012700  1
  B  B2  1  0.13559200  0.19857500  0.78987300  1
  H  H3  1  0.57549900  0.70087500  0.41772800  1
  H  H4  1  0.29912500  0.42450100  0.58227200  1
  H  H5  1  0.60959300  0.08009200  0.68796800  1
  H  H6  1  0.91990800  0.39040700  0.31203200  1
  H  H7  1  0.04880500  0.80580600  0.29515200  1
  H  H8  1  0.19419400  0.95119500  0.70484800  1
  H  H9  1  0.84905600  0.43358800  0.74419400  1
  H  H10  1  0.56641200  0.15094400  0.25580600  1
  H  H11  1  0.84969100  0.86114700  0.01520500  1
  H  H12  1  0.13885300  0.15030900  0.98479500  1
  N  N13  1  0.71347900  0.62764500  0.27955400  1
  N  N14  1  0.37235500  0.28652100  0.72044600  1
