# generated using pymatgen
data_Fe2Si2BiO9
_symmetry_space_group_name_H-M   'P 1'
_cell_length_a   5.21832123
_cell_length_b   5.21832123
_cell_length_c   8.04307475
_cell_angle_alpha   96.12860004
_cell_angle_beta   96.12860004
_cell_angle_gamma   118.82802911
_symmetry_Int_Tables_number   1
_chemical_formula_structural   Fe2Si2BiO9
_chemical_formula_sum   'Fe2 Si2 Bi1 O9'
_cell_volume   187.60605183
_cell_formula_units_Z   1
loop_
 _symmetry_equiv_pos_site_id
 _symmetry_equiv_pos_as_xyz
  1  'x, y, z'
loop_
 _atom_site_type_symbol
 _atom_site_label
 _atom_site_symmetry_multiplicity
 _atom_site_fract_x
 _atom_site_fract_y
 _atom_site_fract_z
 _atom_site_occupancy
  Fe  Fe0  1  0.65289600  0.32669900  0.99899900  1
  Fe  Fe1  1  0.32669900  0.65289600  0.99899900  1
  Si  Si2  1  0.86851000  0.52619600  0.64174700  1
  Si  Si3  1  0.52619600  0.86851000  0.64174700  1
  Bi  Bi4  1  0.08187600  0.08187600  0.27024800  1
  O  O5  1  0.02774500  0.39038000  0.13355100  1
  O  O6  1  0.39038000  0.02774500  0.13355100  1
  O  O7  1  0.68369100  0.68369100  0.14167200  1
  O  O8  1  0.94908400  0.57242500  0.84736800  1
  O  O9  1  0.57242500  0.94908400  0.84736800  1
  O  O10  1  0.34173700  0.34173700  0.86495400  1
  O  O11  1  0.16997100  0.67384000  0.55677400  1
  O  O12  1  0.67384000  0.16997100  0.55677400  1
  O  O13  1  0.67295000  0.67295000  0.57224900  1
