# generated using pymatgen
data_H6Pt(NO)4
_symmetry_space_group_name_H-M   'P 1'
_cell_length_a   5.00024846
_cell_length_b   6.24366935
_cell_length_c   6.24366935
_cell_angle_alpha   98.74327381
_cell_angle_beta   99.05466056
_cell_angle_gamma   99.05466056
_symmetry_Int_Tables_number   1
_chemical_formula_structural   H6Pt(NO)4
_chemical_formula_sum   'H6 Pt1 N4 O4'
_cell_volume   186.94979467
_cell_formula_units_Z   1
loop_
 _symmetry_equiv_pos_site_id
 _symmetry_equiv_pos_as_xyz
  1  'x, y, z'
loop_
 _atom_site_type_symbol
 _atom_site_label
 _atom_site_symmetry_multiplicity
 _atom_site_fract_x
 _atom_site_fract_y
 _atom_site_fract_z
 _atom_site_occupancy
  H  H0  1  0.37477700  0.18844000  0.33391400  1
  H  H1  1  0.62522300  0.66608600  0.81156000  1
  H  H2  1  0.41316700  0.99125800  0.48619900  1
  H  H3  1  0.58683300  0.51380100  0.00874200  1
  H  H4  1  0.17264200  0.14177000  0.51610700  1
  H  H5  1  0.82735800  0.48389300  0.85823000  1
  Pt  Pt6  1  0.00000000  0.83528300  0.16471700  1
  N  N7  1  0.00000000  0.04953500  0.95046500  1
  N  N8  1  0.00000000  0.62144700  0.37855300  1
  N  N9  1  0.27350200  0.06795500  0.40282500  1
  N  N10  1  0.72649800  0.59717500  0.93204500  1
  O  O11  1  0.18928800  0.21582700  0.98402900  1
  O  O12  1  0.81071200  0.01597100  0.78417300  1
  O  O13  1  0.20466900  0.64153600  0.52987600  1
  O  O14  1  0.79533100  0.47012400  0.35846400  1
