# generated using pymatgen
data_Tb3Ga9Pt2
_symmetry_space_group_name_H-M   'P 1'
_cell_length_a   8.18981388
_cell_length_b   8.18981388
_cell_length_c   8.18981388
_cell_angle_alpha   149.65746471
_cell_angle_beta   108.15953188
_cell_angle_gamma   79.93969368
_symmetry_Int_Tables_number   1
_chemical_formula_structural   Tb3Ga9Pt2
_chemical_formula_sum   'Tb3 Ga9 Pt2'
_cell_volume   258.53860079
_cell_formula_units_Z   1
loop_
 _symmetry_equiv_pos_site_id
 _symmetry_equiv_pos_as_xyz
  1  'x, y, z'
loop_
 _atom_site_type_symbol
 _atom_site_label
 _atom_site_symmetry_multiplicity
 _atom_site_fract_x
 _atom_site_fract_y
 _atom_site_fract_z
 _atom_site_occupancy
  Tb  Tb0  1  0.00000000  0.00000000  0.00000000  1
  Tb  Tb1  1  0.30404000  0.30404000  0.00000000  1
  Tb  Tb2  1  0.69596000  0.69596000  0.00000000  1
  Ga  Ga3  1  0.50000000  0.00000000  0.50000000  1
  Ga  Ga4  1  0.97577000  0.34398200  0.63178900  1
  Ga  Ga5  1  0.02423000  0.65601800  0.36821100  1
  Ga  Ga6  1  0.71219300  0.34398200  0.36821100  1
  Ga  Ga7  1  0.28780700  0.65601800  0.63178900  1
  Ga  Ga8  1  0.85755000  0.13903100  0.71851900  1
  Ga  Ga9  1  0.14245000  0.86096900  0.28148100  1
  Ga  Ga10  1  0.42051200  0.13903100  0.28148100  1
  Ga  Ga11  1  0.57948800  0.86096900  0.71851900  1
  Pt  Pt12  1  0.30810800  0.50000000  0.80810800  1
  Pt  Pt13  1  0.69189200  0.50000000  0.19189200  1
