# generated using pymatgen
data_ThP2
_symmetry_space_group_name_H-M   'P 1'
_cell_length_a   3.86277700
_cell_length_b   7.20751500
_cell_length_c   9.43249000
_cell_angle_alpha   90.00000000
_cell_angle_beta   90.00000000
_cell_angle_gamma   90.00000000
_symmetry_Int_Tables_number   1
_chemical_formula_structural   ThP2
_chemical_formula_sum   'Th4 P8'
_cell_volume   262.61017263
_cell_formula_units_Z   4
loop_
 _symmetry_equiv_pos_site_id
 _symmetry_equiv_pos_as_xyz
  1  'x, y, z'
loop_
 _atom_site_type_symbol
 _atom_site_label
 _atom_site_symmetry_multiplicity
 _atom_site_fract_x
 _atom_site_fract_y
 _atom_site_fract_z
 _atom_site_occupancy
  Th  Th0  1  0.25000000  0.29867400  0.84649300  1
  Th  Th1  1  0.25000000  0.79867400  0.65350700  1
  Th  Th2  1  0.75000000  0.70132600  0.15350700  1
  Th  Th3  1  0.75000000  0.20132600  0.34649300  1
  P  P4  1  0.25000000  0.91519200  0.96152700  1
  P  P5  1  0.25000000  0.41519200  0.53847300  1
  P  P6  1  0.75000000  0.08480800  0.03847300  1
  P  P7  1  0.75000000  0.58480800  0.46152700  1
  P  P8  1  0.25000000  0.89542600  0.34144500  1
  P  P9  1  0.25000000  0.39542600  0.15855500  1
  P  P10  1  0.75000000  0.10457400  0.65855500  1
  P  P11  1  0.75000000  0.60457400  0.84144500  1
