# generated using pymatgen
data_CeVO4
_symmetry_space_group_name_H-M   'P 1'
_cell_length_a   5.19158700
_cell_length_b   5.19158700
_cell_length_c   6.73766223
_cell_angle_alpha   112.66027166
_cell_angle_beta   112.66027166
_cell_angle_gamma   90.00000000
_symmetry_Int_Tables_number   1
_chemical_formula_structural   CeVO4
_chemical_formula_sum   'Ce2 V2 O8'
_cell_volume   152.27561035
_cell_formula_units_Z   2
loop_
 _symmetry_equiv_pos_site_id
 _symmetry_equiv_pos_as_xyz
  1  'x, y, z'
loop_
 _atom_site_type_symbol
 _atom_site_label
 _atom_site_symmetry_multiplicity
 _atom_site_fract_x
 _atom_site_fract_y
 _atom_site_fract_z
 _atom_site_occupancy
  Ce  Ce0  1  0.62500000  0.87500000  0.25000000  1
  Ce  Ce1  1  0.37500000  0.12500000  0.75000000  1
  V  V2  1  0.12500000  0.37500000  0.25000000  1
  V  V3  1  0.87500000  0.62500000  0.75000000  1
  O  O4  1  0.35891900  0.71614900  0.41004900  1
  O  O5  1  0.05113000  0.19390000  0.41004900  1
  O  O6  1  0.21614900  0.55113000  0.91004900  1
  O  O7  1  0.69390000  0.85891900  0.91004900  1
  O  O8  1  0.64108100  0.28385100  0.58995100  1
  O  O9  1  0.94887000  0.80610000  0.58995100  1
  O  O10  1  0.78385100  0.44887000  0.08995100  1
  O  O11  1  0.30610000  0.14108100  0.08995100  1
