# generated using pymatgen
data_Fe2SiO4
_symmetry_space_group_name_H-M   'P 1'
_cell_length_a   5.76050999
_cell_length_b   5.76050999
_cell_length_c   5.76050999
_cell_angle_alpha   121.12443029
_cell_angle_beta   111.86709597
_cell_angle_gamma   96.35259836
_symmetry_Int_Tables_number   1
_chemical_formula_structural   Fe2SiO4
_chemical_formula_sum   'Fe4 Si2 O8'
_cell_volume   140.37076740
_cell_formula_units_Z   2
loop_
 _symmetry_equiv_pos_site_id
 _symmetry_equiv_pos_as_xyz
  1  'x, y, z'
loop_
 _atom_site_type_symbol
 _atom_site_label
 _atom_site_symmetry_multiplicity
 _atom_site_fract_x
 _atom_site_fract_y
 _atom_site_fract_z
 _atom_site_occupancy
  Fe  Fe0  1  0.50000000  0.00000000  0.00000000  1
  Fe  Fe1  1  0.50000000  0.50000000  0.50000000  1
  Fe  Fe2  1  0.50000000  0.50000000  0.00000000  1
  Fe  Fe3  1  0.00000000  0.50000000  0.50000000  1
  Si  Si4  1  0.00000000  0.50000000  0.00000000  1
  Si  Si5  1  0.00000000  0.00000000  0.50000000  1
  O  O6  1  0.76672700  0.75525400  0.48852700  1
  O  O7  1  0.23327300  0.24474600  0.51147300  1
  O  O8  1  0.23327300  0.72180000  0.98852700  1
  O  O9  1  0.76672700  0.27820000  0.01147300  1
  O  O10  1  0.18066600  0.23971600  0.94095000  1
  O  O11  1  0.20123500  0.76028400  0.44095000  1
  O  O12  1  0.81933400  0.76028400  0.05905000  1
  O  O13  1  0.79876500  0.23971600  0.55905000  1
