# generated using pymatgen
data_Eu2Zn3Ge
_symmetry_space_group_name_H-M   'P 1'
_cell_length_a   9.11248710
_cell_length_b   8.74960764
_cell_length_c   5.94641929
_cell_angle_alpha   73.88773649
_cell_angle_beta   67.28867341
_cell_angle_gamma   38.82359010
_symmetry_Int_Tables_number   1
_chemical_formula_structural   Eu2Zn3Ge
_chemical_formula_sum   'Eu4 Zn6 Ge2'
_cell_volume   273.96354953
_cell_formula_units_Z   2
loop_
 _symmetry_equiv_pos_site_id
 _symmetry_equiv_pos_as_xyz
  1  'x, y, z'
loop_
 _atom_site_type_symbol
 _atom_site_label
 _atom_site_symmetry_multiplicity
 _atom_site_fract_x
 _atom_site_fract_y
 _atom_site_fract_z
 _atom_site_occupancy
  Eu  Eu0  1  0.75849800  0.24150200  0.24150200  1
  Eu  Eu1  1  0.24150200  0.75849800  0.75849800  1
  Eu  Eu2  1  0.75000000  0.75000000  0.75000000  1
  Eu  Eu3  1  0.25000000  0.25000000  0.25000000  1
  Zn  Zn4  1  0.33604700  0.83043500  0.16956500  1
  Zn  Zn5  1  0.83043500  0.33604700  0.66395300  1
  Zn  Zn6  1  0.16736800  0.16736800  0.83263200  1
  Zn  Zn7  1  0.83263200  0.83263200  0.16736800  1
  Zn  Zn8  1  0.16956500  0.66395300  0.33604700  1
  Zn  Zn9  1  0.66395300  0.16956500  0.83043500  1
  Ge  Ge10  1  0.66443300  0.66443300  0.33556700  1
  Ge  Ge11  1  0.33556700  0.33556700  0.66443300  1
