# generated using pymatgen
data_Np(CO2)4
_symmetry_space_group_name_H-M   'P 1'
_cell_length_a   6.93021046
_cell_length_b   6.93021046
_cell_length_c   6.93021046
_cell_angle_alpha   103.60453071
_cell_angle_beta   103.60453071
_cell_angle_gamma   121.97586964
_symmetry_Int_Tables_number   1
_chemical_formula_structural   Np(CO2)4
_chemical_formula_sum   'Np1 C4 O8'
_cell_volume   246.91219868
_cell_formula_units_Z   1
loop_
 _symmetry_equiv_pos_site_id
 _symmetry_equiv_pos_as_xyz
  1  'x, y, z'
loop_
 _atom_site_type_symbol
 _atom_site_label
 _atom_site_symmetry_multiplicity
 _atom_site_fract_x
 _atom_site_fract_y
 _atom_site_fract_z
 _atom_site_occupancy
  Np  Np0  1  0.00000000  0.00000000  0.00000000  1
  C  C1  1  0.17982300  0.06402000  0.68941300  1
  C  C2  1  0.37460700  0.49041000  0.31058700  1
  C  C3  1  0.93598000  0.62539300  0.11580300  1
  C  C4  1  0.50959000  0.82017700  0.88419700  1
  O  O5  1  0.06302000  0.15051100  0.69900000  1
  O  O6  1  0.45151100  0.36401900  0.30100000  1
  O  O7  1  0.84948900  0.54848900  0.91250800  1
  O  O8  1  0.63598100  0.93698000  0.08749200  1
  O  O9  1  0.57640200  0.78027000  0.73506600  1
  O  O10  1  0.04520500  0.84133700  0.26493400  1
  O  O11  1  0.21973000  0.95479500  0.79613200  1
  O  O12  1  0.15866300  0.42359800  0.20386800  1
