# generated using pymatgen
data_DyWClO4
_symmetry_space_group_name_H-M   'P 1'
_cell_length_a   6.37096525
_cell_length_b   6.37096525
_cell_length_c   6.98202711
_cell_angle_alpha   75.71588957
_cell_angle_beta   75.71588957
_cell_angle_gamma   70.68288983
_symmetry_Int_Tables_number   1
_chemical_formula_structural   DyWClO4
_chemical_formula_sum   'Dy2 W2 Cl2 O8'
_cell_volume   254.91321461
_cell_formula_units_Z   2
loop_
 _symmetry_equiv_pos_site_id
 _symmetry_equiv_pos_as_xyz
  1  'x, y, z'
loop_
 _atom_site_type_symbol
 _atom_site_label
 _atom_site_symmetry_multiplicity
 _atom_site_fract_x
 _atom_site_fract_y
 _atom_site_fract_z
 _atom_site_occupancy
  Dy  Dy0  1  0.77745100  0.77745100  0.11870700  1
  Dy  Dy1  1  0.22254900  0.22254900  0.88129300  1
  W  W2  1  0.63674900  0.63674900  0.73399200  1
  W  W3  1  0.36325100  0.36325100  0.26600800  1
  Cl  Cl4  1  0.98848400  0.98848400  0.77152500  1
  Cl  Cl5  1  0.01151600  0.01151600  0.22847500  1
  O  O6  1  0.54559500  0.54559500  0.19501300  1
  O  O7  1  0.45440500  0.45440500  0.80498700  1
  O  O8  1  0.70360800  0.70360800  0.46493200  1
  O  O9  1  0.29639200  0.29639200  0.53506800  1
  O  O10  1  0.10854400  0.49249700  0.15422900  1
  O  O11  1  0.49249700  0.10854400  0.15422900  1
  O  O12  1  0.89145600  0.50750300  0.84577100  1
  O  O13  1  0.50750300  0.89145600  0.84577100  1
