# generated using pymatgen
data_HoWClO4
_symmetry_space_group_name_H-M   'P 1'
_cell_length_a   6.34135853
_cell_length_b   6.34135853
_cell_length_c   6.97127782
_cell_angle_alpha   75.51587318
_cell_angle_beta   75.51587318
_cell_angle_gamma   70.55018101
_symmetry_Int_Tables_number   1
_chemical_formula_structural   HoWClO4
_chemical_formula_sum   'Ho2 W2 Cl2 O8'
_cell_volume   251.62630547
_cell_formula_units_Z   2
loop_
 _symmetry_equiv_pos_site_id
 _symmetry_equiv_pos_as_xyz
  1  'x, y, z'
loop_
 _atom_site_type_symbol
 _atom_site_label
 _atom_site_symmetry_multiplicity
 _atom_site_fract_x
 _atom_site_fract_y
 _atom_site_fract_z
 _atom_site_occupancy
  Ho  Ho0  1  0.77753900  0.77753900  0.11781000  1
  Ho  Ho1  1  0.22246100  0.22246100  0.88219000  1
  W  W2  1  0.63689200  0.63689200  0.73345600  1
  W  W3  1  0.36310800  0.36310800  0.26654400  1
  Cl  Cl4  1  0.98890600  0.98890600  0.77062300  1
  Cl  Cl5  1  0.01109400  0.01109400  0.22937700  1
  O  O6  1  0.70412000  0.70412000  0.46373300  1
  O  O7  1  0.29588000  0.29588000  0.53626700  1
  O  O8  1  0.54626200  0.54626200  0.19357400  1
  O  O9  1  0.45373800  0.45373800  0.80642600  1
  O  O10  1  0.10625700  0.49210200  0.15525600  1
  O  O11  1  0.49210200  0.10625700  0.15525600  1
  O  O12  1  0.89374300  0.50789800  0.84474400  1
  O  O13  1  0.50789800  0.89374300  0.84474400  1
