# generated using pymatgen
data_Dy3SbO3
_symmetry_space_group_name_H-M   'P 1'
_cell_length_a   6.84937949
_cell_length_b   6.84937949
_cell_length_c   11.77930020
_cell_angle_alpha   62.97227029
_cell_angle_beta   62.97227029
_cell_angle_gamma   32.81146185
_symmetry_Int_Tables_number   1
_chemical_formula_structural   Dy3SbO3
_chemical_formula_sum   'Dy6 Sb2 O6'
_cell_volume   263.71883940
_cell_formula_units_Z   2
loop_
 _symmetry_equiv_pos_site_id
 _symmetry_equiv_pos_as_xyz
  1  'x, y, z'
loop_
 _atom_site_type_symbol
 _atom_site_label
 _atom_site_symmetry_multiplicity
 _atom_site_fract_x
 _atom_site_fract_y
 _atom_site_fract_z
 _atom_site_occupancy
  Dy  Dy0  1  0.12069500  0.12069500  0.55712500  1
  Dy  Dy1  1  0.87930500  0.87930500  0.44287500  1
  Dy  Dy2  1  0.34212800  0.34212800  0.20752100  1
  Dy  Dy3  1  0.65787200  0.65787200  0.79247900  1
  Dy  Dy4  1  0.87195400  0.87195400  0.90159700  1
  Dy  Dy5  1  0.12804600  0.12804600  0.09840300  1
  Sb  Sb6  1  0.38234300  0.38234300  0.68060500  1
  Sb  Sb7  1  0.61765700  0.61765700  0.31939500  1
  O  O8  1  0.93674100  0.93674100  0.19209100  1
  O  O9  1  0.06325900  0.06325900  0.80790900  1
  O  O10  1  0.33541800  0.33541800  0.01586100  1
  O  O11  1  0.66458200  0.66458200  0.98413900  1
  O  O12  1  0.31028600  0.31028600  0.40890400  1
  O  O13  1  0.68971400  0.68971400  0.59109600  1
