# generated using pymatgen
data_Eu2GeS4
_symmetry_space_group_name_H-M   'P 1'
_cell_length_a   6.85946300
_cell_length_b   6.70527000
_cell_length_c   8.04824813
_cell_angle_alpha   72.23450784
_cell_angle_beta   90.00000000
_cell_angle_gamma   90.00000000
_symmetry_Int_Tables_number   1
_chemical_formula_structural   Eu2GeS4
_chemical_formula_sum   'Eu4 Ge2 S8'
_cell_volume   352.52312399
_cell_formula_units_Z   2
loop_
 _symmetry_equiv_pos_site_id
 _symmetry_equiv_pos_as_xyz
  1  'x, y, z'
loop_
 _atom_site_type_symbol
 _atom_site_label
 _atom_site_symmetry_multiplicity
 _atom_site_fract_x
 _atom_site_fract_y
 _atom_site_fract_z
 _atom_site_occupancy
  Eu  Eu0  1  0.73789300  0.28118700  0.05319300  1
  Eu  Eu1  1  0.23789300  0.71881300  0.94680700  1
  Eu  Eu2  1  0.72178000  0.24398600  0.56374700  1
  Eu  Eu3  1  0.22178000  0.75601400  0.43625300  1
  Ge  Ge4  1  0.76610800  0.73644200  0.19459500  1
  Ge  Ge5  1  0.26610800  0.26355800  0.80540500  1
  S  S6  1  0.81721100  0.91979100  0.91450700  1
  S  S7  1  0.31721100  0.08020900  0.08549300  1
  S  S8  1  0.80645600  0.93128000  0.37577700  1
  S  S9  1  0.30645600  0.06872000  0.62422300  1
  S  S10  1  0.50089400  0.53133200  0.24966500  1
  S  S11  1  0.00089400  0.46866800  0.75033500  1
  S  S12  1  0.50025800  0.50969900  0.73868600  1
  S  S13  1  0.00025800  0.49030100  0.26131400  1
