# generated using pymatgen
data_K2CdN12
_symmetry_space_group_name_H-M   'P 1'
_cell_length_a   3.87962300
_cell_length_b   8.20074954
_cell_length_c   9.90834930
_cell_angle_alpha   94.20788430
_cell_angle_beta   90.00000000
_cell_angle_gamma   103.68246611
_symmetry_Int_Tables_number   1
_chemical_formula_structural   K2CdN12
_chemical_formula_sum   'K2 Cd1 N12'
_cell_volume   305.42147879
_cell_formula_units_Z   1
loop_
 _symmetry_equiv_pos_site_id
 _symmetry_equiv_pos_as_xyz
  1  'x, y, z'
loop_
 _atom_site_type_symbol
 _atom_site_label
 _atom_site_symmetry_multiplicity
 _atom_site_fract_x
 _atom_site_fract_y
 _atom_site_fract_z
 _atom_site_occupancy
  K  K0  1  0.85080400  0.70160700  0.82174500  1
  K  K1  1  0.14919600  0.29839300  0.17825500  1
  Cd  Cd2  1  0.00000000  0.00000000  0.50000000  1
  N  N3  1  0.40708200  0.81416400  0.49488000  1
  N  N4  1  0.59291800  0.18583600  0.50512000  1
  N  N5  1  0.34018700  0.68037400  0.42949900  1
  N  N6  1  0.65981300  0.31962600  0.57050100  1
  N  N7  1  0.27527100  0.55054100  0.36681000  1
  N  N8  1  0.72472900  0.44945900  0.63319000  1
  N  N9  1  0.00937100  0.01874300  0.74031700  1
  N  N10  1  0.99062900  0.98125700  0.25968300  1
  N  N11  1  0.06805900  0.13611800  0.82278300  1
  N  N12  1  0.93194100  0.86388200  0.17721700  1
  N  N13  1  0.12389300  0.24778600  0.90766200  1
  N  N14  1  0.87610700  0.75221400  0.09233800  1
