# generated using pymatgen
data_Sr2Zn2As3
_symmetry_space_group_name_H-M   'P 1'
_cell_length_a   8.47555265
_cell_length_b   8.47555265
_cell_length_c   12.08899441
_cell_angle_alpha   55.01330581
_cell_angle_beta   55.01330581
_cell_angle_gamma   29.60272734
_symmetry_Int_Tables_number   1
_chemical_formula_structural   Sr2Zn2As3
_chemical_formula_sum   'Sr4 Zn4 As6'
_cell_volume   345.39611351
_cell_formula_units_Z   2
loop_
 _symmetry_equiv_pos_site_id
 _symmetry_equiv_pos_as_xyz
  1  'x, y, z'
loop_
 _atom_site_type_symbol
 _atom_site_label
 _atom_site_symmetry_multiplicity
 _atom_site_fract_x
 _atom_site_fract_y
 _atom_site_fract_z
 _atom_site_occupancy
  Sr  Sr0  1  0.26673500  0.26673500  0.33657000  1
  Sr  Sr1  1  0.73326500  0.73326500  0.66343000  1
  Sr  Sr2  1  0.39394800  0.39394800  0.94998800  1
  Sr  Sr3  1  0.60605200  0.60605200  0.05001200  1
  Zn  Zn4  1  0.03834800  0.03834800  0.68652700  1
  Zn  Zn5  1  0.96165200  0.96165200  0.31347300  1
  Zn  Zn6  1  0.41138500  0.41138500  0.65095000  1
  Zn  Zn7  1  0.58861500  0.58861500  0.34905000  1
  As  As8  1  0.07578100  0.07578100  0.87434300  1
  As  As9  1  0.92421900  0.92421900  0.12565700  1
  As  As10  1  0.15174400  0.15174400  0.20329900  1
  As  As11  1  0.84825600  0.84825600  0.79670100  1
  As  As12  1  0.39020800  0.39020800  0.45797900  1
  As  As13  1  0.60979200  0.60979200  0.54202100  1
