# generated using pymatgen
data_Bi2Pd3S2
_symmetry_space_group_name_H-M   'P 1'
_cell_length_a   7.33203019
_cell_length_b   7.33203019
_cell_length_c   8.42824650
_cell_angle_alpha   55.26815651
_cell_angle_beta   55.26815651
_cell_angle_gamma   70.40583084
_symmetry_Int_Tables_number   1
_chemical_formula_structural   Bi2Pd3S2
_chemical_formula_sum   'Bi4 Pd6 S4'
_cell_volume   305.97926765
_cell_formula_units_Z   2
loop_
 _symmetry_equiv_pos_site_id
 _symmetry_equiv_pos_as_xyz
  1  'x, y, z'
loop_
 _atom_site_type_symbol
 _atom_site_label
 _atom_site_symmetry_multiplicity
 _atom_site_fract_x
 _atom_site_fract_y
 _atom_site_fract_z
 _atom_site_occupancy
  Bi  Bi0  1  0.25165200  0.25165200  0.74059300  1
  Bi  Bi1  1  0.74834800  0.74834800  0.25940700  1
  Bi  Bi2  1  0.22594600  0.22594600  0.28006700  1
  Bi  Bi3  1  0.77405400  0.77405400  0.71993300  1
  Pd  Pd4  1  0.00000000  0.50000000  0.50000000  1
  Pd  Pd5  1  0.50000000  0.00000000  0.50000000  1
  Pd  Pd6  1  0.02669400  0.02669400  0.19844800  1
  Pd  Pd7  1  0.97330600  0.97330600  0.80155200  1
  Pd  Pd8  1  0.72315100  0.27684900  0.50000000  1
  Pd  Pd9  1  0.27684900  0.72315100  0.50000000  1
  S  S10  1  0.74449800  0.30238200  0.19706700  1
  S  S11  1  0.30238200  0.74449800  0.19706700  1
  S  S12  1  0.25550200  0.69761800  0.80293300  1
  S  S13  1  0.69761800  0.25550200  0.80293300  1
