# generated using pymatgen
data_Sm(MnCo2)4
_symmetry_space_group_name_H-M   'P 1'
_cell_length_a   4.55819000
_cell_length_b   6.37619239
_cell_length_c   6.37619239
_cell_angle_alpha   82.65970847
_cell_angle_beta   69.05704719
_cell_angle_gamma   69.05704719
_symmetry_Int_Tables_number   1
_chemical_formula_structural   Sm(MnCo2)4
_chemical_formula_sum   'Sm1 Mn4 Co8'
_cell_volume   161.64050711
_cell_formula_units_Z   1
loop_
 _symmetry_equiv_pos_site_id
 _symmetry_equiv_pos_as_xyz
  1  'x, y, z'
loop_
 _atom_site_type_symbol
 _atom_site_label
 _atom_site_symmetry_multiplicity
 _atom_site_fract_x
 _atom_site_fract_y
 _atom_site_fract_z
 _atom_site_occupancy
  Sm  Sm0  1  0.00000000  0.00000000  0.00000000  1
  Mn  Mn1  1  0.00000000  0.00000000  0.50000000  1
  Mn  Mn2  1  0.50000000  0.00000000  0.50000000  1
  Mn  Mn3  1  0.50000000  0.50000000  0.00000000  1
  Mn  Mn4  1  0.00000000  0.50000000  0.00000000  1
  Co  Co5  1  0.00000000  0.35954000  0.64046000  1
  Co  Co6  1  0.00000000  0.64046000  0.35954000  1
  Co  Co7  1  0.64046000  0.35954000  0.35954000  1
  Co  Co8  1  0.35954000  0.64046000  0.64046000  1
  Co  Co9  1  0.50000000  0.76976700  0.23023300  1
  Co  Co10  1  0.50000000  0.23023300  0.76976700  1
  Co  Co11  1  0.73023300  0.76976700  0.76976700  1
  Co  Co12  1  0.26976700  0.23023300  0.23023300  1
