# generated using pymatgen
data_Yb(InS2)2
_symmetry_space_group_name_H-M   'P 1'
_cell_length_a   6.07033684
_cell_length_b   6.07033684
_cell_length_c   10.20738700
_cell_angle_alpha   90.00000000
_cell_angle_beta   90.00000000
_cell_angle_gamma   114.40130946
_symmetry_Int_Tables_number   1
_chemical_formula_structural   Yb(InS2)2
_chemical_formula_sum   'Yb2 In4 S8'
_cell_volume   342.53362023
_cell_formula_units_Z   2
loop_
 _symmetry_equiv_pos_site_id
 _symmetry_equiv_pos_as_xyz
  1  'x, y, z'
loop_
 _atom_site_type_symbol
 _atom_site_label
 _atom_site_symmetry_multiplicity
 _atom_site_fract_x
 _atom_site_fract_y
 _atom_site_fract_z
 _atom_site_occupancy
  Yb  Yb0  1  0.50000000  0.50000000  0.75000000  1
  Yb  Yb1  1  0.50000000  0.50000000  0.25000000  1
  In  In2  1  0.78172400  0.22240900  0.50000000  1
  In  In3  1  0.21827600  0.77759100  0.50000000  1
  In  In4  1  0.77759100  0.21827600  0.00000000  1
  In  In5  1  0.22240900  0.78172400  0.00000000  1
  S  S6  1  0.35747600  0.22114500  0.50000000  1
  S  S7  1  0.64252400  0.77885500  0.50000000  1
  S  S8  1  0.77885500  0.64252400  0.00000000  1
  S  S9  1  0.22114500  0.35747600  0.00000000  1
  S  S10  1  0.50000000  0.00000000  0.81577200  1
  S  S11  1  0.00000000  0.50000000  0.68422800  1
  S  S12  1  0.50000000  0.00000000  0.18422800  1
  S  S13  1  0.00000000  0.50000000  0.31577200  1
