# generated using pymatgen
data_Ca(GaS2)2
_symmetry_space_group_name_H-M   'P 1'
_cell_length_a   5.92663032
_cell_length_b   5.92663032
_cell_length_c   10.24153900
_cell_angle_alpha   90.00000000
_cell_angle_beta   90.00000000
_cell_angle_gamma   118.81847031
_symmetry_Int_Tables_number   1
_chemical_formula_structural   Ca(GaS2)2
_chemical_formula_sum   'Ca2 Ga4 S8'
_cell_volume   315.18099724
_cell_formula_units_Z   2
loop_
 _symmetry_equiv_pos_site_id
 _symmetry_equiv_pos_as_xyz
  1  'x, y, z'
loop_
 _atom_site_type_symbol
 _atom_site_label
 _atom_site_symmetry_multiplicity
 _atom_site_fract_x
 _atom_site_fract_y
 _atom_site_fract_z
 _atom_site_occupancy
  Ca  Ca0  1  0.50000000  0.50000000  0.75000000  1
  Ca  Ca1  1  0.50000000  0.50000000  0.25000000  1
  Ga  Ga2  1  0.76633600  0.23717000  0.50000000  1
  Ga  Ga3  1  0.23366400  0.76283000  0.50000000  1
  Ga  Ga4  1  0.76283000  0.23366400  0.00000000  1
  Ga  Ga5  1  0.23717000  0.76633600  0.00000000  1
  S  S6  1  0.35256500  0.19152400  0.50000000  1
  S  S7  1  0.64743500  0.80847600  0.50000000  1
  S  S8  1  0.80847600  0.64743500  0.00000000  1
  S  S9  1  0.19152400  0.35256500  0.00000000  1
  S  S10  1  0.50000000  0.00000000  0.83001800  1
  S  S11  1  0.00000000  0.50000000  0.66998200  1
  S  S12  1  0.50000000  0.00000000  0.16998200  1
  S  S13  1  0.00000000  0.50000000  0.33001800  1
