# generated using pymatgen
data_Ca(Mo3S4)2
_symmetry_space_group_name_H-M   'P 1'
_cell_length_a   6.51910600
_cell_length_b   6.59541496
_cell_length_c   6.62148229
_cell_angle_alpha   90.24176716
_cell_angle_beta   90.41803082
_cell_angle_gamma   90.58515483
_symmetry_Int_Tables_number   1
_chemical_formula_structural   Ca(Mo3S4)2
_chemical_formula_sum   'Ca1 Mo6 S8'
_cell_volume   284.67358854
_cell_formula_units_Z   1
loop_
 _symmetry_equiv_pos_site_id
 _symmetry_equiv_pos_as_xyz
  1  'x, y, z'
loop_
 _atom_site_type_symbol
 _atom_site_label
 _atom_site_symmetry_multiplicity
 _atom_site_fract_x
 _atom_site_fract_y
 _atom_site_fract_z
 _atom_site_occupancy
  Ca  Ca0  1  0.00000000  0.00000000  0.00000000  1
  Mo  Mo1  1  0.55961900  0.57981300  0.22519400  1
  Mo  Mo2  1  0.44038100  0.42018700  0.77480600  1
  Mo  Mo3  1  0.23121800  0.44113000  0.42012200  1
  Mo  Mo4  1  0.76878200  0.55887000  0.57987800  1
  Mo  Mo5  1  0.41865900  0.77471600  0.55902500  1
  Mo  Mo6  1  0.58134100  0.22528400  0.44097500  1
  S  S7  1  0.37576000  0.25707000  0.12820100  1
  S  S8  1  0.62424000  0.74293000  0.87179900  1
  S  S9  1  0.24165000  0.76267100  0.23950400  1
  S  S10  1  0.75835000  0.23732900  0.76049600  1
  S  S11  1  0.74106600  0.87126700  0.37355600  1
  S  S12  1  0.25893400  0.12873300  0.62644400  1
  S  S13  1  0.12901500  0.62568900  0.74278400  1
  S  S14  1  0.87098500  0.37431100  0.25721600  1
