# generated using pymatgen
data_K2PdO4
_symmetry_space_group_name_H-M   'P 1'
_cell_length_a   6.83602400
_cell_length_b   5.44082800
_cell_length_c   7.30388141
_cell_angle_alpha   72.47582023
_cell_angle_beta   90.00000000
_cell_angle_gamma   90.00000000
_symmetry_Int_Tables_number   1
_chemical_formula_structural   K2PdO4
_chemical_formula_sum   'K4 Pd2 O8'
_cell_volume   259.05021662
_cell_formula_units_Z   2
loop_
 _symmetry_equiv_pos_site_id
 _symmetry_equiv_pos_as_xyz
  1  'x, y, z'
loop_
 _atom_site_type_symbol
 _atom_site_label
 _atom_site_symmetry_multiplicity
 _atom_site_fract_x
 _atom_site_fract_y
 _atom_site_fract_z
 _atom_site_occupancy
  K  K0  1  0.94620900  0.82761500  0.83039700  1
  K  K1  1  0.44620900  0.17238500  0.66960300  1
  K  K2  1  0.05379100  0.17238500  0.16960300  1
  K  K3  1  0.55379100  0.82761500  0.33039700  1
  Pd  Pd4  1  0.50000000  0.50000000  0.00000000  1
  Pd  Pd5  1  0.00000000  0.50000000  0.50000000  1
  O  O6  1  0.43252000  0.33854600  0.26161200  1
  O  O7  1  0.93252000  0.66145400  0.23838800  1
  O  O8  1  0.56748000  0.66145400  0.73838800  1
  O  O9  1  0.06748000  0.33854600  0.76161200  1
  O  O10  1  0.67368100  0.22396000  0.00591100  1
  O  O11  1  0.17368100  0.77604000  0.49408900  1
  O  O12  1  0.32631900  0.77604000  0.99408900  1
  O  O13  1  0.82631900  0.22396000  0.50591100  1
