# generated using pymatgen
data_Ce(MnCo2)4
_symmetry_space_group_name_H-M   'P 1'
_cell_length_a   4.55771600
_cell_length_b   6.35324928
_cell_length_c   6.35324928
_cell_angle_alpha   82.60784815
_cell_angle_beta   68.98012734
_cell_angle_gamma   68.98012734
_symmetry_Int_Tables_number   1
_chemical_formula_structural   Ce(MnCo2)4
_chemical_formula_sum   'Ce1 Mn4 Co8'
_cell_volume   160.29752690
_cell_formula_units_Z   1
loop_
 _symmetry_equiv_pos_site_id
 _symmetry_equiv_pos_as_xyz
  1  'x, y, z'
loop_
 _atom_site_type_symbol
 _atom_site_label
 _atom_site_symmetry_multiplicity
 _atom_site_fract_x
 _atom_site_fract_y
 _atom_site_fract_z
 _atom_site_occupancy
  Ce  Ce0  1  0.00000000  0.00000000  0.00000000  1
  Mn  Mn1  1  0.00000000  0.00000000  0.50000000  1
  Mn  Mn2  1  0.50000000  0.00000000  0.50000000  1
  Mn  Mn3  1  0.50000000  0.50000000  0.00000000  1
  Mn  Mn4  1  0.00000000  0.50000000  0.00000000  1
  Co  Co5  1  0.00000000  0.35751500  0.64248500  1
  Co  Co6  1  0.00000000  0.64248500  0.35751500  1
  Co  Co7  1  0.64248500  0.35751500  0.35751500  1
  Co  Co8  1  0.35751500  0.64248500  0.64248500  1
  Co  Co9  1  0.50000000  0.77207900  0.22792100  1
  Co  Co10  1  0.50000000  0.22792100  0.77207900  1
  Co  Co11  1  0.72792100  0.77207900  0.77207900  1
  Co  Co12  1  0.27207900  0.22792100  0.22792100  1
