# generated using pymatgen
data_Ho3Ga9Pd2
_symmetry_space_group_name_H-M   'P 1'
_cell_length_a   8.17666706
_cell_length_b   8.17666706
_cell_length_c   8.17666706
_cell_angle_alpha   149.49923982
_cell_angle_beta   109.12994550
_cell_angle_gamma   79.08607114
_symmetry_Int_Tables_number   1
_chemical_formula_structural   Ho3Ga9Pd2
_chemical_formula_sum   'Ho3 Ga9 Pd2'
_cell_volume   257.16183103
_cell_formula_units_Z   1
loop_
 _symmetry_equiv_pos_site_id
 _symmetry_equiv_pos_as_xyz
  1  'x, y, z'
loop_
 _atom_site_type_symbol
 _atom_site_label
 _atom_site_symmetry_multiplicity
 _atom_site_fract_x
 _atom_site_fract_y
 _atom_site_fract_z
 _atom_site_occupancy
  Ho  Ho0  1  0.50000000  0.50000000  0.00000000  1
  Ho  Ho1  1  0.20016700  0.20016700  0.00000000  1
  Ho  Ho2  1  0.79983300  0.79983300  0.00000000  1
  Ga  Ga3  1  0.64502100  0.36288500  0.28213600  1
  Ga  Ga4  1  0.35497900  0.63711500  0.71786400  1
  Ga  Ga5  1  0.08074900  0.36288500  0.71786400  1
  Ga  Ga6  1  0.91925100  0.63711500  0.28213600  1
  Ga  Ga7  1  0.52179600  0.15511000  0.36668600  1
  Ga  Ga8  1  0.47820400  0.84489000  0.63331400  1
  Ga  Ga9  1  0.78842400  0.15511000  0.63331400  1
  Ga  Ga10  1  0.21157600  0.84489000  0.36668600  1
  Ga  Ga11  1  0.00000000  0.50000000  0.50000000  1
  Pd  Pd12  1  0.18212000  0.00000000  0.18212000  1
  Pd  Pd13  1  0.81788000  0.00000000  0.81788000  1
