# generated using pymatgen
data_BaCo2(PO4)2
_symmetry_space_group_name_H-M   'P 1'
_cell_length_a   5.40443158
_cell_length_b   5.40443941
_cell_length_c   8.15177400
_cell_angle_alpha   89.99997734
_cell_angle_beta   90.00004410
_cell_angle_gamma   120.00029983
_symmetry_Int_Tables_number   1
_chemical_formula_structural   BaCo2(PO4)2
_chemical_formula_sum   'Ba1 Co2 P2 O8'
_cell_volume   206.19689692
_cell_formula_units_Z   1
loop_
 _symmetry_equiv_pos_site_id
 _symmetry_equiv_pos_as_xyz
  1  'x, y, z'
loop_
 _atom_site_type_symbol
 _atom_site_label
 _atom_site_symmetry_multiplicity
 _atom_site_fract_x
 _atom_site_fract_y
 _atom_site_fract_z
 _atom_site_occupancy
  Ba  Ba0  1  0.00000000  0.00000000  0.00000000  1
  Co  Co1  1  0.33332900  0.66666600  0.68988700  1
  Co  Co2  1  0.66667100  0.33333400  0.31011300  1
  P  P3  1  0.33332000  0.66665900  0.26914400  1
  P  P4  1  0.66668000  0.33334100  0.73085600  1
  O  O5  1  0.56126300  0.96488600  0.19892100  1
  O  O6  1  0.03513700  0.59638100  0.19892400  1
  O  O7  1  0.40363000  0.43874800  0.19892200  1
  O  O8  1  0.43873700  0.03511400  0.80107900  1
  O  O9  1  0.96486300  0.40361900  0.80107600  1
  O  O10  1  0.59637000  0.56125200  0.80107800  1
  O  O11  1  0.33333800  0.66666900  0.45518400  1
  O  O12  1  0.66666200  0.33333100  0.54481600  1
