# generated using pymatgen
data_Yb3Ga8Rh3
_symmetry_space_group_name_H-M   'P 1'
_cell_length_a   8.24888047
_cell_length_b   8.24888047
_cell_length_c   8.24888047
_cell_angle_alpha   150.11088911
_cell_angle_beta   107.40899652
_cell_angle_gamma   80.43408844
_symmetry_Int_Tables_number   1
_chemical_formula_structural   Yb3Ga8Rh3
_chemical_formula_sum   'Yb3 Ga8 Rh3'
_cell_volume   261.71156240
_cell_formula_units_Z   1
loop_
 _symmetry_equiv_pos_site_id
 _symmetry_equiv_pos_as_xyz
  1  'x, y, z'
loop_
 _atom_site_type_symbol
 _atom_site_label
 _atom_site_symmetry_multiplicity
 _atom_site_fract_x
 _atom_site_fract_y
 _atom_site_fract_z
 _atom_site_occupancy
  Yb  Yb0  1  0.50000000  0.50000000  0.00000000  1
  Yb  Yb1  1  0.17422300  0.17422300  0.00000000  1
  Yb  Yb2  1  0.82577700  0.82577700  0.00000000  1
  Ga  Ga3  1  0.08885900  0.37897400  0.70988600  1
  Ga  Ga4  1  0.91114100  0.62102600  0.29011400  1
  Ga  Ga5  1  0.66908800  0.37897400  0.29011400  1
  Ga  Ga6  1  0.33091200  0.62102600  0.70988600  1
  Ga  Ga7  1  0.80387700  0.16699700  0.63688000  1
  Ga  Ga8  1  0.19612300  0.83300300  0.36312000  1
  Ga  Ga9  1  0.53011700  0.16699700  0.36312000  1
  Ga  Ga10  1  0.46988300  0.83300300  0.63688000  1
  Rh  Rh11  1  0.00000000  0.50000000  0.50000000  1
  Rh  Rh12  1  0.78183700  0.00000000  0.78183700  1
  Rh  Rh13  1  0.21816300  0.00000000  0.21816300  1
