# generated using pymatgen
data_NaCaSiO4
_symmetry_space_group_name_H-M   'P 1'
_cell_length_a   7.15836200
_cell_length_b   5.40832800
_cell_length_c   5.44929022
_cell_angle_alpha   63.28035092
_cell_angle_beta   90.00000000
_cell_angle_gamma   90.00000000
_symmetry_Int_Tables_number   1
_chemical_formula_structural   NaCaSiO4
_chemical_formula_sum   'Na2 Ca2 Si2 O8'
_cell_volume   188.44026974
_cell_formula_units_Z   2
loop_
 _symmetry_equiv_pos_site_id
 _symmetry_equiv_pos_as_xyz
  1  'x, y, z'
loop_
 _atom_site_type_symbol
 _atom_site_label
 _atom_site_symmetry_multiplicity
 _atom_site_fract_x
 _atom_site_fract_y
 _atom_site_fract_z
 _atom_site_occupancy
  Na  Na0  1  0.75000000  0.71937800  0.65862200  1
  Na  Na1  1  0.25000000  0.28062200  0.34137800  1
  Ca  Ca2  1  0.50000000  0.00000000  0.00000000  1
  Ca  Ca3  1  0.00000000  0.00000000  0.00000000  1
  Si  Si4  1  0.25000000  0.62283600  0.66785300  1
  Si  Si5  1  0.75000000  0.37716400  0.33214700  1
  O  O6  1  0.25000000  0.28943000  0.76662600  1
  O  O7  1  0.75000000  0.71057000  0.23337400  1
  O  O8  1  0.75000000  0.19592500  0.66725500  1
  O  O9  1  0.25000000  0.80407500  0.33274500  1
  O  O10  1  0.44027900  0.71174400  0.78442900  1
  O  O11  1  0.94027900  0.28825600  0.21557100  1
  O  O12  1  0.55972100  0.28825600  0.21557100  1
  O  O13  1  0.05972100  0.71174400  0.78442900  1
