# generated using pymatgen
data_Sr(AlS2)2
_symmetry_space_group_name_H-M   'P 1'
_cell_length_a   6.08931000
_cell_length_b   6.08931000
_cell_length_c   10.68145000
_cell_angle_alpha   90.00000000
_cell_angle_beta   90.00000000
_cell_angle_gamma   121.34791122
_symmetry_Int_Tables_number   1
_chemical_formula_structural   Sr(AlS2)2
_chemical_formula_sum   'Sr2 Al4 S8'
_cell_volume   338.24899012
_cell_formula_units_Z   2
loop_
 _symmetry_equiv_pos_site_id
 _symmetry_equiv_pos_as_xyz
  1  'x, y, z'
loop_
 _atom_site_type_symbol
 _atom_site_label
 _atom_site_symmetry_multiplicity
 _atom_site_fract_x
 _atom_site_fract_y
 _atom_site_fract_z
 _atom_site_occupancy
  Sr  Sr0  1  0.50000000  0.50000000  0.75000000  1
  Sr  Sr1  1  0.50000000  0.50000000  0.25000000  1
  Al  Al2  1  0.76187800  0.24043000  0.50000000  1
  Al  Al3  1  0.23812200  0.75957000  0.50000000  1
  Al  Al4  1  0.75957000  0.23812200  0.00000000  1
  Al  Al5  1  0.24043000  0.76187800  0.00000000  1
  S  S6  1  0.35529800  0.17828200  0.50000000  1
  S  S7  1  0.64470200  0.82171800  0.50000000  1
  S  S8  1  0.82171800  0.64470200  0.00000000  1
  S  S9  1  0.17828200  0.35529800  0.00000000  1
  S  S10  1  0.50000000  0.00000000  0.83895700  1
  S  S11  1  0.00000000  0.50000000  0.66104300  1
  S  S12  1  0.50000000  0.00000000  0.16104300  1
  S  S13  1  0.00000000  0.50000000  0.33895700  1
