# generated using pymatgen
data_Eu(GaSe2)2
_symmetry_space_group_name_H-M   'P 1'
_cell_length_a   6.34340639
_cell_length_b   6.34340639
_cell_length_c   11.07965800
_cell_angle_alpha   90.00000000
_cell_angle_beta   90.00000000
_cell_angle_gamma   119.72317488
_symmetry_Int_Tables_number   1
_chemical_formula_structural   Eu(GaSe2)2
_chemical_formula_sum   'Eu2 Ga4 Se8'
_cell_volume   387.17451609
_cell_formula_units_Z   2
loop_
 _symmetry_equiv_pos_site_id
 _symmetry_equiv_pos_as_xyz
  1  'x, y, z'
loop_
 _atom_site_type_symbol
 _atom_site_label
 _atom_site_symmetry_multiplicity
 _atom_site_fract_x
 _atom_site_fract_y
 _atom_site_fract_z
 _atom_site_occupancy
  Eu  Eu0  1  0.50000000  0.50000000  0.75000000  1
  Eu  Eu1  1  0.50000000  0.50000000  0.25000000  1
  Ga  Ga2  1  0.76235600  0.23949400  0.50000000  1
  Ga  Ga3  1  0.23764400  0.76050600  0.50000000  1
  Ga  Ga4  1  0.76050600  0.23764400  0.00000000  1
  Ga  Ga5  1  0.23949400  0.76235600  0.00000000  1
  Se  Se6  1  0.34871900  0.18916100  0.50000000  1
  Se  Se7  1  0.65128100  0.81083900  0.50000000  1
  Se  Se8  1  0.81083900  0.65128100  0.00000000  1
  Se  Se9  1  0.18916100  0.34871900  0.00000000  1
  Se  Se10  1  0.50000000  0.00000000  0.83052400  1
  Se  Se11  1  0.00000000  0.50000000  0.66947600  1
  Se  Se12  1  0.50000000  0.00000000  0.16947600  1
  Se  Se13  1  0.00000000  0.50000000  0.33052400  1
