# generated using pymatgen
data_Y3Pd2
_symmetry_space_group_name_H-M   'P 1'
_cell_length_a   7.51649772
_cell_length_b   7.51649772
_cell_length_c   7.51649710
_cell_angle_alpha   72.00400263
_cell_angle_beta   72.00400263
_cell_angle_gamma   72.00400433
_symmetry_Int_Tables_number   1
_chemical_formula_structural   Y3Pd2
_chemical_formula_sum   'Y9 Pd6'
_cell_volume   373.27737442
_cell_formula_units_Z   3
loop_
 _symmetry_equiv_pos_site_id
 _symmetry_equiv_pos_as_xyz
  1  'x, y, z'
loop_
 _atom_site_type_symbol
 _atom_site_label
 _atom_site_symmetry_multiplicity
 _atom_site_fract_x
 _atom_site_fract_y
 _atom_site_fract_z
 _atom_site_occupancy
  Y  Y0  1  0.00000000  0.00000000  0.00000000  1
  Y  Y1  1  0.79386400  0.79386400  0.79386400  1
  Y  Y2  1  0.20613600  0.20613600  0.20613600  1
  Y  Y3  1  0.34280000  0.60720900  0.82856700  1
  Y  Y4  1  0.82856700  0.34280000  0.60720900  1
  Y  Y5  1  0.60720900  0.82856700  0.34280000  1
  Y  Y6  1  0.65720000  0.39279100  0.17143300  1
  Y  Y7  1  0.17143300  0.65720000  0.39279100  1
  Y  Y8  1  0.39279100  0.17143300  0.65720000  1
  Pd  Pd9  1  0.15601600  0.95750300  0.59097700  1
  Pd  Pd10  1  0.59097700  0.15601600  0.95750300  1
  Pd  Pd11  1  0.95750300  0.59097700  0.15601600  1
  Pd  Pd12  1  0.84398400  0.04249700  0.40902300  1
  Pd  Pd13  1  0.40902300  0.84398400  0.04249700  1
  Pd  Pd14  1  0.04249700  0.40902300  0.84398400  1
