# generated using pymatgen
data_BaAlO5
_symmetry_space_group_name_H-M   'P 1'
_cell_length_a   5.79977300
_cell_length_b   6.58822058
_cell_length_c   6.88047347
_cell_angle_alpha   102.48495513
_cell_angle_beta   89.96186095
_cell_angle_gamma   106.80364078
_symmetry_Int_Tables_number   1
_chemical_formula_structural   BaAlO5
_chemical_formula_sum   'Ba2 Al2 O10'
_cell_volume   245.18868048
_cell_formula_units_Z   2
loop_
 _symmetry_equiv_pos_site_id
 _symmetry_equiv_pos_as_xyz
  1  'x, y, z'
loop_
 _atom_site_type_symbol
 _atom_site_label
 _atom_site_symmetry_multiplicity
 _atom_site_fract_x
 _atom_site_fract_y
 _atom_site_fract_z
 _atom_site_occupancy
  Ba  Ba0  1  0.26767800  0.03975500  0.26617700  1
  Ba  Ba1  1  0.73232200  0.96024500  0.73382300  1
  Al  Al2  1  0.36831900  0.35924900  0.83827800  1
  Al  Al3  1  0.63168100  0.64075100  0.16172200  1
  O  O4  1  0.13520200  0.25667100  0.00117500  1
  O  O5  1  0.86479800  0.74332900  0.99882500  1
  O  O6  1  0.17453400  0.29443200  0.60412900  1
  O  O7  1  0.82546600  0.70556800  0.39587100  1
  O  O8  1  0.54589600  0.27370600  0.63169500  1
  O  O9  1  0.45410400  0.72629400  0.36830500  1
  O  O10  1  0.23985200  0.03380300  0.73411600  1
  O  O11  1  0.76014800  0.96619700  0.26588400  1
  O  O12  1  0.46236800  0.65702700  0.93168000  1
  O  O13  1  0.53763200  0.34297300  0.06832000  1
