# generated using pymatgen
data_W3O10
_symmetry_space_group_name_H-M   'P 1'
_cell_length_a   7.53977370
_cell_length_b   7.46758671
_cell_length_c   5.40143461
_cell_angle_alpha   69.62092980
_cell_angle_beta   68.19205979
_cell_angle_gamma   42.18701041
_symmetry_Int_Tables_number   1
_chemical_formula_structural   W3O10
_chemical_formula_sum   'W3 O10'
_cell_volume   188.31477645
_cell_formula_units_Z   1
loop_
 _symmetry_equiv_pos_site_id
 _symmetry_equiv_pos_as_xyz
  1  'x, y, z'
loop_
 _atom_site_type_symbol
 _atom_site_label
 _atom_site_symmetry_multiplicity
 _atom_site_fract_x
 _atom_site_fract_y
 _atom_site_fract_z
 _atom_site_occupancy
  W  W0  1  0.51718000  0.98282000  0.51718000  1
  W  W1  1  0.01718000  0.48282000  0.01718000  1
  W  W2  1  0.95186800  0.04813200  0.95186800  1
  O  O3  1  0.72155100  0.70693300  0.29306700  1
  O  O4  1  0.29306700  0.27844900  0.72155100  1
  O  O5  1  0.71164700  0.07542500  0.28248900  1
  O  O6  1  0.28248900  0.93043800  0.71164700  1
  O  O7  1  0.06956200  0.71751100  0.92457500  1
  O  O8  1  0.92457500  0.28835300  0.06956200  1
  O  O9  1  0.75617300  0.74382700  0.75617300  1
  O  O10  1  0.25617300  0.24382700  0.25617300  1
  O  O11  1  0.24093600  0.75906400  0.24093600  1
  O  O12  1  0.72760000  0.27240000  0.72760000  1
