# generated using pymatgen
data_NbPO5
_symmetry_space_group_name_H-M   'P 1'
_cell_length_a   6.49165800
_cell_length_b   6.49165800
_cell_length_c   4.26716000
_cell_angle_alpha   90.00000000
_cell_angle_beta   90.00000000
_cell_angle_gamma   90.00000000
_symmetry_Int_Tables_number   1
_chemical_formula_structural   NbPO5
_chemical_formula_sum   'Nb2 P2 O10'
_cell_volume   179.82505051
_cell_formula_units_Z   2
loop_
 _symmetry_equiv_pos_site_id
 _symmetry_equiv_pos_as_xyz
  1  'x, y, z'
loop_
 _atom_site_type_symbol
 _atom_site_label
 _atom_site_symmetry_multiplicity
 _atom_site_fract_x
 _atom_site_fract_y
 _atom_site_fract_z
 _atom_site_occupancy
  Nb  Nb0  1  0.50000000  0.00000000  0.22247900  1
  Nb  Nb1  1  0.00000000  0.50000000  0.77752100  1
  P  P2  1  0.50000000  0.50000000  0.50000000  1
  P  P3  1  0.00000000  0.00000000  0.50000000  1
  O  O4  1  0.50000000  0.00000000  0.80582700  1
  O  O5  1  0.00000000  0.50000000  0.19417300  1
  O  O6  1  0.02078100  0.80628600  0.70617200  1
  O  O7  1  0.97921900  0.19371400  0.70617200  1
  O  O8  1  0.69371400  0.52078100  0.70617200  1
  O  O9  1  0.30628600  0.47921900  0.70617200  1
  O  O10  1  0.47921900  0.69371400  0.29382800  1
  O  O11  1  0.52078100  0.30628600  0.29382800  1
  O  O12  1  0.80628600  0.97921900  0.29382800  1
  O  O13  1  0.19371400  0.02078100  0.29382800  1
