# generated using pymatgen
data_C11N4
_symmetry_space_group_name_H-M   'P 1'
_cell_length_a   3.49226100
_cell_length_b   3.60841900
_cell_length_c   7.35138400
_cell_angle_alpha   90.00000000
_cell_angle_beta   90.00000000
_cell_angle_gamma   90.00000000
_symmetry_Int_Tables_number   1
_chemical_formula_structural   C11N4
_chemical_formula_sum   'C11 N4'
_cell_volume   92.63876648
_cell_formula_units_Z   1
loop_
 _symmetry_equiv_pos_site_id
 _symmetry_equiv_pos_as_xyz
  1  'x, y, z'
loop_
 _atom_site_type_symbol
 _atom_site_label
 _atom_site_symmetry_multiplicity
 _atom_site_fract_x
 _atom_site_fract_y
 _atom_site_fract_z
 _atom_site_occupancy
  C  C0  1  0.50000000  0.50000000  0.74485500  1
  C  C1  1  0.50000000  0.50000000  0.25514500  1
  C  C2  1  0.00000000  0.50000000  0.50000000  1
  C  C3  1  0.00000000  0.00000000  0.72156200  1
  C  C4  1  0.00000000  0.00000000  0.27843800  1
  C  C5  1  0.76851900  0.23562900  0.86070300  1
  C  C6  1  0.23148100  0.76437100  0.86070300  1
  C  C7  1  0.76851900  0.76437100  0.13929700  1
  C  C8  1  0.23148100  0.23562900  0.13929700  1
  C  C9  1  0.00000000  0.50000000  0.00000000  1
  C  C10  1  0.00000000  0.00000000  0.00000000  1
  N  N11  1  0.24460000  0.26722200  0.61906200  1
  N  N12  1  0.75540000  0.73277800  0.61906200  1
  N  N13  1  0.24460000  0.73277800  0.38093800  1
  N  N14  1  0.75540000  0.26722200  0.38093800  1
