# generated using pymatgen
data_MnGa6
_symmetry_space_group_name_H-M   'P 1'
_cell_length_a   5.02090661
_cell_length_b   5.02090661
_cell_length_c   8.91121700
_cell_angle_alpha   90.00000000
_cell_angle_beta   90.00000000
_cell_angle_gamma   98.42405183
_symmetry_Int_Tables_number   1
_chemical_formula_structural   MnGa6
_chemical_formula_sum   'Mn2 Ga12'
_cell_volume   222.22361561
_cell_formula_units_Z   2
loop_
 _symmetry_equiv_pos_site_id
 _symmetry_equiv_pos_as_xyz
  1  'x, y, z'
loop_
 _atom_site_type_symbol
 _atom_site_label
 _atom_site_symmetry_multiplicity
 _atom_site_fract_x
 _atom_site_fract_y
 _atom_site_fract_z
 _atom_site_occupancy
  Mn  Mn0  1  0.44728000  0.44728000  0.25000000  1
  Mn  Mn1  1  0.55272000  0.55272000  0.75000000  1
  Ga  Ga2  1  0.67353100  0.32646900  0.50000000  1
  Ga  Ga3  1  0.67353100  0.32646900  0.00000000  1
  Ga  Ga4  1  0.32646900  0.67353100  0.50000000  1
  Ga  Ga5  1  0.32646900  0.67353100  0.00000000  1
  Ga  Ga6  1  0.13170500  0.13170500  0.40037200  1
  Ga  Ga7  1  0.86829500  0.86829500  0.59962800  1
  Ga  Ga8  1  0.13170500  0.13170500  0.09962800  1
  Ga  Ga9  1  0.86829500  0.86829500  0.90037200  1
  Ga  Ga10  1  0.95844600  0.59942400  0.25000000  1
  Ga  Ga11  1  0.40057600  0.04155400  0.75000000  1
  Ga  Ga12  1  0.04155400  0.40057600  0.75000000  1
  Ga  Ga13  1  0.59942400  0.95844600  0.25000000  1
