# generated using pymatgen
data_HgCS(NCl)2
_symmetry_space_group_name_H-M   'P 1'
_cell_length_a   4.10784900
_cell_length_b   8.81167670
_cell_length_c   9.79588526
_cell_angle_alpha   91.65681819
_cell_angle_beta   90.00000000
_cell_angle_gamma   90.00000000
_symmetry_Int_Tables_number   1
_chemical_formula_structural   HgCS(NCl)2
_chemical_formula_sum   'Hg2 C2 S2 N4 Cl4'
_cell_volume   354.43378598
_cell_formula_units_Z   2
loop_
 _symmetry_equiv_pos_site_id
 _symmetry_equiv_pos_as_xyz
  1  'x, y, z'
loop_
 _atom_site_type_symbol
 _atom_site_label
 _atom_site_symmetry_multiplicity
 _atom_site_fract_x
 _atom_site_fract_y
 _atom_site_fract_z
 _atom_site_occupancy
  Hg  Hg0  1  0.58478400  0.83047800  0.10815600  1
  Hg  Hg1  1  0.08478400  0.16952200  0.89184400  1
  C  C2  1  0.61339600  0.77330000  0.44961800  1
  C  C3  1  0.11339600  0.22670000  0.55038200  1
  S  S4  1  0.60886600  0.92993700  0.36233400  1
  S  S5  1  0.10886600  0.07006300  0.63766600  1
  N  N6  1  0.61943400  0.66594300  0.51933600  1
  N  N7  1  0.11943400  0.33405700  0.48066400  1
  N  N8  1  0.56608900  0.40985300  0.25674000  1
  N  N9  1  0.06608900  0.59014700  0.74326000  1
  Cl  Cl10  1  0.57324600  0.88872200  0.86375800  1
  Cl  Cl11  1  0.07324600  0.11127800  0.13624200  1
  Cl  Cl12  1  0.08408500  0.65108300  0.13694600  1
  Cl  Cl13  1  0.58408500  0.34891700  0.86305400  1
