# generated using pymatgen
data_KCaAsO12
_symmetry_space_group_name_H-M   'P 1'
_cell_length_a   8.60145327
_cell_length_b   8.60145327
_cell_length_c   3.96358300
_cell_angle_alpha   90.00000000
_cell_angle_beta   90.00000000
_cell_angle_gamma   131.20793536
_symmetry_Int_Tables_number   1
_chemical_formula_structural   KCaAsO12
_chemical_formula_sum   'K1 Ca1 As1 O12'
_cell_volume   220.61566901
_cell_formula_units_Z   1
loop_
 _symmetry_equiv_pos_site_id
 _symmetry_equiv_pos_as_xyz
  1  'x, y, z'
loop_
 _atom_site_type_symbol
 _atom_site_label
 _atom_site_symmetry_multiplicity
 _atom_site_fract_x
 _atom_site_fract_y
 _atom_site_fract_z
 _atom_site_occupancy
  K  K0  1  0.28759000  0.71241000  0.50000000  1
  Ca  Ca1  1  0.63087700  0.36912300  0.50000000  1
  As  As2  1  0.99951800  0.00048200  0.00000000  1
  O  O3  1  0.91282900  0.08717100  0.71628600  1
  O  O4  1  0.91282900  0.08717100  0.28371400  1
  O  O5  1  0.87631300  0.73706300  0.00000000  1
  O  O6  1  0.26293700  0.12368700  0.00000000  1
  O  O7  1  0.44593300  0.55406700  0.84224600  1
  O  O8  1  0.44593300  0.55406700  0.15775400  1
  O  O9  1  0.28587600  0.17220300  0.50000000  1
  O  O10  1  0.82779700  0.71412400  0.50000000  1
  O  O11  1  0.92333300  0.44449900  0.83711800  1
  O  O12  1  0.55550100  0.07666700  0.16288200  1
  O  O13  1  0.92333300  0.44449900  0.16288200  1
  O  O14  1  0.55550100  0.07666700  0.83711800  1
