# generated using pymatgen
data_Gd3SbO3
_symmetry_space_group_name_H-M   'P 1'
_cell_length_a   6.97217578
_cell_length_b   6.97217578
_cell_length_c   11.96115845
_cell_angle_alpha   62.84449727
_cell_angle_beta   62.84449727
_cell_angle_gamma   32.73880254
_symmetry_Int_Tables_number   1
_chemical_formula_structural   Gd3SbO3
_chemical_formula_sum   'Gd6 Sb2 O6'
_cell_volume   276.59639490
_cell_formula_units_Z   2
loop_
 _symmetry_equiv_pos_site_id
 _symmetry_equiv_pos_as_xyz
  1  'x, y, z'
loop_
 _atom_site_type_symbol
 _atom_site_label
 _atom_site_symmetry_multiplicity
 _atom_site_fract_x
 _atom_site_fract_y
 _atom_site_fract_z
 _atom_site_occupancy
  Gd  Gd0  1  0.11963900  0.11963900  0.55781600  1
  Gd  Gd1  1  0.88036100  0.88036100  0.44218400  1
  Gd  Gd2  1  0.34293500  0.34293500  0.20768200  1
  Gd  Gd3  1  0.65706500  0.65706500  0.79231800  1
  Gd  Gd4  1  0.87188700  0.87188700  0.90047500  1
  Gd  Gd5  1  0.12811300  0.12811300  0.09952500  1
  Sb  Sb6  1  0.38145400  0.38145400  0.68040900  1
  Sb  Sb7  1  0.61854600  0.61854600  0.31959100  1
  O  O8  1  0.30974300  0.30974300  0.40986400  1
  O  O9  1  0.69025700  0.69025700  0.59013600  1
  O  O10  1  0.33576500  0.33576500  0.01529700  1
  O  O11  1  0.66423500  0.66423500  0.98470300  1
  O  O12  1  0.93631700  0.93631700  0.19686800  1
  O  O13  1  0.06368300  0.06368300  0.80313200  1
