# generated using pymatgen
data_KMg(CO5)2
_symmetry_space_group_name_H-M   'P 1'
_cell_length_a   5.17322048
_cell_length_b   6.70632350
_cell_length_c   7.19666030
_cell_angle_alpha   113.35955211
_cell_angle_beta   88.74443890
_cell_angle_gamma   104.73235352
_symmetry_Int_Tables_number   1
_chemical_formula_structural   KMg(CO5)2
_chemical_formula_sum   'K1 Mg1 C2 O10'
_cell_volume   220.79813594
_cell_formula_units_Z   1
loop_
 _symmetry_equiv_pos_site_id
 _symmetry_equiv_pos_as_xyz
  1  'x, y, z'
loop_
 _atom_site_type_symbol
 _atom_site_label
 _atom_site_symmetry_multiplicity
 _atom_site_fract_x
 _atom_site_fract_y
 _atom_site_fract_z
 _atom_site_occupancy
  K  K0  1  0.00000000  0.00000000  0.00000000  1
  Mg  Mg1  1  0.50000000  0.50000000  0.50000000  1
  C  C2  1  0.61633800  0.29956400  0.79691800  1
  C  C3  1  0.38366200  0.70043600  0.20308200  1
  O  O4  1  0.52309200  0.22597500  0.24566000  1
  O  O5  1  0.47690800  0.77402500  0.75434000  1
  O  O6  1  0.68798700  0.43838000  0.71198800  1
  O  O7  1  0.31201300  0.56162000  0.28801200  1
  O  O8  1  0.83567100  0.73159600  0.48476800  1
  O  O9  1  0.16432900  0.26840400  0.51523200  1
  O  O10  1  0.78127600  0.30140900  0.92749600  1
  O  O11  1  0.21872400  0.69859100  0.07250400  1
  O  O12  1  0.61544700  0.84063900  0.24222000  1
  O  O13  1  0.38455300  0.15936100  0.75778000  1
