# generated using pymatgen
data_Sm3Pt4
_symmetry_space_group_name_H-M   'P 1'
_cell_length_a   8.05132631
_cell_length_b   8.05132631
_cell_length_c   8.05132689
_cell_angle_alpha   114.44446938
_cell_angle_beta   114.44446938
_cell_angle_gamma   114.44446798
_symmetry_Int_Tables_number   1
_chemical_formula_structural   Sm3Pt4
_chemical_formula_sum   'Sm6 Pt8'
_cell_volume   306.36160849
_cell_formula_units_Z   2
loop_
 _symmetry_equiv_pos_site_id
 _symmetry_equiv_pos_as_xyz
  1  'x, y, z'
loop_
 _atom_site_type_symbol
 _atom_site_label
 _atom_site_symmetry_multiplicity
 _atom_site_fract_x
 _atom_site_fract_y
 _atom_site_fract_z
 _atom_site_occupancy
  Sm  Sm0  1  0.97329400  0.59669300  0.71870100  1
  Sm  Sm1  1  0.71870100  0.97329400  0.59669300  1
  Sm  Sm2  1  0.59669300  0.71870100  0.97329400  1
  Sm  Sm3  1  0.02670600  0.40330700  0.28129900  1
  Sm  Sm4  1  0.28129900  0.02670600  0.40330700  1
  Sm  Sm5  1  0.40330700  0.28129900  0.02670600  1
  Pt  Pt6  1  0.00000000  0.00000000  0.00000000  1
  Pt  Pt7  1  0.50000000  0.50000000  0.50000000  1
  Pt  Pt8  1  0.94036200  0.77706900  0.44837400  1
  Pt  Pt9  1  0.44837400  0.94036200  0.77706900  1
  Pt  Pt10  1  0.77706900  0.44837400  0.94036200  1
  Pt  Pt11  1  0.05963800  0.22293100  0.55162600  1
  Pt  Pt12  1  0.55162600  0.05963800  0.22293100  1
  Pt  Pt13  1  0.22293100  0.55162600  0.05963800  1
