# generated using pymatgen
data_CaMn8O16
_symmetry_space_group_name_H-M   'P 1'
_cell_length_a   5.96712500
_cell_length_b   9.79869600
_cell_length_c   13.97724868
_cell_angle_alpha   45.81701977
_cell_angle_beta   90.00000000
_cell_angle_gamma   90.00000000
_symmetry_Int_Tables_number   1
_chemical_formula_structural   CaMn8O16
_chemical_formula_sum   'Ca2 Mn16 O32'
_cell_volume   586.06466175
_cell_formula_units_Z   2
loop_
 _symmetry_equiv_pos_site_id
 _symmetry_equiv_pos_as_xyz
  1  'x, y, z'
loop_
 _atom_site_type_symbol
 _atom_site_label
 _atom_site_symmetry_multiplicity
 _atom_site_fract_x
 _atom_site_fract_y
 _atom_site_fract_z
 _atom_site_occupancy
  Ca  Ca0  1  0.12385200  0.08339600  0.42502100  1
  Ca  Ca1  1  0.87614800  0.08339600  0.92502100  1
  Mn  Mn2  1  0.62296600  0.47675800  0.35044700  1
  Mn  Mn3  1  0.12090800  0.49355500  0.34298300  1
  Mn  Mn4  1  0.63061100  0.82245900  0.83051400  1
  Mn  Mn5  1  0.12684300  0.82243100  0.83137800  1
  Mn  Mn6  1  0.12417600  0.18798600  0.15537200  1
  Mn  Mn7  1  0.62548400  0.18773500  0.16525400  1
  Mn  Mn8  1  0.12477400  0.52341300  0.64484300  1
  Mn  Mn9  1  0.62655400  0.52823600  0.64273800  1
  Mn  Mn10  1  0.87909200  0.49355500  0.84298300  1
  Mn  Mn11  1  0.37703400  0.47675800  0.85044700  1
  Mn  Mn12  1  0.87315700  0.82243100  0.33137800  1
  Mn  Mn13  1  0.36938900  0.82245900  0.33051400  1
  Mn  Mn14  1  0.87582400  0.18798600  0.65537200  1
  Mn  Mn15  1  0.37451600  0.18773500  0.66525400  1
  Mn  Mn16  1  0.87522600  0.52341300  0.14484300  1
  Mn  Mn17  1  0.37344600  0.52823600  0.14273800  1
  O  O18  1  0.87461800  0.38395100  0.65849500  1
  O  O19  1  0.37623300  0.39178800  0.65522700  1
  O  O20  1  0.88297700  0.29204000  0.03273800  1
  O  O21  1  0.37401400  0.28730000  0.03947800  1
  O  O22  1  0.87743800  0.72092900  0.95339600  1
  O  O23  1  0.37832100  0.72218400  0.95188600  1
  O  O24  1  0.87424200  0.62592200  0.33395000  1
  O  O25  1  0.36828900  0.62243500  0.33707300  1
  O  O26  1  0.12538200  0.38395100  0.15849500  1
  O  O27  1  0.62376700  0.39178800  0.15522700  1
  O  O28  1  0.11702300  0.29204000  0.53273800  1
  O  O29  1  0.62598600  0.28730000  0.53947800  1
  O  O30  1  0.62167900  0.72218400  0.45188600  1
  O  O31  1  0.12256200  0.72092900  0.45339600  1
  O  O32  1  0.63171100  0.62243500  0.83707300  1
  O  O33  1  0.12575800  0.62592200  0.83395000  1
  O  O34  1  0.64471800  0.35694300  0.83667900  1
  O  O35  1  0.10836600  0.35392800  0.83778700  1
  O  O36  1  0.11919400  0.95088700  0.19985100  1
  O  O37  1  0.62478200  0.95416100  0.20345500  1
  O  O38  1  0.12095900  0.65503500  0.14601300  1
  O  O39  1  0.62687000  0.64444700  0.15484700  1
  O  O40  1  0.65158400  0.05483100  0.79778600  1
  O  O41  1  0.11202800  0.06115600  0.79289900  1
  O  O42  1  0.89163400  0.35392800  0.33778700  1
  O  O43  1  0.35528200  0.35694300  0.33667900  1
  O  O44  1  0.88080600  0.95088700  0.69985100  1
  O  O45  1  0.37521800  0.95416100  0.70345500  1
  O  O46  1  0.87904100  0.65503500  0.64601300  1
  O  O47  1  0.37313000  0.64444700  0.65484700  1
  O  O48  1  0.88797200  0.06115600  0.29289900  1
  O  O49  1  0.34841600  0.05483100  0.29778600  1
