# generated using pymatgen
data_BaAl2(PO5)2
_symmetry_space_group_name_H-M   'P 1'
_cell_length_a   4.97957800
_cell_length_b   6.12097540
_cell_length_c   6.69904667
_cell_angle_alpha   110.70578578
_cell_angle_beta   106.64943446
_cell_angle_gamma   93.11801674
_symmetry_Int_Tables_number   1
_chemical_formula_structural   BaAl2(PO5)2
_chemical_formula_sum   'Ba1 Al2 P2 O10'
_cell_volume   180.20727385
_cell_formula_units_Z   1
loop_
 _symmetry_equiv_pos_site_id
 _symmetry_equiv_pos_as_xyz
  1  'x, y, z'
loop_
 _atom_site_type_symbol
 _atom_site_label
 _atom_site_symmetry_multiplicity
 _atom_site_fract_x
 _atom_site_fract_y
 _atom_site_fract_z
 _atom_site_occupancy
  Ba  Ba0  1  0.00000000  0.00000000  0.00000000  1
  Al  Al1  1  0.31318100  0.35760400  0.73498900  1
  Al  Al2  1  0.68681900  0.64239600  0.26501100  1
  P  P3  1  0.31885800  0.80087800  0.58837200  1
  P  P4  1  0.68114200  0.19912200  0.41162800  1
  O  O5  1  0.59671500  0.74575300  0.53485200  1
  O  O6  1  0.40328500  0.25424700  0.46514800  1
  O  O7  1  0.07343900  0.76711500  0.37342900  1
  O  O8  1  0.92656100  0.23288500  0.62657100  1
  O  O9  1  0.38756700  0.06156600  0.76678900  1
  O  O10  1  0.61243300  0.93843400  0.23321100  1
  O  O11  1  0.23718000  0.65056800  0.71190900  1
  O  O12  1  0.76282000  0.34943200  0.28809100  1
  O  O13  1  0.67315700  0.52458300  0.95151500  1
  O  O14  1  0.32684300  0.47541700  0.04848500  1
