# generated using pymatgen
data_K4(NiO2)3
_symmetry_space_group_name_H-M   'P 1'
_cell_length_a   5.48305553
_cell_length_b   5.48305553
_cell_length_c   7.91456511
_cell_angle_alpha   88.84025256
_cell_angle_beta   88.84025256
_cell_angle_gamma   68.44965072
_symmetry_Int_Tables_number   1
_chemical_formula_structural   K4(NiO2)3
_chemical_formula_sum   'K4 Ni3 O6'
_cell_volume   221.24301331
_cell_formula_units_Z   1
loop_
 _symmetry_equiv_pos_site_id
 _symmetry_equiv_pos_as_xyz
  1  'x, y, z'
loop_
 _atom_site_type_symbol
 _atom_site_label
 _atom_site_symmetry_multiplicity
 _atom_site_fract_x
 _atom_site_fract_y
 _atom_site_fract_z
 _atom_site_occupancy
  K  K0  1  0.67521000  0.67521000  0.62569200  1
  K  K1  1  0.32479000  0.32479000  0.37430800  1
  K  K2  1  0.65216200  0.65216200  0.10901300  1
  K  K3  1  0.34783800  0.34783800  0.89098700  1
  Ni  Ni4  1  0.00000000  0.00000000  0.00000000  1
  Ni  Ni5  1  0.96608700  0.96608700  0.33080200  1
  Ni  Ni6  1  0.03391300  0.03391300  0.66919800  1
  O  O7  1  0.13356600  0.73352900  0.15755300  1
  O  O8  1  0.73352900  0.13356600  0.15755300  1
  O  O9  1  0.86643400  0.26647100  0.84244700  1
  O  O10  1  0.26647100  0.86643400  0.84244700  1
  O  O11  1  0.19677600  0.80322400  0.50000000  1
  O  O12  1  0.80322400  0.19677600  0.50000000  1
