# generated using pymatgen
data_Ho(CoGe)6
_symmetry_space_group_name_H-M   'P 1'
_cell_length_a   5.08521700
_cell_length_b   5.08521716
_cell_length_c   7.86648200
_cell_angle_alpha   90.00000000
_cell_angle_beta   90.00000000
_cell_angle_gamma   120.00000547
_symmetry_Int_Tables_number   1
_chemical_formula_structural   Ho(CoGe)6
_chemical_formula_sum   'Ho1 Co6 Ge6'
_cell_volume   176.16927005
_cell_formula_units_Z   1
loop_
 _symmetry_equiv_pos_site_id
 _symmetry_equiv_pos_as_xyz
  1  'x, y, z'
loop_
 _atom_site_type_symbol
 _atom_site_label
 _atom_site_symmetry_multiplicity
 _atom_site_fract_x
 _atom_site_fract_y
 _atom_site_fract_z
 _atom_site_occupancy
  Ho  Ho0  1  0.00000000  0.00000000  0.00000000  1
  Co  Co1  1  0.50000000  0.50000000  0.74943800  1
  Co  Co2  1  0.50000000  0.00000000  0.74943800  1
  Co  Co3  1  0.00000000  0.50000000  0.74943800  1
  Co  Co4  1  0.50000000  0.50000000  0.25056200  1
  Co  Co5  1  0.50000000  0.00000000  0.25056200  1
  Co  Co6  1  0.00000000  0.50000000  0.25056200  1
  Ge  Ge7  1  0.66666700  0.33333300  0.00000000  1
  Ge  Ge8  1  0.33333300  0.66666700  0.00000000  1
  Ge  Ge9  1  0.66666700  0.33333300  0.50000000  1
  Ge  Ge10  1  0.33333300  0.66666700  0.50000000  1
  Ge  Ge11  1  0.00000000  0.00000000  0.65555700  1
  Ge  Ge12  1  0.00000000  0.00000000  0.34444300  1
