# generated using pymatgen
data_Co3Sb4(OF)6
_symmetry_space_group_name_H-M   'P 1'
_cell_length_a   8.31271100
_cell_length_b   8.31271100
_cell_length_c   8.31271100
_cell_angle_alpha   90.00000000
_cell_angle_beta   90.00000000
_cell_angle_gamma   90.00000000
_symmetry_Int_Tables_number   1
_chemical_formula_structural   Co3Sb4(OF)6
_chemical_formula_sum   'Co6 Sb8 O12 F12'
_cell_volume   574.41800750
_cell_formula_units_Z   2
loop_
 _symmetry_equiv_pos_site_id
 _symmetry_equiv_pos_as_xyz
  1  'x, y, z'
loop_
 _atom_site_type_symbol
 _atom_site_label
 _atom_site_symmetry_multiplicity
 _atom_site_fract_x
 _atom_site_fract_y
 _atom_site_fract_z
 _atom_site_occupancy
  Co  Co0  1  0.50000000  0.00000000  0.50000000  1
  Co  Co1  1  0.00000000  0.50000000  0.50000000  1
  Co  Co2  1  0.50000000  0.50000000  0.00000000  1
  Co  Co3  1  0.00000000  0.50000000  0.00000000  1
  Co  Co4  1  0.50000000  0.00000000  0.00000000  1
  Co  Co5  1  0.00000000  0.00000000  0.50000000  1
  Sb  Sb6  1  0.15875200  0.15875200  0.84124800  1
  Sb  Sb7  1  0.65875200  0.65875200  0.34124800  1
  Sb  Sb8  1  0.34124800  0.34124800  0.34124800  1
  Sb  Sb9  1  0.84124800  0.84124800  0.84124800  1
  Sb  Sb10  1  0.65875200  0.34124800  0.65875200  1
  Sb  Sb11  1  0.15875200  0.84124800  0.15875200  1
  Sb  Sb12  1  0.34124800  0.65875200  0.65875200  1
  Sb  Sb13  1  0.84124800  0.15875200  0.15875200  1
  O  O14  1  0.00000000  0.24893000  0.00000000  1
  O  O15  1  0.50000000  0.74893000  0.50000000  1
  O  O16  1  0.75107000  0.00000000  0.00000000  1
  O  O17  1  0.25107000  0.50000000  0.50000000  1
  O  O18  1  0.00000000  0.00000000  0.24893000  1
  O  O19  1  0.50000000  0.50000000  0.74893000  1
  O  O20  1  0.00000000  0.75107000  0.00000000  1
  O  O21  1  0.50000000  0.25107000  0.50000000  1
  O  O22  1  0.24893000  0.00000000  0.00000000  1
  O  O23  1  0.74893000  0.50000000  0.50000000  1
  O  O24  1  0.00000000  0.00000000  0.75107000  1
  O  O25  1  0.50000000  0.50000000  0.25107000  1
  F  F26  1  0.00000000  0.50000000  0.75000000  1
  F  F27  1  0.50000000  0.00000000  0.25000000  1
  F  F28  1  0.00000000  0.25000000  0.50000000  1
  F  F29  1  0.50000000  0.75000000  0.00000000  1
  F  F30  1  0.25000000  0.00000000  0.50000000  1
  F  F31  1  0.75000000  0.50000000  0.00000000  1
  F  F32  1  0.50000000  0.00000000  0.75000000  1
  F  F33  1  0.00000000  0.50000000  0.25000000  1
  F  F34  1  0.25000000  0.50000000  0.00000000  1
  F  F35  1  0.75000000  0.00000000  0.50000000  1
  F  F36  1  0.50000000  0.25000000  0.00000000  1
  F  F37  1  0.00000000  0.75000000  0.50000000  1
