# generated using pymatgen
data_Sr2YbTaO6
_symmetry_space_group_name_H-M   'P 1'
_cell_length_a   5.84682577
_cell_length_b   5.96301500
_cell_length_c   8.31834807
_cell_angle_alpha   90.00000000
_cell_angle_beta   89.97535749
_cell_angle_gamma   90.00000000
_symmetry_Int_Tables_number   1
_chemical_formula_structural   Sr2YbTaO6
_chemical_formula_sum   'Sr4 Yb2 Ta2 O12'
_cell_volume   290.01676449
_cell_formula_units_Z   2
loop_
 _symmetry_equiv_pos_site_id
 _symmetry_equiv_pos_as_xyz
  1  'x, y, z'
loop_
 _atom_site_type_symbol
 _atom_site_label
 _atom_site_symmetry_multiplicity
 _atom_site_fract_x
 _atom_site_fract_y
 _atom_site_fract_z
 _atom_site_occupancy
  Sr  Sr0  1  0.49024200  0.54318400  0.24883100  1
  Sr  Sr1  1  0.99024200  0.95681600  0.74883100  1
  Sr  Sr2  1  0.50975800  0.45681600  0.75116900  1
  Sr  Sr3  1  0.00975800  0.04318400  0.25116900  1
  Yb  Yb4  1  0.00000000  0.50000000  0.50000000  1
  Yb  Yb5  1  0.50000000  0.00000000  0.00000000  1
  Ta  Ta6  1  0.50000000  0.00000000  0.50000000  1
  Ta  Ta7  1  0.00000000  0.50000000  0.00000000  1
  O  O8  1  0.22576300  0.80701400  0.45772300  1
  O  O9  1  0.72576300  0.69298600  0.95772300  1
  O  O10  1  0.77423700  0.19298600  0.54227700  1
  O  O11  1  0.27423700  0.30701400  0.04227700  1
  O  O12  1  0.18810800  0.77369200  0.04860600  1
  O  O13  1  0.68810800  0.72630800  0.54860600  1
  O  O14  1  0.81189200  0.22630800  0.95139400  1
  O  O15  1  0.31189200  0.27369200  0.45139400  1
  O  O16  1  0.58718500  0.97081500  0.26802400  1
  O  O17  1  0.08718500  0.52918500  0.76802400  1
  O  O18  1  0.41281500  0.02918500  0.73197600  1
  O  O19  1  0.91281500  0.47081500  0.23197600  1
