# generated using pymatgen
data_CsBi2Br7
_symmetry_space_group_name_H-M   'P 1'
_cell_length_a   7.81628500
_cell_length_b   9.84025031
_cell_length_c   10.84411851
_cell_angle_alpha   75.91576553
_cell_angle_beta   83.54758678
_cell_angle_gamma   76.30281458
_symmetry_Int_Tables_number   1
_chemical_formula_structural   CsBi2Br7
_chemical_formula_sum   'Cs2 Bi4 Br14'
_cell_volume   784.65872460
_cell_formula_units_Z   2
loop_
 _symmetry_equiv_pos_site_id
 _symmetry_equiv_pos_as_xyz
  1  'x, y, z'
loop_
 _atom_site_type_symbol
 _atom_site_label
 _atom_site_symmetry_multiplicity
 _atom_site_fract_x
 _atom_site_fract_y
 _atom_site_fract_z
 _atom_site_occupancy
  Cs  Cs0  1  0.38828800  0.85935500  0.31514700  1
  Cs  Cs1  1  0.61171200  0.14064500  0.68485300  1
  Bi  Bi2  1  0.87127400  0.64210500  0.62501200  1
  Bi  Bi3  1  0.12872600  0.35789500  0.37498800  1
  Bi  Bi4  1  0.30648100  0.70534100  0.93892600  1
  Bi  Bi5  1  0.69351900  0.29465900  0.06107400  1
  Br  Br6  1  0.86784300  0.87096500  0.43186300  1
  Br  Br7  1  0.13215700  0.12903500  0.56813700  1
  Br  Br8  1  0.96701600  0.78999600  0.79274300  1
  Br  Br9  1  0.03298400  0.21000400  0.20725700  1
  Br  Br10  1  0.50299500  0.76432000  0.67529200  1
  Br  Br11  1  0.49700500  0.23568000  0.32470800  1
  Br  Br12  1  0.76396000  0.48548100  0.45208100  1
  Br  Br13  1  0.23604000  0.51451900  0.54791900  1
  Br  Br14  1  0.89366500  0.34740000  0.83123100  1
  Br  Br15  1  0.10633500  0.65260000  0.16876900  1
  Br  Br16  1  0.27090400  0.97975800  0.94729000  1
  Br  Br17  1  0.72909600  0.02024200  0.05271000  1
  Br  Br18  1  0.61807000  0.62426600  0.06701100  1
  Br  Br19  1  0.38193000  0.37573400  0.93298900  1
