# generated using pymatgen
data_KAu(IO3)4
_symmetry_space_group_name_H-M   'P 1'
_cell_length_a   5.68732400
_cell_length_b   7.43187988
_cell_length_c   8.51493354
_cell_angle_alpha   107.49540467
_cell_angle_beta   90.00000000
_cell_angle_gamma   112.49670139
_symmetry_Int_Tables_number   1
_chemical_formula_structural   KAu(IO3)4
_chemical_formula_sum   'K1 Au1 I4 O12'
_cell_volume   314.42109874
_cell_formula_units_Z   1
loop_
 _symmetry_equiv_pos_site_id
 _symmetry_equiv_pos_as_xyz
  1  'x, y, z'
loop_
 _atom_site_type_symbol
 _atom_site_label
 _atom_site_symmetry_multiplicity
 _atom_site_fract_x
 _atom_site_fract_y
 _atom_site_fract_z
 _atom_site_occupancy
  K  K0  1  0.01186900  0.00000000  0.00000000  1
  Au  Au1  1  0.20264800  0.00000000  0.50000000  1
  I  I2  1  0.35847400  0.69982700  0.65934300  1
  I  I3  1  0.65864700  0.30017300  0.34065700  1
  I  I4  1  0.27071400  0.63799000  0.16565200  1
  I  I5  1  0.63272400  0.36201000  0.83434900  1
  O  O6  1  0.51415400  0.69988800  0.47210500  1
  O  O7  1  0.81426600  0.30011200  0.52789500  1
  O  O8  1  0.55932100  0.95221200  0.80367400  1
  O  O9  1  0.60710900  0.04778800  0.19632600  1
  O  O10  1  0.08394100  0.76646300  0.59695600  1
  O  O11  1  0.31747700  0.23353700  0.40304400  1
  O  O12  1  0.05754900  0.39575000  0.19070100  1
  O  O13  1  0.66179800  0.60425000  0.80929900  1
  O  O14  1  0.12714100  0.60479600  0.96117300  1
  O  O15  1  0.52234400  0.39520400  0.03882700  1
  O  O16  1  0.08026200  0.79527900  0.26988600  1
  O  O17  1  0.28498300  0.20472100  0.73011400  1
