# generated using pymatgen
data_Be12Co
_symmetry_space_group_name_H-M   'P 1'
_cell_length_a   5.46922149
_cell_length_b   5.46922149
_cell_length_c   5.46922149
_cell_angle_alpha   98.03681078
_cell_angle_beta   98.03681078
_cell_angle_gamma   136.08598033
_symmetry_Int_Tables_number   1
_chemical_formula_structural   Be12Co
_chemical_formula_sum   'Be12 Co1'
_cell_volume   105.23720162
_cell_formula_units_Z   1
loop_
 _symmetry_equiv_pos_site_id
 _symmetry_equiv_pos_as_xyz
  1  'x, y, z'
loop_
 _atom_site_type_symbol
 _atom_site_label
 _atom_site_symmetry_multiplicity
 _atom_site_fract_x
 _atom_site_fract_y
 _atom_site_fract_z
 _atom_site_occupancy
  Be  Be0  1  0.00000000  0.00000000  0.50000000  1
  Be  Be1  1  0.50000000  0.50000000  0.50000000  1
  Be  Be2  1  0.50000000  0.00000000  0.00000000  1
  Be  Be3  1  0.00000000  0.50000000  0.00000000  1
  Be  Be4  1  0.00000000  0.34531100  0.34531100  1
  Be  Be5  1  0.00000000  0.65468900  0.65468900  1
  Be  Be6  1  0.65468900  0.00000000  0.65468900  1
  Be  Be7  1  0.34531100  0.00000000  0.34531100  1
  Be  Be8  1  0.50000000  0.28688800  0.78688800  1
  Be  Be9  1  0.50000000  0.71311200  0.21311200  1
  Be  Be10  1  0.71311200  0.50000000  0.21311200  1
  Be  Be11  1  0.28688800  0.50000000  0.78688800  1
  Co  Co12  1  0.00000000  0.00000000  0.00000000  1
