# generated using pymatgen
data_BaP3
_symmetry_space_group_name_H-M   'P 1'
_cell_length_a   7.84727700
_cell_length_b   6.60480900
_cell_length_c   8.25910344
_cell_angle_alpha   74.80375644
_cell_angle_beta   90.00000000
_cell_angle_gamma   90.00000000
_symmetry_Int_Tables_number   1
_chemical_formula_structural   BaP3
_chemical_formula_sum   'Ba4 P12'
_cell_volume   413.09945578
_cell_formula_units_Z   4
loop_
 _symmetry_equiv_pos_site_id
 _symmetry_equiv_pos_as_xyz
  1  'x, y, z'
loop_
 _atom_site_type_symbol
 _atom_site_label
 _atom_site_symmetry_multiplicity
 _atom_site_fract_x
 _atom_site_fract_y
 _atom_site_fract_z
 _atom_site_occupancy
  Ba  Ba0  1  0.11064600  0.68862200  0.69740600  1
  Ba  Ba1  1  0.61064600  0.31137800  0.80259400  1
  Ba  Ba2  1  0.88935400  0.31137800  0.30259400  1
  Ba  Ba3  1  0.38935400  0.68862200  0.19740600  1
  P  P4  1  0.63168500  0.96209200  0.55330000  1
  P  P5  1  0.13168500  0.03790800  0.94670000  1
  P  P6  1  0.36831500  0.03790800  0.44670000  1
  P  P7  1  0.86831500  0.96209200  0.05330000  1
  P  P8  1  0.54221500  0.81152000  0.81203400  1
  P  P9  1  0.04221500  0.18848000  0.68796600  1
  P  P10  1  0.45778500  0.18848000  0.18796600  1
  P  P11  1  0.95778500  0.81152000  0.31203400  1
  P  P12  1  0.77097600  0.69846400  0.95819300  1
  P  P13  1  0.27097600  0.30153600  0.54180700  1
  P  P14  1  0.22902400  0.30153600  0.04180700  1
  P  P15  1  0.72902400  0.69846400  0.45819300  1
