# generated using pymatgen
data_Tb5(MoO6)2
_symmetry_space_group_name_H-M   'P 1'
_cell_length_a   6.90604068
_cell_length_b   6.90604068
_cell_length_c   7.36431094
_cell_angle_alpha   74.43308573
_cell_angle_beta   74.43308573
_cell_angle_gamma   51.82182374
_symmetry_Int_Tables_number   1
_chemical_formula_structural   Tb5(MoO6)2
_chemical_formula_sum   'Tb5 Mo2 O12'
_cell_volume   263.52345759
_cell_formula_units_Z   1
loop_
 _symmetry_equiv_pos_site_id
 _symmetry_equiv_pos_as_xyz
  1  'x, y, z'
loop_
 _atom_site_type_symbol
 _atom_site_label
 _atom_site_symmetry_multiplicity
 _atom_site_fract_x
 _atom_site_fract_y
 _atom_site_fract_z
 _atom_site_occupancy
  Tb  Tb0  1  0.30130600  0.30130600  0.36254600  1
  Tb  Tb1  1  0.69869400  0.69869400  0.63745400  1
  Tb  Tb2  1  0.30787000  0.30787000  0.82668200  1
  Tb  Tb3  1  0.69213000  0.69213000  0.17331800  1
  Tb  Tb4  1  0.00000000  0.00000000  0.50000000  1
  Mo  Mo5  1  0.75373600  0.24626400  0.00000000  1
  Mo  Mo6  1  0.24626400  0.75373600  0.00000000  1
  O  O7  1  0.89886100  0.43261100  0.91557400  1
  O  O8  1  0.43261100  0.89886100  0.91557400  1
  O  O9  1  0.10113900  0.56738900  0.08442600  1
  O  O10  1  0.56738900  0.10113900  0.08442600  1
  O  O11  1  0.09564200  0.59693600  0.57433300  1
  O  O12  1  0.59693600  0.09564200  0.57433300  1
  O  O13  1  0.90435800  0.40306400  0.42566700  1
  O  O14  1  0.40306400  0.90435800  0.42566700  1
  O  O15  1  0.00251900  0.00251900  0.81242600  1
  O  O16  1  0.99748100  0.99748100  0.18757400  1
  O  O17  1  0.49969100  0.49969100  0.80566000  1
  O  O18  1  0.50030900  0.50030900  0.19434000  1
