# generated using pymatgen
data_Pu6Fe
_symmetry_space_group_name_H-M   'P 1'
_cell_length_a   5.68625000
_cell_length_b   7.74142995
_cell_length_c   7.74142995
_cell_angle_alpha   82.24828361
_cell_angle_beta   68.45320751
_cell_angle_gamma   68.45320751
_symmetry_Int_Tables_number   1
_chemical_formula_structural   Pu6Fe
_chemical_formula_sum   'Pu12 Fe2'
_cell_volume   294.81146641
_cell_formula_units_Z   2
loop_
 _symmetry_equiv_pos_site_id
 _symmetry_equiv_pos_as_xyz
  1  'x, y, z'
loop_
 _atom_site_type_symbol
 _atom_site_label
 _atom_site_symmetry_multiplicity
 _atom_site_fract_x
 _atom_site_fract_y
 _atom_site_fract_z
 _atom_site_occupancy
  Pu  Pu0  1  0.90167700  0.69664700  0.50000000  1
  Pu  Pu1  1  0.09832300  0.30335300  0.50000000  1
  Pu  Pu2  1  0.59832300  0.50000000  0.30335300  1
  Pu  Pu3  1  0.40167700  0.50000000  0.69664700  1
  Pu  Pu4  1  0.09041200  0.68907100  0.13010500  1
  Pu  Pu5  1  0.90958800  0.31092900  0.86989500  1
  Pu  Pu6  1  0.40958800  0.86989500  0.31092900  1
  Pu  Pu7  1  0.59041200  0.13010500  0.68907100  1
  Pu  Pu8  1  0.22051700  0.86989500  0.68907100  1
  Pu  Pu9  1  0.77948300  0.13010500  0.31092900  1
  Pu  Pu10  1  0.72051700  0.68907100  0.86989500  1
  Pu  Pu11  1  0.27948300  0.31092900  0.13010500  1
  Fe  Fe12  1  0.25000000  0.00000000  0.00000000  1
  Fe  Fe13  1  0.75000000  0.00000000  0.00000000  1
