# generated using pymatgen
data_CdNCl3
_symmetry_space_group_name_H-M   'P 1'
_cell_length_a   3.77505400
_cell_length_b   9.82651100
_cell_length_c   16.86768900
_cell_angle_alpha   90.00000000
_cell_angle_beta   90.00000000
_cell_angle_gamma   90.00000000
_symmetry_Int_Tables_number   1
_chemical_formula_structural   CdNCl3
_chemical_formula_sum   'Cd4 N4 Cl12'
_cell_volume   625.71720695
_cell_formula_units_Z   4
loop_
 _symmetry_equiv_pos_site_id
 _symmetry_equiv_pos_as_xyz
  1  'x, y, z'
loop_
 _atom_site_type_symbol
 _atom_site_label
 _atom_site_symmetry_multiplicity
 _atom_site_fract_x
 _atom_site_fract_y
 _atom_site_fract_z
 _atom_site_occupancy
  Cd  Cd0  1  0.75000000  0.66155100  0.53491400  1
  Cd  Cd1  1  0.75000000  0.16155100  0.96508600  1
  Cd  Cd2  1  0.25000000  0.33844900  0.46508600  1
  Cd  Cd3  1  0.25000000  0.83844900  0.03491400  1
  N  N4  1  0.25000000  0.71709400  0.73708700  1
  N  N5  1  0.25000000  0.21709400  0.76291300  1
  N  N6  1  0.75000000  0.28290600  0.26291300  1
  N  N7  1  0.75000000  0.78290600  0.23708700  1
  Cl  Cl8  1  0.75000000  0.69226300  0.76163500  1
  Cl  Cl9  1  0.75000000  0.19226300  0.73836500  1
  Cl  Cl10  1  0.25000000  0.30773700  0.23836500  1
  Cl  Cl11  1  0.25000000  0.80773700  0.26163500  1
  Cl  Cl12  1  0.25000000  0.49110700  0.59386100  1
  Cl  Cl13  1  0.25000000  0.99110700  0.90613900  1
  Cl  Cl14  1  0.75000000  0.50889300  0.40613900  1
  Cl  Cl15  1  0.75000000  0.00889300  0.09386100  1
  Cl  Cl16  1  0.25000000  0.82962200  0.52190400  1
  Cl  Cl17  1  0.25000000  0.32962200  0.97809600  1
  Cl  Cl18  1  0.75000000  0.17037800  0.47809600  1
  Cl  Cl19  1  0.75000000  0.67037800  0.02190400  1
