# generated using pymatgen
data_Y6PdBr10
_symmetry_space_group_name_H-M   'P 1'
_cell_length_a   7.36483000
_cell_length_b   9.23827981
_cell_length_c   9.27909155
_cell_angle_alpha   108.18556867
_cell_angle_beta   97.03675692
_cell_angle_gamma   105.39481690
_symmetry_Int_Tables_number   1
_chemical_formula_structural   Y6PdBr10
_chemical_formula_sum   'Y6 Pd1 Br10'
_cell_volume   563.55732085
_cell_formula_units_Z   1
loop_
 _symmetry_equiv_pos_site_id
 _symmetry_equiv_pos_as_xyz
  1  'x, y, z'
loop_
 _atom_site_type_symbol
 _atom_site_label
 _atom_site_symmetry_multiplicity
 _atom_site_fract_x
 _atom_site_fract_y
 _atom_site_fract_z
 _atom_site_occupancy
  Y  Y0  1  0.36576700  0.13848800  0.18070400  1
  Y  Y1  1  0.63423300  0.86151200  0.81929600  1
  Y  Y2  1  0.87478100  0.95558000  0.25046800  1
  Y  Y3  1  0.12521900  0.04442000  0.74953200  1
  Y  Y4  1  0.02681500  0.69664000  0.90391600  1
  Y  Y5  1  0.97318500  0.30336000  0.09608400  1
  Pd  Pd6  1  0.00000000  0.00000000  0.00000000  1
  Br  Br7  1  0.91418300  0.62898000  0.17358300  1
  Br  Br8  1  0.08581700  0.37102000  0.82641700  1
  Br  Br9  1  0.25454400  0.08515400  0.46165700  1
  Br  Br10  1  0.74545600  0.91484600  0.53834300  1
  Br  Br11  1  0.45197400  0.82333900  0.08607400  1
  Br  Br12  1  0.54802600  0.17666100  0.91392600  1
  Br  Br13  1  0.35804300  0.45825800  0.27431600  1
  Br  Br14  1  0.64195700  0.54174200  0.72568400  1
  Br  Br15  1  0.78694100  0.25997000  0.34965000  1
  Br  Br16  1  0.21305900  0.74003000  0.65035000  1
