# generated using pymatgen
data_SrI2O
_symmetry_space_group_name_H-M   'P 1'
_cell_length_a   4.89361200
_cell_length_b   8.94823300
_cell_length_c   12.99666100
_cell_angle_alpha   90.00000000
_cell_angle_beta   90.00000000
_cell_angle_gamma   90.00000000
_symmetry_Int_Tables_number   1
_chemical_formula_structural   SrI2O
_chemical_formula_sum   'Sr4 I8 O4'
_cell_volume   569.11313297
_cell_formula_units_Z   4
loop_
 _symmetry_equiv_pos_site_id
 _symmetry_equiv_pos_as_xyz
  1  'x, y, z'
loop_
 _atom_site_type_symbol
 _atom_site_label
 _atom_site_symmetry_multiplicity
 _atom_site_fract_x
 _atom_site_fract_y
 _atom_site_fract_z
 _atom_site_occupancy
  Sr  Sr0  1  0.25000000  0.38556800  0.70292200  1
  Sr  Sr1  1  0.25000000  0.11443200  0.20292200  1
  Sr  Sr2  1  0.75000000  0.61443200  0.29707800  1
  Sr  Sr3  1  0.75000000  0.88556800  0.79707800  1
  I  I4  1  0.75000000  0.61945300  0.60872600  1
  I  I5  1  0.75000000  0.88054700  0.10872600  1
  I  I6  1  0.25000000  0.38054700  0.39127400  1
  I  I7  1  0.25000000  0.11945300  0.89127400  1
  I  I8  1  0.75000000  0.14498900  0.60223300  1
  I  I9  1  0.75000000  0.35501100  0.10223300  1
  I  I10  1  0.25000000  0.85501100  0.39776700  1
  I  I11  1  0.25000000  0.64498900  0.89776700  1
  O  O12  1  0.75000000  0.37536900  0.73385300  1
  O  O13  1  0.75000000  0.12463100  0.23385300  1
  O  O14  1  0.25000000  0.62463100  0.26614700  1
  O  O15  1  0.25000000  0.87536900  0.76614700  1
