# generated using pymatgen
data_GdCr3(BO3)4
_symmetry_space_group_name_H-M   'P 1'
_cell_length_a   6.10928075
_cell_length_b   6.10928075
_cell_length_c   6.10928042
_cell_angle_alpha   103.97349461
_cell_angle_beta   103.97349461
_cell_angle_gamma   103.97350033
_symmetry_Int_Tables_number   1
_chemical_formula_structural   GdCr3(BO3)4
_chemical_formula_sum   'Gd1 Cr3 B4 O12'
_cell_volume   203.55203037
_cell_formula_units_Z   1
loop_
 _symmetry_equiv_pos_site_id
 _symmetry_equiv_pos_as_xyz
  1  'x, y, z'
loop_
 _atom_site_type_symbol
 _atom_site_label
 _atom_site_symmetry_multiplicity
 _atom_site_fract_x
 _atom_site_fract_y
 _atom_site_fract_z
 _atom_site_occupancy
  Gd  Gd0  1  0.50000000  0.50000000  0.50000000  1
  Cr  Cr1  1  0.05215800  0.50000000  0.94784200  1
  Cr  Cr2  1  0.94784200  0.05215800  0.50000000  1
  Cr  Cr3  1  0.50000000  0.94784200  0.05215800  1
  B  B4  1  0.00000000  0.00000000  0.00000000  1
  B  B5  1  0.44689800  0.00000000  0.55310200  1
  B  B6  1  0.55310200  0.44689800  0.00000000  1
  B  B7  1  0.00000000  0.55310200  0.44689800  1
  O  O8  1  0.85601000  0.00000000  0.14399000  1
  O  O9  1  0.14399000  0.85601000  0.00000000  1
  O  O10  1  0.00000000  0.14399000  0.85601000  1
  O  O11  1  0.59148500  0.00000000  0.40851500  1
  O  O12  1  0.40851500  0.59148500  0.00000000  1
  O  O13  1  0.00000000  0.40851500  0.59148500  1
  O  O14  1  0.47191500  0.87020300  0.70789300  1
  O  O15  1  0.70789300  0.47191500  0.87020300  1
  O  O16  1  0.87020300  0.70789300  0.47191500  1
  O  O17  1  0.29210800  0.12979700  0.52808500  1
  O  O18  1  0.12979700  0.52808500  0.29210800  1
  O  O19  1  0.52808500  0.29210800  0.12979700  1
