# generated using pymatgen
data_TiGeIr
_symmetry_space_group_name_H-M   'P 1'
_cell_length_a   7.53761796
_cell_length_b   7.53761796
_cell_length_c   7.53761796
_cell_angle_alpha   128.17880638
_cell_angle_beta   120.70652552
_cell_angle_gamma   82.60214271
_symmetry_Int_Tables_number   1
_chemical_formula_structural   TiGeIr
_chemical_formula_sum   'Ti6 Ge6 Ir6'
_cell_volume   278.16118291
_cell_formula_units_Z   6
loop_
 _symmetry_equiv_pos_site_id
 _symmetry_equiv_pos_as_xyz
  1  'x, y, z'
loop_
 _atom_site_type_symbol
 _atom_site_label
 _atom_site_symmetry_multiplicity
 _atom_site_fract_x
 _atom_site_fract_y
 _atom_site_fract_z
 _atom_site_occupancy
  Ti  Ti0  1  0.44686500  0.40276300  0.45589800  1
  Ti  Ti1  1  0.55313500  0.00903300  0.95589800  1
  Ti  Ti2  1  0.02468700  0.00698300  0.48229600  1
  Ti  Ti3  1  0.97531300  0.45760800  0.98229600  1
  Ti  Ti4  1  0.25019400  0.57901800  0.82882400  1
  Ti  Ti5  1  0.74980600  0.57863100  0.32882400  1
  Ge  Ge6  1  0.16968100  0.67091600  0.50561700  1
  Ge  Ge7  1  0.83031900  0.33593600  0.50123600  1
  Ge  Ge8  1  0.66530000  0.67091600  0.00123600  1
  Ge  Ge9  1  0.33470000  0.33593600  0.00561700  1
  Ge  Ge10  1  0.21143900  0.96162400  0.25018600  1
  Ge  Ge11  1  0.78856100  0.03874700  0.75018600  1
  Ir  Ir12  1  0.41892100  0.75095400  0.41815100  1
  Ir  Ir13  1  0.58107900  0.99923000  0.33203300  1
  Ir  Ir14  1  0.83280400  0.75095400  0.83203300  1
  Ir  Ir15  1  0.16719600  0.99923000  0.91815100  1
  Ir  Ir16  1  0.00000000  0.25575900  0.25575900  1
  Ir  Ir17  1  0.50000000  0.25575900  0.75575900  1
