# generated using pymatgen
data_Ni5(AsO6)2
_symmetry_space_group_name_H-M   'P 1'
_cell_length_a   6.46169437
_cell_length_b   6.46169437
_cell_length_c   5.11925272
_cell_angle_alpha   85.06233773
_cell_angle_beta   85.06233773
_cell_angle_gamma   86.56061422
_symmetry_Int_Tables_number   1
_chemical_formula_structural   Ni5(AsO6)2
_chemical_formula_sum   'Ni5 As2 O12'
_cell_volume   211.86524557
_cell_formula_units_Z   1
loop_
 _symmetry_equiv_pos_site_id
 _symmetry_equiv_pos_as_xyz
  1  'x, y, z'
loop_
 _atom_site_type_symbol
 _atom_site_label
 _atom_site_symmetry_multiplicity
 _atom_site_fract_x
 _atom_site_fract_y
 _atom_site_fract_z
 _atom_site_occupancy
  Ni  Ni0  1  0.17706700  0.82293300  0.00000000  1
  Ni  Ni1  1  0.82293300  0.17706700  0.00000000  1
  Ni  Ni2  1  0.33768700  0.66231300  0.50000000  1
  Ni  Ni3  1  0.66231300  0.33768700  0.50000000  1
  Ni  Ni4  1  0.00000000  0.00000000  0.50000000  1
  As  As5  1  0.68388400  0.68388400  0.94667200  1
  As  As6  1  0.31611600  0.31611600  0.05332800  1
  O  O7  1  0.21072100  0.52864900  0.87647600  1
  O  O8  1  0.52864900  0.21072100  0.87647600  1
  O  O9  1  0.78927900  0.47135100  0.12352400  1
  O  O10  1  0.47135100  0.78927900  0.12352400  1
  O  O11  1  0.87224200  0.87224200  0.88996900  1
  O  O12  1  0.12775800  0.12775800  0.11003100  1
  O  O13  1  0.62334500  0.62334500  0.63685500  1
  O  O14  1  0.37665500  0.37665500  0.36314500  1
  O  O15  1  0.07716100  0.74241700  0.35879000  1
  O  O16  1  0.74241700  0.07716100  0.35879000  1
  O  O17  1  0.92283900  0.25758300  0.64121000  1
  O  O18  1  0.25758300  0.92283900  0.64121000  1
