# generated using pymatgen
data_BaPdO5
_symmetry_space_group_name_H-M   'P 1'
_cell_length_a   5.25322200
_cell_length_b   6.13383200
_cell_length_c   7.14631220
_cell_angle_alpha   90.00000000
_cell_angle_beta   92.77584902
_cell_angle_gamma   90.00000000
_symmetry_Int_Tables_number   1
_chemical_formula_structural   BaPdO5
_chemical_formula_sum   'Ba2 Pd2 O10'
_cell_volume   230.00100482
_cell_formula_units_Z   2
loop_
 _symmetry_equiv_pos_site_id
 _symmetry_equiv_pos_as_xyz
  1  'x, y, z'
loop_
 _atom_site_type_symbol
 _atom_site_label
 _atom_site_symmetry_multiplicity
 _atom_site_fract_x
 _atom_site_fract_y
 _atom_site_fract_z
 _atom_site_occupancy
  Ba  Ba0  1  0.50000000  0.48543800  0.00000000  1
  Ba  Ba1  1  0.00000000  0.55601000  0.50000000  1
  Pd  Pd2  1  0.75346100  0.02260200  0.24952700  1
  Pd  Pd3  1  0.24653900  0.02260200  0.75047300  1
  O  O4  1  0.10120000  0.29436400  0.79788100  1
  O  O5  1  0.89880000  0.29436400  0.20211900  1
  O  O6  1  0.39289000  0.75007200  0.70373400  1
  O  O7  1  0.60711000  0.75007200  0.29626600  1
  O  O8  1  0.43707200  0.19109200  0.33776100  1
  O  O9  1  0.56292800  0.19109200  0.66223900  1
  O  O10  1  0.06828700  0.85222700  0.16085400  1
  O  O11  1  0.93171300  0.85222700  0.83914600  1
  O  O12  1  0.00000000  0.71948300  0.00000000  1
  O  O13  1  0.50000000  0.32355500  0.50000000  1
