# generated using pymatgen
data_PbCO3
_symmetry_space_group_name_H-M   'P 1'
_cell_length_a   8.56543100
_cell_length_b   5.26015600
_cell_length_c   6.28133139
_cell_angle_alpha   89.91828870
_cell_angle_beta   90.00000000
_cell_angle_gamma   90.00000000
_symmetry_Int_Tables_number   1
_chemical_formula_structural   PbCO3
_chemical_formula_sum   'Pb4 C4 O12'
_cell_volume   283.00825906
_cell_formula_units_Z   4
loop_
 _symmetry_equiv_pos_site_id
 _symmetry_equiv_pos_as_xyz
  1  'x, y, z'
loop_
 _atom_site_type_symbol
 _atom_site_label
 _atom_site_symmetry_multiplicity
 _atom_site_fract_x
 _atom_site_fract_y
 _atom_site_fract_z
 _atom_site_occupancy
  Pb  Pb0  1  0.41992000  0.24798300  0.24941900  1
  Pb  Pb1  1  0.91992000  0.75201700  0.25058100  1
  Pb  Pb2  1  0.58008000  0.75201700  0.75058100  1
  Pb  Pb3  1  0.08008000  0.24798300  0.74941900  1
  C  C4  1  0.77242400  0.25808100  0.09356700  1
  C  C5  1  0.27242400  0.74191900  0.40643300  1
  C  C6  1  0.22757600  0.74191900  0.90643300  1
  C  C7  1  0.72757600  0.25808100  0.59356700  1
  O  O8  1  0.92467000  0.25670500  0.10375300  1
  O  O9  1  0.42467000  0.74329500  0.39624700  1
  O  O10  1  0.07533000  0.74329500  0.89624700  1
  O  O11  1  0.57533000  0.25670500  0.60375300  1
  O  O12  1  0.69776700  0.47328100  0.09413600  1
  O  O13  1  0.19776700  0.52671900  0.40586400  1
  O  O14  1  0.30223300  0.52671900  0.90586400  1
  O  O15  1  0.80223300  0.47328100  0.59413600  1
  O  O16  1  0.69625400  0.04480500  0.09444400  1
  O  O17  1  0.19625400  0.95519500  0.40555600  1
  O  O18  1  0.30374600  0.95519500  0.90555600  1
  O  O19  1  0.80374600  0.04480500  0.59444400  1
