# generated using pymatgen
data_CeTi2O6
_symmetry_space_group_name_H-M   'P 1'
_cell_length_a   5.18473002
_cell_length_b   6.88803801
_cell_length_c   6.88803801
_cell_angle_alpha   78.02775093
_cell_angle_beta   70.95137525
_cell_angle_gamma   70.95137525
_symmetry_Int_Tables_number   1
_chemical_formula_structural   CeTi2O6
_chemical_formula_sum   'Ce2 Ti4 O12'
_cell_volume   218.38106500
_cell_formula_units_Z   2
loop_
 _symmetry_equiv_pos_site_id
 _symmetry_equiv_pos_as_xyz
  1  'x, y, z'
loop_
 _atom_site_type_symbol
 _atom_site_label
 _atom_site_symmetry_multiplicity
 _atom_site_fract_x
 _atom_site_fract_y
 _atom_site_fract_z
 _atom_site_occupancy
  Ce  Ce0  1  0.25000000  0.80818000  0.19182000  1
  Ce  Ce1  1  0.75000000  0.19182000  0.80818000  1
  Ti  Ti2  1  0.94570200  0.35158300  0.19016600  1
  Ti  Ti3  1  0.55429800  0.80983400  0.64841700  1
  Ti  Ti4  1  0.05429800  0.64841700  0.80983400  1
  Ti  Ti5  1  0.44570200  0.19016600  0.35158300  1
  O  O6  1  0.45608100  0.88576900  0.39364400  1
  O  O7  1  0.04391900  0.60635600  0.11423100  1
  O  O8  1  0.54391900  0.11423100  0.60635600  1
  O  O9  1  0.95608100  0.39364400  0.88576900  1
  O  O10  1  0.04030700  0.27849600  0.45109300  1
  O  O11  1  0.45969300  0.54890700  0.72150400  1
  O  O12  1  0.95969300  0.72150400  0.54890700  1
  O  O13  1  0.54030700  0.45109300  0.27849600  1
  O  O14  1  0.86637100  0.08792000  0.18795800  1
  O  O15  1  0.63362900  0.81204200  0.91208000  1
  O  O16  1  0.13362900  0.91208000  0.81204200  1
  O  O17  1  0.36637100  0.18795800  0.08792000  1
