# generated using pymatgen
data_CsPSO2
_symmetry_space_group_name_H-M   'P 1'
_cell_length_a   8.01388422
_cell_length_b   8.18938798
_cell_length_c   8.84241176
_cell_angle_alpha   83.41541817
_cell_angle_beta   65.41646863
_cell_angle_gamma   74.47128871
_symmetry_Int_Tables_number   1
_chemical_formula_structural   CsPSO2
_chemical_formula_sum   'Cs4 P4 S4 O8'
_cell_volume   508.44746581
_cell_formula_units_Z   4
loop_
 _symmetry_equiv_pos_site_id
 _symmetry_equiv_pos_as_xyz
  1  'x, y, z'
loop_
 _atom_site_type_symbol
 _atom_site_label
 _atom_site_symmetry_multiplicity
 _atom_site_fract_x
 _atom_site_fract_y
 _atom_site_fract_z
 _atom_site_occupancy
  Cs  Cs0  1  0.33844800  0.64629700  0.83988400  1
  Cs  Cs1  1  0.66155200  0.35370300  0.16011600  1
  Cs  Cs2  1  0.85906400  0.83462300  0.36229600  1
  Cs  Cs3  1  0.14093600  0.16537700  0.63770400  1
  P  P4  1  0.78046600  0.80415900  0.91771500  1
  P  P5  1  0.21953400  0.19584100  0.08228500  1
  P  P6  1  0.57277300  0.09141300  0.76865100  1
  P  P7  1  0.42722700  0.90858700  0.23134900  1
  S  S8  1  0.84830300  0.61625300  0.76563600  1
  S  S9  1  0.15169700  0.38374700  0.23436400  1
  S  S10  1  0.67708900  0.25602800  0.59759800  1
  S  S11  1  0.32291100  0.74397200  0.40240200  1
  O  O12  1  0.91125800  0.81350000  0.99600800  1
  O  O13  1  0.08874200  0.18650000  0.00399200  1
  O  O14  1  0.51754500  0.02918200  0.26729200  1
  O  O15  1  0.48245500  0.97081800  0.73270800  1
  O  O16  1  0.25695800  0.01057000  0.17342200  1
  O  O17  1  0.74304200  0.98943000  0.82657800  1
  O  O18  1  0.43127200  0.19929400  0.94044100  1
  O  O19  1  0.56872800  0.80070600  0.05955900  1
