# generated using pymatgen
data_MnAsNO5
_symmetry_space_group_name_H-M   'P 1'
_cell_length_a   4.80192900
_cell_length_b   5.44433800
_cell_length_c   9.83885500
_cell_angle_alpha   90.00000000
_cell_angle_beta   90.00000000
_cell_angle_gamma   90.00000000
_symmetry_Int_Tables_number   1
_chemical_formula_structural   MnAsNO5
_chemical_formula_sum   'Mn2 As2 N2 O10'
_cell_volume   257.22037925
_cell_formula_units_Z   2
loop_
 _symmetry_equiv_pos_site_id
 _symmetry_equiv_pos_as_xyz
  1  'x, y, z'
loop_
 _atom_site_type_symbol
 _atom_site_label
 _atom_site_symmetry_multiplicity
 _atom_site_fract_x
 _atom_site_fract_y
 _atom_site_fract_z
 _atom_site_occupancy
  Mn  Mn0  1  0.91040400  0.00000000  0.01619600  1
  Mn  Mn1  1  0.41040400  0.50000000  0.98380400  1
  As  As2  1  0.48024200  0.00000000  0.80487000  1
  As  As3  1  0.98024200  0.50000000  0.19513000  1
  N  N4  1  0.19453500  0.00000000  0.46850600  1
  N  N5  1  0.69453500  0.50000000  0.53149400  1
  O  O6  1  0.12497400  0.00000000  0.84431700  1
  O  O7  1  0.62497400  0.50000000  0.15568300  1
  O  O8  1  0.42430300  0.00000000  0.50276000  1
  O  O9  1  0.92430300  0.50000000  0.49724000  1
  O  O10  1  0.14243300  0.27264000  0.07990500  1
  O  O11  1  0.14243300  0.72736000  0.07990500  1
  O  O12  1  0.64243300  0.22736000  0.92009500  1
  O  O13  1  0.64243300  0.77264000  0.92009500  1
  O  O14  1  0.74167400  0.00000000  0.17637100  1
  O  O15  1  0.24167400  0.50000000  0.82362900  1
