# generated using pymatgen
data_BeSO8
_symmetry_space_group_name_H-M   'P 1'
_cell_length_a   7.29002186
_cell_length_b   7.29002186
_cell_length_c   7.29002186
_cell_angle_alpha   101.84974650
_cell_angle_beta   101.84974650
_cell_angle_gamma   126.10793606
_symmetry_Int_Tables_number   1
_chemical_formula_structural   BeSO8
_chemical_formula_sum   'Be2 S2 O16'
_cell_volume   279.02146635
_cell_formula_units_Z   2
loop_
 _symmetry_equiv_pos_site_id
 _symmetry_equiv_pos_as_xyz
  1  'x, y, z'
loop_
 _atom_site_type_symbol
 _atom_site_label
 _atom_site_symmetry_multiplicity
 _atom_site_fract_x
 _atom_site_fract_y
 _atom_site_fract_z
 _atom_site_occupancy
  Be  Be0  1  0.00000000  0.50000000  0.50000000  1
  Be  Be1  1  0.50000000  0.00000000  0.50000000  1
  S  S2  1  0.00000000  0.00000000  0.00000000  1
  S  S3  1  0.50000000  0.50000000  0.00000000  1
  O  O4  1  0.12785900  0.10665000  0.23450900  1
  O  O5  1  0.87214100  0.89335000  0.76549100  1
  O  O6  1  0.37214100  0.60665000  0.97879100  1
  O  O7  1  0.62785900  0.39335000  0.02120900  1
  O  O8  1  0.10665000  0.87214100  0.97879100  1
  O  O9  1  0.89335000  0.12785900  0.02120900  1
  O  O10  1  0.60665000  0.62785900  0.23450900  1
  O  O11  1  0.39335000  0.37214100  0.76549100  1
  O  O12  1  0.89187500  0.21754500  0.50000000  1
  O  O13  1  0.71754500  0.39187500  0.50000000  1
  O  O14  1  0.21754500  0.71754500  0.32566900  1
  O  O15  1  0.39187500  0.89187500  0.67433100  1
  O  O16  1  0.10812500  0.78245500  0.50000000  1
  O  O17  1  0.28245500  0.60812500  0.50000000  1
  O  O18  1  0.78245500  0.28245500  0.67433100  1
  O  O19  1  0.60812500  0.10812500  0.32566900  1
