# generated using pymatgen
data_ZnHg3(SCl2)2
_symmetry_space_group_name_H-M   'P 1'
_cell_length_a   7.42843449
_cell_length_b   7.42843449
_cell_length_c   12.14683400
_cell_angle_alpha   90.00000000
_cell_angle_beta   90.00000000
_cell_angle_gamma   119.89133618
_symmetry_Int_Tables_number   1
_chemical_formula_structural   ZnHg3(SCl2)2
_chemical_formula_sum   'Zn2 Hg6 S4 Cl8'
_cell_volume   581.11598431
_cell_formula_units_Z   2
loop_
 _symmetry_equiv_pos_site_id
 _symmetry_equiv_pos_as_xyz
  1  'x, y, z'
loop_
 _atom_site_type_symbol
 _atom_site_label
 _atom_site_symmetry_multiplicity
 _atom_site_fract_x
 _atom_site_fract_y
 _atom_site_fract_z
 _atom_site_occupancy
  Zn  Zn0  1  0.99913500  0.00086500  0.76860300  1
  Zn  Zn1  1  0.00086500  0.99913500  0.26860300  1
  Hg  Hg2  1  0.48496000  0.51504000  0.01226500  1
  Hg  Hg3  1  0.48064200  0.96995600  0.01276300  1
  Hg  Hg4  1  0.03004400  0.51935800  0.01276300  1
  Hg  Hg5  1  0.51504000  0.48496000  0.51226500  1
  Hg  Hg6  1  0.51935800  0.03004400  0.51276300  1
  Hg  Hg7  1  0.96995600  0.48064200  0.51276300  1
  S  S8  1  0.33374600  0.66625400  0.13419100  1
  S  S9  1  0.66625400  0.33374600  0.63419100  1
  S  S10  1  0.99521800  0.00478200  0.58709900  1
  S  S11  1  0.00478200  0.99521800  0.08709900  1
  Cl  Cl12  1  0.66712700  0.33287300  0.93129000  1
  Cl  Cl13  1  0.33287300  0.66712700  0.43129000  1
  Cl  Cl14  1  0.17079700  0.34247100  0.84610500  1
  Cl  Cl15  1  0.65752900  0.82920300  0.84610500  1
  Cl  Cl16  1  0.17085200  0.82914800  0.84320400  1
  Cl  Cl17  1  0.82920300  0.65752900  0.34610500  1
  Cl  Cl18  1  0.34247100  0.17079700  0.34610500  1
  Cl  Cl19  1  0.82914800  0.17085200  0.34320400  1
