# generated using pymatgen
data_Mn(CO3)2
_symmetry_space_group_name_H-M   'P 1'
_cell_length_a   5.42123800
_cell_length_b   6.30272305
_cell_length_c   8.69406071
_cell_angle_alpha   81.91176633
_cell_angle_beta   71.83357141
_cell_angle_gamma   64.52792794
_symmetry_Int_Tables_number   1
_chemical_formula_structural   Mn(CO3)2
_chemical_formula_sum   'Mn2 C4 O12'
_cell_volume   254.81209235
_cell_formula_units_Z   2
loop_
 _symmetry_equiv_pos_site_id
 _symmetry_equiv_pos_as_xyz
  1  'x, y, z'
loop_
 _atom_site_type_symbol
 _atom_site_label
 _atom_site_symmetry_multiplicity
 _atom_site_fract_x
 _atom_site_fract_y
 _atom_site_fract_z
 _atom_site_occupancy
  Mn  Mn0  1  0.67285200  0.25000000  0.75000000  1
  Mn  Mn1  1  0.32714800  0.75000000  0.25000000  1
  C  C2  1  0.12619400  0.24983000  0.84307900  1
  C  C3  1  0.21910300  0.25017000  0.65692100  1
  C  C4  1  0.87380600  0.75017000  0.15692100  1
  C  C5  1  0.78089700  0.74983000  0.34307900  1
  O  O6  1  0.29808300  0.24968100  0.91385100  1
  O  O7  1  0.46161600  0.25031900  0.58614900  1
  O  O8  1  0.70191700  0.75031900  0.08614900  1
  O  O9  1  0.53838400  0.74968100  0.41385100  1
  O  O10  1  0.88435500  0.24959200  0.91389800  1
  O  O11  1  0.04784600  0.25040800  0.58610200  1
  O  O12  1  0.11564500  0.75040800  0.08610200  1
  O  O13  1  0.95215400  0.74959200  0.41389800  1
  O  O14  1  0.82635200  0.94689500  0.75078300  1
  O  O15  1  0.52403000  0.55310500  0.74921700  1
  O  O16  1  0.17364800  0.05310500  0.24921700  1
  O  O17  1  0.47597000  0.44689500  0.25078300  1
