# generated using pymatgen
data_Sm(GaS2)2
_symmetry_space_group_name_H-M   'P 1'
_cell_length_a   5.79853062
_cell_length_b   5.79853062
_cell_length_c   10.04522600
_cell_angle_alpha   90.00000000
_cell_angle_beta   90.00000000
_cell_angle_gamma   114.67447722
_symmetry_Int_Tables_number   1
_chemical_formula_structural   Sm(GaS2)2
_chemical_formula_sum   'Sm2 Ga4 S8'
_cell_volume   306.91166295
_cell_formula_units_Z   2
loop_
 _symmetry_equiv_pos_site_id
 _symmetry_equiv_pos_as_xyz
  1  'x, y, z'
loop_
 _atom_site_type_symbol
 _atom_site_label
 _atom_site_symmetry_multiplicity
 _atom_site_fract_x
 _atom_site_fract_y
 _atom_site_fract_z
 _atom_site_occupancy
  Sm  Sm0  1  0.50000000  0.50000000  0.75000000  1
  Sm  Sm1  1  0.50000000  0.50000000  0.25000000  1
  Ga  Ga2  1  0.78546900  0.22528700  0.50000000  1
  Ga  Ga3  1  0.21453100  0.77471400  0.50000000  1
  Ga  Ga4  1  0.77471300  0.21453100  0.00000000  1
  Ga  Ga5  1  0.22528700  0.78546900  0.00000000  1
  S  S6  1  0.35917600  0.21717000  0.50000000  1
  S  S7  1  0.64082400  0.78283000  0.50000000  1
  S  S8  1  0.78283000  0.64082400  0.00000000  1
  S  S9  1  0.21717000  0.35917600  0.00000000  1
  S  S10  1  0.50000000  0.00000000  0.82027800  1
  S  S11  1  0.00000000  0.50000000  0.67972200  1
  S  S12  1  0.50000000  0.00000000  0.17972200  1
  S  S13  1  0.00000000  0.50000000  0.32027800  1
