# generated using pymatgen
data_Cs6Fe2O5
_symmetry_space_group_name_H-M   'P 1'
_cell_length_a   7.31991236
_cell_length_b   7.31991236
_cell_length_c   7.48291600
_cell_angle_alpha   87.09955536
_cell_angle_beta   87.09955536
_cell_angle_gamma   117.66955832
_symmetry_Int_Tables_number   1
_chemical_formula_structural   Cs6Fe2O5
_chemical_formula_sum   'Cs6 Fe2 O5'
_cell_volume   353.38985026
_cell_formula_units_Z   1
loop_
 _symmetry_equiv_pos_site_id
 _symmetry_equiv_pos_as_xyz
  1  'x, y, z'
loop_
 _atom_site_type_symbol
 _atom_site_label
 _atom_site_symmetry_multiplicity
 _atom_site_fract_x
 _atom_site_fract_y
 _atom_site_fract_z
 _atom_site_occupancy
  Cs  Cs0  1  0.99194500  0.99194500  0.36585100  1
  Cs  Cs1  1  0.70282300  0.70282300  0.99556300  1
  Cs  Cs2  1  0.59621900  0.10918100  0.68441600  1
  Cs  Cs3  1  0.10918100  0.59621900  0.68441600  1
  Cs  Cs4  1  0.56635400  0.13951200  0.18145600  1
  Cs  Cs5  1  0.13951200  0.56635400  0.18145600  1
  Fe  Fe6  1  0.16248700  0.16248700  0.87780300  1
  Fe  Fe7  1  0.55188800  0.55188800  0.50964600  1
  O  O8  1  0.38948700  0.38948700  0.72985800  1
  O  O9  1  0.51291400  0.77488600  0.40988500  1
  O  O10  1  0.77488600  0.51291400  0.40988500  1
  O  O11  1  0.18373700  0.92216700  0.95758200  1
  O  O12  1  0.92216700  0.18373700  0.95758200  1
