# generated using pymatgen
data_Ba2DyGaTe5
_symmetry_space_group_name_H-M   'P 1'
_cell_length_a   10.45277750
_cell_length_b   10.45277750
_cell_length_c   14.31816300
_cell_angle_alpha   90.00000000
_cell_angle_beta   90.00000000
_cell_angle_gamma   155.03411387
_symmetry_Int_Tables_number   1
_chemical_formula_structural   Ba2DyGaTe5
_chemical_formula_sum   'Ba4 Dy2 Ga2 Te10'
_cell_volume   660.30413755
_cell_formula_units_Z   2
loop_
 _symmetry_equiv_pos_site_id
 _symmetry_equiv_pos_as_xyz
  1  'x, y, z'
loop_
 _atom_site_type_symbol
 _atom_site_label
 _atom_site_symmetry_multiplicity
 _atom_site_fract_x
 _atom_site_fract_y
 _atom_site_fract_z
 _atom_site_occupancy
  Ba  Ba0  1  0.12709700  0.87290300  0.82072800  1
  Ba  Ba1  1  0.87290300  0.12709700  0.32072800  1
  Ba  Ba2  1  0.12111100  0.87888900  0.18231200  1
  Ba  Ba3  1  0.87888900  0.12111100  0.68231200  1
  Dy  Dy4  1  0.20480900  0.79519100  0.52022600  1
  Dy  Dy5  1  0.79519100  0.20480900  0.02022600  1
  Ga  Ga6  1  0.44056000  0.55944000  0.92349300  1
  Ga  Ga7  1  0.55944000  0.44056000  0.42349300  1
  Te  Te8  1  0.35191100  0.64808900  0.50287400  1
  Te  Te9  1  0.64808900  0.35191100  0.00287400  1
  Te  Te10  1  0.29637300  0.70362700  0.16431900  1
  Te  Te11  1  0.70362700  0.29637300  0.66431900  1
  Te  Te12  1  0.31288500  0.68711500  0.86650700  1
  Te  Te13  1  0.68711500  0.31288500  0.36650700  1
  Te  Te14  1  0.50155700  0.49844300  0.76305200  1
  Te  Te15  1  0.49844300  0.50155700  0.26305200  1
  Te  Te16  1  0.04502200  0.95497800  0.53163900  1
  Te  Te17  1  0.95497800  0.04502200  0.03163900  1
