# generated using pymatgen
data_Ca(BO3)2
_symmetry_space_group_name_H-M   'P 1'
_cell_length_a   7.03699737
_cell_length_b   7.03699737
_cell_length_c   4.50911357
_cell_angle_alpha   87.18463717
_cell_angle_beta   87.18463717
_cell_angle_gamma   93.43011222
_symmetry_Int_Tables_number   1
_chemical_formula_structural   Ca(BO3)2
_chemical_formula_sum   'Ca2 B4 O12'
_cell_volume   222.31559355
_cell_formula_units_Z   2
loop_
 _symmetry_equiv_pos_site_id
 _symmetry_equiv_pos_as_xyz
  1  'x, y, z'
loop_
 _atom_site_type_symbol
 _atom_site_label
 _atom_site_symmetry_multiplicity
 _atom_site_fract_x
 _atom_site_fract_y
 _atom_site_fract_z
 _atom_site_occupancy
  Ca  Ca0  1  0.22366300  0.77633700  0.75000000  1
  Ca  Ca1  1  0.77633700  0.22366300  0.25000000  1
  B  B2  1  0.87000300  0.73649900  0.32314500  1
  B  B3  1  0.26350100  0.12999700  0.17685500  1
  B  B4  1  0.12999700  0.26350100  0.67685500  1
  B  B5  1  0.73649900  0.87000300  0.82314500  1
  O  O6  1  0.88576500  0.79953000  0.62642200  1
  O  O7  1  0.20047000  0.11423500  0.87357800  1
  O  O8  1  0.11423500  0.20047000  0.37357800  1
  O  O9  1  0.79953000  0.88576500  0.12642200  1
  O  O10  1  0.76591500  0.55371500  0.32187600  1
  O  O11  1  0.44628500  0.23408500  0.17812400  1
  O  O12  1  0.23408500  0.44628500  0.67812400  1
  O  O13  1  0.55371500  0.76591500  0.82187600  1
  O  O14  1  0.05480000  0.67997900  0.20794100  1
  O  O15  1  0.32002100  0.94520000  0.29205900  1
  O  O16  1  0.94520000  0.32002100  0.79205900  1
  O  O17  1  0.67997900  0.05480000  0.70794100  1
