# generated using pymatgen
data_FeSeO5
_symmetry_space_group_name_H-M   'P 1'
_cell_length_a   5.48604149
_cell_length_b   5.48604149
_cell_length_c   7.61329982
_cell_angle_alpha   110.39399795
_cell_angle_beta   110.39399795
_cell_angle_gamma   100.17079984
_symmetry_Int_Tables_number   1
_chemical_formula_structural   FeSeO5
_chemical_formula_sum   'Fe2 Se2 O10'
_cell_volume   189.37462478
_cell_formula_units_Z   2
loop_
 _symmetry_equiv_pos_site_id
 _symmetry_equiv_pos_as_xyz
  1  'x, y, z'
loop_
 _atom_site_type_symbol
 _atom_site_label
 _atom_site_symmetry_multiplicity
 _atom_site_fract_x
 _atom_site_fract_y
 _atom_site_fract_z
 _atom_site_occupancy
  Fe  Fe0  1  0.00000000  0.00000000  0.50000000  1
  Fe  Fe1  1  0.50000000  0.50000000  0.00000000  1
  Se  Se2  1  0.08145700  0.41854300  0.25000000  1
  Se  Se3  1  0.91854300  0.58145700  0.75000000  1
  O  O4  1  0.21278300  0.32143900  0.08006400  1
  O  O5  1  0.17856100  0.28721700  0.41993600  1
  O  O6  1  0.78721700  0.67856100  0.91993600  1
  O  O7  1  0.82143900  0.71278300  0.58006400  1
  O  O8  1  0.19994800  0.76744800  0.38129100  1
  O  O9  1  0.73255200  0.30005200  0.11870900  1
  O  O10  1  0.80005200  0.23255200  0.61870900  1
  O  O11  1  0.26744800  0.69994800  0.88129100  1
  O  O12  1  0.68064800  0.81935200  0.25000000  1
  O  O13  1  0.31935200  0.18064800  0.75000000  1
