# generated using pymatgen
data_Cd2SO6
_symmetry_space_group_name_H-M   'P 1'
_cell_length_a   6.72167995
_cell_length_b   7.02756514
_cell_length_c   7.02756514
_cell_angle_alpha   69.16811143
_cell_angle_beta   66.32966273
_cell_angle_gamma   66.32966273
_symmetry_Int_Tables_number   1
_chemical_formula_structural   Cd2SO6
_chemical_formula_sum   'Cd4 S2 O12'
_cell_volume   270.87070931
_cell_formula_units_Z   2
loop_
 _symmetry_equiv_pos_site_id
 _symmetry_equiv_pos_as_xyz
  1  'x, y, z'
loop_
 _atom_site_type_symbol
 _atom_site_label
 _atom_site_symmetry_multiplicity
 _atom_site_fract_x
 _atom_site_fract_y
 _atom_site_fract_z
 _atom_site_occupancy
  Cd  Cd0  1  0.81229400  0.33934700  0.15328500  1
  Cd  Cd1  1  0.68770600  0.84671500  0.66065300  1
  Cd  Cd2  1  0.18770600  0.66065300  0.84671500  1
  Cd  Cd3  1  0.31229400  0.15328500  0.33934700  1
  S  S4  1  0.75000000  0.30950100  0.69049900  1
  S  S5  1  0.25000000  0.69049900  0.30950100  1
  O  O6  1  0.59224100  0.53315600  0.69366400  1
  O  O7  1  0.90775900  0.30633600  0.46684400  1
  O  O8  1  0.40775900  0.46684400  0.30633600  1
  O  O9  1  0.09224100  0.69366400  0.53315600  1
  O  O10  1  0.88925500  0.24654800  0.83396000  1
  O  O11  1  0.61074500  0.16604000  0.75345200  1
  O  O12  1  0.11074500  0.75345200  0.16604000  1
  O  O13  1  0.38925500  0.83396000  0.24654800  1
  O  O14  1  0.68418600  0.05494400  0.33316200  1
  O  O15  1  0.81581400  0.66683800  0.94505600  1
  O  O16  1  0.31581400  0.94505600  0.66683800  1
  O  O17  1  0.18418600  0.33316200  0.05494400  1
