# generated using pymatgen
data_BiH(SeO3)2
_symmetry_space_group_name_H-M   'P 1'
_cell_length_a   4.62245001
_cell_length_b   4.62245001
_cell_length_c   16.45451005
_cell_angle_alpha   89.87526837
_cell_angle_beta   89.87526837
_cell_angle_gamma   103.63948624
_symmetry_Int_Tables_number   1
_chemical_formula_structural   BiH(SeO3)2
_chemical_formula_sum   'Bi2 H2 Se4 O12'
_cell_volume   341.66699676
_cell_formula_units_Z   2
loop_
 _symmetry_equiv_pos_site_id
 _symmetry_equiv_pos_as_xyz
  1  'x, y, z'
loop_
 _atom_site_type_symbol
 _atom_site_label
 _atom_site_symmetry_multiplicity
 _atom_site_fract_x
 _atom_site_fract_y
 _atom_site_fract_z
 _atom_site_occupancy
  Bi  Bi0  1  0.44215500  0.99833500  0.08858900  1
  Bi  Bi1  1  0.99833500  0.44215500  0.58858900  1
  H  H2  1  0.25362600  0.17547100  0.87388900  1
  H  H3  1  0.17547100  0.25362600  0.37388900  1
  Se  Se4  1  0.99032700  0.47518300  0.93744600  1
  Se  Se5  1  0.47518300  0.99032700  0.43744600  1
  Se  Se6  1  0.85135600  0.61417800  0.20523500  1
  Se  Se7  1  0.61417800  0.85135600  0.70523500  1
  O  O8  1  0.85103600  0.15816100  0.99117700  1
  O  O9  1  0.15816100  0.85103600  0.49117700  1
  O  O10  1  0.31866500  0.62770700  0.98565800  1
  O  O11  1  0.62770700  0.31866500  0.48565800  1
  O  O12  1  0.14248500  0.31427100  0.85113400  1
  O  O13  1  0.31427100  0.14248500  0.35113400  1
  O  O14  1  0.73470800  0.23673400  0.19632700  1
  O  O15  1  0.23673400  0.73470800  0.69632700  1
  O  O16  1  0.76870900  0.72904600  0.10644800  1
  O  O17  1  0.72904500  0.76870900  0.60644800  1
  O  O18  1  0.23073100  0.66691700  0.18790700  1
  O  O19  1  0.66691700  0.23073100  0.68790700  1
