# generated using pymatgen
data_Rb2MoSO4
_symmetry_space_group_name_H-M   'P 1'
_cell_length_a   6.18876637
_cell_length_b   6.18876637
_cell_length_c   12.32133830
_cell_angle_alpha   75.45500668
_cell_angle_beta   75.45500668
_cell_angle_gamma   59.99999606
_symmetry_Int_Tables_number   1
_chemical_formula_structural   Rb2MoSO4
_chemical_formula_sum   'Rb4 Mo2 S2 O8'
_cell_volume   391.13064253
_cell_formula_units_Z   2
loop_
 _symmetry_equiv_pos_site_id
 _symmetry_equiv_pos_as_xyz
  1  'x, y, z'
loop_
 _atom_site_type_symbol
 _atom_site_label
 _atom_site_symmetry_multiplicity
 _atom_site_fract_x
 _atom_site_fract_y
 _atom_site_fract_z
 _atom_site_occupancy
  Rb  Rb0  1  0.35507800  0.35507800  0.93476600  1
  Rb  Rb1  1  0.64492200  0.64492200  0.06523400  1
  Rb  Rb2  1  0.22547100  0.22547100  0.32358700  1
  Rb  Rb3  1  0.77452900  0.77452900  0.67641300  1
  Mo  Mo4  1  0.06116400  0.06116400  0.81650900  1
  Mo  Mo5  1  0.93883600  0.93883600  0.18349100  1
  S  S6  1  0.12597300  0.12597300  0.62208000  1
  S  S7  1  0.87402700  0.87402700  0.37792000  1
  O  O8  1  0.35620800  0.88820300  0.86738500  1
  O  O9  1  0.88820300  0.88820300  0.86738500  1
  O  O10  1  0.88820300  0.35620800  0.86738500  1
  O  O11  1  0.64379200  0.11179700  0.13261500  1
  O  O12  1  0.11179700  0.11179700  0.13261500  1
  O  O13  1  0.11179700  0.64379200  0.13261500  1
  O  O14  1  0.44533500  0.44533500  0.66399500  1
  O  O15  1  0.55466500  0.55466500  0.33600500  1
