# generated using pymatgen
data_CsHSO2
_symmetry_space_group_name_H-M   'P 1'
_cell_length_a   5.81737100
_cell_length_b   6.41132653
_cell_length_c   12.03870406
_cell_angle_alpha   93.73448315
_cell_angle_beta   90.00000000
_cell_angle_gamma   116.97998890
_symmetry_Int_Tables_number   1
_chemical_formula_structural   CsHSO2
_chemical_formula_sum   'Cs4 H4 S4 O8'
_cell_volume   399.07036176
_cell_formula_units_Z   4
loop_
 _symmetry_equiv_pos_site_id
 _symmetry_equiv_pos_as_xyz
  1  'x, y, z'
loop_
 _atom_site_type_symbol
 _atom_site_label
 _atom_site_symmetry_multiplicity
 _atom_site_fract_x
 _atom_site_fract_y
 _atom_site_fract_z
 _atom_site_occupancy
  Cs  Cs0  1  0.22664500  0.45329100  0.34398500  1
  Cs  Cs1  1  0.77335500  0.54670900  0.65601500  1
  Cs  Cs2  1  0.85344900  0.70689800  0.08112200  1
  Cs  Cs3  1  0.14655100  0.29310200  0.91887800  1
  H  H4  1  0.80591800  0.88238400  0.37189300  1
  H  H5  1  0.07646600  0.88238400  0.37189300  1
  H  H6  1  0.19408200  0.11761600  0.62810700  1
  H  H7  1  0.92353400  0.11761600  0.62810700  1
  S  S8  1  0.54094500  0.08189100  0.35988100  1
  S  S9  1  0.45905500  0.91810900  0.64011900  1
  S  S10  1  0.53324700  0.06649300  0.18874500  1
  S  S11  1  0.46675300  0.93350700  0.81125500  1
  O  O12  1  0.88879900  0.77759800  0.37293700  1
  O  O13  1  0.11120100  0.22240200  0.62706300  1
  O  O14  1  0.80377000  0.18561200  0.15211000  1
  O  O15  1  0.38184200  0.18561200  0.15211000  1
  O  O16  1  0.19623000  0.81438800  0.84789000  1
  O  O17  1  0.61815800  0.81438800  0.84789000  1
  O  O18  1  0.40641600  0.81283100  0.14856500  1
  O  O19  1  0.59358400  0.18716900  0.85143500  1
