# generated using pymatgen
data_MnVO3
_symmetry_space_group_name_H-M   'P 1'
_cell_length_a   5.19141132
_cell_length_b   5.31481451
_cell_length_c   7.60201100
_cell_angle_alpha   90.00163278
_cell_angle_beta   90.00061667
_cell_angle_gamma   90.19251805
_symmetry_Int_Tables_number   1
_chemical_formula_structural   MnVO3
_chemical_formula_sum   'Mn4 V4 O12'
_cell_volume   209.74885248
_cell_formula_units_Z   4
loop_
 _symmetry_equiv_pos_site_id
 _symmetry_equiv_pos_as_xyz
  1  'x, y, z'
loop_
 _atom_site_type_symbol
 _atom_site_label
 _atom_site_symmetry_multiplicity
 _atom_site_fract_x
 _atom_site_fract_y
 _atom_site_fract_z
 _atom_site_occupancy
  Mn  Mn0  1  0.49347100  0.05213700  0.25000000  1
  Mn  Mn1  1  0.50653000  0.94786300  0.74999900  1
  Mn  Mn2  1  0.01082200  0.55101700  0.25000000  1
  Mn  Mn3  1  0.98917800  0.44898300  0.75000100  1
  V  V4  1  0.50000000  0.50000000  0.00000000  1
  V  V5  1  0.00000000  0.00000000  0.50000000  1
  V  V6  1  0.50000000  0.50000000  0.50000000  1
  V  V7  1  0.00000000  0.00000000  0.00000000  1
  O  O8  1  0.88687200  0.95186200  0.25000200  1
  O  O9  1  0.61435200  0.45111900  0.25000000  1
  O  O10  1  0.11312900  0.04813800  0.74999800  1
  O  O11  1  0.38564800  0.54888100  0.74999900  1
  O  O12  1  0.31620600  0.79479600  0.05978700  1
  O  O13  1  0.18290400  0.29620300  0.44114700  1
  O  O14  1  0.68379200  0.20520600  0.55978100  1
  O  O15  1  0.81709500  0.70379800  0.94114700  1
  O  O16  1  0.68379400  0.20520400  0.94021300  1
  O  O17  1  0.81709600  0.70379700  0.55885300  1
  O  O18  1  0.31620900  0.79479400  0.44021800  1
  O  O19  1  0.18290500  0.29620300  0.05885300  1
