# generated using pymatgen
data_Rb2Gd4Cu4S9
_symmetry_space_group_name_H-M   'P 1'
_cell_length_a   4.08157700
_cell_length_b   7.32255852
_cell_length_c   15.44879496
_cell_angle_alpha   82.13047497
_cell_angle_beta   82.40902790
_cell_angle_gamma   73.81743370
_symmetry_Int_Tables_number   1
_chemical_formula_structural   Rb2Gd4Cu4S9
_chemical_formula_sum   'Rb2 Gd4 Cu4 S9'
_cell_volume   437.10998749
_cell_formula_units_Z   1
loop_
 _symmetry_equiv_pos_site_id
 _symmetry_equiv_pos_as_xyz
  1  'x, y, z'
loop_
 _atom_site_type_symbol
 _atom_site_label
 _atom_site_symmetry_multiplicity
 _atom_site_fract_x
 _atom_site_fract_y
 _atom_site_fract_z
 _atom_site_occupancy
  Rb  Rb0  1  0.97266200  0.28491600  0.76976000  1
  Rb  Rb1  1  0.02733800  0.71508400  0.23024000  1
  Gd  Gd2  1  0.76695000  0.86250600  0.60359300  1
  Gd  Gd3  1  0.23305000  0.13749400  0.39640700  1
  Gd  Gd4  1  0.34634400  0.25354000  0.05377300  1
  Gd  Gd5  1  0.65365600  0.74646000  0.94622700  1
  Cu  Cu6  1  0.75105500  0.26961500  0.22827400  1
  Cu  Cu7  1  0.24894500  0.73038500  0.77172600  1
  Cu  Cu8  1  0.56626300  0.32643900  0.54103600  1
  Cu  Cu9  1  0.43373800  0.67356100  0.45896400  1
  S  S10  1  0.85885100  0.85626000  0.42603800  1
  S  S11  1  0.14114900  0.14374000  0.57396200  1
  S  S12  1  0.70523300  0.48842800  0.10110600  1
  S  S13  1  0.29476700  0.51157200  0.89889400  1
  S  S14  1  0.60840800  0.40664300  0.37654100  1
  S  S15  1  0.39159200  0.59335700  0.62345900  1
  S  S16  1  0.34200600  0.09363100  0.22235700  1
  S  S17  1  0.65799400  0.90636900  0.77764300  1
  S  S18  1  0.00000000  0.00000000  0.00000000  1
