# generated using pymatgen
data_B4Mo
_symmetry_space_group_name_H-M   'P 1'
_cell_length_a   5.32145730
_cell_length_b   5.32145730
_cell_length_c   6.54085300
_cell_angle_alpha   90.00000000
_cell_angle_beta   90.00000000
_cell_angle_gamma   119.99999124
_symmetry_Int_Tables_number   1
_chemical_formula_structural   B4Mo
_chemical_formula_sum   'B16 Mo4'
_cell_volume   160.40807296
_cell_formula_units_Z   4
loop_
 _symmetry_equiv_pos_site_id
 _symmetry_equiv_pos_as_xyz
  1  'x, y, z'
loop_
 _atom_site_type_symbol
 _atom_site_label
 _atom_site_symmetry_multiplicity
 _atom_site_fract_x
 _atom_site_fract_y
 _atom_site_fract_z
 _atom_site_occupancy
  B  B0  1  0.33644700  0.33644700  0.50000000  1
  B  B1  1  0.66355300  0.00000000  0.50000000  1
  B  B2  1  0.00000000  0.66355300  0.50000000  1
  B  B3  1  0.66355300  0.66355300  0.50000000  1
  B  B4  1  0.00000000  0.33644700  0.50000000  1
  B  B5  1  0.33644700  0.00000000  0.50000000  1
  B  B6  1  0.66355300  0.66355300  0.00000000  1
  B  B7  1  0.33644700  0.00000000  0.00000000  1
  B  B8  1  0.00000000  0.33644700  0.00000000  1
  B  B9  1  0.33644700  0.33644700  0.00000000  1
  B  B10  1  0.00000000  0.66355300  0.00000000  1
  B  B11  1  0.66355300  0.00000000  0.00000000  1
  B  B12  1  0.33333300  0.66666700  0.87945600  1
  B  B13  1  0.66666700  0.33333300  0.12054400  1
  B  B14  1  0.66666700  0.33333300  0.37945600  1
  B  B15  1  0.33333300  0.66666700  0.62054400  1
  Mo  Mo16  1  0.33333300  0.66666700  0.25000000  1
  Mo  Mo17  1  0.66666700  0.33333300  0.75000000  1
  Mo  Mo18  1  0.00000000  0.00000000  0.25000000  1
  Mo  Mo19  1  0.00000000  0.00000000  0.75000000  1
