# generated using pymatgen
data_BH6N
_symmetry_space_group_name_H-M   'P 1'
_cell_length_a   5.50332700
_cell_length_b   4.51178600
_cell_length_c   4.70140693
_cell_angle_alpha   87.85803581
_cell_angle_beta   90.00000000
_cell_angle_gamma   90.00000000
_symmetry_Int_Tables_number   1
_chemical_formula_structural   BH6N
_chemical_formula_sum   'B2 H12 N2'
_cell_volume   116.65358802
_cell_formula_units_Z   2
loop_
 _symmetry_equiv_pos_site_id
 _symmetry_equiv_pos_as_xyz
  1  'x, y, z'
loop_
 _atom_site_type_symbol
 _atom_site_label
 _atom_site_symmetry_multiplicity
 _atom_site_fract_x
 _atom_site_fract_y
 _atom_site_fract_z
 _atom_site_occupancy
  B  B0  1  0.12199600  0.84406600  0.83996600  1
  B  B1  1  0.62199600  0.15593400  0.16003400  1
  H  H2  1  0.36543900  0.76580800  0.47204400  1
  H  H3  1  0.86543900  0.23419200  0.52795600  1
  H  H4  1  0.35548900  0.47774200  0.70113200  1
  H  H5  1  0.85548900  0.52225800  0.29886800  1
  H  H6  1  0.51193700  0.77413500  0.77591100  1
  H  H7  1  0.01193700  0.22586500  0.22408900  1
  H  H8  1  0.13449200  0.77573100  0.09238000  1
  H  H9  1  0.63449200  0.22426900  0.90762000  1
  H  H10  1  0.13005400  0.11249800  0.80891000  1
  H  H11  1  0.63005400  0.88750200  0.19109000  1
  H  H12  1  0.93661200  0.74562300  0.73727300  1
  H  H13  1  0.43661200  0.25437700  0.26272700  1
  N  N14  1  0.35232100  0.70634900  0.68552600  1
  N  N15  1  0.85232100  0.29365100  0.31447400  1
