# generated using pymatgen
data_BN2Cl
_symmetry_space_group_name_H-M   'P 1'
_cell_length_a   7.27624489
_cell_length_b   7.27624489
_cell_length_c   5.41148100
_cell_angle_alpha   90.00000000
_cell_angle_beta   90.00000000
_cell_angle_gamma   70.52258907
_symmetry_Int_Tables_number   1
_chemical_formula_structural   BN2Cl
_chemical_formula_sum   'B4 N8 Cl4'
_cell_volume   270.10828080
_cell_formula_units_Z   4
loop_
 _symmetry_equiv_pos_site_id
 _symmetry_equiv_pos_as_xyz
  1  'x, y, z'
loop_
 _atom_site_type_symbol
 _atom_site_label
 _atom_site_symmetry_multiplicity
 _atom_site_fract_x
 _atom_site_fract_y
 _atom_site_fract_z
 _atom_site_occupancy
  B  B0  1  0.70734200  0.29265800  0.07381300  1
  B  B1  1  0.29265800  0.70734200  0.92618700  1
  B  B2  1  0.79265800  0.20734200  0.57381300  1
  B  B3  1  0.20734200  0.79265800  0.42618700  1
  N  N4  1  0.72481700  0.27518300  0.33263900  1
  N  N5  1  0.27518300  0.72481700  0.66736100  1
  N  N6  1  0.77518300  0.22481700  0.83263900  1
  N  N7  1  0.22481700  0.77518300  0.16736100  1
  N  N8  1  0.57146500  0.42853500  0.23803500  1
  N  N9  1  0.42853500  0.57146500  0.76196500  1
  N  N10  1  0.92853500  0.07146500  0.73803500  1
  N  N11  1  0.07146500  0.92853500  0.26196500  1
  Cl  Cl12  1  0.81829600  0.81829600  0.50000000  1
  Cl  Cl13  1  0.31829600  0.31829600  0.00000000  1
  Cl  Cl14  1  0.18170400  0.18170400  0.50000000  1
  Cl  Cl15  1  0.68170400  0.68170400  0.00000000  1
