# generated using pymatgen
data_CSN2
_symmetry_space_group_name_H-M   'P 1'
_cell_length_a   7.01013700
_cell_length_b   8.47229400
_cell_length_c   4.91574200
_cell_angle_alpha   90.00000000
_cell_angle_beta   90.00000000
_cell_angle_gamma   90.00000000
_symmetry_Int_Tables_number   1
_chemical_formula_structural   CSN2
_chemical_formula_sum   'C4 S4 N8'
_cell_volume   291.95546200
_cell_formula_units_Z   4
loop_
 _symmetry_equiv_pos_site_id
 _symmetry_equiv_pos_as_xyz
  1  'x, y, z'
loop_
 _atom_site_type_symbol
 _atom_site_label
 _atom_site_symmetry_multiplicity
 _atom_site_fract_x
 _atom_site_fract_y
 _atom_site_fract_z
 _atom_site_occupancy
  C  C0  1  0.02505100  0.61775500  0.00000000  1
  C  C1  1  0.97494900  0.11775500  0.00000000  1
  C  C2  1  0.48337700  0.35579800  0.50000000  1
  C  C3  1  0.51662300  0.85579800  0.50000000  1
  S  S4  1  0.62556000  0.38067000  0.00000000  1
  S  S5  1  0.37444000  0.88067000  0.00000000  1
  S  S6  1  0.87915900  0.61165000  0.50000000  1
  S  S7  1  0.12084100  0.11165000  0.50000000  1
  N  N8  1  0.03799800  0.61813100  0.24803500  1
  N  N9  1  0.03799800  0.61813100  0.75196500  1
  N  N10  1  0.96200200  0.11813100  0.75196500  1
  N  N11  1  0.96200200  0.11813100  0.24803500  1
  N  N12  1  0.46978900  0.35403200  0.25216600  1
  N  N13  1  0.46978900  0.35403200  0.74783400  1
  N  N14  1  0.53021100  0.85403200  0.74783400  1
  N  N15  1  0.53021100  0.85403200  0.25216600  1
