# generated using pymatgen
data_SrP3
_symmetry_space_group_name_H-M   'P 1'
_cell_length_a   5.90416272
_cell_length_b   5.90416272
_cell_length_c   5.74408801
_cell_angle_alpha   71.89738719
_cell_angle_beta   71.89738719
_cell_angle_gamma   77.02213045
_symmetry_Int_Tables_number   1
_chemical_formula_structural   SrP3
_chemical_formula_sum   'Sr2 P6'
_cell_volume   179.07639888
_cell_formula_units_Z   2
loop_
 _symmetry_equiv_pos_site_id
 _symmetry_equiv_pos_as_xyz
  1  'x, y, z'
loop_
 _atom_site_type_symbol
 _atom_site_label
 _atom_site_symmetry_multiplicity
 _atom_site_fract_x
 _atom_site_fract_y
 _atom_site_fract_z
 _atom_site_occupancy
  Sr  Sr0  1  0.33701000  0.33701000  0.85249300  1
  Sr  Sr1  1  0.66299000  0.66299000  0.14750700  1
  P  P2  1  0.01140300  0.01140300  0.69081400  1
  P  P3  1  0.98859700  0.98859700  0.30918600  1
  P  P4  1  0.60499000  0.11475900  0.32094000  1
  P  P5  1  0.88524100  0.39501000  0.67906000  1
  P  P6  1  0.39501000  0.88524100  0.67906000  1
  P  P7  1  0.11475900  0.60499000  0.32094000  1
