# generated using pymatgen
data_NaLi2MoF6
_symmetry_space_group_name_H-M   'P 1'
_cell_length_a   5.96991600
_cell_length_b   5.96991607
_cell_length_c   5.96991591
_cell_angle_alpha   60.00000256
_cell_angle_beta   59.99999950
_cell_angle_gamma   60.00000041
_symmetry_Int_Tables_number   1
_chemical_formula_structural   NaLi2MoF6
_chemical_formula_sum   'Na1 Li2 Mo1 F6'
_cell_volume   150.44912642
_cell_formula_units_Z   1
loop_
 _symmetry_equiv_pos_site_id
 _symmetry_equiv_pos_as_xyz
  1  'x, y, z'
loop_
 _atom_site_type_symbol
 _atom_site_label
 _atom_site_symmetry_multiplicity
 _atom_site_fract_x
 _atom_site_fract_y
 _atom_site_fract_z
 _atom_site_occupancy
  Na  Na0  1  0.50000000  0.50000000  0.50000000  1
  Li  Li1  1  0.25000000  0.25000000  0.25000000  1
  Li  Li2  1  0.75000000  0.75000000  0.75000000  1
  Mo  Mo3  1  0.00000000  0.00000000  0.00000000  1
  F  F4  1  0.24321200  0.75678800  0.24321200  1
  F  F5  1  0.75678800  0.75678800  0.24321200  1
  F  F6  1  0.75678800  0.24321200  0.75678800  1
  F  F7  1  0.75678800  0.24321200  0.24321200  1
  F  F8  1  0.24321200  0.75678800  0.75678800  1
  F  F9  1  0.24321200  0.24321200  0.75678800  1
