# generated using pymatgen
data_Mn2O5
_symmetry_space_group_name_H-M   'P 1'
_cell_length_a   3.53504900
_cell_length_b   5.49418600
_cell_length_c   9.77961800
_cell_angle_alpha   90.00000000
_cell_angle_beta   90.00000000
_cell_angle_gamma   90.00000000
_symmetry_Int_Tables_number   1
_chemical_formula_structural   Mn2O5
_chemical_formula_sum   'Mn4 O10'
_cell_volume   189.94186028
_cell_formula_units_Z   2
loop_
 _symmetry_equiv_pos_site_id
 _symmetry_equiv_pos_as_xyz
  1  'x, y, z'
loop_
 _atom_site_type_symbol
 _atom_site_label
 _atom_site_symmetry_multiplicity
 _atom_site_fract_x
 _atom_site_fract_y
 _atom_site_fract_z
 _atom_site_occupancy
  Mn  Mn0  1  0.00000000  0.71986000  0.35987800  1
  Mn  Mn1  1  0.00000000  0.28014000  0.64012200  1
  Mn  Mn2  1  0.00000000  0.21986000  0.14012200  1
  Mn  Mn3  1  0.00000000  0.78014000  0.85987800  1
  O  O4  1  0.50000000  0.79072300  0.39877400  1
  O  O5  1  0.50000000  0.20927700  0.60122600  1
  O  O6  1  0.50000000  0.29072300  0.10122600  1
  O  O7  1  0.50000000  0.70927700  0.89877400  1
  O  O8  1  0.00000000  0.04706400  0.29284300  1
  O  O9  1  0.00000000  0.95293600  0.70715700  1
  O  O10  1  0.00000000  0.54706400  0.20715700  1
  O  O11  1  0.00000000  0.45293600  0.79284300  1
  O  O12  1  0.00000000  0.50000000  0.50000000  1
  O  O13  1  0.00000000  0.00000000  0.00000000  1
