# generated using pymatgen
data_Dy(Fe2Si)2
_symmetry_space_group_name_H-M   'P 1'
_cell_length_a   7.09549300
_cell_length_b   7.09549300
_cell_length_c   3.74345100
_cell_angle_alpha   90.00000000
_cell_angle_beta   90.00000000
_cell_angle_gamma   90.00000000
_symmetry_Int_Tables_number   1
_chemical_formula_structural   Dy(Fe2Si)2
_chemical_formula_sum   'Dy2 Fe8 Si4'
_cell_volume   188.46786233
_cell_formula_units_Z   2
loop_
 _symmetry_equiv_pos_site_id
 _symmetry_equiv_pos_as_xyz
  1  'x, y, z'
loop_
 _atom_site_type_symbol
 _atom_site_label
 _atom_site_symmetry_multiplicity
 _atom_site_fract_x
 _atom_site_fract_y
 _atom_site_fract_z
 _atom_site_occupancy
  Dy  Dy0  1  0.50000000  0.50000000  0.50000000  1
  Dy  Dy1  1  0.00000000  0.00000000  0.00000000  1
  Fe  Fe2  1  0.64673600  0.91488100  0.50000000  1
  Fe  Fe3  1  0.35326400  0.08511900  0.50000000  1
  Fe  Fe4  1  0.14673600  0.58511900  0.00000000  1
  Fe  Fe5  1  0.85326400  0.41488100  0.00000000  1
  Fe  Fe6  1  0.91488100  0.64673600  0.50000000  1
  Fe  Fe7  1  0.08511900  0.35326400  0.50000000  1
  Fe  Fe8  1  0.58511900  0.14673600  0.00000000  1
  Fe  Fe9  1  0.41488100  0.85326400  0.00000000  1
  Si  Si10  1  0.78079700  0.21920300  0.50000000  1
  Si  Si11  1  0.21920300  0.78079700  0.50000000  1
  Si  Si12  1  0.28079700  0.28079700  0.00000000  1
  Si  Si13  1  0.71920300  0.71920300  0.00000000  1
