# generated using pymatgen
data_Ti4GaS8
_symmetry_space_group_name_H-M   'P 1'
_cell_length_a   7.05143994
_cell_length_b   7.05143994
_cell_length_c   7.05143994
_cell_angle_alpha   60.00000000
_cell_angle_beta   60.00000000
_cell_angle_gamma   60.00000000
_symmetry_Int_Tables_number   1
_chemical_formula_structural   Ti4GaS8
_chemical_formula_sum   'Ti4 Ga1 S8'
_cell_volume   247.92392345
_cell_formula_units_Z   1
loop_
 _symmetry_equiv_pos_site_id
 _symmetry_equiv_pos_as_xyz
  1  'x, y, z'
loop_
 _atom_site_type_symbol
 _atom_site_label
 _atom_site_symmetry_multiplicity
 _atom_site_fract_x
 _atom_site_fract_y
 _atom_site_fract_z
 _atom_site_occupancy
  Ti  Ti0  1  0.61173900  0.61173900  0.16478400  1
  Ti  Ti1  1  0.61173900  0.16478400  0.61173900  1
  Ti  Ti2  1  0.16478400  0.61173900  0.61173900  1
  Ti  Ti3  1  0.61173900  0.61173900  0.61173900  1
  Ga  Ga4  1  0.00000000  0.00000000  0.00000000  1
  S  S5  1  0.37365800  0.37365800  0.87902500  1
  S  S6  1  0.37365800  0.87902500  0.37365800  1
  S  S7  1  0.87902500  0.37365800  0.37365800  1
  S  S8  1  0.37365800  0.37365800  0.37365800  1
  S  S9  1  0.86667700  0.86667700  0.39996800  1
  S  S10  1  0.86667700  0.39996800  0.86667700  1
  S  S11  1  0.39996800  0.86667700  0.86667700  1
  S  S12  1  0.86667700  0.86667700  0.86667700  1
