# generated using pymatgen
data_HoVO4
_symmetry_space_group_name_H-M   'P 1'
_cell_length_a   17.88140563
_cell_length_b   17.88140563
_cell_length_c   17.88140563
_cell_angle_alpha   112.02706915
_cell_angle_beta   112.02706915
_cell_angle_gamma   104.47223437
_symmetry_Int_Tables_number   1
_chemical_formula_structural   HoVO4
_chemical_formula_sum   'Ho2 V2 O8'
_cell_volume   4376.48500151
_cell_formula_units_Z   2
loop_
 _symmetry_equiv_pos_site_id
 _symmetry_equiv_pos_as_xyz
  1  'x, y, z'
loop_
 _atom_site_type_symbol
 _atom_site_label
 _atom_site_symmetry_multiplicity
 _atom_site_fract_x
 _atom_site_fract_y
 _atom_site_fract_z
 _atom_site_occupancy
  Ho  Ho0  1  0.75000000  0.25000000  0.50000000  1
  Ho  Ho1  1  0.00000000  0.00000000  0.00000000  1
  V  V2  1  0.50000000  0.50000000  0.00000000  1
  V  V3  1  0.25000000  0.75000000  0.50000000  1
  O  O4  1  0.54707600  0.47686200  0.92978600  1
  O  O5  1  0.22686200  0.79707600  0.42978600  1
  O  O6  1  0.36729000  0.79707600  0.57021400  1
  O  O7  1  0.54707600  0.61729000  0.07021400  1
  O  O8  1  0.20292400  0.77313800  0.57021400  1
  O  O9  1  0.52313800  0.45292400  0.07021400  1
  O  O10  1  0.38271000  0.45292400  0.92978600  1
  O  O11  1  0.20292400  0.63271000  0.42978600  1
