# generated using pymatgen
data_Na2MoAuF6
_symmetry_space_group_name_H-M   'P 1'
_cell_length_a   6.34413600
_cell_length_b   6.34413605
_cell_length_c   6.34413562
_cell_angle_alpha   60.00000095
_cell_angle_beta   59.99999803
_cell_angle_gamma   60.00000027
_symmetry_Int_Tables_number   1
_chemical_formula_structural   Na2MoAuF6
_chemical_formula_sum   'Na2 Mo1 Au1 F6'
_cell_volume   180.55205280
_cell_formula_units_Z   1
loop_
 _symmetry_equiv_pos_site_id
 _symmetry_equiv_pos_as_xyz
  1  'x, y, z'
loop_
 _atom_site_type_symbol
 _atom_site_label
 _atom_site_symmetry_multiplicity
 _atom_site_fract_x
 _atom_site_fract_y
 _atom_site_fract_z
 _atom_site_occupancy
  Na  Na0  1  0.25000000  0.25000000  0.25000000  1
  Na  Na1  1  0.75000000  0.75000000  0.75000000  1
  Mo  Mo2  1  0.00000000  0.00000000  0.00000000  1
  Au  Au3  1  0.50000000  0.50000000  0.50000000  1
  F  F4  1  0.22961500  0.77038500  0.22961500  1
  F  F5  1  0.77038500  0.77038500  0.22961500  1
  F  F6  1  0.77038500  0.22961500  0.77038500  1
  F  F7  1  0.77038500  0.22961500  0.22961500  1
  F  F8  1  0.22961500  0.77038500  0.77038500  1
  F  F9  1  0.22961500  0.22961500  0.77038500  1
