# generated using pymatgen
data_Er3Ga8Au3
_symmetry_space_group_name_H-M   'P 1'
_cell_length_a   8.26501273
_cell_length_b   8.26501273
_cell_length_c   8.26501273
_cell_angle_alpha   149.53278309
_cell_angle_beta   108.81411399
_cell_angle_gamma   79.37278020
_symmetry_Int_Tables_number   1
_chemical_formula_structural   Er3Ga8Au3
_chemical_formula_sum   'Er3 Ga8 Au3'
_cell_volume   265.77825426
_cell_formula_units_Z   1
loop_
 _symmetry_equiv_pos_site_id
 _symmetry_equiv_pos_as_xyz
  1  'x, y, z'
loop_
 _atom_site_type_symbol
 _atom_site_label
 _atom_site_symmetry_multiplicity
 _atom_site_fract_x
 _atom_site_fract_y
 _atom_site_fract_z
 _atom_site_occupancy
  Er  Er0  1  0.50000000  0.50000000  0.00000000  1
  Er  Er1  1  0.19726700  0.19726700  0.00000000  1
  Er  Er2  1  0.80273300  0.80273300  0.00000000  1
  Ga  Ga3  1  0.07532400  0.35715600  0.71816800  1
  Ga  Ga4  1  0.92467600  0.64284400  0.28183200  1
  Ga  Ga5  1  0.63898700  0.35715600  0.28183200  1
  Ga  Ga6  1  0.36101300  0.64284400  0.71816800  1
  Ga  Ga7  1  0.78763500  0.15893800  0.62869700  1
  Ga  Ga8  1  0.21236500  0.84106200  0.37130300  1
  Ga  Ga9  1  0.53024100  0.15893800  0.37130300  1
  Ga  Ga10  1  0.46975900  0.84106200  0.62869700  1
  Au  Au11  1  0.00000000  0.50000000  0.50000000  1
  Au  Au12  1  0.80069400  0.00000000  0.80069400  1
  Au  Au13  1  0.19930600  0.00000000  0.19930600  1
