# generated using pymatgen
data_Er3Ga8Ir3
_symmetry_space_group_name_H-M   'P 1'
_cell_length_a   8.15252234
_cell_length_b   8.15252234
_cell_length_c   8.15252234
_cell_angle_alpha   150.22785051
_cell_angle_beta   105.01208528
_cell_angle_gamma   82.70201636
_symmetry_Int_Tables_number   1
_chemical_formula_structural   Er3Ga8Ir3
_chemical_formula_sum   'Er3 Ga8 Ir3'
_cell_volume   254.41146506
_cell_formula_units_Z   1
loop_
 _symmetry_equiv_pos_site_id
 _symmetry_equiv_pos_as_xyz
  1  'x, y, z'
loop_
 _atom_site_type_symbol
 _atom_site_label
 _atom_site_symmetry_multiplicity
 _atom_site_fract_x
 _atom_site_fract_y
 _atom_site_fract_z
 _atom_site_occupancy
  Er  Er0  1  0.50000000  0.50000000  0.00000000  1
  Er  Er1  1  0.17128600  0.17128600  0.00000000  1
  Er  Er2  1  0.82871400  0.82871400  0.00000000  1
  Ga  Ga3  1  0.66070400  0.37421500  0.28648900  1
  Ga  Ga4  1  0.33929600  0.62578500  0.71351100  1
  Ga  Ga5  1  0.08772500  0.37421500  0.71351100  1
  Ga  Ga6  1  0.91227500  0.62578500  0.28648900  1
  Ga  Ga7  1  0.53809600  0.16594700  0.37214900  1
  Ga  Ga8  1  0.46190400  0.83405300  0.62785100  1
  Ga  Ga9  1  0.79379800  0.16594700  0.62785100  1
  Ga  Ga10  1  0.20620200  0.83405300  0.37214900  1
  Ir  Ir11  1  0.00000000  0.50000000  0.50000000  1
  Ir  Ir12  1  0.21477300  0.00000000  0.21477300  1
  Ir  Ir13  1  0.78522700  0.00000000  0.78522700  1
