# generated using pymatgen
data_La2Ta2O9
_symmetry_space_group_name_H-M   'P 1'
_cell_length_a   8.11878698
_cell_length_b   8.11878698
_cell_length_c   6.79148452
_cell_angle_alpha   68.37779334
_cell_angle_beta   68.37779334
_cell_angle_gamma   27.96668492
_symmetry_Int_Tables_number   1
_chemical_formula_structural   La2Ta2O9
_chemical_formula_sum   'La2 Ta2 O9'
_cell_volume   194.20791719
_cell_formula_units_Z   1
loop_
 _symmetry_equiv_pos_site_id
 _symmetry_equiv_pos_as_xyz
  1  'x, y, z'
loop_
 _atom_site_type_symbol
 _atom_site_label
 _atom_site_symmetry_multiplicity
 _atom_site_fract_x
 _atom_site_fract_y
 _atom_site_fract_z
 _atom_site_occupancy
  La  La0  1  0.30492300  0.30492300  0.18647900  1
  La  La1  1  0.69507700  0.69507700  0.81352100  1
  Ta  Ta2  1  0.03811600  0.03811600  0.19603700  1
  Ta  Ta3  1  0.96188400  0.96188400  0.80396300  1
  O  O4  1  0.07929800  0.07929800  0.84504000  1
  O  O5  1  0.92070200  0.92070200  0.15496000  1
  O  O6  1  0.54669500  0.54669500  0.16314700  1
  O  O7  1  0.45330500  0.45330500  0.83685300  1
  O  O8  1  0.00000000  0.00000000  0.50000000  1
  O  O9  1  0.17422100  0.17422100  0.08079800  1
  O  O10  1  0.82577900  0.82577900  0.91920200  1
  O  O11  1  0.72161400  0.72161400  0.43644400  1
  O  O12  1  0.27838600  0.27838600  0.56355600  1
