# generated using pymatgen
data_Sm3Al11
_symmetry_space_group_name_H-M   'P 1'
_cell_length_a   8.45600581
_cell_length_b   8.45600581
_cell_length_c   8.45600581
_cell_angle_alpha   150.35529639
_cell_angle_beta   107.44139043
_cell_angle_gamma   80.27965756
_symmetry_Int_Tables_number   1
_chemical_formula_structural   Sm3Al11
_chemical_formula_sum   'Sm3 Al11'
_cell_volume   279.88227673
_cell_formula_units_Z   1
loop_
 _symmetry_equiv_pos_site_id
 _symmetry_equiv_pos_as_xyz
  1  'x, y, z'
loop_
 _atom_site_type_symbol
 _atom_site_label
 _atom_site_symmetry_multiplicity
 _atom_site_fract_x
 _atom_site_fract_y
 _atom_site_fract_z
 _atom_site_occupancy
  Sm  Sm0  1  0.00000000  0.00000000  0.00000000  1
  Sm  Sm1  1  0.31742800  0.31742800  0.00000000  1
  Sm  Sm2  1  0.68257200  0.68257200  0.00000000  1
  Al  Al3  1  0.50000000  0.00000000  0.50000000  1
  Al  Al4  1  0.28479900  0.50000000  0.78479900  1
  Al  Al5  1  0.71520100  0.50000000  0.21520100  1
  Al  Al6  1  0.96381000  0.33410300  0.62970600  1
  Al  Al7  1  0.03619000  0.66589700  0.37029400  1
  Al  Al8  1  0.70439700  0.33410300  0.37029400  1
  Al  Al9  1  0.29560300  0.66589700  0.62970600  1
  Al  Al10  1  0.86285600  0.13714500  0.72571100  1
  Al  Al11  1  0.13714400  0.86285500  0.27428900  1
  Al  Al12  1  0.41143300  0.13714500  0.27428900  1
  Al  Al13  1  0.58856700  0.86285500  0.72571100  1
