# generated using pymatgen
data_C3N4
_symmetry_space_group_name_H-M   'P 1'
_cell_length_a   7.14164972
_cell_length_b   7.14164972
_cell_length_c   3.61941700
_cell_angle_alpha   90.00000000
_cell_angle_beta   90.00000000
_cell_angle_gamma   119.99999739
_symmetry_Int_Tables_number   1
_chemical_formula_structural   C3N4
_chemical_formula_sum   'C6 N8'
_cell_volume   159.86977196
_cell_formula_units_Z   2
loop_
 _symmetry_equiv_pos_site_id
 _symmetry_equiv_pos_as_xyz
  1  'x, y, z'
loop_
 _atom_site_type_symbol
 _atom_site_label
 _atom_site_symmetry_multiplicity
 _atom_site_fract_x
 _atom_site_fract_y
 _atom_site_fract_z
 _atom_site_occupancy
  C  C0  1  0.78617500  0.21382500  0.00000000  1
  C  C1  1  0.42765100  0.21382500  0.00000000  1
  C  C2  1  0.78617500  0.57234900  0.00000000  1
  C  C3  1  0.77405100  0.88702600  0.00000000  1
  C  C4  1  0.11297400  0.22594900  0.00000000  1
  C  C5  1  0.11297400  0.88702600  0.00000000  1
  N  N6  1  0.66666700  0.33333300  0.00000000  1
  N  N7  1  0.67014300  0.99806400  0.00000000  1
  N  N8  1  0.32792100  0.32985700  0.00000000  1
  N  N9  1  0.00193600  0.67207900  0.00000000  1
  N  N10  1  0.67014300  0.67207900  0.00000000  1
  N  N11  1  0.00193600  0.32985700  0.00000000  1
  N  N12  1  0.32792100  0.99806400  0.00000000  1
  N  N13  1  0.00000000  0.00000000  0.00000000  1
