# generated using pymatgen
data_Ba2Cd2As3
_symmetry_space_group_name_H-M   'P 1'
_cell_length_a   9.03863700
_cell_length_b   9.03863700
_cell_length_c   12.97486533
_cell_angle_alpha   54.78645519
_cell_angle_beta   54.78645519
_cell_angle_gamma   29.67433776
_symmetry_Int_Tables_number   1
_chemical_formula_structural   Ba2Cd2As3
_chemical_formula_sum   'Ba4 Cd4 As6'
_cell_volume   421.18729691
_cell_formula_units_Z   2
loop_
 _symmetry_equiv_pos_site_id
 _symmetry_equiv_pos_as_xyz
  1  'x, y, z'
loop_
 _atom_site_type_symbol
 _atom_site_label
 _atom_site_symmetry_multiplicity
 _atom_site_fract_x
 _atom_site_fract_y
 _atom_site_fract_z
 _atom_site_occupancy
  Ba  Ba0  1  0.26865500  0.26865500  0.33226000  1
  Ba  Ba1  1  0.73134500  0.73134500  0.66774000  1
  Ba  Ba2  1  0.39257400  0.39257400  0.95187400  1
  Ba  Ba3  1  0.60742600  0.60742600  0.04812600  1
  Cd  Cd4  1  0.04083700  0.04083700  0.68494000  1
  Cd  Cd5  1  0.95916300  0.95916300  0.31506000  1
  Cd  Cd6  1  0.41059000  0.41059000  0.65172900  1
  Cd  Cd7  1  0.58941000  0.58941000  0.34827100  1
  As  As8  1  0.07158700  0.07158700  0.88342500  1
  As  As9  1  0.92841300  0.92841300  0.11657500  1
  As  As10  1  0.15227300  0.15227300  0.19997500  1
  As  As11  1  0.84772700  0.84772700  0.80002500  1
  As  As12  1  0.38414300  0.38414300  0.46149100  1
  As  As13  1  0.61585700  0.61585700  0.53850900  1
