# generated using pymatgen
data_TbGa6
_symmetry_space_group_name_H-M   'P 1'
_cell_length_a   6.01778400
_cell_length_b   6.01778400
_cell_length_c   7.57096500
_cell_angle_alpha   90.00000000
_cell_angle_beta   90.00000000
_cell_angle_gamma   90.00000000
_symmetry_Int_Tables_number   1
_chemical_formula_structural   TbGa6
_chemical_formula_sum   'Tb2 Ga12'
_cell_volume   274.17283897
_cell_formula_units_Z   2
loop_
 _symmetry_equiv_pos_site_id
 _symmetry_equiv_pos_as_xyz
  1  'x, y, z'
loop_
 _atom_site_type_symbol
 _atom_site_label
 _atom_site_symmetry_multiplicity
 _atom_site_fract_x
 _atom_site_fract_y
 _atom_site_fract_z
 _atom_site_occupancy
  Tb  Tb0  1  0.50000000  0.00000000  0.00000000  1
  Tb  Tb1  1  0.00000000  0.50000000  0.00000000  1
  Ga  Ga2  1  0.50000000  0.50000000  0.16071600  1
  Ga  Ga3  1  0.00000000  0.00000000  0.16071600  1
  Ga  Ga4  1  0.00000000  0.00000000  0.83928400  1
  Ga  Ga5  1  0.50000000  0.50000000  0.83928400  1
  Ga  Ga6  1  0.80535400  0.69464600  0.34741000  1
  Ga  Ga7  1  0.30535400  0.80535400  0.34741000  1
  Ga  Ga8  1  0.69464600  0.19464600  0.34741000  1
  Ga  Ga9  1  0.19464600  0.30535400  0.34741000  1
  Ga  Ga10  1  0.69464600  0.80535400  0.65259000  1
  Ga  Ga11  1  0.19464600  0.69464600  0.65259000  1
  Ga  Ga12  1  0.80535400  0.30535400  0.65259000  1
  Ga  Ga13  1  0.30535400  0.19464600  0.65259000  1
