# generated using pymatgen
data_ReN2
_symmetry_space_group_name_H-M   'P 1'
_cell_length_a   2.89292800
_cell_length_b   4.23709400
_cell_length_c   5.10842795
_cell_angle_alpha   66.92815074
_cell_angle_beta   90.00000000
_cell_angle_gamma   90.00000000
_symmetry_Int_Tables_number   1
_chemical_formula_structural   ReN2
_chemical_formula_sum   'Re2 N4'
_cell_volume   57.60862417
_cell_formula_units_Z   2
loop_
 _symmetry_equiv_pos_site_id
 _symmetry_equiv_pos_as_xyz
  1  'x, y, z'
loop_
 _atom_site_type_symbol
 _atom_site_label
 _atom_site_symmetry_multiplicity
 _atom_site_fract_x
 _atom_site_fract_y
 _atom_site_fract_z
 _atom_site_occupancy
  Re  Re0  1  0.75000000  0.70596100  0.28371600  1
  Re  Re1  1  0.25000000  0.29403900  0.71628400  1
  N  N2  1  0.25000000  0.34543400  0.29549500  1
  N  N3  1  0.75000000  0.65456600  0.70450500  1
  N  N4  1  0.25000000  0.11047000  0.17065500  1
  N  N5  1  0.75000000  0.88953000  0.82934500  1
