# generated using pymatgen
data_Mg3Si2O9
_symmetry_space_group_name_H-M   'P 1'
_cell_length_a   5.42095712
_cell_length_b   5.42095712
_cell_length_c   7.33612241
_cell_angle_alpha   88.30372098
_cell_angle_beta   88.30372098
_cell_angle_gamma   120.25960232
_symmetry_Int_Tables_number   1
_chemical_formula_structural   Mg3Si2O9
_chemical_formula_sum   'Mg3 Si2 O9'
_cell_volume   185.88256101
_cell_formula_units_Z   1
loop_
 _symmetry_equiv_pos_site_id
 _symmetry_equiv_pos_as_xyz
  1  'x, y, z'
loop_
 _atom_site_type_symbol
 _atom_site_label
 _atom_site_symmetry_multiplicity
 _atom_site_fract_x
 _atom_site_fract_y
 _atom_site_fract_z
 _atom_site_occupancy
  Mg  Mg0  1  0.90152300  0.90152300  0.54659400  1
  Mg  Mg1  1  0.19002900  0.54620800  0.54960100  1
  Mg  Mg2  1  0.54620800  0.19002900  0.54960100  1
  Si  Si3  1  0.84761800  0.18061500  0.93476800  1
  Si  Si4  1  0.18061500  0.84761800  0.93476800  1
  O  O5  1  0.00708100  0.00708100  0.00622100  1
  O  O6  1  0.00911900  0.50805700  0.00657400  1
  O  O7  1  0.50805700  0.00911900  0.00657400  1
  O  O8  1  0.86653900  0.19907400  0.70912700  1
  O  O9  1  0.19907400  0.86653900  0.70912700  1
  O  O10  1  0.53724400  0.53724400  0.65466700  1
  O  O11  1  0.25324200  0.25324200  0.42413300  1
  O  O12  1  0.55538100  0.86327000  0.42412200  1
  O  O13  1  0.86327000  0.55538100  0.42412200  1
