# generated using pymatgen
data_Cs2NaTaF6
_symmetry_space_group_name_H-M   'P 1'
_cell_length_a   6.39424320
_cell_length_b   6.39424320
_cell_length_c   6.39424320
_cell_angle_alpha   121.96349609
_cell_angle_beta   117.21300224
_cell_angle_gamma   90.76328222
_symmetry_Int_Tables_number   1
_chemical_formula_structural   Cs2NaTaF6
_chemical_formula_sum   'Cs2 Na1 Ta1 F6'
_cell_volume   185.60344532
_cell_formula_units_Z   1
loop_
 _symmetry_equiv_pos_site_id
 _symmetry_equiv_pos_as_xyz
  1  'x, y, z'
loop_
 _atom_site_type_symbol
 _atom_site_label
 _atom_site_symmetry_multiplicity
 _atom_site_fract_x
 _atom_site_fract_y
 _atom_site_fract_z
 _atom_site_occupancy
  Cs  Cs0  1  0.74347400  0.74347400  0.00000000  1
  Cs  Cs1  1  0.25652600  0.25652600  0.00000000  1
  Na  Na2  1  0.00000000  0.50000000  0.50000000  1
  Ta  Ta3  1  0.50000000  0.00000000  0.50000000  1
  F  F4  1  0.74825800  0.78655600  0.53481500  1
  F  F5  1  0.25174200  0.78655600  0.03829800  1
  F  F6  1  0.25174200  0.21344400  0.46518500  1
  F  F7  1  0.26802700  0.76802700  0.50000000  1
  F  F8  1  0.73197300  0.23197300  0.50000000  1
  F  F9  1  0.74825800  0.21344400  0.96170200  1
