# generated using pymatgen
data_NaPrTiO4
_symmetry_space_group_name_H-M   'P 1'
_cell_length_a   3.77740600
_cell_length_b   3.77740600
_cell_length_c   13.10646500
_cell_angle_alpha   90.00000000
_cell_angle_beta   90.00000000
_cell_angle_gamma   90.00000000
_symmetry_Int_Tables_number   1
_chemical_formula_structural   NaPrTiO4
_chemical_formula_sum   'Na2 Pr2 Ti2 O8'
_cell_volume   187.01347653
_cell_formula_units_Z   2
loop_
 _symmetry_equiv_pos_site_id
 _symmetry_equiv_pos_as_xyz
  1  'x, y, z'
loop_
 _atom_site_type_symbol
 _atom_site_label
 _atom_site_symmetry_multiplicity
 _atom_site_fract_x
 _atom_site_fract_y
 _atom_site_fract_z
 _atom_site_occupancy
  Na  Na0  1  0.00000000  0.50000000  0.41513200  1
  Na  Na1  1  0.50000000  0.00000000  0.58486800  1
  Pr  Pr2  1  0.00000000  0.50000000  0.10878000  1
  Pr  Pr3  1  0.50000000  0.00000000  0.89122000  1
  Ti  Ti4  1  0.00000000  0.50000000  0.72848600  1
  Ti  Ti5  1  0.50000000  0.00000000  0.27151400  1
  O  O6  1  0.00000000  0.00000000  0.76475900  1
  O  O7  1  0.50000000  0.50000000  0.76475900  1
  O  O8  1  0.50000000  0.50000000  0.23524100  1
  O  O9  1  0.00000000  0.00000000  0.23524100  1
  O  O10  1  0.00000000  0.50000000  0.92939300  1
  O  O11  1  0.50000000  0.00000000  0.07060700  1
  O  O12  1  0.00000000  0.50000000  0.59376300  1
  O  O13  1  0.50000000  0.00000000  0.40623700  1
