# generated using pymatgen
data_Tb(Al2Cr)4
_symmetry_space_group_name_H-M   'P 1'
_cell_length_a   5.06066200
_cell_length_b   6.79356783
_cell_length_c   6.79356783
_cell_angle_alpha   82.02584988
_cell_angle_beta   68.13259949
_cell_angle_gamma   68.13259949
_symmetry_Int_Tables_number   1
_chemical_formula_structural   Tb(Al2Cr)4
_chemical_formula_sum   'Tb1 Al8 Cr4'
_cell_volume   201.16125809
_cell_formula_units_Z   1
loop_
 _symmetry_equiv_pos_site_id
 _symmetry_equiv_pos_as_xyz
  1  'x, y, z'
loop_
 _atom_site_type_symbol
 _atom_site_label
 _atom_site_symmetry_multiplicity
 _atom_site_fract_x
 _atom_site_fract_y
 _atom_site_fract_z
 _atom_site_occupancy
  Tb  Tb0  1  0.00000000  0.00000000  0.00000000  1
  Al  Al1  1  0.00000000  0.33645500  0.66354500  1
  Al  Al2  1  0.00000000  0.66354500  0.33645500  1
  Al  Al3  1  0.66354500  0.33645500  0.33645500  1
  Al  Al4  1  0.33645500  0.66354500  0.66354500  1
  Al  Al5  1  0.50000000  0.77675300  0.22324700  1
  Al  Al6  1  0.50000000  0.22324700  0.77675300  1
  Al  Al7  1  0.72324700  0.77675300  0.77675300  1
  Al  Al8  1  0.27675300  0.22324700  0.22324700  1
  Cr  Cr9  1  0.00000000  0.00000000  0.50000000  1
  Cr  Cr10  1  0.50000000  0.00000000  0.50000000  1
  Cr  Cr11  1  0.50000000  0.50000000  0.00000000  1
  Cr  Cr12  1  0.00000000  0.50000000  0.00000000  1
