# generated using pymatgen
data_Ca2WN2
_symmetry_space_group_name_H-M   'P 1'
_cell_length_a   5.32221500
_cell_length_b   6.25091700
_cell_length_c   6.58862429
_cell_angle_alpha   89.42309695
_cell_angle_beta   110.97406247
_cell_angle_gamma   115.06167088
_symmetry_Int_Tables_number   1
_chemical_formula_structural   Ca2WN2
_chemical_formula_sum   'Ca4 W2 N4'
_cell_volume   182.78765557
_cell_formula_units_Z   2
loop_
 _symmetry_equiv_pos_site_id
 _symmetry_equiv_pos_as_xyz
  1  'x, y, z'
loop_
 _atom_site_type_symbol
 _atom_site_label
 _atom_site_symmetry_multiplicity
 _atom_site_fract_x
 _atom_site_fract_y
 _atom_site_fract_z
 _atom_site_occupancy
  Ca  Ca0  1  0.08043900  0.41947700  0.77892500  1
  Ca  Ca1  1  0.91956100  0.58052300  0.22107500  1
  Ca  Ca2  1  0.29631200  0.21361700  0.33454000  1
  Ca  Ca3  1  0.70368800  0.78638300  0.66546000  1
  W  W4  1  0.40953600  0.06681400  0.81041800  1
  W  W5  1  0.59046400  0.93318600  0.18958200  1
  N  N6  1  0.58410500  0.38964600  0.77219000  1
  N  N7  1  0.41589500  0.61035400  0.22781000  1
  N  N8  1  0.17844800  0.79188300  0.60328200  1
  N  N9  1  0.82155200  0.20811700  0.39671800  1
