# generated using pymatgen
data_VPO5
_symmetry_space_group_name_H-M   'P 1'
_cell_length_a   5.61581778
_cell_length_b   5.61581778
_cell_length_c   6.26577047
_cell_angle_alpha   79.09965136
_cell_angle_beta   79.09965136
_cell_angle_gamma   67.73285177
_symmetry_Int_Tables_number   1
_chemical_formula_structural   VPO5
_chemical_formula_sum   'V2 P2 O10'
_cell_volume   178.06464471
_cell_formula_units_Z   2
loop_
 _symmetry_equiv_pos_site_id
 _symmetry_equiv_pos_as_xyz
  1  'x, y, z'
loop_
 _atom_site_type_symbol
 _atom_site_label
 _atom_site_symmetry_multiplicity
 _atom_site_fract_x
 _atom_site_fract_y
 _atom_site_fract_z
 _atom_site_occupancy
  V  V0  1  0.18841800  0.18841800  0.27589300  1
  V  V1  1  0.81158200  0.81158200  0.72410700  1
  P  P2  1  0.24825600  0.24825600  0.75028600  1
  P  P3  1  0.75174400  0.75174400  0.24971500  1
  O  O4  1  0.36307800  0.36307800  0.22648500  1
  O  O5  1  0.63692200  0.63692200  0.77351500  1
  O  O6  1  0.13749100  0.13749100  0.59755900  1
  O  O7  1  0.86250900  0.86250900  0.40244100  1
  O  O8  1  0.15094900  0.54820500  0.70787800  1
  O  O9  1  0.54820500  0.15094900  0.70787800  1
  O  O10  1  0.84905100  0.45179500  0.29212200  1
  O  O11  1  0.45179500  0.84905100  0.29212200  1
  O  O12  1  0.84568000  0.84568000  0.01184900  1
  O  O13  1  0.15432000  0.15432000  0.98815100  1
