# generated using pymatgen
data_NaTiF4
_symmetry_space_group_name_H-M   'P 1'
_cell_length_a   5.46626900
_cell_length_b   7.68947900
_cell_length_c   8.10829199
_cell_angle_alpha   78.52524073
_cell_angle_beta   90.00000000
_cell_angle_gamma   90.00000000
_symmetry_Int_Tables_number   1
_chemical_formula_structural   NaTiF4
_chemical_formula_sum   'Na4 Ti4 F16'
_cell_volume   334.00185783
_cell_formula_units_Z   4
loop_
 _symmetry_equiv_pos_site_id
 _symmetry_equiv_pos_as_xyz
  1  'x, y, z'
loop_
 _atom_site_type_symbol
 _atom_site_label
 _atom_site_symmetry_multiplicity
 _atom_site_fract_x
 _atom_site_fract_y
 _atom_site_fract_z
 _atom_site_occupancy
  Na  Na0  1  0.21972200  0.38871000  0.86502000  1
  Na  Na1  1  0.71972200  0.11129000  0.13498000  1
  Na  Na2  1  0.78027800  0.61129000  0.13498000  1
  Na  Na3  1  0.28027800  0.88871000  0.86502000  1
  Ti  Ti4  1  0.74270800  0.20113300  0.66987100  1
  Ti  Ti5  1  0.24270800  0.29886700  0.33012900  1
  Ti  Ti6  1  0.25729200  0.79886700  0.33012900  1
  Ti  Ti7  1  0.75729200  0.70113300  0.66987100  1
  F  F8  1  0.47746500  0.62427300  0.81051800  1
  F  F9  1  0.97746500  0.87572700  0.18948200  1
  F  F10  1  0.52253500  0.37572700  0.18948200  1
  F  F11  1  0.02253500  0.12427300  0.81051800  1
  F  F12  1  0.95746000  0.68796600  0.87171800  1
  F  F13  1  0.45746000  0.81203400  0.12828200  1
  F  F14  1  0.04254000  0.31203400  0.12828200  1
  F  F15  1  0.54254000  0.18796600  0.87171800  1
  F  F16  1  0.85580800  0.45039000  0.66956900  1
  F  F17  1  0.35580800  0.04961000  0.33043100  1
  F  F18  1  0.14419200  0.54961000  0.33043100  1
  F  F19  1  0.64419200  0.95039000  0.66956900  1
  F  F20  1  0.43847600  0.29332500  0.53918800  1
  F  F21  1  0.93847600  0.20667500  0.46081200  1
  F  F22  1  0.56152400  0.70667500  0.46081200  1
  F  F23  1  0.06152400  0.79332500  0.53918800  1
