# generated using pymatgen
data_PdSe2
_symmetry_space_group_name_H-M   'P 1'
_cell_length_a   5.75123100
_cell_length_b   5.89722200
_cell_length_c   20.19171232
_cell_angle_alpha   89.85094980
_cell_angle_beta   90.00000000
_cell_angle_gamma   90.00000000
_symmetry_Int_Tables_number   1
_chemical_formula_structural   PdSe2
_chemical_formula_sum   'Pd2 Se4'
_cell_volume   684.82557232
_cell_formula_units_Z   2
loop_
 _symmetry_equiv_pos_site_id
 _symmetry_equiv_pos_as_xyz
  1  'x, y, z'
loop_
 _atom_site_type_symbol
 _atom_site_label
 _atom_site_symmetry_multiplicity
 _atom_site_fract_x
 _atom_site_fract_y
 _atom_site_fract_z
 _atom_site_occupancy
  Pd  Pd0  1  0.00000000  0.50000000  0.00000000  1
  Pd  Pd1  1  0.50000000  0.00000000  0.00000000  1
  Se  Se2  1  0.61035100  0.61808500  0.96252600  1
  Se  Se3  1  0.88964900  0.11808500  0.96252600  1
  Se  Se4  1  0.38964900  0.38191500  0.03747400  1
  Se  Se5  1  0.11035100  0.88191500  0.03747400  1
