# generated using pymatgen
data_Er3Ga8Rh3
_symmetry_space_group_name_H-M   'P 1'
_cell_length_a   8.12823789
_cell_length_b   8.12823789
_cell_length_c   8.12823789
_cell_angle_alpha   150.10398995
_cell_angle_beta   105.21952524
_cell_angle_gamma   82.56221885
_symmetry_Int_Tables_number   1
_chemical_formula_structural   Er3Ga8Rh3
_chemical_formula_sum   'Er3 Ga8 Rh3'
_cell_volume   252.84305015
_cell_formula_units_Z   1
loop_
 _symmetry_equiv_pos_site_id
 _symmetry_equiv_pos_as_xyz
  1  'x, y, z'
loop_
 _atom_site_type_symbol
 _atom_site_label
 _atom_site_symmetry_multiplicity
 _atom_site_fract_x
 _atom_site_fract_y
 _atom_site_fract_z
 _atom_site_occupancy
  Er  Er0  1  0.50000000  0.50000000  0.00000000  1
  Er  Er1  1  0.17200900  0.17200900  0.00000000  1
  Er  Er2  1  0.82799100  0.82799100  0.00000000  1
  Ga  Ga3  1  0.09036600  0.37523100  0.71513500  1
  Ga  Ga4  1  0.90963400  0.62476900  0.28486500  1
  Ga  Ga5  1  0.66009700  0.37523100  0.28486500  1
  Ga  Ga6  1  0.33990300  0.62476900  0.71513500  1
  Ga  Ga7  1  0.79344000  0.16540500  0.62803500  1
  Ga  Ga8  1  0.20656000  0.83459500  0.37196500  1
  Ga  Ga9  1  0.53737000  0.16540500  0.37196500  1
  Ga  Ga10  1  0.46263000  0.83459500  0.62803500  1
  Rh  Rh11  1  0.00000000  0.50000000  0.50000000  1
  Rh  Rh12  1  0.78633200  0.00000000  0.78633200  1
  Rh  Rh13  1  0.21366800  0.00000000  0.21366800  1
