# generated using pymatgen
data_K3Bi2I9
_symmetry_space_group_name_H-M   'P 1'
_cell_length_a   8.43476678
_cell_length_b   8.43476678
_cell_length_c   21.76572310
_cell_angle_alpha   86.14543430
_cell_angle_beta   86.14543430
_cell_angle_gamma   119.30748466
_symmetry_Int_Tables_number   1
_chemical_formula_structural   K3Bi2I9
_chemical_formula_sum   'K6 Bi4 I18'
_cell_volume   1338.31854597
_cell_formula_units_Z   2
loop_
 _symmetry_equiv_pos_site_id
 _symmetry_equiv_pos_as_xyz
  1  'x, y, z'
loop_
 _atom_site_type_symbol
 _atom_site_label
 _atom_site_symmetry_multiplicity
 _atom_site_fract_x
 _atom_site_fract_y
 _atom_site_fract_z
 _atom_site_occupancy
  K  K0  1  0.98685200  0.01314800  0.25000000  1
  K  K1  1  0.69353300  0.34354400  0.55723400  1
  K  K2  1  0.01314800  0.98685200  0.75000000  1
  K  K3  1  0.34354400  0.69353300  0.05723400  1
  K  K4  1  0.30646700  0.65645600  0.44276600  1
  K  K5  1  0.65645600  0.30646700  0.94276600  1
  Bi  Bi6  1  0.63215500  0.30171200  0.15691700  1
  Bi  Bi7  1  0.36784500  0.69828800  0.84308300  1
  Bi  Bi8  1  0.30171200  0.63215500  0.65691700  1
  Bi  Bi9  1  0.69828800  0.36784500  0.34308300  1
  I  I10  1  0.61431600  0.77666100  0.55919900  1
  I  I11  1  0.38568400  0.22333900  0.44080100  1
  I  I12  1  0.50400200  0.99212000  0.27966000  1
  I  I13  1  0.23538200  0.90434300  0.91881200  1
  I  I14  1  0.90434300  0.23538200  0.41881200  1
  I  I15  1  0.77666100  0.61431600  0.05919900  1
  I  I16  1  0.76461800  0.09565700  0.08118800  1
  I  I17  1  0.26459800  0.10531200  0.10817800  1
  I  I18  1  0.49599800  0.00788000  0.72034000  1
  I  I19  1  0.00788000  0.49599800  0.22034000  1
  I  I20  1  0.09565700  0.76461800  0.58118800  1
  I  I21  1  0.99212000  0.50400200  0.77966000  1
  I  I22  1  0.49718400  0.50281600  0.25000000  1
  I  I23  1  0.89468800  0.73540200  0.39182200  1
  I  I24  1  0.10531200  0.26459800  0.60817800  1
  I  I25  1  0.73540200  0.89468800  0.89182200  1
  I  I26  1  0.50281600  0.49718400  0.75000000  1
  I  I27  1  0.22333900  0.38568400  0.94080100  1
