# generated using pymatgen
data_Ti2ZnSnO6
_symmetry_space_group_name_H-M   'P 1'
_cell_length_a   7.62804900
_cell_length_b   7.62804900
_cell_length_c   7.74790300
_cell_angle_alpha   90.00000000
_cell_angle_beta   90.00000000
_cell_angle_gamma   90.00000000
_symmetry_Int_Tables_number   1
_chemical_formula_structural   Ti2ZnSnO6
_chemical_formula_sum   'Ti8 Zn4 Sn4 O24'
_cell_volume   450.82825107
_cell_formula_units_Z   4
loop_
 _symmetry_equiv_pos_site_id
 _symmetry_equiv_pos_as_xyz
  1  'x, y, z'
loop_
 _atom_site_type_symbol
 _atom_site_label
 _atom_site_symmetry_multiplicity
 _atom_site_fract_x
 _atom_site_fract_y
 _atom_site_fract_z
 _atom_site_occupancy
  Ti  Ti0  1  0.75000000  0.25000000  0.25000000  1
  Ti  Ti1  1  0.25000000  0.25000000  0.25000000  1
  Ti  Ti2  1  0.75000000  0.75000000  0.25000000  1
  Ti  Ti3  1  0.25000000  0.75000000  0.25000000  1
  Ti  Ti4  1  0.75000000  0.25000000  0.75000000  1
  Ti  Ti5  1  0.25000000  0.25000000  0.75000000  1
  Ti  Ti6  1  0.75000000  0.75000000  0.75000000  1
  Ti  Ti7  1  0.25000000  0.75000000  0.75000000  1
  Zn  Zn8  1  0.00000000  0.00000000  0.00000000  1
  Zn  Zn9  1  0.50000000  0.50000000  0.50000000  1
  Zn  Zn10  1  0.00000000  0.00000000  0.50000000  1
  Zn  Zn11  1  0.50000000  0.50000000  0.00000000  1
  Sn  Sn12  1  0.00000000  0.50000000  0.02226700  1
  Sn  Sn13  1  0.00000000  0.50000000  0.52226700  1
  Sn  Sn14  1  0.50000000  0.00000000  0.47773300  1
  Sn  Sn15  1  0.50000000  0.00000000  0.97773300  1
  O  O16  1  0.00000000  0.69904800  0.78590900  1
  O  O17  1  0.00000000  0.30095200  0.78590900  1
  O  O18  1  0.19904800  0.50000000  0.28590900  1
  O  O19  1  0.80095200  0.50000000  0.28590900  1
  O  O20  1  0.50000000  0.80095200  0.71409100  1
  O  O21  1  0.50000000  0.19904800  0.71409100  1
  O  O22  1  0.30095200  0.00000000  0.21409100  1
  O  O23  1  0.69904800  0.00000000  0.21409100  1
  O  O24  1  0.30041000  0.50000000  0.68088400  1
  O  O25  1  0.69959000  0.50000000  0.68088400  1
  O  O26  1  0.00000000  0.80041000  0.18088400  1
  O  O27  1  0.00000000  0.19959000  0.18088400  1
  O  O28  1  0.19959000  0.00000000  0.81911600  1
  O  O29  1  0.80041000  0.00000000  0.81911600  1
  O  O30  1  0.50000000  0.69959000  0.31911600  1
  O  O31  1  0.50000000  0.30041000  0.31911600  1
  O  O32  1  0.69353200  0.69353200  0.00000000  1
  O  O33  1  0.30646800  0.69353200  0.00000000  1
  O  O34  1  0.69353200  0.30646800  0.00000000  1
  O  O35  1  0.30646800  0.30646800  0.00000000  1
  O  O36  1  0.19353200  0.19353200  0.50000000  1
  O  O37  1  0.80646800  0.19353200  0.50000000  1
  O  O38  1  0.19353200  0.80646800  0.50000000  1
  O  O39  1  0.80646800  0.80646800  0.50000000  1
