# generated using pymatgen
data_Cu2SeS3
_symmetry_space_group_name_H-M   'P 1'
_cell_length_a   6.26153047
_cell_length_b   6.26153047
_cell_length_c   7.19019343
_cell_angle_alpha   81.95915998
_cell_angle_beta   81.95915998
_cell_angle_gamma   119.18800788
_symmetry_Int_Tables_number   1
_chemical_formula_structural   Cu2SeS3
_chemical_formula_sum   'Cu4 Se2 S6'
_cell_volume   236.52336373
_cell_formula_units_Z   2
loop_
 _symmetry_equiv_pos_site_id
 _symmetry_equiv_pos_as_xyz
  1  'x, y, z'
loop_
 _atom_site_type_symbol
 _atom_site_label
 _atom_site_symmetry_multiplicity
 _atom_site_fract_x
 _atom_site_fract_y
 _atom_site_fract_z
 _atom_site_occupancy
  Cu  Cu0  1  0.45313300  0.59614900  0.98754600  1
  Cu  Cu1  1  0.25052300  0.74387300  0.49400400  1
  Cu  Cu2  1  0.59614900  0.45313300  0.48754600  1
  Cu  Cu3  1  0.74387300  0.25052300  0.99400400  1
  Se  Se4  1  0.89920500  0.11494300  0.49300000  1
  Se  Se5  1  0.11494300  0.89920500  0.99300000  1
  S  S6  1  0.22486700  0.08875500  0.55134800  1
  S  S7  1  0.08875500  0.22486700  0.05134800  1
  S  S8  1  0.39333000  0.86201600  0.15369900  1
  S  S9  1  0.86201600  0.39333000  0.65369900  1
  S  S10  1  0.72621200  0.54159200  0.14940200  1
  S  S11  1  0.54159200  0.72621200  0.64940200  1
