# generated using pymatgen
data_Br
_symmetry_space_group_name_H-M   'P 1'
_cell_length_a   19.74547465
_cell_length_b   17.49476963
_cell_length_c   13.53304516
_cell_angle_alpha   77.89146484
_cell_angle_beta   60.03172132
_cell_angle_gamma   42.07681384
_symmetry_Int_Tables_number   1
_chemical_formula_structural   Br
_chemical_formula_sum   Br32
_cell_volume   2607.46162381
_cell_formula_units_Z   32
loop_
 _symmetry_equiv_pos_site_id
 _symmetry_equiv_pos_as_xyz
  1  'x, y, z'
loop_
 _atom_site_type_symbol
 _atom_site_label
 _atom_site_symmetry_multiplicity
 _atom_site_fract_x
 _atom_site_fract_y
 _atom_site_fract_z
 _atom_site_occupancy
  Br  Br0  1  0.32772300  0.30640500  0.26306700  1
  Br  Br1  1  0.10280400  0.26306700  0.30640500  1
  Br  Br2  1  0.26306700  0.10280400  0.32772300  1
  Br  Br3  1  0.30640500  0.32772300  0.10280400  1
  Br  Br4  1  0.92227700  0.94359500  0.98693300  1
  Br  Br5  1  0.14719600  0.98693300  0.94359500  1
  Br  Br6  1  0.98693300  0.14719600  0.92227700  1
  Br  Br7  1  0.94359500  0.92227700  0.14719600  1
  Br  Br8  1  0.33762300  0.43876300  0.41292400  1
  Br  Br9  1  0.81069000  0.41292400  0.43876300  1
  Br  Br10  1  0.41292400  0.81069000  0.33762300  1
  Br  Br11  1  0.43876300  0.33762300  0.81069000  1
  Br  Br12  1  0.91237700  0.81123700  0.83707600  1
  Br  Br13  1  0.43931000  0.83707600  0.81123700  1
  Br  Br14  1  0.83707600  0.43931000  0.91237700  1
  Br  Br15  1  0.81123700  0.91237700  0.43931000  1
  Br  Br16  1  0.49835900  0.39641800  0.34205700  1
  Br  Br17  1  0.76316600  0.34205700  0.39641800  1
  Br  Br18  1  0.34205700  0.76316600  0.49835900  1
  Br  Br19  1  0.39641800  0.49835900  0.76316600  1
  Br  Br20  1  0.75164100  0.85358200  0.90794300  1
  Br  Br21  1  0.48683400  0.90794300  0.85358200  1
  Br  Br22  1  0.90794300  0.48683400  0.75164100  1
  Br  Br23  1  0.85358200  0.75164100  0.48683400  1
  Br  Br24  1  0.50591300  0.52197800  0.07473200  1
  Br  Br25  1  0.89737800  0.07473200  0.52197800  1
  Br  Br26  1  0.07473200  0.89737800  0.50591300  1
  Br  Br27  1  0.52197800  0.50591300  0.89737800  1
  Br  Br28  1  0.74408700  0.72802200  0.17526800  1
  Br  Br29  1  0.35262200  0.17526800  0.72802200  1
  Br  Br30  1  0.17526800  0.35262200  0.74408700  1
  Br  Br31  1  0.72802200  0.74408700  0.35262200  1
