# generated using pymatgen
data_YAl
_symmetry_space_group_name_H-M   'P 1'
_cell_length_a   6.08344005
_cell_length_b   6.08344005
_cell_length_c   4.48258600
_cell_angle_alpha   90.00000000
_cell_angle_beta   90.00000000
_cell_angle_gamma   143.27590376
_symmetry_Int_Tables_number   1
_chemical_formula_structural   YAl
_chemical_formula_sum   'Y2 Al2'
_cell_volume   99.19753738
_cell_formula_units_Z   2
loop_
 _symmetry_equiv_pos_site_id
 _symmetry_equiv_pos_as_xyz
  1  'x, y, z'
loop_
 _atom_site_type_symbol
 _atom_site_label
 _atom_site_symmetry_multiplicity
 _atom_site_fract_x
 _atom_site_fract_y
 _atom_site_fract_z
 _atom_site_occupancy
  Y  Y0  1  0.64973800  0.35026200  0.75000000  1
  Y  Y1  1  0.35026200  0.64973800  0.25000000  1
  Al  Al2  1  0.93021200  0.06978800  0.75000000  1
  Al  Al3  1  0.06978800  0.93021200  0.25000000  1
