# generated using pymatgen
data_PtS2(NO2)4
_symmetry_space_group_name_H-M   'P 1'
_cell_length_a   6.64606569
_cell_length_b   6.64606569
_cell_length_c   6.07846144
_cell_angle_alpha   73.20714777
_cell_angle_beta   73.20714777
_cell_angle_gamma   71.38946466
_symmetry_Int_Tables_number   1
_chemical_formula_structural   PtS2(NO2)4
_chemical_formula_sum   'Pt1 S2 N4 O8'
_cell_volume   237.80253207
_cell_formula_units_Z   1
loop_
 _symmetry_equiv_pos_site_id
 _symmetry_equiv_pos_as_xyz
  1  'x, y, z'
loop_
 _atom_site_type_symbol
 _atom_site_label
 _atom_site_symmetry_multiplicity
 _atom_site_fract_x
 _atom_site_fract_y
 _atom_site_fract_z
 _atom_site_occupancy
  Pt  Pt0  1  0.00000000  0.00000000  0.00000000  1
  S  S1  1  0.70390300  0.70390300  0.36377300  1
  S  S2  1  0.29609700  0.29609700  0.63622700  1
  N  N3  1  0.73842500  0.26157500  0.00000000  1
  N  N4  1  0.26157500  0.73842500  0.00000000  1
  N  N5  1  0.86782100  0.86782100  0.82551000  1
  N  N6  1  0.13217900  0.13217900  0.17449000  1
  O  O7  1  0.52117200  0.83269000  0.25068200  1
  O  O8  1  0.47882800  0.16731000  0.74931800  1
  O  O9  1  0.16731000  0.47882800  0.74931800  1
  O  O10  1  0.83269000  0.52117200  0.25068200  1
  O  O11  1  0.85756800  0.85756800  0.32371700  1
  O  O12  1  0.14243200  0.14243200  0.67628300  1
  O  O13  1  0.64003400  0.64003400  0.61906300  1
  O  O14  1  0.35996600  0.35996600  0.38093700  1
