# generated using pymatgen
data_MgV(SiO3)2
_symmetry_space_group_name_H-M   'P 1'
_cell_length_a   6.78723336
_cell_length_b   10.86000440
_cell_length_c   6.79258687
_cell_angle_alpha   75.35709726
_cell_angle_beta   85.71350046
_cell_angle_gamma   75.00265726
_symmetry_Int_Tables_number   1
_chemical_formula_structural   MgV(SiO3)2
_chemical_formula_sum   'Mg4 V4 Si8 O24'
_cell_volume   467.89192211
_cell_formula_units_Z   4
loop_
 _symmetry_equiv_pos_site_id
 _symmetry_equiv_pos_as_xyz
  1  'x, y, z'
loop_
 _atom_site_type_symbol
 _atom_site_label
 _atom_site_symmetry_multiplicity
 _atom_site_fract_x
 _atom_site_fract_y
 _atom_site_fract_z
 _atom_site_occupancy
  Mg  Mg0  1  0.75528900  0.37439800  0.24297500  1
  Mg  Mg1  1  0.75523700  0.87434200  0.24305100  1
  Mg  Mg2  1  0.24471100  0.12560100  0.75701200  1
  Mg  Mg3  1  0.24476400  0.62565400  0.75695900  1
  V  V4  1  0.90364400  0.62365900  0.09491900  1
  V  V5  1  0.09634100  0.87635200  0.90509900  1
  V  V6  1  0.90330400  0.12367000  0.09507800  1
  V  V7  1  0.09670100  0.37632700  0.90491000  1
  Si  Si8  1  0.38605700  0.10992100  0.21281600  1
  Si  Si9  1  0.38612500  0.60996300  0.21277300  1
  Si  Si10  1  0.78737400  0.14005100  0.61183400  1
  Si  Si11  1  0.78750200  0.64003000  0.61186900  1
  Si  Si12  1  0.21262600  0.35995000  0.38815300  1
  Si  Si13  1  0.21249900  0.85996800  0.38814200  1
  Si  Si14  1  0.61393900  0.39007800  0.78717800  1
  Si  Si15  1  0.61388100  0.89003800  0.78723200  1
  O  O16  1  0.36437100  0.22289400  0.34252200  1
  O  O17  1  0.36431900  0.72291300  0.34255400  1
  O  O18  1  0.65857600  0.02675500  0.63624400  1
  O  O19  1  0.65863500  0.52677500  0.63620000  1
  O  O20  1  0.63563300  0.27710900  0.65746500  1
  O  O21  1  0.63568500  0.77708900  0.65745000  1
  O  O22  1  0.34142200  0.47324700  0.36375500  1
  O  O23  1  0.34135600  0.97322900  0.36380700  1
  O  O24  1  0.61962600  0.06466400  0.13860300  1
  O  O25  1  0.61972400  0.56470200  0.13865000  1
  O  O26  1  0.85918300  0.18429200  0.37804300  1
  O  O27  1  0.85933900  0.68424400  0.37808000  1
  O  O28  1  0.38037100  0.43533000  0.86140200  1
  O  O29  1  0.38028200  0.93530000  0.86135500  1
  O  O30  1  0.14081300  0.31570800  0.62194400  1
  O  O31  1  0.14066800  0.81575300  0.62193200  1
  O  O32  1  0.03136500  0.41657900  0.21702400  1
  O  O33  1  0.03124300  0.91667300  0.21699500  1
  O  O34  1  0.78682500  0.33195400  0.96685900  1
  O  O35  1  0.78675800  0.83189900  0.96692900  1
  O  O36  1  0.21317300  0.16804300  0.03313400  1
  O  O37  1  0.21324800  0.66810200  0.03307600  1
  O  O38  1  0.96863500  0.08342000  0.78296500  1
  O  O39  1  0.96875500  0.58332400  0.78301700  1
