# generated using pymatgen
data_K2HgS4
_symmetry_space_group_name_H-M   'P 1'
_cell_length_a   6.03744105
_cell_length_b   6.03744105
_cell_length_c   11.66788804
_cell_angle_alpha   75.58546983
_cell_angle_beta   75.58546983
_cell_angle_gamma   85.66210357
_symmetry_Int_Tables_number   1
_chemical_formula_structural   K2HgS4
_chemical_formula_sum   'K4 Hg2 S8'
_cell_volume   398.90472885
_cell_formula_units_Z   2
loop_
 _symmetry_equiv_pos_site_id
 _symmetry_equiv_pos_as_xyz
  1  'x, y, z'
loop_
 _atom_site_type_symbol
 _atom_site_label
 _atom_site_symmetry_multiplicity
 _atom_site_fract_x
 _atom_site_fract_y
 _atom_site_fract_z
 _atom_site_occupancy
  K  K0  1  0.32303000  0.76123800  0.02657100  1
  K  K1  1  0.23876200  0.67697000  0.47342900  1
  K  K2  1  0.67697000  0.23876200  0.97342900  1
  K  K3  1  0.76123800  0.32303000  0.52657100  1
  Hg  Hg4  1  0.11720700  0.88279300  0.75000000  1
  Hg  Hg5  1  0.88279300  0.11720700  0.25000000  1
  S  S6  1  0.19249000  0.34017800  0.90957800  1
  S  S7  1  0.65982200  0.80751000  0.59042200  1
  S  S8  1  0.80751000  0.65982200  0.09042200  1
  S  S9  1  0.34017800  0.19249000  0.40957800  1
  S  S10  1  0.83574100  0.64055600  0.72180500  1
  S  S11  1  0.35944400  0.16425900  0.77819500  1
  S  S12  1  0.16425900  0.35944400  0.27819500  1
  S  S13  1  0.64055600  0.83574100  0.22180500  1
