# generated using pymatgen
data_Cr(Si2O5)2
_symmetry_space_group_name_H-M   'P 1'
_cell_length_a   7.52688500
_cell_length_b   7.52688500
_cell_length_c   16.19972200
_cell_angle_alpha   90.00000000
_cell_angle_beta   90.00000000
_cell_angle_gamma   90.00000000
_symmetry_Int_Tables_number   1
_chemical_formula_structural   Cr(Si2O5)2
_chemical_formula_sum   'Cr4 Si16 O40'
_cell_volume   917.77901460
_cell_formula_units_Z   4
loop_
 _symmetry_equiv_pos_site_id
 _symmetry_equiv_pos_as_xyz
  1  'x, y, z'
loop_
 _atom_site_type_symbol
 _atom_site_label
 _atom_site_symmetry_multiplicity
 _atom_site_fract_x
 _atom_site_fract_y
 _atom_site_fract_z
 _atom_site_occupancy
  Cr  Cr0  1  0.50000000  0.00000000  0.08958900  1
  Cr  Cr1  1  0.00000000  0.50000000  0.41041100  1
  Cr  Cr2  1  0.00000000  0.50000000  0.91041100  1
  Cr  Cr3  1  0.50000000  0.00000000  0.58958900  1
  Si  Si4  1  0.18337600  0.26926700  0.65360800  1
  Si  Si5  1  0.81662400  0.73073300  0.65360800  1
  Si  Si6  1  0.26926700  0.18337600  0.84639200  1
  Si  Si7  1  0.76926700  0.31662400  0.65360800  1
  Si  Si8  1  0.23073300  0.68337600  0.65360800  1
  Si  Si9  1  0.31662400  0.76926700  0.84639200  1
  Si  Si10  1  0.68337600  0.23073300  0.84639200  1
  Si  Si11  1  0.73073300  0.81662400  0.84639200  1
  Si  Si12  1  0.31662400  0.23073300  0.34639200  1
  Si  Si13  1  0.68337600  0.76926700  0.34639200  1
  Si  Si14  1  0.23073300  0.31662400  0.15360800  1
  Si  Si15  1  0.73073300  0.18337600  0.34639200  1
  Si  Si16  1  0.26926700  0.81662400  0.34639200  1
  Si  Si17  1  0.18337600  0.73073300  0.15360800  1
  Si  Si18  1  0.81662400  0.26926700  0.15360800  1
  Si  Si19  1  0.76926700  0.68337600  0.15360800  1
  O  O20  1  0.29286800  0.13062300  0.59652400  1
  O  O21  1  0.70713200  0.86937700  0.59652400  1
  O  O22  1  0.13062300  0.29286800  0.90347600  1
  O  O23  1  0.63062300  0.20713200  0.59652400  1
  O  O24  1  0.36937700  0.79286800  0.59652400  1
  O  O25  1  0.20713200  0.63062300  0.90347600  1
  O  O26  1  0.79286800  0.36937700  0.90347600  1
  O  O27  1  0.86937700  0.70713200  0.90347600  1
  O  O28  1  0.20713200  0.36937700  0.40347600  1
  O  O29  1  0.79286800  0.63062300  0.40347600  1
  O  O30  1  0.36937700  0.20713200  0.09652400  1
  O  O31  1  0.86937700  0.29286800  0.40347600  1
  O  O32  1  0.13062300  0.70713200  0.40347600  1
  O  O33  1  0.29286800  0.86937700  0.09652400  1
  O  O34  1  0.70713200  0.13062300  0.09652400  1
  O  O35  1  0.25195200  0.02824300  0.36514400  1
  O  O36  1  0.63062300  0.79286800  0.09652400  1
  O  O37  1  0.75195200  0.52824300  0.63485600  1
  O  O38  1  0.47175700  0.24804800  0.86514400  1
  O  O39  1  0.97175700  0.25195200  0.63485600  1
  O  O40  1  0.02824300  0.74804800  0.63485600  1
  O  O41  1  0.25195200  0.97175700  0.86514400  1
  O  O42  1  0.74804800  0.02824300  0.86514400  1
  O  O43  1  0.52824300  0.75195200  0.86514400  1
  O  O44  1  0.72009800  0.72009800  0.25000000  1
  O  O45  1  0.77990200  0.22009800  0.25000000  1
  O  O46  1  0.22009800  0.77990200  0.25000000  1
  O  O47  1  0.27990200  0.27990200  0.25000000  1
  O  O48  1  0.77990200  0.77990200  0.75000000  1
  O  O49  1  0.72009800  0.27990200  0.75000000  1
  O  O50  1  0.27990200  0.72009800  0.75000000  1
  O  O51  1  0.22009800  0.22009800  0.75000000  1
  O  O52  1  0.97175700  0.74804800  0.13485600  1
  O  O53  1  0.75195200  0.47175700  0.13485600  1
  O  O54  1  0.24804800  0.52824300  0.13485600  1
  O  O55  1  0.47175700  0.75195200  0.36514400  1
  O  O56  1  0.52824300  0.24804800  0.36514400  1
  O  O57  1  0.02824300  0.25195200  0.13485600  1
  O  O58  1  0.74804800  0.97175700  0.36514400  1
  O  O59  1  0.24804800  0.47175700  0.63485600  1
