# generated using pymatgen
data_Co(Si2O5)2
_symmetry_space_group_name_H-M   'P 1'
_cell_length_a   7.28930800
_cell_length_b   7.28930800
_cell_length_c   15.75754900
_cell_angle_alpha   90.00000000
_cell_angle_beta   90.00000000
_cell_angle_gamma   90.00000000
_symmetry_Int_Tables_number   1
_chemical_formula_structural   Co(Si2O5)2
_chemical_formula_sum   'Co4 Si16 O40'
_cell_volume   837.26178377
_cell_formula_units_Z   4
loop_
 _symmetry_equiv_pos_site_id
 _symmetry_equiv_pos_as_xyz
  1  'x, y, z'
loop_
 _atom_site_type_symbol
 _atom_site_label
 _atom_site_symmetry_multiplicity
 _atom_site_fract_x
 _atom_site_fract_y
 _atom_site_fract_z
 _atom_site_occupancy
  Co  Co0  1  0.50000000  0.00000000  0.58947300  1
  Co  Co1  1  0.00000000  0.50000000  0.91052700  1
  Co  Co2  1  0.00000000  0.50000000  0.41052700  1
  Co  Co3  1  0.50000000  0.00000000  0.08947300  1
  Si  Si4  1  0.17807400  0.25541700  0.65006100  1
  Si  Si5  1  0.82192600  0.74458300  0.65006100  1
  Si  Si6  1  0.25541700  0.17807400  0.84993900  1
  Si  Si7  1  0.75541700  0.32192600  0.65006100  1
  Si  Si8  1  0.24458300  0.67807400  0.65006100  1
  Si  Si9  1  0.32192600  0.75541700  0.84993900  1
  Si  Si10  1  0.67807400  0.24458300  0.84993900  1
  Si  Si11  1  0.74458300  0.82192600  0.84993900  1
  Si  Si12  1  0.32192600  0.24458300  0.34993900  1
  Si  Si13  1  0.67807400  0.75541700  0.34993900  1
  Si  Si14  1  0.24458300  0.32192600  0.15006100  1
  Si  Si15  1  0.74458300  0.17807400  0.34993900  1
  Si  Si16  1  0.25541700  0.82192600  0.34993900  1
  Si  Si17  1  0.17807400  0.74458300  0.15006100  1
  Si  Si18  1  0.82192600  0.25541700  0.15006100  1
  Si  Si19  1  0.75541700  0.67807400  0.15006100  1
  O  O20  1  0.27644600  0.09688000  0.59249200  1
  O  O21  1  0.72355400  0.90312000  0.59249200  1
  O  O22  1  0.09688000  0.27644600  0.90750800  1
  O  O23  1  0.59688000  0.22355400  0.59249200  1
  O  O24  1  0.40312000  0.77644600  0.59249200  1
  O  O25  1  0.22355400  0.59688000  0.90750800  1
  O  O26  1  0.77644600  0.40312000  0.90750800  1
  O  O27  1  0.90312000  0.72355400  0.90750800  1
  O  O28  1  0.22355400  0.40312000  0.40750800  1
  O  O29  1  0.77644600  0.59688000  0.40750800  1
  O  O30  1  0.40312000  0.22355400  0.09249200  1
  O  O31  1  0.90312000  0.27644600  0.40750800  1
  O  O32  1  0.09688000  0.72355400  0.40750800  1
  O  O33  1  0.27644600  0.90312000  0.09249200  1
  O  O34  1  0.72355400  0.09688000  0.09249200  1
  O  O35  1  0.24591800  0.03996700  0.37144100  1
  O  O36  1  0.59688000  0.77644600  0.09249200  1
  O  O37  1  0.74591800  0.53996700  0.62855900  1
  O  O38  1  0.46003300  0.25408200  0.87144100  1
  O  O39  1  0.96003300  0.24591800  0.62855900  1
  O  O40  1  0.03996700  0.75408200  0.62855900  1
  O  O41  1  0.24591800  0.96003300  0.87144100  1
  O  O42  1  0.75408200  0.03996700  0.87144100  1
  O  O43  1  0.53996700  0.74591800  0.87144100  1
  O  O44  1  0.71183100  0.71183100  0.25000000  1
  O  O45  1  0.78816900  0.21183100  0.25000000  1
  O  O46  1  0.21183100  0.78816900  0.25000000  1
  O  O47  1  0.28816900  0.28816900  0.25000000  1
  O  O48  1  0.78816900  0.78816900  0.75000000  1
  O  O49  1  0.71183100  0.28816900  0.75000000  1
  O  O50  1  0.28816900  0.71183100  0.75000000  1
  O  O51  1  0.21183100  0.21183100  0.75000000  1
  O  O52  1  0.96003300  0.75408200  0.12855900  1
  O  O53  1  0.74591800  0.46003300  0.12855900  1
  O  O54  1  0.25408200  0.53996700  0.12855900  1
  O  O55  1  0.46003300  0.74591800  0.37144100  1
  O  O56  1  0.53996700  0.25408200  0.37144100  1
  O  O57  1  0.03996700  0.24591800  0.12855900  1
  O  O58  1  0.75408200  0.96003300  0.37144100  1
  O  O59  1  0.25408200  0.46003300  0.62855900  1
