# generated using pymatgen
data_Si2MoO6
_symmetry_space_group_name_H-M   'P 1'
_cell_length_a   6.63714650
_cell_length_b   6.63714650
_cell_length_c   5.45538953
_cell_angle_alpha   76.25133512
_cell_angle_beta   76.25133512
_cell_angle_gamma   85.14083757
_symmetry_Int_Tables_number   1
_chemical_formula_structural   Si2MoO6
_chemical_formula_sum   'Si4 Mo2 O12'
_cell_volume   226.64364316
_cell_formula_units_Z   2
loop_
 _symmetry_equiv_pos_site_id
 _symmetry_equiv_pos_as_xyz
  1  'x, y, z'
loop_
 _atom_site_type_symbol
 _atom_site_label
 _atom_site_symmetry_multiplicity
 _atom_site_fract_x
 _atom_site_fract_y
 _atom_site_fract_z
 _atom_site_occupancy
  Si  Si0  1  0.78074000  0.61411500  0.26001400  1
  Si  Si1  1  0.38588500  0.21926000  0.23998600  1
  Si  Si2  1  0.61411500  0.78074000  0.76001400  1
  Si  Si3  1  0.21926000  0.38588500  0.73998600  1
  Mo  Mo4  1  0.89971400  0.10028600  0.25000000  1
  Mo  Mo5  1  0.10028600  0.89971400  0.75000000  1
  O  O6  1  0.65146200  0.63635900  0.03358200  1
  O  O7  1  0.36364100  0.34853800  0.46641800  1
  O  O8  1  0.34853800  0.36364100  0.96641800  1
  O  O9  1  0.63635900  0.65146200  0.53358200  1
  O  O10  1  0.88905500  0.38463300  0.30464800  1
  O  O11  1  0.61536700  0.11094500  0.19535200  1
  O  O12  1  0.11094500  0.61536700  0.69535200  1
  O  O13  1  0.38463300  0.88905500  0.80464800  1
  O  O14  1  0.80666800  0.94991500  0.65202600  1
  O  O15  1  0.05008500  0.19333200  0.84797400  1
  O  O16  1  0.94991500  0.80666800  0.15202600  1
  O  O17  1  0.19333200  0.05008500  0.34797400  1
