# generated using pymatgen
data_FeSiO4
_symmetry_space_group_name_H-M   'P 1'
_cell_length_a   9.98225741
_cell_length_b   9.98225741
_cell_length_c   9.98225741
_cell_angle_alpha   109.47122063
_cell_angle_beta   109.47122063
_cell_angle_gamma   109.47122063
_symmetry_Int_Tables_number   1
_chemical_formula_structural   FeSiO4
_chemical_formula_sum   'Fe12 Si12 O48'
_cell_volume   765.71014785
_cell_formula_units_Z   12
loop_
 _symmetry_equiv_pos_site_id
 _symmetry_equiv_pos_as_xyz
  1  'x, y, z'
loop_
 _atom_site_type_symbol
 _atom_site_label
 _atom_site_symmetry_multiplicity
 _atom_site_fract_x
 _atom_site_fract_y
 _atom_site_fract_z
 _atom_site_occupancy
  Fe  Fe0  1  0.75000000  0.62500000  0.87500000  1
  Fe  Fe1  1  0.25000000  0.87500000  0.62500000  1
  Fe  Fe2  1  0.62500000  0.25000000  0.87500000  1
  Fe  Fe3  1  0.87500000  0.75000000  0.62500000  1
  Fe  Fe4  1  0.87500000  0.62500000  0.25000000  1
  Fe  Fe5  1  0.62500000  0.87500000  0.75000000  1
  Fe  Fe6  1  0.25000000  0.37500000  0.12500000  1
  Fe  Fe7  1  0.75000000  0.12500000  0.37500000  1
  Fe  Fe8  1  0.37500000  0.75000000  0.12500000  1
  Fe  Fe9  1  0.12500000  0.25000000  0.37500000  1
  Fe  Fe10  1  0.12500000  0.37500000  0.75000000  1
  Fe  Fe11  1  0.37500000  0.12500000  0.25000000  1
  Si  Si12  1  0.12500000  0.75000000  0.87500000  1
  Si  Si13  1  0.75000000  0.87500000  0.12500000  1
  Si  Si14  1  0.25000000  0.62500000  0.37500000  1
  Si  Si15  1  0.62500000  0.75000000  0.37500000  1
  Si  Si16  1  0.87500000  0.12500000  0.75000000  1
  Si  Si17  1  0.37500000  0.25000000  0.62500000  1
  Si  Si18  1  0.37500000  0.62500000  0.75000000  1
  Si  Si19  1  0.25000000  0.12500000  0.87500000  1
  Si  Si20  1  0.62500000  0.37500000  0.25000000  1
  Si  Si21  1  0.12500000  0.87500000  0.25000000  1
  Si  Si22  1  0.75000000  0.37500000  0.62500000  1
  Si  Si23  1  0.87500000  0.25000000  0.12500000  1
  O  O24  1  0.59631300  0.90144200  0.36719900  1
  O  O25  1  0.36719900  0.59631300  0.90144200  1
  O  O26  1  0.27088600  0.30512900  0.90368700  1
  O  O27  1  0.46575700  0.59855800  0.19487100  1
  O  O28  1  0.30512900  0.90144200  0.03424300  1
  O  O29  1  0.13280100  0.03424300  0.22911400  1
  O  O30  1  0.36719900  0.27088600  0.46575700  1
  O  O31  1  0.90144200  0.36719900  0.59631300  1
  O  O32  1  0.19487100  0.22911400  0.59631300  1
  O  O33  1  0.46575700  0.36719900  0.27088600  1
  O  O34  1  0.90144200  0.03424300  0.30512900  1
  O  O35  1  0.59855800  0.90368700  0.13280100  1
  O  O36  1  0.90368700  0.13280100  0.59855800  1
  O  O37  1  0.27088600  0.46575700  0.36719900  1
  O  O38  1  0.59631300  0.19487100  0.22911400  1
  O  O39  1  0.22911400  0.59631300  0.19487100  1
  O  O40  1  0.03424300  0.30512900  0.90144200  1
  O  O41  1  0.90368700  0.27088600  0.30512900  1
  O  O42  1  0.03424300  0.22911400  0.13280100  1
  O  O43  1  0.80512900  0.77088600  0.40368700  1
  O  O44  1  0.19487100  0.46575700  0.59855800  1
  O  O45  1  0.59855800  0.19487100  0.46575700  1
  O  O46  1  0.22911400  0.13280100  0.03424300  1
  O  O47  1  0.13280100  0.59855800  0.90368700  1
  O  O48  1  0.40368700  0.09855800  0.63280100  1
  O  O49  1  0.63280100  0.40368700  0.09855800  1
  O  O50  1  0.72911400  0.69487100  0.09631300  1
  O  O51  1  0.53424300  0.40144200  0.80512900  1
  O  O52  1  0.69487100  0.09855800  0.96575700  1
  O  O53  1  0.86719900  0.96575700  0.77088600  1
  O  O54  1  0.63280100  0.72911400  0.53424300  1
  O  O55  1  0.09855800  0.63280100  0.40368700  1
  O  O56  1  0.86719900  0.40144200  0.09631300  1
  O  O57  1  0.77088600  0.86719900  0.96575700  1
  O  O58  1  0.40144200  0.80512900  0.53424300  1
  O  O59  1  0.69487100  0.09631300  0.72911400  1
  O  O60  1  0.80512900  0.53424300  0.40144200  1
  O  O61  1  0.96575700  0.77088600  0.86719900  1
  O  O62  1  0.09631300  0.72911400  0.69487100  1
  O  O63  1  0.96575700  0.69487100  0.09855800  1
  O  O64  1  0.77088600  0.40368700  0.80512900  1
  O  O65  1  0.40368700  0.80512900  0.77088600  1
  O  O66  1  0.72911400  0.53424300  0.63280100  1
  O  O67  1  0.09631300  0.86719900  0.40144200  1
  O  O68  1  0.40144200  0.09631300  0.86719900  1
  O  O69  1  0.09855800  0.96575700  0.69487100  1
  O  O70  1  0.53424300  0.63280100  0.72911400  1
  O  O71  1  0.30512900  0.90368700  0.27088600  1
