# generated using pymatgen
data_Ba2Cu(SO)2
_symmetry_space_group_name_H-M   'P 1'
_cell_length_a   4.15286200
_cell_length_b   4.15286200
_cell_length_c   8.50673600
_cell_angle_alpha   90.00000000
_cell_angle_beta   90.00000000
_cell_angle_gamma   90.00000000
_symmetry_Int_Tables_number   1
_chemical_formula_structural   Ba2Cu(SO)2
_chemical_formula_sum   'Ba2 Cu1 S2 O2'
_cell_volume   146.70940455
_cell_formula_units_Z   1
loop_
 _symmetry_equiv_pos_site_id
 _symmetry_equiv_pos_as_xyz
  1  'x, y, z'
loop_
 _atom_site_type_symbol
 _atom_site_label
 _atom_site_symmetry_multiplicity
 _atom_site_fract_x
 _atom_site_fract_y
 _atom_site_fract_z
 _atom_site_occupancy
  Ba  Ba0  1  0.50000000  0.50000000  0.71901300  1
  Ba  Ba1  1  0.50000000  0.50000000  0.28098700  1
  Cu  Cu2  1  0.00000000  0.00000000  0.50000000  1
  S  S3  1  0.00000000  0.00000000  0.87642300  1
  S  S4  1  0.00000000  0.00000000  0.12357700  1
  O  O5  1  0.00000000  0.50000000  0.50000000  1
  O  O6  1  0.50000000  0.00000000  0.50000000  1
