# generated using pymatgen
data_Sr2Cu(SCl)2
_symmetry_space_group_name_H-M   'P 1'
_cell_length_a   8.18647975
_cell_length_b   8.18647975
_cell_length_c   8.18647975
_cell_angle_alpha   146.47223836
_cell_angle_beta   146.47223836
_cell_angle_gamma   48.14586021
_symmetry_Int_Tables_number   1
_chemical_formula_structural   Sr2Cu(SCl)2
_chemical_formula_sum   'Sr2 Cu1 S2 Cl2'
_cell_volume   166.69046748
_cell_formula_units_Z   1
loop_
 _symmetry_equiv_pos_site_id
 _symmetry_equiv_pos_as_xyz
  1  'x, y, z'
loop_
 _atom_site_type_symbol
 _atom_site_label
 _atom_site_symmetry_multiplicity
 _atom_site_fract_x
 _atom_site_fract_y
 _atom_site_fract_z
 _atom_site_occupancy
  Sr  Sr0  1  0.64744300  0.64744300  0.00000000  1
  Sr  Sr1  1  0.35255700  0.35255700  0.00000000  1
  Cu  Cu2  1  0.00000000  0.00000000  0.00000000  1
  S  S3  1  0.83936800  0.83936800  0.00000000  1
  S  S4  1  0.16063200  0.16063200  0.00000000  1
  Cl  Cl5  1  0.50000000  0.00000000  0.50000000  1
  Cl  Cl6  1  0.00000000  0.50000000  0.50000000  1
