# generated using pymatgen
data_La2Pd(OF)2
_symmetry_space_group_name_H-M   'P 1'
_cell_length_a   6.96910559
_cell_length_b   6.96910559
_cell_length_c   6.96910559
_cell_angle_alpha   144.81172475
_cell_angle_beta   144.81172475
_cell_angle_gamma   50.61518613
_symmetry_Int_Tables_number   1
_chemical_formula_structural   La2Pd(OF)2
_chemical_formula_sum   'La2 Pd1 O2 F2'
_cell_volume   111.83271734
_cell_formula_units_Z   1
loop_
 _symmetry_equiv_pos_site_id
 _symmetry_equiv_pos_as_xyz
  1  'x, y, z'
loop_
 _atom_site_type_symbol
 _atom_site_label
 _atom_site_symmetry_multiplicity
 _atom_site_fract_x
 _atom_site_fract_y
 _atom_site_fract_z
 _atom_site_occupancy
  La  La0  1  0.37358700  0.37358700  0.00000000  1
  La  La1  1  0.62641300  0.62641300  0.00000000  1
  Pd  Pd2  1  0.00000000  0.00000000  0.00000000  1
  O  O3  1  0.50000000  0.00000000  0.50000000  1
  O  O4  1  0.00000000  0.50000000  0.50000000  1
  F  F5  1  0.75000000  0.25000000  0.50000000  1
  F  F6  1  0.25000000  0.75000000  0.50000000  1
