# generated using pymatgen
data_K2Cu(ClF)2
_symmetry_space_group_name_H-M   'P 1'
_cell_length_a   5.04449719
_cell_length_b   5.03504178
_cell_length_c   7.29754218
_cell_angle_alpha   110.19397300
_cell_angle_beta   110.23350334
_cell_angle_gamma   89.96395291
_symmetry_Int_Tables_number   1
_chemical_formula_structural   K2Cu(ClF)2
_chemical_formula_sum   'K2 Cu1 Cl2 F2'
_cell_volume   161.73256307
_cell_formula_units_Z   1
loop_
 _symmetry_equiv_pos_site_id
 _symmetry_equiv_pos_as_xyz
  1  'x, y, z'
loop_
 _atom_site_type_symbol
 _atom_site_label
 _atom_site_symmetry_multiplicity
 _atom_site_fract_x
 _atom_site_fract_y
 _atom_site_fract_z
 _atom_site_occupancy
  K  K0  1  0.65113800  0.65113800  0.30227700  1
  K  K1  1  0.34886200  0.34886200  0.69772300  1
  Cu  Cu2  1  0.00000000  0.00000000  0.00000000  1
  Cl  Cl3  1  0.50000000  0.00000000  0.00000000  1
  Cl  Cl4  1  0.00000000  0.50000000  0.00000000  1
  F  F5  1  0.84927300  0.84927300  0.69854600  1
  F  F6  1  0.15072700  0.15072700  0.30145400  1
