# generated using pymatgen
data_Ba2Cu(SCl)2
_symmetry_space_group_name_H-M   'P 1'
_cell_length_a   9.20164323
_cell_length_b   9.20164323
_cell_length_c   9.20164323
_cell_angle_alpha   150.64534362
_cell_angle_beta   150.64534362
_cell_angle_gamma   41.99492642
_symmetry_Int_Tables_number   1
_chemical_formula_structural   Ba2Cu(SCl)2
_chemical_formula_sum   'Ba2 Cu1 S2 Cl2'
_cell_volume   186.78561133
_cell_formula_units_Z   1
loop_
 _symmetry_equiv_pos_site_id
 _symmetry_equiv_pos_as_xyz
  1  'x, y, z'
loop_
 _atom_site_type_symbol
 _atom_site_label
 _atom_site_symmetry_multiplicity
 _atom_site_fract_x
 _atom_site_fract_y
 _atom_site_fract_z
 _atom_site_occupancy
  Ba  Ba0  1  0.62689600  0.62689600  0.00000000  1
  Ba  Ba1  1  0.37310400  0.37310400  0.00000000  1
  Cu  Cu2  1  0.00000000  0.00000000  0.00000000  1
  S  S3  1  0.00000000  0.50000000  0.50000000  1
  S  S4  1  0.50000000  0.00000000  0.50000000  1
  Cl  Cl5  1  0.18506100  0.18506100  0.00000000  1
  Cl  Cl6  1  0.81493900  0.81493900  0.00000000  1
