# generated using pymatgen
data_CuPb2(ClO)2
_symmetry_space_group_name_H-M   'P 1'
_cell_length_a   8.63439356
_cell_length_b   8.63439356
_cell_length_c   8.63439356
_cell_angle_alpha   153.14462837
_cell_angle_beta   153.14462837
_cell_angle_gamma   38.34407863
_symmetry_Int_Tables_number   1
_chemical_formula_structural   CuPb2(ClO)2
_chemical_formula_sum   'Cu1 Pb2 Cl2 O2'
_cell_volume   131.14926750
_cell_formula_units_Z   1
loop_
 _symmetry_equiv_pos_site_id
 _symmetry_equiv_pos_as_xyz
  1  'x, y, z'
loop_
 _atom_site_type_symbol
 _atom_site_label
 _atom_site_symmetry_multiplicity
 _atom_site_fract_x
 _atom_site_fract_y
 _atom_site_fract_z
 _atom_site_occupancy
  Cu  Cu0  1  0.00000000  0.00000000  0.00000000  1
  Pb  Pb1  1  0.60729400  0.60729400  0.00000000  1
  Pb  Pb2  1  0.39270600  0.39270600  0.00000000  1
  Cl  Cl3  1  0.18055200  0.18055200  0.00000000  1
  Cl  Cl4  1  0.81944800  0.81944800  0.00000000  1
  O  O5  1  0.00000000  0.50000000  0.50000000  1
  O  O6  1  0.50000000  0.00000000  0.50000000  1
