# generated using pymatgen
data_BiCNO
_symmetry_space_group_name_H-M   'P 1'
_cell_length_a   3.94490700
_cell_length_b   3.94490700
_cell_length_c   7.61919400
_cell_angle_alpha   90.00000000
_cell_angle_beta   90.00000000
_cell_angle_gamma   90.00000000
_symmetry_Int_Tables_number   1
_chemical_formula_structural   BiCNO
_chemical_formula_sum   'Bi2 C2 N2 O2'
_cell_volume   118.57211603
_cell_formula_units_Z   2
loop_
 _symmetry_equiv_pos_site_id
 _symmetry_equiv_pos_as_xyz
  1  'x, y, z'
loop_
 _atom_site_type_symbol
 _atom_site_label
 _atom_site_symmetry_multiplicity
 _atom_site_fract_x
 _atom_site_fract_y
 _atom_site_fract_z
 _atom_site_occupancy
  Bi  Bi0  1  0.00000000  0.50000000  0.83587700  1
  Bi  Bi1  1  0.50000000  0.00000000  0.16412300  1
  C  C2  1  0.50000000  0.00000000  0.54788900  1
  C  C3  1  0.00000000  0.50000000  0.45211100  1
  N  N4  1  0.00000000  0.50000000  0.29584100  1
  N  N5  1  0.50000000  0.00000000  0.70415900  1
  O  O6  1  0.00000000  0.00000000  0.00000000  1
  O  O7  1  0.50000000  0.50000000  0.00000000  1
