# generated using pymatgen
data_Cd2Cu(SO)2
_symmetry_space_group_name_H-M   'P 1'
_cell_length_a   3.98639038
_cell_length_b   3.98639057
_cell_length_c   9.94564100
_cell_angle_alpha   101.56085456
_cell_angle_beta   101.56085003
_cell_angle_gamma   90.00000656
_symmetry_Int_Tables_number   1
_chemical_formula_structural   Cd2Cu(SO)2
_chemical_formula_sum   'Cd2 Cu1 S2 O2'
_cell_volume   151.56855921
_cell_formula_units_Z   1
loop_
 _symmetry_equiv_pos_site_id
 _symmetry_equiv_pos_as_xyz
  1  'x, y, z'
loop_
 _atom_site_type_symbol
 _atom_site_label
 _atom_site_symmetry_multiplicity
 _atom_site_fract_x
 _atom_site_fract_y
 _atom_site_fract_z
 _atom_site_occupancy
  Cd  Cd0  1  0.75000000  0.25000000  0.50000000  1
  Cd  Cd1  1  0.25000000  0.75000000  0.50000000  1
  Cu  Cu2  1  0.00000000  0.00000000  0.00000000  1
  S  S3  1  0.83665500  0.83665500  0.67331000  1
  S  S4  1  0.16334500  0.16334500  0.32669000  1
  O  O5  1  0.50000000  0.00000000  0.00000000  1
  O  O6  1  0.00000000  0.50000000  0.00000000  1
