# generated using pymatgen
data_Cu6SnO8
_symmetry_space_group_name_H-M   'P 1'
_cell_length_a   6.53872106
_cell_length_b   6.53872106
_cell_length_c   6.53872106
_cell_angle_alpha   60.00000000
_cell_angle_beta   60.00000000
_cell_angle_gamma   60.00000000
_symmetry_Int_Tables_number   1
_chemical_formula_structural   Cu6SnO8
_chemical_formula_sum   'Cu6 Sn1 O8'
_cell_volume   197.68031949
_cell_formula_units_Z   1
loop_
 _symmetry_equiv_pos_site_id
 _symmetry_equiv_pos_as_xyz
  1  'x, y, z'
loop_
 _atom_site_type_symbol
 _atom_site_label
 _atom_site_symmetry_multiplicity
 _atom_site_fract_x
 _atom_site_fract_y
 _atom_site_fract_z
 _atom_site_occupancy
  Cu  Cu0  1  0.50000000  0.00000000  0.50000000  1
  Cu  Cu1  1  0.50000000  0.00000000  0.00000000  1
  Cu  Cu2  1  0.00000000  0.00000000  0.50000000  1
  Cu  Cu3  1  0.00000000  0.50000000  0.00000000  1
  Cu  Cu4  1  0.00000000  0.50000000  0.50000000  1
  Cu  Cu5  1  0.50000000  0.50000000  0.00000000  1
  Sn  Sn6  1  0.50000000  0.50000000  0.50000000  1
  O  O7  1  0.35967400  0.35967400  0.35967400  1
  O  O8  1  0.92097800  0.35967400  0.35967400  1
  O  O9  1  0.35967400  0.35967400  0.92097800  1
  O  O10  1  0.07902200  0.64032600  0.64032600  1
  O  O11  1  0.35967400  0.92097800  0.35967400  1
  O  O12  1  0.64032600  0.07902200  0.64032600  1
  O  O13  1  0.64032600  0.64032600  0.64032600  1
  O  O14  1  0.64032600  0.64032600  0.07902200  1
