# generated using pymatgen
data_MgVS3
_symmetry_space_group_name_H-M   'P 1'
_cell_length_a   6.67344879
_cell_length_b   7.05367132
_cell_length_c   10.96229389
_cell_angle_alpha   80.29820897
_cell_angle_beta   72.27901967
_cell_angle_gamma   61.76766976
_symmetry_Int_Tables_number   1
_chemical_formula_structural   MgVS3
_chemical_formula_sum   'Mg4 V4 S12'
_cell_volume   432.87564774
_cell_formula_units_Z   4
loop_
 _symmetry_equiv_pos_site_id
 _symmetry_equiv_pos_as_xyz
  1  'x, y, z'
loop_
 _atom_site_type_symbol
 _atom_site_label
 _atom_site_symmetry_multiplicity
 _atom_site_fract_x
 _atom_site_fract_y
 _atom_site_fract_z
 _atom_site_occupancy
  Mg  Mg0  1  0.42718500  0.55611600  0.58951200  1
  Mg  Mg1  1  0.57486100  0.08853200  0.76174600  1
  Mg  Mg2  1  0.42999600  0.05465700  0.08535100  1
  Mg  Mg3  1  0.57024100  0.59181800  0.26769800  1
  V  V4  1  0.93243800  0.85159200  0.28353300  1
  V  V5  1  0.05958900  0.41655600  0.46426600  1
  V  V6  1  0.93621900  0.34838300  0.77917900  1
  V  V7  1  0.05907900  0.91426200  0.96758000  1
  S  S8  1  0.75680400  0.18706700  0.29932400  1
  S  S9  1  0.22681800  0.25465300  0.29171000  1
  S  S10  1  0.76159700  0.68518300  0.79162200  1
  S  S11  1  0.23211000  0.73509800  0.80068100  1
  S  S12  1  0.28937400  0.76666800  0.12099800  1
  S  S13  1  0.82295900  0.76666800  0.12099800  1
  S  S14  1  0.69965400  0.69866400  0.43297400  1
  S  S15  1  0.16870800  0.69866400  0.43297400  1
  S  S16  1  0.29237400  0.26358500  0.61686900  1
  S  S17  1  0.82717200  0.26358500  0.61686900  1
  S  S18  1  0.70427200  0.19457400  0.92820700  1
  S  S19  1  0.17294700  0.19457400  0.92820700  1
