# generated using pymatgen
data_CsNbC6
_symmetry_space_group_name_H-M   'P 1'
_cell_length_a   5.62115200
_cell_length_b   5.62115200
_cell_length_c   5.62115200
_cell_angle_alpha   90.00000000
_cell_angle_beta   90.00000000
_cell_angle_gamma   90.00000000
_symmetry_Int_Tables_number   1
_chemical_formula_structural   CsNbC6
_chemical_formula_sum   'Cs1 Nb1 C6'
_cell_volume   177.61350606
_cell_formula_units_Z   1
loop_
 _symmetry_equiv_pos_site_id
 _symmetry_equiv_pos_as_xyz
  1  'x, y, z'
loop_
 _atom_site_type_symbol
 _atom_site_label
 _atom_site_symmetry_multiplicity
 _atom_site_fract_x
 _atom_site_fract_y
 _atom_site_fract_z
 _atom_site_occupancy
  Cs  Cs0  1  0.50000000  0.50000000  0.50000000  1
  Nb  Nb1  1  0.00000000  0.00000000  0.00000000  1
  C  C2  1  0.61207200  0.00000000  0.00000000  1
  C  C3  1  0.38792800  0.00000000  0.00000000  1
  C  C4  1  0.00000000  0.61207200  0.00000000  1
  C  C5  1  0.00000000  0.00000000  0.61207200  1
  C  C6  1  0.00000000  0.38792800  0.00000000  1
  C  C7  1  0.00000000  0.00000000  0.38792800  1
