# generated using pymatgen
data_K2Zn3S4
_symmetry_space_group_name_H-M   'P 1'
_cell_length_a   6.21658500
_cell_length_b   10.04047900
_cell_length_c   13.76092000
_cell_angle_alpha   90.00000000
_cell_angle_beta   90.00000000
_cell_angle_gamma   90.00000000
_symmetry_Int_Tables_number   1
_chemical_formula_structural   K2Zn3S4
_chemical_formula_sum   'K8 Zn12 S16'
_cell_volume   858.92210224
_cell_formula_units_Z   4
loop_
 _symmetry_equiv_pos_site_id
 _symmetry_equiv_pos_as_xyz
  1  'x, y, z'
loop_
 _atom_site_type_symbol
 _atom_site_label
 _atom_site_symmetry_multiplicity
 _atom_site_fract_x
 _atom_site_fract_y
 _atom_site_fract_z
 _atom_site_occupancy
  K  K0  1  0.00000000  0.00000000  0.00000000  1
  K  K1  1  0.50000000  0.50000000  0.50000000  1
  K  K2  1  0.00000000  0.50000000  0.00000000  1
  K  K3  1  0.50000000  0.00000000  0.50000000  1
  K  K4  1  0.02251000  0.25000000  0.53502900  1
  K  K5  1  0.47749000  0.25000000  0.03502900  1
  K  K6  1  0.97749000  0.75000000  0.46497100  1
  K  K7  1  0.52251000  0.75000000  0.96497100  1
  Zn  Zn8  1  0.76444100  0.25000000  0.79292800  1
  Zn  Zn9  1  0.73555900  0.25000000  0.29292800  1
  Zn  Zn10  1  0.23555900  0.75000000  0.20707200  1
  Zn  Zn11  1  0.26444100  0.75000000  0.70707200  1
  Zn  Zn12  1  0.83638500  0.90142700  0.75444800  1
  Zn  Zn13  1  0.66361500  0.59857300  0.25444800  1
  Zn  Zn14  1  0.16361500  0.40142700  0.24555200  1
  Zn  Zn15  1  0.33638500  0.09857300  0.74555200  1
  Zn  Zn16  1  0.16361500  0.09857300  0.24555200  1
  Zn  Zn17  1  0.33638500  0.40142700  0.74555200  1
  Zn  Zn18  1  0.83638500  0.59857300  0.75444800  1
  Zn  Zn19  1  0.66361500  0.90142700  0.25444800  1
  S  S20  1  0.12537700  0.25000000  0.83944400  1
  S  S21  1  0.37462300  0.25000000  0.33944400  1
  S  S22  1  0.87462300  0.75000000  0.16055600  1
  S  S23  1  0.62537700  0.75000000  0.66055600  1
  S  S24  1  0.55536000  0.25000000  0.64477600  1
  S  S25  1  0.94464000  0.25000000  0.14477600  1
  S  S26  1  0.44464000  0.75000000  0.35522400  1
  S  S27  1  0.05536000  0.75000000  0.85522400  1
  S  S28  1  0.12056700  0.96097400  0.64842000  1
  S  S29  1  0.37943300  0.53902600  0.14842000  1
  S  S30  1  0.87943300  0.46097400  0.35158000  1
  S  S31  1  0.62056700  0.03902600  0.85158000  1
  S  S32  1  0.87943300  0.03902600  0.35158000  1
  S  S33  1  0.62056700  0.46097400  0.85158000  1
  S  S34  1  0.12056700  0.53902600  0.64842000  1
  S  S35  1  0.37943300  0.96097400  0.14842000  1
