# generated using pymatgen
data_Zn4InGaO7
_symmetry_space_group_name_H-M   'P 1'
_cell_length_a   3.32781360
_cell_length_b   3.32781360
_cell_length_c   33.39609100
_cell_angle_alpha   90.00000000
_cell_angle_beta   90.00000000
_cell_angle_gamma   119.99999203
_symmetry_Int_Tables_number   1
_chemical_formula_structural   Zn4InGaO7
_chemical_formula_sum   'Zn8 In2 Ga2 O14'
_cell_volume   320.29066904
_cell_formula_units_Z   2
loop_
 _symmetry_equiv_pos_site_id
 _symmetry_equiv_pos_as_xyz
  1  'x, y, z'
loop_
 _atom_site_type_symbol
 _atom_site_label
 _atom_site_symmetry_multiplicity
 _atom_site_fract_x
 _atom_site_fract_y
 _atom_site_fract_z
 _atom_site_occupancy
  Zn  Zn0  1  0.66666700  0.33333300  0.40777300  1
  Zn  Zn1  1  0.33333300  0.66666700  0.59222700  1
  Zn  Zn2  1  0.33333300  0.66666700  0.90777300  1
  Zn  Zn3  1  0.66666700  0.33333300  0.09222700  1
  Zn  Zn4  1  0.00000000  0.00000000  0.32894800  1
  Zn  Zn5  1  0.00000000  0.00000000  0.67105200  1
  Zn  Zn6  1  0.00000000  0.00000000  0.82894800  1
  Zn  Zn7  1  0.00000000  0.00000000  0.17105200  1
  In  In8  1  0.00000000  0.00000000  0.50000000  1
  In  In9  1  0.00000000  0.00000000  0.00000000  1
  Ga  Ga10  1  0.66666700  0.33333300  0.25000000  1
  Ga  Ga11  1  0.33333300  0.66666700  0.75000000  1
  O  O12  1  0.66666700  0.33333300  0.46720100  1
  O  O13  1  0.33333300  0.66666700  0.53279900  1
  O  O14  1  0.33333300  0.66666700  0.96720100  1
  O  O15  1  0.66666700  0.33333300  0.03279900  1
  O  O16  1  0.00000000  0.00000000  0.38889600  1
  O  O17  1  0.00000000  0.00000000  0.61110400  1
  O  O18  1  0.00000000  0.00000000  0.88889600  1
  O  O19  1  0.00000000  0.00000000  0.11110400  1
  O  O20  1  0.66666700  0.33333300  0.31001300  1
  O  O21  1  0.33333300  0.66666700  0.68998700  1
  O  O22  1  0.33333300  0.66666700  0.81001300  1
  O  O23  1  0.66666700  0.33333300  0.18998700  1
  O  O24  1  0.00000000  0.00000000  0.25000000  1
  O  O25  1  0.00000000  0.00000000  0.75000000  1
