# generated using pymatgen
data_CaSi4WO10
_symmetry_space_group_name_H-M   'P 1'
_cell_length_a   7.59949100
_cell_length_b   7.59949100
_cell_length_c   15.52793800
_cell_angle_alpha   90.00000000
_cell_angle_beta   90.00000000
_cell_angle_gamma   90.00000000
_symmetry_Int_Tables_number   1
_chemical_formula_structural   CaSi4WO10
_chemical_formula_sum   'Ca4 Si16 W4 O40'
_cell_volume   896.77356635
_cell_formula_units_Z   4
loop_
 _symmetry_equiv_pos_site_id
 _symmetry_equiv_pos_as_xyz
  1  'x, y, z'
loop_
 _atom_site_type_symbol
 _atom_site_label
 _atom_site_symmetry_multiplicity
 _atom_site_fract_x
 _atom_site_fract_y
 _atom_site_fract_z
 _atom_site_occupancy
  Ca  Ca0  1  0.50000000  0.50000000  0.50000000  1
  Ca  Ca1  1  0.00000000  0.00000000  0.50000000  1
  Ca  Ca2  1  0.00000000  0.00000000  0.00000000  1
  Ca  Ca3  1  0.50000000  0.50000000  0.00000000  1
  Si  Si4  1  0.16173300  0.25194900  0.65030900  1
  Si  Si5  1  0.83826700  0.74805100  0.65030900  1
  Si  Si6  1  0.25194900  0.16173300  0.84969100  1
  Si  Si7  1  0.75194900  0.33826700  0.65030900  1
  Si  Si8  1  0.24805100  0.66173300  0.65030900  1
  Si  Si9  1  0.33826700  0.75194900  0.84969100  1
  Si  Si10  1  0.66173300  0.24805100  0.84969100  1
  Si  Si11  1  0.74805100  0.83826700  0.84969100  1
  Si  Si12  1  0.33826700  0.24805100  0.34969100  1
  Si  Si13  1  0.66173300  0.75194900  0.34969100  1
  Si  Si14  1  0.24805100  0.33826700  0.15030900  1
  Si  Si15  1  0.74805100  0.16173300  0.34969100  1
  Si  Si16  1  0.25194900  0.83826700  0.34969100  1
  Si  Si17  1  0.16173300  0.74805100  0.15030900  1
  Si  Si18  1  0.83826700  0.25194900  0.15030900  1
  Si  Si19  1  0.75194900  0.66173300  0.15030900  1
  W  W20  1  0.50000000  0.00000000  0.58217300  1
  W  W21  1  0.00000000  0.50000000  0.91782700  1
  W  W22  1  0.00000000  0.50000000  0.41782700  1
  W  W23  1  0.50000000  0.00000000  0.08217300  1
  O  O24  1  0.23523600  0.10959700  0.58229000  1
  O  O25  1  0.76476400  0.89040300  0.58229000  1
  O  O26  1  0.10959700  0.23523600  0.91771000  1
  O  O27  1  0.60959700  0.26476400  0.58229000  1
  O  O28  1  0.39040300  0.73523600  0.58229000  1
  O  O29  1  0.26476400  0.60959700  0.91771000  1
  O  O30  1  0.73523600  0.39040300  0.91771000  1
  O  O31  1  0.89040300  0.76476400  0.91771000  1
  O  O32  1  0.26476400  0.39040300  0.41771000  1
  O  O33  1  0.73523600  0.60959700  0.41771000  1
  O  O34  1  0.39040300  0.26476400  0.08229000  1
  O  O35  1  0.89040300  0.23523600  0.41771000  1
  O  O36  1  0.10959700  0.76476400  0.41771000  1
  O  O37  1  0.23523600  0.89040300  0.08229000  1
  O  O38  1  0.76476400  0.10959700  0.08229000  1
  O  O39  1  0.25585800  0.05178000  0.36771300  1
  O  O40  1  0.60959700  0.73523600  0.08229000  1
  O  O41  1  0.75585800  0.55178000  0.63228700  1
  O  O42  1  0.44822000  0.24414200  0.86771300  1
  O  O43  1  0.94822000  0.25585800  0.63228700  1
  O  O44  1  0.05178000  0.74414200  0.63228700  1
  O  O45  1  0.25585800  0.94822000  0.86771300  1
  O  O46  1  0.74414200  0.05178000  0.86771300  1
  O  O47  1  0.55178000  0.75585800  0.86771300  1
  O  O48  1  0.69877700  0.69877700  0.25000000  1
  O  O49  1  0.80122300  0.19877700  0.25000000  1
  O  O50  1  0.19877700  0.80122300  0.25000000  1
  O  O51  1  0.30122300  0.30122300  0.25000000  1
  O  O52  1  0.80122300  0.80122300  0.75000000  1
  O  O53  1  0.69877700  0.30122300  0.75000000  1
  O  O54  1  0.30122300  0.69877700  0.75000000  1
  O  O55  1  0.19877700  0.19877700  0.75000000  1
  O  O56  1  0.94822000  0.74414200  0.13228700  1
  O  O57  1  0.75585800  0.44822000  0.13228700  1
  O  O58  1  0.24414200  0.55178000  0.13228700  1
  O  O59  1  0.44822000  0.75585800  0.36771300  1
  O  O60  1  0.55178000  0.24414200  0.36771300  1
  O  O61  1  0.05178000  0.25585800  0.13228700  1
  O  O62  1  0.74414200  0.94822000  0.36771300  1
  O  O63  1  0.24414200  0.44822000  0.63228700  1
