# generated using pymatgen
data_CaMn2(SiO3)4
_symmetry_space_group_name_H-M   'P 1'
_cell_length_a   5.30083391
_cell_length_b   6.69451312
_cell_length_c   6.69452238
_cell_angle_alpha   84.51238572
_cell_angle_beta   76.16046279
_cell_angle_gamma   76.16054985
_symmetry_Int_Tables_number   1
_chemical_formula_structural   CaMn2(SiO3)4
_chemical_formula_sum   'Ca1 Mn2 Si4 O12'
_cell_volume   223.78620226
_cell_formula_units_Z   1
loop_
 _symmetry_equiv_pos_site_id
 _symmetry_equiv_pos_as_xyz
  1  'x, y, z'
loop_
 _atom_site_type_symbol
 _atom_site_label
 _atom_site_symmetry_multiplicity
 _atom_site_fract_x
 _atom_site_fract_y
 _atom_site_fract_z
 _atom_site_occupancy
  Ca  Ca0  1  0.25000000  0.69419800  0.30580100  1
  Mn  Mn1  1  0.75000100  0.90937200  0.09062800  1
  Mn  Mn2  1  0.25000100  0.11124900  0.88875100  1
  Si  Si3  1  0.27051600  0.19774400  0.38329000  1
  Si  Si4  1  0.22948400  0.61671100  0.80225600  1
  Si  Si5  1  0.77980500  0.37959400  0.19829600  1
  Si  Si6  1  0.72019500  0.80170400  0.62040500  1
  O  O7  1  0.49541200  0.33976000  0.35173600  1
  O  O8  1  0.00458800  0.64826400  0.66024100  1
  O  O9  1  0.49349600  0.66676300  0.63299700  1
  O  O10  1  0.00650300  0.36700300  0.33323600  1
  O  O11  1  0.20751800  0.09019100  0.60614600  1
  O  O12  1  0.29248200  0.39385300  0.90981000  1
  O  O13  1  0.81263100  0.88542000  0.38542500  1
  O  O14  1  0.68736700  0.61457500  0.11458000  1
  O  O15  1  0.87988600  0.19239100  0.03488200  1
  O  O16  1  0.62011400  0.96511900  0.80760900  1
  O  O17  1  0.37300400  0.02521300  0.19880200  1
  O  O18  1  0.12699800  0.80119800  0.97478700  1
