# generated using pymatgen
data_NaCaSiO4
_symmetry_space_group_name_H-M   'P 1'
_cell_length_a   5.42326529
_cell_length_b   5.42326529
_cell_length_c   7.20702100
_cell_angle_alpha   90.00000000
_cell_angle_beta   90.00000000
_cell_angle_gamma   116.54021741
_symmetry_Int_Tables_number   1
_chemical_formula_structural   NaCaSiO4
_chemical_formula_sum   'Na2 Ca2 Si2 O8'
_cell_volume   189.63414901
_cell_formula_units_Z   2
loop_
 _symmetry_equiv_pos_site_id
 _symmetry_equiv_pos_as_xyz
  1  'x, y, z'
loop_
 _atom_site_type_symbol
 _atom_site_label
 _atom_site_symmetry_multiplicity
 _atom_site_fract_x
 _atom_site_fract_y
 _atom_site_fract_z
 _atom_site_occupancy
  Na  Na0  1  0.68181500  0.31818500  0.75000000  1
  Na  Na1  1  0.31818500  0.68181500  0.25000000  1
  Ca  Ca2  1  0.99627300  0.99627300  0.00000000  1
  Ca  Ca3  1  0.00372700  0.00372700  0.50000000  1
  Si  Si4  1  0.35555200  0.64444800  0.75000000  1
  Si  Si5  1  0.64444800  0.35555200  0.25000000  1
  O  O6  1  0.69288300  0.77981200  0.74431800  1
  O  O7  1  0.77981200  0.69288300  0.25568200  1
  O  O8  1  0.30711700  0.22018800  0.24431800  1
  O  O9  1  0.22018800  0.30711700  0.75568200  1
  O  O10  1  0.27396300  0.76996000  0.93742800  1
  O  O11  1  0.76996000  0.27396300  0.06257200  1
  O  O12  1  0.72603700  0.23004000  0.43742800  1
  O  O13  1  0.23004000  0.72603700  0.56257200  1
