# generated using pymatgen
data_Yb5Ge3
_symmetry_space_group_name_H-M   'P 1'
_cell_length_a   8.82268086
_cell_length_b   8.82268086
_cell_length_c   6.48181600
_cell_angle_alpha   90.00000000
_cell_angle_beta   90.00000000
_cell_angle_gamma   120.00000643
_symmetry_Int_Tables_number   1
_chemical_formula_structural   Yb5Ge3
_chemical_formula_sum   'Yb10 Ge6'
_cell_volume   436.94667781
_cell_formula_units_Z   2
loop_
 _symmetry_equiv_pos_site_id
 _symmetry_equiv_pos_as_xyz
  1  'x, y, z'
loop_
 _atom_site_type_symbol
 _atom_site_label
 _atom_site_symmetry_multiplicity
 _atom_site_fract_x
 _atom_site_fract_y
 _atom_site_fract_z
 _atom_site_occupancy
  Yb  Yb0  1  0.33333300  0.66666700  0.00000000  1
  Yb  Yb1  1  0.66666700  0.33333300  0.50000000  1
  Yb  Yb2  1  0.66666700  0.33333300  0.00000000  1
  Yb  Yb3  1  0.33333300  0.66666700  0.50000000  1
  Yb  Yb4  1  0.72393600  0.00000000  0.75000000  1
  Yb  Yb5  1  0.72393600  0.72393600  0.25000000  1
  Yb  Yb6  1  0.00000000  0.27606400  0.25000000  1
  Yb  Yb7  1  0.00000000  0.72393600  0.75000000  1
  Yb  Yb8  1  0.27606400  0.27606400  0.75000000  1
  Yb  Yb9  1  0.27606400  0.00000000  0.25000000  1
  Ge  Ge10  1  0.38418400  0.00000000  0.75000000  1
  Ge  Ge11  1  0.38418400  0.38418400  0.25000000  1
  Ge  Ge12  1  0.00000000  0.61581600  0.25000000  1
  Ge  Ge13  1  0.00000000  0.38418400  0.75000000  1
  Ge  Ge14  1  0.61581600  0.61581600  0.75000000  1
  Ge  Ge15  1  0.61581600  0.00000000  0.25000000  1
