# generated using pymatgen
data_AlCo3(SiO4)3
_symmetry_space_group_name_H-M   'P 1'
_cell_length_a   9.91426921
_cell_length_b   9.91426921
_cell_length_c   9.91426921
_cell_angle_alpha   109.47122063
_cell_angle_beta   109.47122063
_cell_angle_gamma   109.47122063
_symmetry_Int_Tables_number   1
_chemical_formula_structural   AlCo3(SiO4)3
_chemical_formula_sum   'Al4 Co12 Si12 O48'
_cell_volume   750.17093272
_cell_formula_units_Z   4
loop_
 _symmetry_equiv_pos_site_id
 _symmetry_equiv_pos_as_xyz
  1  'x, y, z'
loop_
 _atom_site_type_symbol
 _atom_site_label
 _atom_site_symmetry_multiplicity
 _atom_site_fract_x
 _atom_site_fract_y
 _atom_site_fract_z
 _atom_site_occupancy
  Al  Al0  1  0.00000000  0.00000000  0.00000000  1
  Al  Al1  1  0.50000000  0.50000000  0.00000000  1
  Al  Al2  1  0.00000000  0.50000000  0.50000000  1
  Al  Al3  1  0.50000000  0.00000000  0.50000000  1
  Co  Co4  1  0.88546200  0.63546200  0.25000000  1
  Co  Co5  1  0.63546200  0.25000000  0.88546200  1
  Co  Co6  1  0.86453800  0.75000000  0.61453800  1
  Co  Co7  1  0.75000000  0.61453800  0.86453800  1
  Co  Co8  1  0.25000000  0.88546200  0.63546200  1
  Co  Co9  1  0.61453800  0.86453800  0.75000000  1
  Co  Co10  1  0.11453800  0.36453800  0.75000000  1
  Co  Co11  1  0.36453800  0.75000000  0.11453800  1
  Co  Co12  1  0.13546200  0.25000000  0.38546200  1
  Co  Co13  1  0.25000000  0.38546200  0.13546200  1
  Co  Co14  1  0.75000000  0.11453800  0.36453800  1
  Co  Co15  1  0.38546200  0.13546200  0.25000000  1
  Si  Si16  1  0.12439300  0.87439300  0.25000000  1
  Si  Si17  1  0.25000000  0.12439300  0.87439300  1
  Si  Si18  1  0.75000000  0.37560700  0.62560700  1
  Si  Si19  1  0.62439300  0.37439300  0.25000000  1
  Si  Si20  1  0.62560700  0.75000000  0.37560700  1
  Si  Si21  1  0.37560700  0.62560700  0.75000000  1
  Si  Si22  1  0.12560700  0.75000000  0.87560700  1
  Si  Si23  1  0.75000000  0.87560700  0.12560700  1
  Si  Si24  1  0.87439300  0.25000000  0.12439300  1
  Si  Si25  1  0.37439300  0.25000000  0.62439300  1
  Si  Si26  1  0.25000000  0.62439300  0.37439300  1
  Si  Si27  1  0.87560700  0.12560700  0.75000000  1
  O  O28  1  0.46356300  0.36580700  0.26827400  1
  O  O29  1  0.30471100  0.90224400  0.03643700  1
  O  O30  1  0.59775600  0.90246700  0.13419300  1
  O  O31  1  0.59753300  0.19528900  0.23172600  1
  O  O32  1  0.12123200  0.02082600  0.20520800  1
  O  O33  1  0.19528900  0.23172600  0.59753300  1
  O  O34  1  0.18438200  0.47917400  0.60040600  1
  O  O35  1  0.23172600  0.59753300  0.19528900  1
  O  O36  1  0.37876800  0.58397700  0.89959400  1
  O  O37  1  0.91602300  0.29479200  0.31561800  1
  O  O38  1  0.29479200  0.31561800  0.91602300  1
  O  O39  1  0.20520800  0.12123200  0.02082600  1
  O  O40  1  0.47917400  0.60040600  0.18438200  1
  O  O41  1  0.89959400  0.37876800  0.58397700  1
  O  O42  1  0.02082600  0.20520800  0.12123200  1
  O  O43  1  0.60040600  0.18438200  0.47917400  1
  O  O44  1  0.58397700  0.89959400  0.37876800  1
  O  O45  1  0.03643700  0.30471100  0.90224400  1
  O  O46  1  0.90246700  0.13419300  0.59775600  1
  O  O47  1  0.62123200  0.41602300  0.10040600  1
  O  O48  1  0.36580700  0.26827400  0.46356300  1
  O  O49  1  0.26827400  0.46356300  0.36580700  1
  O  O50  1  0.90224400  0.03643700  0.30471100  1
  O  O51  1  0.31561800  0.91602300  0.29479200  1
  O  O52  1  0.53643700  0.63419300  0.73172600  1
  O  O53  1  0.69528900  0.09775600  0.96356300  1
  O  O54  1  0.40224400  0.09753300  0.86580700  1
  O  O55  1  0.40246700  0.80471100  0.76827400  1
  O  O56  1  0.87876800  0.97917400  0.79479200  1
  O  O57  1  0.80471100  0.76827400  0.40246700  1
  O  O58  1  0.81561800  0.52082600  0.39959400  1
  O  O59  1  0.76827400  0.40246700  0.80471100  1
  O  O60  1  0.68438200  0.08397700  0.70520800  1
  O  O61  1  0.09775600  0.96356300  0.69528900  1
  O  O62  1  0.73172600  0.53643700  0.63419300  1
  O  O63  1  0.63419300  0.73172600  0.53643700  1
  O  O64  1  0.86580700  0.40224400  0.09753300  1
  O  O65  1  0.09753300  0.86580700  0.40224400  1
  O  O66  1  0.96356300  0.69528900  0.09775600  1
  O  O67  1  0.41602300  0.10040600  0.62123200  1
  O  O68  1  0.39959400  0.81561800  0.52082600  1
  O  O69  1  0.97917400  0.79479200  0.87876800  1
  O  O70  1  0.10040600  0.62123200  0.41602300  1
  O  O71  1  0.52082600  0.39959400  0.81561800  1
  O  O72  1  0.79479200  0.87876800  0.97917400  1
  O  O73  1  0.70520800  0.68438200  0.08397700  1
  O  O74  1  0.08397700  0.70520800  0.68438200  1
  O  O75  1  0.13419300  0.59775600  0.90246700  1
