# generated using pymatgen
data_MgSi2NiO6
_symmetry_space_group_name_H-M   'P 1'
_cell_length_a   5.27268000
_cell_length_b   9.03377100
_cell_length_c   18.47413200
_cell_angle_alpha   90.00000000
_cell_angle_beta   90.00000000
_cell_angle_gamma   90.00000000
_symmetry_Int_Tables_number   1
_chemical_formula_structural   MgSi2NiO6
_chemical_formula_sum   'Mg8 Si16 Ni8 O48'
_cell_volume   879.96324868
_cell_formula_units_Z   8
loop_
 _symmetry_equiv_pos_site_id
 _symmetry_equiv_pos_as_xyz
  1  'x, y, z'
loop_
 _atom_site_type_symbol
 _atom_site_label
 _atom_site_symmetry_multiplicity
 _atom_site_fract_x
 _atom_site_fract_y
 _atom_site_fract_z
 _atom_site_occupancy
  Mg  Mg0  1  0.61875500  0.15032500  0.37614100  1
  Mg  Mg1  1  0.38124500  0.84967500  0.62385900  1
  Mg  Mg2  1  0.61875500  0.65032500  0.12385900  1
  Mg  Mg3  1  0.11875500  0.84967500  0.12385900  1
  Mg  Mg4  1  0.88124500  0.15032500  0.87614100  1
  Mg  Mg5  1  0.38124500  0.34967500  0.87614100  1
  Mg  Mg6  1  0.11875500  0.34967500  0.37614100  1
  Mg  Mg7  1  0.88124500  0.65032500  0.62385900  1
  Si  Si8  1  0.56481900  0.65896900  0.77256200  1
  Si  Si9  1  0.71868300  0.83724600  0.47425600  1
  Si  Si10  1  0.78131700  0.83724600  0.97425600  1
  Si  Si11  1  0.93518100  0.15896900  0.22743800  1
  Si  Si12  1  0.06481900  0.34103100  0.72743800  1
  Si  Si13  1  0.43518100  0.84103100  0.27256200  1
  Si  Si14  1  0.21868300  0.66275400  0.47425600  1
  Si  Si15  1  0.71868300  0.33724600  0.02574400  1
  Si  Si16  1  0.78131700  0.33724600  0.52574400  1
  Si  Si17  1  0.93518100  0.65896900  0.27256200  1
  Si  Si18  1  0.43518100  0.34103100  0.22743800  1
  Si  Si19  1  0.56481900  0.15896900  0.72743800  1
  Si  Si20  1  0.28131700  0.16275400  0.52574400  1
  Si  Si21  1  0.06481900  0.84103100  0.77256200  1
  Si  Si22  1  0.28131700  0.66275400  0.97425600  1
  Si  Si23  1  0.21868300  0.16275400  0.02574400  1
  Ni  Ni24  1  0.37561500  0.99790500  0.87546800  1
  Ni  Ni25  1  0.62438500  0.00209500  0.12453200  1
  Ni  Ni26  1  0.87561500  0.00209500  0.62453200  1
  Ni  Ni27  1  0.12438500  0.99790500  0.37546800  1
  Ni  Ni28  1  0.37561500  0.49790500  0.62453200  1
  Ni  Ni29  1  0.62438500  0.50209500  0.37546800  1
  Ni  Ni30  1  0.87561500  0.50209500  0.87546800  1
  Ni  Ni31  1  0.12438500  0.49790500  0.12453200  1
  O  O32  1  0.93211600  0.49984700  0.31237800  1
  O  O33  1  0.30599300  0.01416500  0.06728300  1
  O  O34  1  0.06788400  0.50015300  0.68762200  1
  O  O35  1  0.71389900  0.33949900  0.93641800  1
  O  O36  1  0.21389900  0.16050100  0.93641800  1
  O  O37  1  0.92213500  0.20470500  0.05060000  1
  O  O38  1  0.94614000  0.66028900  0.18376300  1
  O  O39  1  0.05386000  0.83971100  0.68376300  1
  O  O40  1  0.71389900  0.83949900  0.56358200  1
  O  O41  1  0.94614000  0.16028900  0.31623700  1
  O  O42  1  0.43211600  0.50015300  0.18762200  1
  O  O43  1  0.78610100  0.33949900  0.43641800  1
  O  O44  1  0.69400700  0.98583500  0.93271700  1
  O  O45  1  0.44614000  0.83971100  0.18376300  1
  O  O46  1  0.56788400  0.99984700  0.68762200  1
  O  O47  1  0.30599300  0.51416500  0.43271700  1
  O  O48  1  0.43211600  0.00015300  0.31237800  1
  O  O49  1  0.16355600  0.76872900  0.30199800  1
  O  O50  1  0.33644400  0.76872900  0.80199800  1
  O  O51  1  0.57786500  0.70470500  0.94940000  1
  O  O52  1  0.78610100  0.83949900  0.06358200  1
  O  O53  1  0.55386000  0.66028900  0.68376300  1
  O  O54  1  0.80599300  0.48583500  0.06728300  1
  O  O55  1  0.16355600  0.26872900  0.19800200  1
  O  O56  1  0.28610100  0.16050100  0.43641800  1
  O  O57  1  0.55386000  0.16028900  0.81623700  1
  O  O58  1  0.69400700  0.48583500  0.56728300  1
  O  O59  1  0.21389900  0.66050100  0.56358200  1
  O  O60  1  0.19400700  0.51416500  0.93271700  1
  O  O61  1  0.66355600  0.73127100  0.30199800  1
  O  O62  1  0.06788400  0.00015300  0.81237800  1
  O  O63  1  0.83644400  0.73127100  0.80199800  1
  O  O64  1  0.83644400  0.23127100  0.69800200  1
  O  O65  1  0.80599300  0.98583500  0.43271700  1
  O  O66  1  0.28610100  0.66050100  0.06358200  1
  O  O67  1  0.19400700  0.01416500  0.56728300  1
  O  O68  1  0.33644400  0.26872900  0.69800200  1
  O  O69  1  0.07786500  0.79529500  0.94940000  1
  O  O70  1  0.42213500  0.79529500  0.44940000  1
  O  O71  1  0.66355600  0.23127100  0.19800200  1
  O  O72  1  0.42213500  0.29529500  0.05060000  1
  O  O73  1  0.57786500  0.20470500  0.55060000  1
  O  O74  1  0.07786500  0.29529500  0.55060000  1
  O  O75  1  0.44614000  0.33971100  0.31623700  1
  O  O76  1  0.56788400  0.49984700  0.81237800  1
  O  O77  1  0.92213500  0.70470500  0.44940000  1
  O  O78  1  0.05386000  0.33971100  0.81623700  1
  O  O79  1  0.93211600  0.99984700  0.18762200  1
