# generated using pymatgen
data_MgMn(SiO3)2
_symmetry_space_group_name_H-M   'P 1'
_cell_length_a   5.33493400
_cell_length_b   9.09724600
_cell_length_c   18.66405300
_cell_angle_alpha   90.00000000
_cell_angle_beta   90.00000000
_cell_angle_gamma   90.00000000
_symmetry_Int_Tables_number   1
_chemical_formula_structural   MgMn(SiO3)2
_chemical_formula_sum   'Mg8 Mn8 Si16 O48'
_cell_volume   905.82634755
_cell_formula_units_Z   8
loop_
 _symmetry_equiv_pos_site_id
 _symmetry_equiv_pos_as_xyz
  1  'x, y, z'
loop_
 _atom_site_type_symbol
 _atom_site_label
 _atom_site_symmetry_multiplicity
 _atom_site_fract_x
 _atom_site_fract_y
 _atom_site_fract_z
 _atom_site_occupancy
  Mg  Mg0  1  0.61627300  0.15103900  0.37492600  1
  Mg  Mg1  1  0.38372700  0.84896100  0.62507400  1
  Mg  Mg2  1  0.61627300  0.65103900  0.12507400  1
  Mg  Mg3  1  0.11627300  0.84896100  0.12507400  1
  Mg  Mg4  1  0.88372700  0.15103900  0.87492600  1
  Mg  Mg5  1  0.38372700  0.34896100  0.87492600  1
  Mg  Mg6  1  0.11627300  0.34896100  0.37492600  1
  Mg  Mg7  1  0.88372700  0.65103900  0.62507400  1
  Mn  Mn8  1  0.38055500  0.98445800  0.87686200  1
  Mn  Mn9  1  0.61944500  0.01554200  0.12313800  1
  Mn  Mn10  1  0.88055500  0.01554200  0.62313800  1
  Mn  Mn11  1  0.11944500  0.98445800  0.37686200  1
  Mn  Mn12  1  0.38055500  0.48445800  0.62313800  1
  Mn  Mn13  1  0.61944500  0.51554200  0.37686200  1
  Mn  Mn14  1  0.88055500  0.51554200  0.87686200  1
  Mn  Mn15  1  0.11944500  0.48445800  0.12313800  1
  Si  Si16  1  0.55967200  0.66092200  0.77104900  1
  Si  Si17  1  0.70798000  0.83662500  0.47591900  1
  Si  Si18  1  0.79202000  0.83662500  0.97591900  1
  Si  Si19  1  0.94032800  0.16092200  0.22895100  1
  Si  Si20  1  0.05967200  0.33907800  0.72895100  1
  Si  Si21  1  0.44032800  0.83907800  0.27104900  1
  Si  Si22  1  0.20798000  0.66337500  0.47591900  1
  Si  Si23  1  0.70798000  0.33662500  0.02408100  1
  Si  Si24  1  0.79202000  0.33662500  0.52408100  1
  Si  Si25  1  0.94032800  0.66092200  0.27104900  1
  Si  Si26  1  0.44032800  0.33907800  0.22895100  1
  Si  Si27  1  0.55967200  0.16092200  0.72895100  1
  Si  Si28  1  0.29202000  0.16337500  0.52408100  1
  Si  Si29  1  0.05967200  0.83907800  0.77104900  1
  Si  Si30  1  0.29202000  0.66337500  0.97591900  1
  Si  Si31  1  0.20798000  0.16337500  0.02408100  1
  O  O32  1  0.94352300  0.50256600  0.31022100  1
  O  O33  1  0.28593000  0.01288600  0.06440300  1
  O  O34  1  0.05647700  0.49743400  0.68977900  1
  O  O35  1  0.70755500  0.33632500  0.93634200  1
  O  O36  1  0.20755500  0.16367500  0.93634200  1
  O  O37  1  0.91997500  0.21154200  0.05116900  1
  O  O38  1  0.94410100  0.66470800  0.18359500  1
  O  O39  1  0.05589900  0.83529200  0.68359500  1
  O  O40  1  0.70755500  0.83632500  0.56365800  1
  O  O41  1  0.94410100  0.16470800  0.31640500  1
  O  O42  1  0.44352300  0.49743400  0.18977900  1
  O  O43  1  0.79244500  0.33632500  0.43634200  1
  O  O44  1  0.71407000  0.98711400  0.93559700  1
  O  O45  1  0.44410100  0.83529200  0.18359500  1
  O  O46  1  0.55647700  0.00256600  0.68977900  1
  O  O47  1  0.28593000  0.51288600  0.43559700  1
  O  O48  1  0.44352300  0.99743400  0.31022100  1
  O  O49  1  0.16955200  0.76827500  0.30126600  1
  O  O50  1  0.33044800  0.76827500  0.80126600  1
  O  O51  1  0.58002500  0.71154200  0.94883100  1
  O  O52  1  0.79244500  0.83632500  0.06365800  1
  O  O53  1  0.55589900  0.66470800  0.68359500  1
  O  O54  1  0.78593000  0.48711400  0.06440300  1
  O  O55  1  0.16955200  0.26827500  0.19873400  1
  O  O56  1  0.29244500  0.16367500  0.43634200  1
  O  O57  1  0.55589900  0.16470800  0.81640500  1
  O  O58  1  0.71407000  0.48711400  0.56440300  1
  O  O59  1  0.20755500  0.66367500  0.56365800  1
  O  O60  1  0.21407000  0.51288600  0.93559700  1
  O  O61  1  0.66955200  0.73172500  0.30126600  1
  O  O62  1  0.05647700  0.99743400  0.81022100  1
  O  O63  1  0.83044800  0.73172500  0.80126600  1
  O  O64  1  0.83044800  0.23172500  0.69873400  1
  O  O65  1  0.78593000  0.98711400  0.43559700  1
  O  O66  1  0.29244500  0.66367500  0.06365800  1
  O  O67  1  0.21407000  0.01288600  0.56440300  1
  O  O68  1  0.33044800  0.26827500  0.69873400  1
  O  O69  1  0.08002500  0.78845800  0.94883100  1
  O  O70  1  0.41997500  0.78845800  0.44883100  1
  O  O71  1  0.66955200  0.23172500  0.19873400  1
  O  O72  1  0.41997500  0.28845800  0.05116900  1
  O  O73  1  0.58002500  0.21154200  0.55116900  1
  O  O74  1  0.08002500  0.28845800  0.55116900  1
  O  O75  1  0.44410100  0.33529200  0.31640500  1
  O  O76  1  0.55647700  0.50256600  0.81022100  1
  O  O77  1  0.91997500  0.71154200  0.44883100  1
  O  O78  1  0.05589900  0.33529200  0.81640500  1
  O  O79  1  0.94352300  0.00256600  0.18977900  1
