# generated using pymatgen
data_MnSiO3
_symmetry_space_group_name_H-M   'P 1'
_cell_length_a   9.30908000
_cell_length_b   5.37021800
_cell_length_c   9.75114025
_cell_angle_alpha   76.88962751
_cell_angle_beta   90.00000000
_cell_angle_gamma   90.00000000
_symmetry_Int_Tables_number   1
_chemical_formula_structural   MnSiO3
_chemical_formula_sum   'Mn8 Si8 O24'
_cell_volume   474.77082013
_cell_formula_units_Z   8
loop_
 _symmetry_equiv_pos_site_id
 _symmetry_equiv_pos_as_xyz
  1  'x, y, z'
loop_
 _atom_site_type_symbol
 _atom_site_label
 _atom_site_symmetry_multiplicity
 _atom_site_fract_x
 _atom_site_fract_y
 _atom_site_fract_z
 _atom_site_occupancy
  Mn  Mn0  1  0.15066500  0.51898100  0.74893500  1
  Mn  Mn1  1  0.34933500  0.01898100  0.74893500  1
  Mn  Mn2  1  0.01792100  0.97582000  0.25344300  1
  Mn  Mn3  1  0.98207900  0.02418000  0.74655700  1
  Mn  Mn4  1  0.51792100  0.52418000  0.74655700  1
  Mn  Mn5  1  0.65066500  0.98101900  0.25106500  1
  Mn  Mn6  1  0.84933500  0.48101900  0.25106500  1
  Mn  Mn7  1  0.48207900  0.47582000  0.25344300  1
  Si  Si8  1  0.16161600  0.74347000  0.04341900  1
  Si  Si9  1  0.66161600  0.75653000  0.95658100  1
  Si  Si10  1  0.83838400  0.25653000  0.95658100  1
  Si  Si11  1  0.16477500  0.30474300  0.45010800  1
  Si  Si12  1  0.83522500  0.69525700  0.54989200  1
  Si  Si13  1  0.33522500  0.80474300  0.45010800  1
  Si  Si14  1  0.33838400  0.24347000  0.04341900  1
  Si  Si15  1  0.66477500  0.19525700  0.54989200  1
  O  O16  1  0.00734400  0.71570200  0.12051200  1
  O  O17  1  0.26322400  0.48492000  0.10138200  1
  O  O18  1  0.65880400  0.26730600  0.37764200  1
  O  O19  1  0.15880400  0.23269400  0.62235800  1
  O  O20  1  0.50734400  0.78429800  0.87948800  1
  O  O21  1  0.34113300  0.30745600  0.87154900  1
  O  O22  1  0.99265600  0.28429800  0.87948800  1
  O  O23  1  0.71087300  0.88479400  0.60090100  1
  O  O24  1  0.15886700  0.80745600  0.87154900  1
  O  O25  1  0.65886700  0.69254400  0.12845100  1
  O  O26  1  0.23677600  0.98492000  0.10138200  1
  O  O27  1  0.49265600  0.21570200  0.12051200  1
  O  O28  1  0.76322400  0.01508000  0.89861800  1
  O  O29  1  0.98065100  0.74507200  0.62948900  1
  O  O30  1  0.21087300  0.61520600  0.39909900  1
  O  O31  1  0.01934900  0.25492800  0.37051100  1
  O  O32  1  0.78912700  0.38479400  0.60090100  1
  O  O33  1  0.84119600  0.76730600  0.37764200  1
  O  O34  1  0.73677600  0.51508000  0.89861800  1
  O  O35  1  0.51934900  0.24507200  0.62948900  1
  O  O36  1  0.84113300  0.19254400  0.12845100  1
  O  O37  1  0.34119600  0.73269400  0.62235800  1
  O  O38  1  0.48065100  0.75492800  0.37051100  1
  O  O39  1  0.28912700  0.11520600  0.39909900  1
