# generated using pymatgen
data_Ti(Si2O5)2
_symmetry_space_group_name_H-M   'P 1'
_cell_length_a   7.43339800
_cell_length_b   7.43339800
_cell_length_c   14.95549800
_cell_angle_alpha   90.00000000
_cell_angle_beta   90.00000000
_cell_angle_gamma   90.00000000
_symmetry_Int_Tables_number   1
_chemical_formula_structural   Ti(Si2O5)2
_chemical_formula_sum   'Ti4 Si16 O40'
_cell_volume   826.37211133
_cell_formula_units_Z   4
loop_
 _symmetry_equiv_pos_site_id
 _symmetry_equiv_pos_as_xyz
  1  'x, y, z'
loop_
 _atom_site_type_symbol
 _atom_site_label
 _atom_site_symmetry_multiplicity
 _atom_site_fract_x
 _atom_site_fract_y
 _atom_site_fract_z
 _atom_site_occupancy
  Ti  Ti0  1  0.50000000  0.00000000  0.55276900  1
  Ti  Ti1  1  0.00000000  0.50000000  0.94723100  1
  Ti  Ti2  1  0.00000000  0.50000000  0.44723100  1
  Ti  Ti3  1  0.50000000  0.00000000  0.05276900  1
  Si  Si4  1  0.18246600  0.26156300  0.64509600  1
  Si  Si5  1  0.81753400  0.73843700  0.64509600  1
  Si  Si6  1  0.26156300  0.18246600  0.85490400  1
  Si  Si7  1  0.76156300  0.31753400  0.64509600  1
  Si  Si8  1  0.23843700  0.68246600  0.64509600  1
  Si  Si9  1  0.31753400  0.76156300  0.85490400  1
  Si  Si10  1  0.68246600  0.23843700  0.85490400  1
  Si  Si11  1  0.73843700  0.81753400  0.85490400  1
  Si  Si12  1  0.31753400  0.23843700  0.35490400  1
  Si  Si13  1  0.68246600  0.76156300  0.35490400  1
  Si  Si14  1  0.23843700  0.31753400  0.14509600  1
  Si  Si15  1  0.73843700  0.18246600  0.35490400  1
  Si  Si16  1  0.26156300  0.81753400  0.35490400  1
  Si  Si17  1  0.18246600  0.73843700  0.14509600  1
  Si  Si18  1  0.81753400  0.26156300  0.14509600  1
  Si  Si19  1  0.76156300  0.68246600  0.14509600  1
  O  O20  1  0.28648000  0.11682600  0.58362100  1
  O  O21  1  0.71352000  0.88317400  0.58362100  1
  O  O22  1  0.11682600  0.28648000  0.91637900  1
  O  O23  1  0.61682600  0.21352000  0.58362100  1
  O  O24  1  0.38317400  0.78648000  0.58362100  1
  O  O25  1  0.21352000  0.61682600  0.91637900  1
  O  O26  1  0.78648000  0.38317400  0.91637900  1
  O  O27  1  0.88317400  0.71352000  0.91637900  1
  O  O28  1  0.21352000  0.38317400  0.41637900  1
  O  O29  1  0.78648000  0.61682600  0.41637900  1
  O  O30  1  0.38317400  0.21352000  0.08362100  1
  O  O31  1  0.88317400  0.28648000  0.41637900  1
  O  O32  1  0.11682600  0.71352000  0.41637900  1
  O  O33  1  0.28648000  0.88317400  0.08362100  1
  O  O34  1  0.71352000  0.11682600  0.08362100  1
  O  O35  1  0.25370500  0.03260100  0.37815800  1
  O  O36  1  0.61682600  0.78648000  0.08362100  1
  O  O37  1  0.75370500  0.53260100  0.62184200  1
  O  O38  1  0.46739900  0.24629500  0.87815800  1
  O  O39  1  0.96739900  0.25370500  0.62184200  1
  O  O40  1  0.03260100  0.74629500  0.62184200  1
  O  O41  1  0.25370500  0.96739900  0.87815800  1
  O  O42  1  0.74629500  0.03260100  0.87815800  1
  O  O43  1  0.53260100  0.75370500  0.87815800  1
  O  O44  1  0.71696900  0.71696900  0.25000000  1
  O  O45  1  0.78303100  0.21696900  0.25000000  1
  O  O46  1  0.21696900  0.78303100  0.25000000  1
  O  O47  1  0.28303100  0.28303100  0.25000000  1
  O  O48  1  0.78303100  0.78303100  0.75000000  1
  O  O49  1  0.71696900  0.28303100  0.75000000  1
  O  O50  1  0.28303100  0.71696900  0.75000000  1
  O  O51  1  0.21696900  0.21696900  0.75000000  1
  O  O52  1  0.96739900  0.74629500  0.12184200  1
  O  O53  1  0.75370500  0.46739900  0.12184200  1
  O  O54  1  0.24629500  0.53260100  0.12184200  1
  O  O55  1  0.46739900  0.75370500  0.37815800  1
  O  O56  1  0.53260100  0.24629500  0.37815800  1
  O  O57  1  0.03260100  0.25370500  0.12184200  1
  O  O58  1  0.74629500  0.96739900  0.37815800  1
  O  O59  1  0.24629500  0.46739900  0.62184200  1
