# generated using pymatgen
data_HeSiO2
_symmetry_space_group_name_H-M   'P 1'
_cell_length_a   5.19480700
_cell_length_b   8.99999600
_cell_length_c   10.48765745
_cell_angle_alpha   55.35610241
_cell_angle_beta   90.00000000
_cell_angle_gamma   90.00000000
_symmetry_Int_Tables_number   1
_chemical_formula_structural   HeSiO2
_chemical_formula_sum   'He8 Si8 O16'
_cell_volume   403.39665180
_cell_formula_units_Z   8
loop_
 _symmetry_equiv_pos_site_id
 _symmetry_equiv_pos_as_xyz
  1  'x, y, z'
loop_
 _atom_site_type_symbol
 _atom_site_label
 _atom_site_symmetry_multiplicity
 _atom_site_fract_x
 _atom_site_fract_y
 _atom_site_fract_z
 _atom_site_occupancy
  He  He0  1  0.19293500  0.37747400  0.04272100  1
  He  He1  1  0.69293500  0.62252600  0.45727900  1
  He  He2  1  0.80706500  0.62252600  0.95727900  1
  He  He3  1  0.30706500  0.37747400  0.54272100  1
  He  He4  1  0.80326800  0.86921100  0.04424900  1
  He  He5  1  0.30326800  0.13078900  0.45575100  1
  He  He6  1  0.19673200  0.13078900  0.95575100  1
  He  He7  1  0.69673200  0.86921100  0.54424900  1
  Si  Si8  1  0.80371700  0.37461100  0.31649100  1
  Si  Si9  1  0.30371700  0.62538900  0.18350900  1
  Si  Si10  1  0.19628300  0.62538900  0.68350900  1
  Si  Si11  1  0.69628300  0.37461100  0.81649100  1
  Si  Si12  1  0.69964500  0.12492000  0.19098700  1
  Si  Si13  1  0.19964500  0.87508000  0.30901300  1
  Si  Si14  1  0.30035500  0.87508000  0.80901300  1
  Si  Si15  1  0.80035500  0.12492000  0.69098700  1
  O  O16  1  0.75555400  0.24063200  0.26240000  1
  O  O17  1  0.25555400  0.75936800  0.23760000  1
  O  O18  1  0.24444600  0.75936800  0.73760000  1
  O  O19  1  0.74444600  0.24063200  0.76240000  1
  O  O20  1  0.81147300  0.25858300  0.50382300  1
  O  O21  1  0.31147300  0.74141700  0.99617700  1
  O  O22  1  0.18852700  0.74141700  0.49617700  1
  O  O23  1  0.68852700  0.25858300  0.00382300  1
  O  O24  1  0.57784300  0.52481800  0.25208500  1
  O  O25  1  0.07784300  0.47518200  0.24791500  1
  O  O26  1  0.42215700  0.47518200  0.74791500  1
  O  O27  1  0.92215700  0.52481800  0.75208500  1
  O  O28  1  0.92393100  0.97528900  0.24375400  1
  O  O29  1  0.42393100  0.02471100  0.25624600  1
  O  O30  1  0.07606900  0.02471100  0.75624600  1
  O  O31  1  0.57606900  0.97528900  0.74375400  1
