# generated using pymatgen
data_Cr2(SiO4)3
_symmetry_space_group_name_H-M   'P 1'
_cell_length_a   10.05655892
_cell_length_b   10.05655892
_cell_length_c   10.05655892
_cell_angle_alpha   109.47122063
_cell_angle_beta   109.47122063
_cell_angle_gamma   109.47122063
_symmetry_Int_Tables_number   1
_chemical_formula_structural   Cr2(SiO4)3
_chemical_formula_sum   'Cr8 Si12 O48'
_cell_volume   782.93609714
_cell_formula_units_Z   4
loop_
 _symmetry_equiv_pos_site_id
 _symmetry_equiv_pos_as_xyz
  1  'x, y, z'
loop_
 _atom_site_type_symbol
 _atom_site_label
 _atom_site_symmetry_multiplicity
 _atom_site_fract_x
 _atom_site_fract_y
 _atom_site_fract_z
 _atom_site_occupancy
  Cr  Cr0  1  0.50000000  0.00000000  0.00000000  1
  Cr  Cr1  1  0.50000000  0.50000000  0.00000000  1
  Cr  Cr2  1  0.00000000  0.50000000  0.50000000  1
  Cr  Cr3  1  0.00000000  0.00000000  0.50000000  1
  Cr  Cr4  1  0.50000000  0.50000000  0.50000000  1
  Cr  Cr5  1  0.00000000  0.50000000  0.00000000  1
  Cr  Cr6  1  0.50000000  0.00000000  0.50000000  1
  Cr  Cr7  1  0.00000000  0.00000000  0.00000000  1
  Si  Si8  1  0.12500000  0.75000000  0.87500000  1
  Si  Si9  1  0.87500000  0.25000000  0.12500000  1
  Si  Si10  1  0.75000000  0.37500000  0.62500000  1
  Si  Si11  1  0.12500000  0.87500000  0.25000000  1
  Si  Si12  1  0.25000000  0.12500000  0.87500000  1
  Si  Si13  1  0.37500000  0.62500000  0.75000000  1
  Si  Si14  1  0.37500000  0.25000000  0.62500000  1
  Si  Si15  1  0.87500000  0.12500000  0.75000000  1
  Si  Si16  1  0.62500000  0.37500000  0.25000000  1
  Si  Si17  1  0.75000000  0.87500000  0.12500000  1
  Si  Si18  1  0.25000000  0.62500000  0.37500000  1
  Si  Si19  1  0.62500000  0.75000000  0.37500000  1
  O  O20  1  0.58497600  0.89901100  0.39230300  1
  O  O21  1  0.39230300  0.58497600  0.89901100  1
  O  O22  1  0.30732700  0.31403400  0.91502400  1
  O  O23  1  0.49329200  0.60098900  0.18596600  1
  O  O24  1  0.31403400  0.89901100  0.00670800  1
  O  O25  1  0.10769700  0.00670800  0.19267300  1
  O  O26  1  0.39230300  0.30732700  0.49329200  1
  O  O27  1  0.89901100  0.39230300  0.58497600  1
  O  O28  1  0.18596600  0.19267300  0.58497600  1
  O  O29  1  0.49329200  0.39230300  0.30732700  1
  O  O30  1  0.89901100  0.00670800  0.31403400  1
  O  O31  1  0.60098900  0.91502400  0.10769700  1
  O  O32  1  0.91502400  0.10769700  0.60098900  1
  O  O33  1  0.30732700  0.49329200  0.39230300  1
  O  O34  1  0.58497600  0.18596600  0.19267300  1
  O  O35  1  0.19267300  0.58497600  0.18596600  1
  O  O36  1  0.00670800  0.31403400  0.89901100  1
  O  O37  1  0.91502400  0.30732700  0.31403400  1
  O  O38  1  0.00670800  0.19267300  0.10769700  1
  O  O39  1  0.81403400  0.80732700  0.41502400  1
  O  O40  1  0.18596600  0.49329200  0.60098900  1
  O  O41  1  0.60098900  0.18596600  0.49329200  1
  O  O42  1  0.19267300  0.10769700  0.00670800  1
  O  O43  1  0.10769700  0.60098900  0.91502400  1
  O  O44  1  0.41502400  0.10098900  0.60769700  1
  O  O45  1  0.60769700  0.41502400  0.10098900  1
  O  O46  1  0.69267300  0.68596600  0.08497600  1
  O  O47  1  0.50670800  0.39901100  0.81403400  1
  O  O48  1  0.68596600  0.10098900  0.99329200  1
  O  O49  1  0.89230300  0.99329200  0.80732700  1
  O  O50  1  0.60769700  0.69267300  0.50670800  1
  O  O51  1  0.10098900  0.60769700  0.41502400  1
  O  O52  1  0.89230300  0.39901100  0.08497600  1
  O  O53  1  0.80732700  0.89230300  0.99329200  1
  O  O54  1  0.39901100  0.81403400  0.50670800  1
  O  O55  1  0.68596600  0.08497600  0.69267300  1
  O  O56  1  0.81403400  0.50670800  0.39901100  1
  O  O57  1  0.99329200  0.80732700  0.89230300  1
  O  O58  1  0.08497600  0.69267300  0.68596600  1
  O  O59  1  0.99329200  0.68596600  0.10098900  1
  O  O60  1  0.80732700  0.41502400  0.81403400  1
  O  O61  1  0.41502400  0.81403400  0.80732700  1
  O  O62  1  0.69267300  0.50670800  0.60769700  1
  O  O63  1  0.08497600  0.89230300  0.39901100  1
  O  O64  1  0.39901100  0.08497600  0.89230300  1
  O  O65  1  0.10098900  0.99329200  0.68596600  1
  O  O66  1  0.50670800  0.60769700  0.69267300  1
  O  O67  1  0.31403400  0.91502400  0.30732700  1
