# generated using pymatgen
data_P2O5
_symmetry_space_group_name_H-M   'P 1'
_cell_length_a   8.00309700
_cell_length_b   8.00309678
_cell_length_c   8.00309762
_cell_angle_alpha   83.20766836
_cell_angle_beta   83.20766823
_cell_angle_gamma   83.20767307
_symmetry_Int_Tables_number   1
_chemical_formula_structural   P2O5
_chemical_formula_sum   'P8 O20'
_cell_volume   502.58997193
_cell_formula_units_Z   4
loop_
 _symmetry_equiv_pos_site_id
 _symmetry_equiv_pos_as_xyz
  1  'x, y, z'
loop_
 _atom_site_type_symbol
 _atom_site_label
 _atom_site_symmetry_multiplicity
 _atom_site_fract_x
 _atom_site_fract_y
 _atom_site_fract_z
 _atom_site_occupancy
  P  P0  1  0.34572100  0.12769700  0.07805600  1
  P  P1  1  0.12769700  0.07805600  0.34572100  1
  P  P2  1  0.07805600  0.34572100  0.12769700  1
  P  P3  1  0.95074300  0.95074300  0.95074300  1
  P  P4  1  0.57805600  0.62769700  0.84572100  1
  P  P5  1  0.62769700  0.84572100  0.57805600  1
  P  P6  1  0.45074300  0.45074300  0.45074300  1
  P  P7  1  0.84572100  0.57805600  0.62769700  1
  O  O8  1  0.60624700  0.39909100  0.16498900  1
  O  O9  1  0.25267800  0.25267800  0.25267800  1
  O  O10  1  0.33225800  0.57634500  0.32302500  1
  O  O11  1  0.66498900  0.89909100  0.10624700  1
  O  O12  1  0.89909100  0.10624700  0.66498900  1
  O  O13  1  0.07634500  0.83225800  0.82302500  1
  O  O14  1  0.47554400  0.74261900  0.69298600  1
  O  O15  1  0.10624700  0.66498900  0.89909100  1
  O  O16  1  0.75267800  0.75267800  0.75267800  1
  O  O17  1  0.19298600  0.24261900  0.97554400  1
  O  O18  1  0.57634500  0.32302500  0.33225800  1
  O  O19  1  0.83225800  0.82302500  0.07634500  1
  O  O20  1  0.69298600  0.47554400  0.74261900  1
  O  O21  1  0.16498900  0.60624700  0.39909100  1
  O  O22  1  0.39909100  0.16498900  0.60624700  1
  O  O23  1  0.82302500  0.07634500  0.83225800  1
  O  O24  1  0.97554400  0.19298600  0.24261900  1
  O  O25  1  0.24261900  0.97554400  0.19298600  1
  O  O26  1  0.74261900  0.69298600  0.47554400  1
  O  O27  1  0.32302500  0.33225800  0.57634500  1
