# generated using pymatgen
data_CoSiO4
_symmetry_space_group_name_H-M   'P 1'
_cell_length_a   9.84900727
_cell_length_b   9.84900727
_cell_length_c   9.84900727
_cell_angle_alpha   109.47122063
_cell_angle_beta   109.47122063
_cell_angle_gamma   109.47122063
_symmetry_Int_Tables_number   1
_chemical_formula_structural   CoSiO4
_chemical_formula_sum   'Co12 Si12 O48'
_cell_volume   735.45394798
_cell_formula_units_Z   12
loop_
 _symmetry_equiv_pos_site_id
 _symmetry_equiv_pos_as_xyz
  1  'x, y, z'
loop_
 _atom_site_type_symbol
 _atom_site_label
 _atom_site_symmetry_multiplicity
 _atom_site_fract_x
 _atom_site_fract_y
 _atom_site_fract_z
 _atom_site_occupancy
  Co  Co0  1  0.87500000  0.75000000  0.62500000  1
  Co  Co1  1  0.87500000  0.62500000  0.25000000  1
  Co  Co2  1  0.62500000  0.87500000  0.75000000  1
  Co  Co3  1  0.25000000  0.87500000  0.62500000  1
  Co  Co4  1  0.75000000  0.62500000  0.87500000  1
  Co  Co5  1  0.62500000  0.25000000  0.87500000  1
  Co  Co6  1  0.12500000  0.25000000  0.37500000  1
  Co  Co7  1  0.12500000  0.37500000  0.75000000  1
  Co  Co8  1  0.37500000  0.12500000  0.25000000  1
  Co  Co9  1  0.75000000  0.12500000  0.37500000  1
  Co  Co10  1  0.25000000  0.37500000  0.12500000  1
  Co  Co11  1  0.37500000  0.75000000  0.12500000  1
  Si  Si12  1  0.12500000  0.75000000  0.87500000  1
  Si  Si13  1  0.75000000  0.87500000  0.12500000  1
  Si  Si14  1  0.25000000  0.62500000  0.37500000  1
  Si  Si15  1  0.62500000  0.75000000  0.37500000  1
  Si  Si16  1  0.87500000  0.12500000  0.75000000  1
  Si  Si17  1  0.37500000  0.25000000  0.62500000  1
  Si  Si18  1  0.37500000  0.62500000  0.75000000  1
  Si  Si19  1  0.25000000  0.12500000  0.87500000  1
  Si  Si20  1  0.62500000  0.37500000  0.25000000  1
  Si  Si21  1  0.12500000  0.87500000  0.25000000  1
  Si  Si22  1  0.75000000  0.37500000  0.62500000  1
  Si  Si23  1  0.87500000  0.25000000  0.12500000  1
  O  O24  1  0.59617700  0.90329300  0.36810100  1
  O  O25  1  0.36810100  0.59617700  0.90329300  1
  O  O26  1  0.27192400  0.30711600  0.90382300  1
  O  O27  1  0.46480800  0.59670700  0.19288400  1
  O  O28  1  0.30711600  0.90329300  0.03519200  1
  O  O29  1  0.13189900  0.03519200  0.22807600  1
  O  O30  1  0.36810100  0.27192400  0.46480800  1
  O  O31  1  0.90329300  0.36810100  0.59617700  1
  O  O32  1  0.19288400  0.22807600  0.59617700  1
  O  O33  1  0.46480800  0.36810100  0.27192400  1
  O  O34  1  0.90329300  0.03519200  0.30711600  1
  O  O35  1  0.59670700  0.90382300  0.13189900  1
  O  O36  1  0.90382300  0.13189900  0.59670700  1
  O  O37  1  0.27192400  0.46480800  0.36810100  1
  O  O38  1  0.59617700  0.19288400  0.22807600  1
  O  O39  1  0.22807600  0.59617700  0.19288400  1
  O  O40  1  0.03519200  0.30711600  0.90329300  1
  O  O41  1  0.90382300  0.27192400  0.30711600  1
  O  O42  1  0.03519200  0.22807600  0.13189900  1
  O  O43  1  0.80711600  0.77192400  0.40382300  1
  O  O44  1  0.30711600  0.90382300  0.27192400  1
  O  O45  1  0.59670700  0.19288400  0.46480800  1
  O  O46  1  0.22807600  0.13189900  0.03519200  1
  O  O47  1  0.13189900  0.59670700  0.90382300  1
  O  O48  1  0.40382300  0.09670700  0.63189900  1
  O  O49  1  0.63189900  0.40382300  0.09670700  1
  O  O50  1  0.72807600  0.69288400  0.09617700  1
  O  O51  1  0.53519200  0.40329300  0.80711600  1
  O  O52  1  0.69288400  0.09670700  0.96480800  1
  O  O53  1  0.86810100  0.96480800  0.77192400  1
  O  O54  1  0.63189900  0.72807600  0.53519200  1
  O  O55  1  0.09670700  0.63189900  0.40382300  1
  O  O56  1  0.86810100  0.40329300  0.09617700  1
  O  O57  1  0.77192400  0.86810100  0.96480800  1
  O  O58  1  0.40329300  0.80711600  0.53519200  1
  O  O59  1  0.69288400  0.09617700  0.72807600  1
  O  O60  1  0.80711600  0.53519200  0.40329300  1
  O  O61  1  0.96480800  0.77192400  0.86810100  1
  O  O62  1  0.09617700  0.72807600  0.69288400  1
  O  O63  1  0.96480800  0.69288400  0.09670700  1
  O  O64  1  0.77192400  0.40382300  0.80711600  1
  O  O65  1  0.40382300  0.80711600  0.77192400  1
  O  O66  1  0.72807600  0.53519200  0.63189900  1
  O  O67  1  0.09617700  0.86810100  0.40329300  1
  O  O68  1  0.40329300  0.09617700  0.86810100  1
  O  O69  1  0.09670700  0.96480800  0.69288400  1
  O  O70  1  0.53519200  0.63189900  0.72807600  1
  O  O71  1  0.19288400  0.46480800  0.59670700  1
