# generated using pymatgen
data_La3Pt2
_symmetry_space_group_name_H-M   'P 1'
_cell_length_a   7.85369781
_cell_length_b   7.85369781
_cell_length_c   7.85369760
_cell_angle_alpha   71.96041818
_cell_angle_beta   71.96041818
_cell_angle_gamma   71.96042222
_symmetry_Int_Tables_number   1
_chemical_formula_structural   La3Pt2
_chemical_formula_sum   'La9 Pt6'
_cell_volume   425.54638252
_cell_formula_units_Z   3
loop_
 _symmetry_equiv_pos_site_id
 _symmetry_equiv_pos_as_xyz
  1  'x, y, z'
loop_
 _atom_site_type_symbol
 _atom_site_label
 _atom_site_symmetry_multiplicity
 _atom_site_fract_x
 _atom_site_fract_y
 _atom_site_fract_z
 _atom_site_occupancy
  La  La0  1  0.00000000  0.00000000  0.00000000  1
  La  La1  1  0.79873800  0.79873800  0.79873800  1
  La  La2  1  0.20126200  0.20126200  0.20126200  1
  La  La3  1  0.32959500  0.60993900  0.83450100  1
  La  La4  1  0.83450100  0.32959500  0.60993900  1
  La  La5  1  0.60993900  0.83450100  0.32959500  1
  La  La6  1  0.67040500  0.39006100  0.16549900  1
  La  La7  1  0.16549900  0.67040500  0.39006100  1
  La  La8  1  0.39006100  0.16549900  0.67040500  1
  Pt  Pt9  1  0.16366300  0.95906000  0.59053200  1
  Pt  Pt10  1  0.59053200  0.16366300  0.95906000  1
  Pt  Pt11  1  0.95906000  0.59053200  0.16366300  1
  Pt  Pt12  1  0.83633700  0.04094000  0.40946800  1
  Pt  Pt13  1  0.40946800  0.83633700  0.04094000  1
  Pt  Pt14  1  0.04094000  0.40946800  0.83633700  1
