# generated using pymatgen
data_ScMo3O8
_symmetry_space_group_name_H-M   'P 1'
_cell_length_a   4.54308700
_cell_length_b   6.10614815
_cell_length_c   6.11176685
_cell_angle_alpha   118.19500051
_cell_angle_beta   90.40673272
_cell_angle_gamma   90.29720777
_symmetry_Int_Tables_number   1
_chemical_formula_structural   ScMo3O8
_chemical_formula_sum   'Sc1 Mo3 O8'
_cell_volume   149.41686479
_cell_formula_units_Z   1
loop_
 _symmetry_equiv_pos_site_id
 _symmetry_equiv_pos_as_xyz
  1  'x, y, z'
loop_
 _atom_site_type_symbol
 _atom_site_label
 _atom_site_symmetry_multiplicity
 _atom_site_fract_x
 _atom_site_fract_y
 _atom_site_fract_z
 _atom_site_occupancy
  Sc  Sc0  1  0.00000000  0.50000000  0.00000000  1
  Mo  Mo1  1  0.50000000  0.50000000  0.50000000  1
  Mo  Mo2  1  0.50000000  0.00000000  0.50000000  1
  Mo  Mo3  1  0.50000000  0.00000000  0.00000000  1
  O  O4  1  0.26100500  0.83939000  0.17581900  1
  O  O5  1  0.72374600  0.17891700  0.35030500  1
  O  O6  1  0.73330600  0.65476200  0.34662000  1
  O  O7  1  0.72992900  0.67426800  0.83478400  1
  O  O8  1  0.26669400  0.34523800  0.65338000  1
  O  O9  1  0.27625400  0.82108300  0.64969500  1
  O  O10  1  0.73899500  0.16061000  0.82418100  1
  O  O11  1  0.27007100  0.32573200  0.16521600  1
