# generated using pymatgen
data_Y2Th8O19
_symmetry_space_group_name_H-M   'P 1'
_cell_length_a   3.95681893
_cell_length_b   3.95681893
_cell_length_c   27.94028547
_cell_angle_alpha   89.95876845
_cell_angle_beta   89.95876845
_cell_angle_gamma   90.00010239
_symmetry_Int_Tables_number   1
_chemical_formula_structural   Y2Th8O19
_chemical_formula_sum   'Y2 Th8 O19'
_cell_volume   437.44450802
_cell_formula_units_Z   1
loop_
 _symmetry_equiv_pos_site_id
 _symmetry_equiv_pos_as_xyz
  1  'x, y, z'
loop_
 _atom_site_type_symbol
 _atom_site_label
 _atom_site_symmetry_multiplicity
 _atom_site_fract_x
 _atom_site_fract_y
 _atom_site_fract_z
 _atom_site_occupancy
  Y  Y0  1  0.50104300  0.99087600  0.44422100  1
  Y  Y1  1  0.00912400  0.49895700  0.55577900  1
  Th  Th2  1  0.50263100  0.99724300  0.64795600  1
  Th  Th3  1  0.99986900  0.49696500  0.74913700  1
  Th  Th4  1  0.49920600  0.99885800  0.84957200  1
  Th  Th5  1  0.99861700  0.49954000  0.94979300  1
  Th  Th6  1  0.50046000  0.00138300  0.05020700  1
  Th  Th7  1  0.00114200  0.50079400  0.15042800  1
  Th  Th8  1  0.50303500  0.00013100  0.25086300  1
  Th  Th9  1  0.00275700  0.49736900  0.35204400  1
  O  O10  1  0.00127600  0.99661600  0.69649700  1
  O  O11  1  0.49957900  0.49812200  0.79986500  1
  O  O12  1  0.99938400  0.99982900  0.89970800  1
  O  O13  1  0.49934500  0.50065500  0.00000000  1
  O  O14  1  0.00017100  0.00061600  0.10029200  1
  O  O15  1  0.50187800  0.50042100  0.20013500  1
  O  O16  1  0.00338400  0.99872400  0.30350300  1
  O  O17  1  0.50148900  0.49493300  0.39715900  1
  O  O18  1  0.50223000  0.50023500  0.29904800  1
  O  O19  1  0.00126000  0.99456100  0.40894000  1
  O  O20  1  0.49744700  0.50255300  0.50000000  1
  O  O21  1  0.50506700  0.49851100  0.60284100  1
  O  O22  1  0.00543900  0.99874000  0.59106000  1
  O  O23  1  0.49976500  0.49777000  0.70095200  1
  O  O24  1  0.99962900  0.99748600  0.79871400  1
  O  O25  1  0.49909900  0.49941100  0.89973400  1
  O  O26  1  0.99938100  0.00061900  0.00000000  1
  O  O27  1  0.50058900  0.50090100  0.10026600  1
  O  O28  1  0.00251400  0.00037100  0.20128600  1
