# generated using pymatgen
data_Ca10TaTi8Al(SiO5)10
_symmetry_space_group_name_H-M   'P 1'
_cell_length_a   6.68373700
_cell_length_b   7.13173749
_cell_length_c   22.16379487
_cell_angle_alpha   86.48638340
_cell_angle_beta   81.41929370
_cell_angle_gamma   65.82122954
_symmetry_Int_Tables_number   1
_chemical_formula_structural   Ca10TaTi8Al(SiO5)10
_chemical_formula_sum   'Ca10 Ta1 Ti8 Al1 Si10 O50'
_cell_volume   953.00356206
_cell_formula_units_Z   1
loop_
 _symmetry_equiv_pos_site_id
 _symmetry_equiv_pos_as_xyz
  1  'x, y, z'
loop_
 _atom_site_type_symbol
 _atom_site_label
 _atom_site_symmetry_multiplicity
 _atom_site_fract_x
 _atom_site_fract_y
 _atom_site_fract_z
 _atom_site_occupancy
  Ca  Ca0  1  0.16555100  0.25031700  0.66889700  1
  Ca  Ca1  1  0.63436200  0.74913000  0.73112100  1
  Ca  Ca2  1  0.76554200  0.25013800  0.46889200  1
  Ca  Ca3  1  0.23445800  0.74986200  0.53110800  1
  Ca  Ca4  1  0.36563800  0.25087000  0.26887900  1
  Ca  Ca5  1  0.83444900  0.74968300  0.33110300  1
  Ca  Ca6  1  0.97877500  0.24064400  0.06894700  1
  Ca  Ca7  1  0.43535500  0.75860400  0.13090300  1
  Ca  Ca8  1  0.56464500  0.24139600  0.86909700  1
  Ca  Ca9  1  0.02122500  0.75935600  0.93105300  1
  Ta  Ta10  1  0.50000000  0.50000000  0.00000000  1
  Ti  Ti11  1  0.09989000  0.49994100  0.80032700  1
  Ti  Ti12  1  0.09978800  0.00036900  0.79981900  1
  Ti  Ti13  1  0.69992300  0.50002100  0.59999000  1
  Ti  Ti14  1  0.69998000  0.00001000  0.60004000  1
  Ti  Ti15  1  0.30007700  0.49997900  0.40001000  1
  Ti  Ti16  1  0.30002000  0.99999000  0.39996000  1
  Ti  Ti17  1  0.90011000  0.50005900  0.19967300  1
  Ti  Ti18  1  0.90021200  0.99963100  0.20018100  1
  Al  Al19  1  0.50000000  0.00000000  0.00000000  1
  Si  Si20  1  0.16375700  0.74993500  0.67188700  1
  Si  Si21  1  0.63560000  0.25007500  0.72825400  1
  Si  Si22  1  0.76403200  0.75011800  0.47181900  1
  Si  Si23  1  0.23596800  0.24988200  0.52818100  1
  Si  Si24  1  0.36440000  0.74992500  0.27174600  1
  Si  Si25  1  0.83624300  0.25006500  0.32811300  1
  Si  Si26  1  0.95484700  0.75677400  0.07146500  1
  Si  Si27  1  0.43465500  0.24588800  0.12814900  1
  Si  Si28  1  0.56534500  0.75411200  0.87185100  1
  Si  Si29  1  0.04515300  0.24322600  0.92853500  1
  O  O30  1  0.42566100  0.40527100  0.77532300  1
  O  O31  1  0.23971800  0.88599600  0.71420300  1
  O  O32  1  0.11363300  0.25020300  0.77250800  1
  O  O33  1  0.04567100  0.61446600  0.71427600  1
  O  O34  1  0.79923500  0.09348700  0.77506700  1
  O  O35  1  0.00075600  0.90593200  0.62482100  1
  O  O36  1  0.75395700  0.38572300  0.68586200  1
  O  O37  1  0.68624300  0.74993900  0.62747900  1
  O  O38  1  0.02567400  0.40594000  0.57511200  1
  O  O39  1  0.56008200  0.11411600  0.68575800  1
  O  O40  1  0.83978700  0.88594700  0.51422800  1
  O  O41  1  0.37426500  0.59400600  0.62492000  1
  O  O42  1  0.71373900  0.25004800  0.57252000  1
  O  O43  1  0.64582200  0.61437500  0.51422700  1
  O  O44  1  0.39920600  0.09414300  0.57516400  1
  O  O45  1  0.60079400  0.90585700  0.42483600  1
  O  O46  1  0.35417800  0.38562500  0.48577300  1
  O  O47  1  0.28626100  0.74995200  0.42748000  1
  O  O48  1  0.62573500  0.40599400  0.37508000  1
  O  O49  1  0.16021300  0.11405300  0.48577200  1
  O  O50  1  0.43991800  0.88588400  0.31424200  1
  O  O51  1  0.97432600  0.59406000  0.42488800  1
  O  O52  1  0.31375700  0.25006100  0.37252100  1
  O  O53  1  0.24604300  0.61427700  0.31413800  1
  O  O54  1  0.99924400  0.09406800  0.37517900  1
  O  O55  1  0.20076500  0.90651300  0.22493300  1
  O  O56  1  0.95432900  0.38553400  0.28572400  1
  O  O57  1  0.88636700  0.74979700  0.22749200  1
  O  O58  1  0.22654800  0.40426800  0.17488800  1
  O  O59  1  0.76028200  0.11400400  0.28579700  1
  O  O60  1  0.03959300  0.88545100  0.11419900  1
  O  O61  1  0.57433900  0.59472900  0.22467700  1
  O  O62  1  0.91419500  0.24940800  0.17251300  1
  O  O63  1  0.84635200  0.61387700  0.11420500  1
  O  O64  1  0.59933700  0.09283700  0.17500700  1
  O  O65  1  0.79545900  0.90775400  0.02432300  1
  O  O66  1  0.55329400  0.38568700  0.08613700  1
  O  O67  1  0.48717700  0.75527600  0.02695900  1
  O  O68  1  0.82996800  0.40364300  0.97470500  1
  O  O69  1  0.36228600  0.11337700  0.08430900  1
  O  O70  1  0.63771400  0.88662300  0.91569100  1
  O  O71  1  0.17003200  0.59635700  0.02529500  1
  O  O72  1  0.51282300  0.24472400  0.97304100  1
  O  O73  1  0.44670600  0.61431300  0.91386300  1
  O  O74  1  0.20454100  0.09224600  0.97567700  1
  O  O75  1  0.40066300  0.90716300  0.82499300  1
  O  O76  1  0.15364800  0.38612300  0.88579500  1
  O  O77  1  0.08580500  0.75059200  0.82748700  1
  O  O78  1  0.96040700  0.11454900  0.88580100  1
  O  O79  1  0.77345200  0.59573200  0.82511200  1
