# generated using pymatgen
data_Tb2EuS4
_symmetry_space_group_name_H-M   'P 1'
_cell_length_a   7.32514086
_cell_length_b   7.32514086
_cell_length_c   7.32514086
_cell_angle_alpha   109.31691474
_cell_angle_beta   109.31691474
_cell_angle_gamma   109.78027517
_symmetry_Int_Tables_number   1
_chemical_formula_structural   Tb2EuS4
_chemical_formula_sum   'Tb4 Eu2 S8'
_cell_volume   302.56352249
_cell_formula_units_Z   2
loop_
 _symmetry_equiv_pos_site_id
 _symmetry_equiv_pos_as_xyz
  1  'x, y, z'
loop_
 _atom_site_type_symbol
 _atom_site_label
 _atom_site_symmetry_multiplicity
 _atom_site_fract_x
 _atom_site_fract_y
 _atom_site_fract_z
 _atom_site_occupancy
  Tb  Tb0  1  0.49945100  0.87500000  0.12445100  1
  Tb  Tb1  1  0.12500000  0.24945100  0.62445100  1
  Tb  Tb2  1  0.75054900  0.37500000  0.87554900  1
  Tb  Tb3  1  0.62500000  0.50054900  0.37554900  1
  Eu  Eu4  1  0.25000000  0.75000000  0.50000000  1
  Eu  Eu5  1  0.00000000  0.00000000  0.00000000  1
  S  S6  1  0.01416500  0.61406200  0.74801600  1
  S  S7  1  0.51614900  0.61604600  0.75198400  1
  S  S8  1  0.23583500  0.48385100  0.09989700  1
  S  S9  1  0.38593800  0.13395400  0.40010300  1
  S  S10  1  0.86406200  0.76416500  0.24801600  1
  S  S11  1  0.38395400  0.13593800  0.90010300  1
  S  S12  1  0.73385100  0.98583500  0.59989700  1
  S  S13  1  0.86604600  0.26614900  0.25198400  1
