# generated using pymatgen
data_Sr6Nb7O21
_symmetry_space_group_name_H-M   'P 1'
_cell_length_a   9.09879925
_cell_length_b   9.09879925
_cell_length_c   9.09879898
_cell_angle_alpha   113.56091723
_cell_angle_beta   113.56091723
_cell_angle_gamma   113.56092094
_symmetry_Int_Tables_number   1
_chemical_formula_structural   Sr6Nb7O21
_chemical_formula_sum   'Sr6 Nb7 O21'
_cell_volume   472.18083286
_cell_formula_units_Z   1
loop_
 _symmetry_equiv_pos_site_id
 _symmetry_equiv_pos_as_xyz
  1  'x, y, z'
loop_
 _atom_site_type_symbol
 _atom_site_label
 _atom_site_symmetry_multiplicity
 _atom_site_fract_x
 _atom_site_fract_y
 _atom_site_fract_z
 _atom_site_occupancy
  Sr  Sr0  1  0.71527100  0.85756200  0.43217900  1
  Sr  Sr1  1  0.43217900  0.71527100  0.85756200  1
  Sr  Sr2  1  0.14243800  0.56782100  0.28472900  1
  Sr  Sr3  1  0.85756200  0.43217900  0.71527100  1
  Sr  Sr4  1  0.56782100  0.28472900  0.14243800  1
  Sr  Sr5  1  0.28472900  0.14243800  0.56782100  1
  Nb  Nb6  1  0.21325600  0.35508800  0.93100000  1
  Nb  Nb7  1  0.93100000  0.21325600  0.35508800  1
  Nb  Nb8  1  0.64491200  0.06900000  0.78674400  1
  Nb  Nb9  1  0.35508800  0.93100000  0.21325600  1
  Nb  Nb10  1  0.06900000  0.78674400  0.64491200  1
  Nb  Nb11  1  0.78674400  0.64491200  0.06900000  1
  Nb  Nb12  1  0.50000000  0.50000000  0.50000000  1
  O  O13  1  0.21985700  0.36647400  0.43952100  1
  O  O14  1  0.36647400  0.43952100  0.21985700  1
  O  O15  1  0.92676800  0.21983900  0.85384100  1
  O  O16  1  0.07183200  0.28558200  0.64305500  1
  O  O17  1  0.64305500  0.07183200  0.28558200  1
  O  O18  1  0.85384100  0.92676800  0.21983900  1
  O  O19  1  0.78016100  0.14615900  0.07323200  1
  O  O20  1  0.35694500  0.92816800  0.71441800  1
  O  O21  1  0.56047900  0.78014300  0.63352600  1
  O  O22  1  0.50000000  0.00000000  0.50000000  1
  O  O23  1  0.28558200  0.64305500  0.07183200  1
  O  O24  1  0.07323200  0.78016100  0.14615900  1
  O  O25  1  0.21983900  0.85384100  0.92676800  1
  O  O26  1  0.00000000  0.50000000  0.50000000  1
  O  O27  1  0.78014300  0.63352600  0.56047900  1
  O  O28  1  0.92816800  0.71441800  0.35694500  1
  O  O29  1  0.50000000  0.50000000  0.00000000  1
  O  O30  1  0.71441800  0.35694500  0.92816800  1
  O  O31  1  0.63352600  0.56047900  0.78014300  1
  O  O32  1  0.43952100  0.21985700  0.36647400  1
  O  O33  1  0.14615900  0.07323200  0.78016100  1
