# generated using pymatgen
data_SrLa7Ti4(Cu2O11)2
_symmetry_space_group_name_H-M   'P 1'
_cell_length_a   5.60164370
_cell_length_b   5.67172091
_cell_length_c   15.75606800
_cell_angle_alpha   90.00000000
_cell_angle_beta   90.00000000
_cell_angle_gamma   90.09161104
_symmetry_Int_Tables_number   1
_chemical_formula_structural   SrLa7Ti4(Cu2O11)2
_chemical_formula_sum   'Sr1 La7 Ti4 Cu4 O22'
_cell_volume   500.58476129
_cell_formula_units_Z   1
loop_
 _symmetry_equiv_pos_site_id
 _symmetry_equiv_pos_as_xyz
  1  'x, y, z'
loop_
 _atom_site_type_symbol
 _atom_site_label
 _atom_site_symmetry_multiplicity
 _atom_site_fract_x
 _atom_site_fract_y
 _atom_site_fract_z
 _atom_site_occupancy
  Sr  Sr0  1  0.50024900  0.47028800  0.87500000  1
  La  La1  1  0.01042600  0.03981400  0.12105800  1
  La  La2  1  0.01042600  0.03981400  0.62894200  1
  La  La3  1  0.48743300  0.54254300  0.12401300  1
  La  La4  1  0.48743300  0.54254300  0.62598700  1
  La  La5  1  0.51535400  0.45148400  0.37500000  1
  La  La6  1  0.98451600  0.95964100  0.37500000  1
  La  La7  1  0.98591800  0.95349000  0.87500000  1
  Ti  Ti8  1  0.99681200  0.50095900  0.25075600  1
  Ti  Ti9  1  0.99681200  0.50095900  0.49924400  1
  Ti  Ti10  1  0.51063700  0.00273900  0.99779700  1
  Ti  Ti11  1  0.51063700  0.00273900  0.75220300  1
  Cu  Cu12  1  0.99996500  0.50053900  0.00003200  1
  Cu  Cu13  1  0.99996500  0.50053900  0.74996800  1
  Cu  Cu14  1  0.49778200  0.99965900  0.24955200  1
  Cu  Cu15  1  0.49778200  0.99965900  0.50044800  1
  O  O16  1  0.09057800  0.52251800  0.37500000  1
  O  O17  1  0.19130400  0.78735300  0.51894800  1
  O  O18  1  0.22783800  0.79117400  0.01826000  1
  O  O19  1  0.19130400  0.78735300  0.23105200  1
  O  O20  1  0.22783800  0.79117400  0.73174000  1
  O  O21  1  0.29919600  0.27991700  0.02173700  1
  O  O22  1  0.27446000  0.29827300  0.23213400  1
  O  O23  1  0.29919600  0.27991700  0.72826300  1
  O  O24  1  0.27446000  0.29827300  0.51786600  1
  O  O25  1  0.41288500  0.01552600  0.87500000  1
  O  O26  1  0.59320100  0.97382100  0.11754500  1
  O  O27  1  0.59320100  0.97382100  0.63245500  1
  O  O28  1  0.71874900  0.70845700  0.28044600  1
  O  O29  1  0.71874900  0.70845700  0.46955400  1
  O  O30  1  0.72083700  0.73033300  0.77661100  1
  O  O31  1  0.72083700  0.73033300  0.97338900  1
  O  O32  1  0.78808600  0.22350900  0.46895700  1
  O  O33  1  0.78808600  0.22350900  0.28104300  1
  O  O34  1  0.78713900  0.20621800  0.77562000  1
  O  O35  1  0.78713900  0.20621800  0.97438000  1
  O  O36  1  0.90138700  0.47322000  0.61562200  1
  O  O37  1  0.90138700  0.47322000  0.13437800  1
