# generated using pymatgen
data_SrPrGaCuO5
_symmetry_space_group_name_H-M   'P 1'
_cell_length_a   5.61435669
_cell_length_b   5.37353555
_cell_length_c   9.16385259
_cell_angle_alpha   107.41853871
_cell_angle_beta   107.73289805
_cell_angle_gamma   90.11515611
_symmetry_Int_Tables_number   1
_chemical_formula_structural   SrPrGaCuO5
_chemical_formula_sum   'Sr2 Pr2 Ga2 Cu2 O10'
_cell_volume   249.92849600
_cell_formula_units_Z   2
loop_
 _symmetry_equiv_pos_site_id
 _symmetry_equiv_pos_as_xyz
  1  'x, y, z'
loop_
 _atom_site_type_symbol
 _atom_site_label
 _atom_site_symmetry_multiplicity
 _atom_site_fract_x
 _atom_site_fract_y
 _atom_site_fract_z
 _atom_site_occupancy
  Sr  Sr0  1  0.41459700  0.84686200  0.77729000  1
  Sr  Sr1  1  0.94730900  0.34491900  0.77574700  1
  Pr  Pr2  1  0.12571300  0.56900800  0.20676700  1
  Pr  Pr3  1  0.66709500  0.06974900  0.20681500  1
  Ga  Ga4  1  0.35606800  0.24266800  0.49707300  1
  Ga  Ga5  1  0.72620000  0.74307800  0.49935500  1
  Cu  Cu6  1  0.53954300  0.45995700  0.99692400  1
  Cu  Cu7  1  0.04459500  0.96029500  0.99744000  1
  O  O8  1  0.30894600  0.72610000  0.02844700  1
  O  O9  1  0.12016800  0.06440000  0.30277200  1
  O  O10  1  0.66011200  0.08745900  0.47981700  1
  O  O11  1  0.34581000  0.28238200  0.69990000  1
  O  O12  1  0.30961700  0.22872600  0.03245300  1
  O  O13  1  0.78924900  0.71789400  0.00375100  1
  O  O14  1  0.80034700  0.21807700  0.00143900  1
  O  O15  1  0.40459600  0.59074800  0.48290600  1
  O  O16  1  0.93915500  0.78938000  0.70246800  1
  O  O17  1  0.77687900  0.55829900  0.30863500  1
