# generated using pymatgen
data_Sr4CaYGa2(Cu2O7)2
_symmetry_space_group_name_H-M   'P 1'
_cell_length_a   7.08725200
_cell_length_b   7.68284641
_cell_length_c   8.15287106
_cell_angle_alpha   99.39262957
_cell_angle_beta   96.05898579
_cell_angle_gamma   106.55436542
_symmetry_Int_Tables_number   1
_chemical_formula_structural   Sr4CaYGa2(Cu2O7)2
_chemical_formula_sum   'Sr4 Ca1 Y1 Ga2 Cu4 O14'
_cell_volume   414.35834011
_cell_formula_units_Z   1
loop_
 _symmetry_equiv_pos_site_id
 _symmetry_equiv_pos_as_xyz
  1  'x, y, z'
loop_
 _atom_site_type_symbol
 _atom_site_label
 _atom_site_symmetry_multiplicity
 _atom_site_fract_x
 _atom_site_fract_y
 _atom_site_fract_z
 _atom_site_occupancy
  Sr  Sr0  1  0.03075400  0.60213800  0.74743300  1
  Sr  Sr1  1  0.81986200  0.74934000  0.18360000  1
  Sr  Sr2  1  0.06892900  0.12018100  0.56598900  1
  Sr  Sr3  1  0.25369400  0.58490300  0.19246800  1
  Ca  Ca4  1  0.02611200  0.13552500  0.98537700  1
  Y  Y5  1  0.50565800  0.99998600  0.50428800  1
  Ga  Ga6  1  0.56263600  0.41628100  0.43553000  1
  Ga  Ga7  1  0.63155900  0.76170400  0.73751600  1
  Cu  Cu8  1  0.43511800  0.47713000  0.84957000  1
  Cu  Cu9  1  0.38685100  0.96473700  0.08720100  1
  Cu  Cu10  1  0.60531200  0.28393800  0.04279600  1
  Cu  Cu11  1  0.86046500  0.28825200  0.29917200  1
  O  O12  1  0.88875200  0.37227400  0.09789400  1
  O  O13  1  0.96476100  0.08830200  0.25324700  1
  O  O14  1  0.70489900  0.61511500  0.87033600  1
  O  O15  1  0.78641700  0.33186100  0.51459500  1
  O  O16  1  0.55206500  0.46797800  0.22016200  1
  O  O17  1  0.53763500  0.65431800  0.51829200  1
  O  O18  1  0.52189200  0.87565400  0.24626400  1
  O  O19  1  0.34923100  0.13561000  0.96945800  1
  O  O20  1  0.38033300  0.22254400  0.48584500  1
  O  O21  1  0.76473500  0.99882600  0.73370500  1
  O  O22  1  0.24341000  0.87713000  0.63768500  1
  O  O23  1  0.16805000  0.37757500  0.83698000  1
  O  O24  1  0.16119600  0.80388700  0.45219300  1
  O  O25  1  0.12367500  0.79480900  0.03240400  1
