# generated using pymatgen
data_Sr8Ce5Nd3(CuO12)2
_symmetry_space_group_name_H-M   'P 1'
_cell_length_a   10.45067092
_cell_length_b   7.08663607
_cell_length_c   11.21216000
_cell_angle_alpha   90.00000000
_cell_angle_beta   90.00000000
_cell_angle_gamma   118.14693275
_symmetry_Int_Tables_number   1
_chemical_formula_structural   Sr8Ce5Nd3(CuO12)2
_chemical_formula_sum   'Sr8 Ce5 Nd3 Cu2 O24'
_cell_volume   732.17433580
_cell_formula_units_Z   1
loop_
 _symmetry_equiv_pos_site_id
 _symmetry_equiv_pos_as_xyz
  1  'x, y, z'
loop_
 _atom_site_type_symbol
 _atom_site_label
 _atom_site_symmetry_multiplicity
 _atom_site_fract_x
 _atom_site_fract_y
 _atom_site_fract_z
 _atom_site_occupancy
  Sr  Sr0  1  0.35858700  0.73957800  0.15478700  1
  Sr  Sr1  1  0.35858700  0.73957800  0.84521300  1
  Sr  Sr2  1  0.32136100  0.29370200  0.35271300  1
  Sr  Sr3  1  0.32136100  0.29370200  0.64728700  1
  Sr  Sr4  1  0.73255600  0.02454900  0.72862600  1
  Sr  Sr5  1  0.61752800  0.37140900  0.17102000  1
  Sr  Sr6  1  0.61752800  0.37140900  0.82898000  1
  Sr  Sr7  1  0.73255600  0.02454900  0.27137400  1
  Ce  Ce8  1  0.96659100  0.26075200  0.50000000  1
  Ce  Ce9  1  0.23914000  0.11253300  0.00000000  1
  Ce  Ce10  1  0.46913600  0.97023000  0.50000000  1
  Ce  Ce11  1  0.71654200  0.80879600  0.00000000  1
  Ce  Ce12  1  0.68413500  0.64787300  0.50000000  1
  Nd  Nd13  1  0.01874000  0.73521600  0.35112300  1
  Nd  Nd14  1  0.01874000  0.73521600  0.64887700  1
  Nd  Nd15  1  0.00502800  0.41012800  0.00000000  1
  Cu  Cu16  1  0.97869600  0.92963300  0.15194100  1
  Cu  Cu17  1  0.97869600  0.92963300  0.84805900  1
  O  O18  1  0.16972200  0.00412200  0.78899100  1
  O  O19  1  0.17277700  0.76357000  0.00000000  1
  O  O20  1  0.21640000  0.87680800  0.50000000  1
  O  O21  1  0.50826600  0.03810900  0.69623300  1
  O  O22  1  0.22480200  0.41452900  0.00000000  1
  O  O23  1  0.18271200  0.38073600  0.50000000  1
  O  O24  1  0.52067100  0.79254400  0.00000000  1
  O  O25  1  0.48570200  0.67138600  0.50000000  1
  O  O26  1  0.16972200  0.00412200  0.21100900  1
  O  O27  1  0.49306000  0.56000900  0.22880200  1
  O  O28  1  0.49306000  0.56000900  0.77119800  1
  O  O29  1  0.45567100  0.18826200  0.00000000  1
  O  O30  1  0.51395300  0.31846600  0.50000000  1
  O  O31  1  0.81984000  0.76007400  0.25583800  1
  O  O32  1  0.81984000  0.76007400  0.74416200  1
  O  O33  1  0.50826600  0.03810900  0.30376700  1
  O  O34  1  0.77888800  0.56629100  0.00000000  1
  O  O35  1  0.84241900  0.52074300  0.50000000  1
  O  O36  1  0.97857000  0.04023500  0.00000000  1
  O  O37  1  0.77025500  0.14418600  0.00000000  1
  O  O38  1  0.72626800  0.02647300  0.50000000  1
  O  O39  1  0.96028100  0.38070300  0.29754400  1
  O  O40  1  0.96028100  0.38070300  0.70245600  1
  O  O41  1  0.95346700  0.93865100  0.50000000  1
