# generated using pymatgen
data_Sr4La2Mg(RuO6)2
_symmetry_space_group_name_H-M   'P 1'
_cell_length_a   3.93965386
_cell_length_b   3.93965462
_cell_length_c   41.62356281
_cell_angle_alpha   106.45689611
_cell_angle_beta   106.45689984
_cell_angle_gamma   89.71490966
_symmetry_Int_Tables_number   1
_chemical_formula_structural   Sr4La2Mg(RuO6)2
_chemical_formula_sum   'Sr8 La4 Mg2 Ru4 O24'
_cell_volume   592.19273501
_cell_formula_units_Z   2
loop_
 _symmetry_equiv_pos_site_id
 _symmetry_equiv_pos_as_xyz
  1  'x, y, z'
loop_
 _atom_site_type_symbol
 _atom_site_label
 _atom_site_symmetry_multiplicity
 _atom_site_fract_x
 _atom_site_fract_y
 _atom_site_fract_z
 _atom_site_occupancy
  Sr  Sr0  1  0.35313800  0.35313800  0.95083400  1
  Sr  Sr1  1  0.35383900  0.35383900  0.45194700  1
  Sr  Sr2  1  0.64686200  0.64686200  0.54916600  1
  Sr  Sr3  1  0.35114900  0.35114900  0.28460100  1
  Sr  Sr4  1  0.65194500  0.65194500  0.38283800  1
  Sr  Sr5  1  0.34805500  0.34805500  0.11716200  1
  Sr  Sr6  1  0.64885100  0.64885100  0.21539900  1
  Sr  Sr7  1  0.64616100  0.64616100  0.04805300  1
  La  La8  1  0.34280200  0.34280200  0.78728500  1
  La  La9  1  0.66517800  0.66517800  0.87810000  1
  La  La10  1  0.33482200  0.33482200  0.62190000  1
  La  La11  1  0.65719800  0.65719800  0.71271500  1
  Mg  Mg12  1  0.99856900  0.99856900  0.83283500  1
  Mg  Mg13  1  0.00143100  0.00143100  0.66716500  1
  Ru  Ru14  1  0.00076700  0.00076700  0.33364500  1
  Ru  Ru15  1  0.99923300  0.99923300  0.16635500  1
  Ru  Ru16  1  0.99684200  0.99684200  0.99887200  1
  Ru  Ru17  1  0.00315800  0.00315800  0.50112800  1
  O  O18  1  0.99552100  0.49691500  0.83263200  1
  O  O19  1  0.13521700  0.13521700  0.88969900  1
  O  O20  1  0.00447900  0.50308500  0.66736800  1
  O  O21  1  0.15837800  0.15837800  0.72650600  1
  O  O22  1  0.49691500  0.99552100  0.83263200  1
  O  O23  1  0.00071500  0.50147000  0.50057900  1
  O  O24  1  0.16354700  0.16354700  0.55620100  1
  O  O25  1  0.83645300  0.83645300  0.94379900  1
  O  O26  1  0.50308500  0.00447900  0.66736800  1
  O  O27  1  0.00075100  0.50086100  0.33371800  1
  O  O28  1  0.15731800  0.15731800  0.38823400  1
  O  O29  1  0.84162200  0.84162200  0.77349400  1
  O  O30  1  0.50147000  0.00071500  0.50057900  1
  O  O31  1  0.99924900  0.49913900  0.16628200  1
  O  O32  1  0.15570900  0.15570900  0.22082100  1
  O  O33  1  0.86478300  0.86478300  0.61030100  1
  O  O34  1  0.50086100  0.00075100  0.33371800  1
  O  O35  1  0.99928500  0.49853000  0.99942100  1
  O  O36  1  0.15503400  0.15503400  0.05353300  1
  O  O37  1  0.84496600  0.84496600  0.44646700  1
  O  O38  1  0.49913900  0.99924900  0.16628200  1
  O  O39  1  0.84429100  0.84429100  0.27917900  1
  O  O40  1  0.49853000  0.99928500  0.99942100  1
  O  O41  1  0.84268200  0.84268200  0.11176600  1
