# generated using pymatgen
data_Sr4Nb2O9
_symmetry_space_group_name_H-M   'P 1'
_cell_length_a   5.87655600
_cell_length_b   5.88220029
_cell_length_c   14.67784719
_cell_angle_alpha   89.61161979
_cell_angle_beta   89.32792128
_cell_angle_gamma   60.70668581
_symmetry_Int_Tables_number   1
_chemical_formula_structural   Sr4Nb2O9
_chemical_formula_sum   'Sr8 Nb4 O18'
_cell_volume   442.46027177
_cell_formula_units_Z   2
loop_
 _symmetry_equiv_pos_site_id
 _symmetry_equiv_pos_as_xyz
  1  'x, y, z'
loop_
 _atom_site_type_symbol
 _atom_site_label
 _atom_site_symmetry_multiplicity
 _atom_site_fract_x
 _atom_site_fract_y
 _atom_site_fract_z
 _atom_site_occupancy
  Sr  Sr0  1  0.73608100  0.63065400  0.91919100  1
  Sr  Sr1  1  0.39528200  0.34943300  0.80567500  1
  Sr  Sr2  1  0.30357700  0.37527300  0.56057300  1
  Sr  Sr3  1  0.04373300  0.00998800  0.76288500  1
  Sr  Sr4  1  0.02804300  0.98215600  0.25131500  1
  Sr  Sr5  1  0.98197600  0.03455300  0.52531200  1
  Sr  Sr6  1  0.66866000  0.67446000  0.39427900  1
  Sr  Sr7  1  0.38459600  0.30709000  0.07115800  1
  Nb  Nb8  1  0.05445300  0.97684000  0.99740100  1
  Nb  Nb9  1  0.70762800  0.63702500  0.66811100  1
  Nb  Nb10  1  0.36555200  0.31135800  0.32965600  1
  Nb  Nb11  1  0.70411800  0.64953900  0.16208800  1
  O  O12  1  0.73892500  0.17525900  0.92805000  1
  O  O13  1  0.26053500  0.09634400  0.93783200  1
  O  O14  1  0.48483100  0.73832200  0.78340800  1
  O  O15  1  0.39307600  0.94740500  0.61648400  1
  O  O16  1  0.97434500  0.43829700  0.77160900  1
  O  O17  1  0.15828700  0.65886300  0.93444700  1
  O  O18  1  0.97287700  0.75199700  0.64860800  1
  O  O19  1  0.83736700  0.49421000  0.53734200  1
  O  O20  1  0.20049700  0.15299700  0.39544700  1
  O  O21  1  0.01472600  0.53389900  0.24984300  1
  O  O22  1  0.69711700  0.09695900  0.38907700  1
  O  O23  1  0.65492200  0.32236200  0.66446800  1
  O  O24  1  0.26275700  0.61091900  0.40618400  1
  O  O25  1  0.57317700  0.44439900  0.23975400  1
  O  O26  1  0.83943500  0.85994900  0.09312500  1
  O  O27  1  0.39156200  0.75660100  0.08418300  1
  O  O28  1  0.48223800  0.98179200  0.23438400  1
  O  O29  1  0.92129600  0.32312300  0.08797800  1
