# generated using pymatgen
data_Sr5Cr3F19
_symmetry_space_group_name_H-M   'P 1'
_cell_length_a   7.39517111
_cell_length_b   10.84329766
_cell_length_c   10.91793426
_cell_angle_alpha   84.62543581
_cell_angle_beta   72.28153669
_cell_angle_gamma   71.97873543
_symmetry_Int_Tables_number   1
_chemical_formula_structural   Sr5Cr3F19
_chemical_formula_sum   'Sr10 Cr6 F38'
_cell_volume   793.04504805
_cell_formula_units_Z   2
loop_
 _symmetry_equiv_pos_site_id
 _symmetry_equiv_pos_as_xyz
  1  'x, y, z'
loop_
 _atom_site_type_symbol
 _atom_site_label
 _atom_site_symmetry_multiplicity
 _atom_site_fract_x
 _atom_site_fract_y
 _atom_site_fract_z
 _atom_site_occupancy
  Sr  Sr0  1  0.08094200  0.67714200  0.17148200  1
  Sr  Sr1  1  0.27899400  0.27765300  0.15998300  1
  Sr  Sr2  1  0.26462700  0.49637300  0.47974400  1
  Sr  Sr3  1  0.26157700  0.82315700  0.67075100  1
  Sr  Sr4  1  0.44198600  0.83802000  0.27507600  1
  Sr  Sr5  1  0.55499500  0.17171200  0.72001100  1
  Sr  Sr6  1  0.73612700  0.17776900  0.32214300  1
  Sr  Sr7  1  0.73515800  0.50338700  0.51711900  1
  Sr  Sr8  1  0.73331000  0.71908700  0.83097200  1
  Sr  Sr9  1  0.92604900  0.32345800  0.81865500  1
  Cr  Cr10  1  0.28486700  0.99877900  0.99225000  1
  Cr  Cr11  1  0.15413700  0.16603000  0.51285300  1
  Cr  Cr12  1  0.32344600  0.51899300  0.83197900  1
  Cr  Cr13  1  0.78720500  0.00574200  0.99792600  1
  Cr  Cr14  1  0.68127800  0.48339500  0.16158300  1
  Cr  Cr15  1  0.84236100  0.83513800  0.48304300  1
  F  F16  1  0.02444700  0.19992100  0.37618900  1
  F  F17  1  0.26729900  0.04514200  0.16261400  1
  F  F18  1  0.04905500  0.35063700  0.55017100  1
  F  F19  1  0.15024900  0.46356100  0.29579900  1
  F  F20  1  0.25194900  0.48413200  0.01500700  1
  F  F21  1  0.07403700  0.85092700  0.34340900  1
  F  F22  1  0.26906100  0.15439000  0.65343400  1
  F  F23  1  0.28174900  0.17403700  0.93590500  1
  F  F24  1  0.29133400  0.82872100  0.06060200  1
  F  F25  1  0.37833400  0.20814000  0.38552500  1
  F  F26  1  0.07386700  0.65387000  0.84924400  1
  F  F27  1  0.22767600  0.38643000  0.78660800  1
  F  F28  1  0.42535000  0.61956100  0.19478100  1
  F  F29  1  0.61330000  0.07724600  0.16360700  1
  F  F30  1  0.57436800  0.34447800  0.14899400  1
  F  F31  1  0.26369800  0.98021400  0.48145700  1
  F  F32  1  0.38422900  0.56390100  0.65052800  1
  F  F33  1  0.41319200  0.69180600  0.45307100  1
  F  F34  1  0.57783600  0.31036200  0.53665900  1
  F  F35  1  0.61551100  0.44239900  0.34368900  1
  F  F36  1  0.73291000  0.02065500  0.51720900  1
  F  F37  1  0.43174800  0.65691300  0.84657000  1
  F  F38  1  0.58587100  0.38828400  0.78796000  1
  F  F39  1  0.77613600  0.61761500  0.20324000  1
  F  F40  1  0.35324300  0.94172100  0.81834800  1
  F  F41  1  0.92645000  0.34178400  0.14880100  1
  F  F42  1  0.62574100  0.78670700  0.61277300  1
  F  F43  1  0.71168200  0.17350700  0.91825300  1
  F  F44  1  0.82922600  0.83518100  0.07292400  1
  F  F45  1  0.71661000  0.85617100  0.34824500  1
  F  F46  1  0.91666900  0.15670100  0.64799000  1
  F  F47  1  0.75760400  0.51430900  0.97718600  1
  F  F48  1  0.86212400  0.53465400  0.69831200  1
  F  F49  1  0.94990200  0.65069100  0.44183700  1
  F  F50  1  0.99190500  0.05562800  0.04547500  1
  F  F51  1  0.58265400  0.95608500  0.94263000  1
  F  F52  1  0.96703000  0.80006400  0.62232900  1
  F  F53  1  0.96569800  0.93882100  0.83665400  1
