# generated using pymatgen
data_Sr3Ir2O7
_symmetry_space_group_name_H-M   'P 1'
_cell_length_a   5.84010525
_cell_length_b   5.84010558
_cell_length_c   6.97172017
_cell_angle_alpha   67.68272715
_cell_angle_beta   67.68272987
_cell_angle_gamma   67.88398228
_symmetry_Int_Tables_number   1
_chemical_formula_structural   Sr3Ir2O7
_chemical_formula_sum   'Sr3 Ir2 O7'
_cell_volume   195.85603561
_cell_formula_units_Z   1
loop_
 _symmetry_equiv_pos_site_id
 _symmetry_equiv_pos_as_xyz
  1  'x, y, z'
loop_
 _atom_site_type_symbol
 _atom_site_label
 _atom_site_symmetry_multiplicity
 _atom_site_fract_x
 _atom_site_fract_y
 _atom_site_fract_z
 _atom_site_occupancy
  Sr  Sr0  1  0.30652700  0.30652700  0.60840900  1
  Sr  Sr1  1  0.50000000  0.50000000  0.00000000  1
  Sr  Sr2  1  0.69347300  0.69347300  0.39159100  1
  Ir  Ir3  1  0.08263600  0.08263600  0.20021800  1
  Ir  Ir4  1  0.91736400  0.91736400  0.79978200  1
  O  O5  1  0.00000000  0.00000000  0.00000000  1
  O  O6  1  0.21973800  0.21973800  0.32513200  1
  O  O7  1  0.33094800  0.75602100  0.25875500  1
  O  O8  1  0.24397900  0.66905200  0.74124500  1
  O  O9  1  0.75602100  0.33094800  0.25875500  1
  O  O10  1  0.66905200  0.24397900  0.74124500  1
  O  O11  1  0.78026200  0.78026200  0.67486700  1
