# generated using pymatgen
data_Sr3Ta7Si(BiO4)9
_symmetry_space_group_name_H-M   'P 1'
_cell_length_a   5.57552379
_cell_length_b   11.33623167
_cell_length_c   14.15231667
_cell_angle_alpha   66.15754609
_cell_angle_beta   102.35830108
_cell_angle_gamma   89.76162737
_symmetry_Int_Tables_number   1
_chemical_formula_structural   Sr3Ta7Si(BiO4)9
_chemical_formula_sum   'Sr3 Ta7 Si1 Bi9 O36'
_cell_volume   795.08208168
_cell_formula_units_Z   1
loop_
 _symmetry_equiv_pos_site_id
 _symmetry_equiv_pos_as_xyz
  1  'x, y, z'
loop_
 _atom_site_type_symbol
 _atom_site_label
 _atom_site_symmetry_multiplicity
 _atom_site_fract_x
 _atom_site_fract_y
 _atom_site_fract_z
 _atom_site_occupancy
  Sr  Sr0  1  0.24167200  0.24650000  0.99689200  1
  Sr  Sr1  1  0.76844500  0.49770500  0.01168900  1
  Sr  Sr2  1  0.74301500  0.00157000  0.99692800  1
  Ta  Ta3  1  0.15750500  0.07361000  0.83448200  1
  Ta  Ta4  1  0.16886900  0.57210900  0.83906800  1
  Ta  Ta5  1  0.35417000  0.39943000  0.17043500  1
  Ta  Ta6  1  0.33768300  0.91026900  0.16965500  1
  Ta  Ta7  1  0.65813000  0.33063200  0.82806000  1
  Ta  Ta8  1  0.66483200  0.82280200  0.83178000  1
  Ta  Ta9  1  0.83176600  0.15722500  0.16506200  1
  Si  Si10  1  0.82130300  0.69351600  0.16174800  1
  Bi  Bi11  1  0.03410800  0.47256500  0.58624400  1
  Bi  Bi12  1  0.03321000  0.98570500  0.59298800  1
  Bi  Bi13  1  0.25085700  0.74633100  0.01554700  1
  Bi  Bi14  1  0.41881800  0.07104300  0.40027600  1
  Bi  Bi15  1  0.42577600  0.58489900  0.39444200  1
  Bi  Bi16  1  0.57390300  0.23224400  0.57889800  1
  Bi  Bi17  1  0.59746300  0.72037200  0.59840700  1
  Bi  Bi18  1  0.96216500  0.36601400  0.36098300  1
  Bi  Bi19  1  0.98289900  0.83431300  0.39791600  1
  O  O20  1  0.01237800  0.12704600  0.68876800  1
  O  O21  1  0.01632100  0.65112900  0.69356800  1
  O  O22  1  0.03736200  0.29654400  0.14232200  1
  O  O23  1  0.03267900  0.80201700  0.13263200  1
  O  O24  1  0.09462300  0.05210800  0.13295200  1
  O  O25  1  0.15300700  0.55900600  0.12723900  1
  O  O26  1  0.25568000  0.13210500  0.50362500  1
  O  O27  1  0.24511000  0.63492300  0.50104700  1
  O  O28  1  0.24831700  0.40234800  0.48719800  1
  O  O29  1  0.26697700  0.88456400  0.50458200  1
  O  O30  1  0.37674100  0.43745600  0.82438800  1
  O  O31  1  0.39704500  0.92817600  0.84033500  1
  O  O32  1  0.41676000  0.18561400  0.83211700  1
  O  O33  1  0.44781100  0.67766100  0.84389200  1
  O  O34  1  0.33888200  0.82968700  0.31542400  1
  O  O35  1  0.32330700  0.32966900  0.31521300  1
  O  O36  1  0.30884000  0.46364900  0.00353500  1
  O  O37  1  0.29063100  0.97570200  0.00256700  1
  O  O38  1  0.64475600  0.39451100  0.68424700  1
  O  O39  1  0.64880300  0.88900100  0.69036700  1
  O  O40  1  0.53969300  0.23433000  0.17783900  1
  O  O41  1  0.55803800  0.75676000  0.17394400  1
  O  O42  1  0.62386100  0.00025000  0.17043700  1
  O  O43  1  0.66522300  0.45845200  0.19006300  1
  O  O44  1  0.73857900  0.14146700  0.48936000  1
  O  O45  1  0.74338500  0.63902600  0.49585900  1
  O  O46  1  0.74987700  0.40260900  0.48276400  1
  O  O47  1  0.75912800  0.88886900  0.49723000  1
  O  O48  1  0.69734900  0.22723700  0.00200300  1
  O  O49  1  0.69868000  0.70426800  0.03742100  1
  O  O50  1  0.90535500  0.43637800  0.86581000  1
  O  O51  1  0.91573800  0.92260200  0.87811400  1
  O  O52  1  0.93096200  0.18229200  0.86263300  1
  O  O53  1  0.95878800  0.68208000  0.88066300  1
  O  O54  1  0.98121400  0.06089300  0.31389200  1
  O  O55  1  0.95151300  0.58691500  0.28444500  1
