# generated using pymatgen
data_Sr2LiLa2RuO8
_symmetry_space_group_name_H-M   'P 1'
_cell_length_a   5.99816658
_cell_length_b   6.02163074
_cell_length_c   26.61184009
_cell_angle_alpha   105.51174691
_cell_angle_beta   105.40280939
_cell_angle_gamma   83.92213739
_symmetry_Int_Tables_number   1
_chemical_formula_structural   Sr2LiLa2RuO8
_chemical_formula_sum   'Sr8 Li4 La8 Ru4 O32'
_cell_volume   892.28116022
_cell_formula_units_Z   4
loop_
 _symmetry_equiv_pos_site_id
 _symmetry_equiv_pos_as_xyz
  1  'x, y, z'
loop_
 _atom_site_type_symbol
 _atom_site_label
 _atom_site_symmetry_multiplicity
 _atom_site_fract_x
 _atom_site_fract_y
 _atom_site_fract_z
 _atom_site_occupancy
  Sr  Sr0  1  0.11421300  0.09078700  0.56571500  1
  Sr  Sr1  1  0.15228900  0.62525300  0.68258600  1
  Sr  Sr2  1  0.14682300  0.63078900  0.18276800  1
  Sr  Sr3  1  0.87018300  0.35572000  0.81883900  1
  Sr  Sr4  1  0.60360800  0.62081600  0.06903700  1
  Sr  Sr5  1  0.88213000  0.89820700  0.93258000  1
  Sr  Sr6  1  0.86666500  0.35065800  0.31858100  1
  Sr  Sr7  1  0.88770600  0.90667700  0.43323000  1
  Li  Li8  1  0.22808100  0.24759700  0.74613600  1
  Li  Li9  1  0.49906200  0.98020700  0.99664500  1
  Li  Li10  1  0.24725500  0.26434500  0.25303700  1
  Li  Li11  1  0.49704400  0.99174000  0.49735700  1
  La  La12  1  0.34892800  0.88363600  0.81622400  1
  La  La13  1  0.14020700  0.10777200  0.06700400  1
  La  La14  1  0.39672800  0.36080700  0.93449700  1
  La  La15  1  0.35881700  0.88677600  0.31692200  1
  La  La16  1  0.38863000  0.36109500  0.43366400  1
  La  La17  1  0.62386500  0.64582400  0.57042500  1
  La  La18  1  0.60234900  0.14629000  0.68500300  1
  La  La19  1  0.61533300  0.14707200  0.18528200  1
  Ru  Ru20  1  0.75933300  0.75079100  0.75198900  1
  Ru  Ru21  1  0.99494900  0.50527500  0.00008300  1
  Ru  Ru22  1  0.75694500  0.74662200  0.25141400  1
  Ru  Ru23  1  0.99880800  0.50146200  0.49979800  1
  O  O24  1  0.01117200  0.52000000  0.75414800  1
  O  O25  1  0.97569200  0.98684200  0.75583600  1
  O  O26  1  0.03684200  0.55285400  0.57968600  1
  O  O27  1  0.22350200  0.21669300  0.66081700  1
  O  O28  1  0.99178000  0.49803200  0.25018500  1
  O  O29  1  0.98302400  0.97565800  0.25747400  1
  O  O30  1  0.28462300  0.28041200  0.84571500  1
  O  O31  1  0.46265900  0.96022900  0.90596000  1
  O  O32  1  0.22735000  0.23244900  0.49536900  1
  O  O33  1  0.25228600  0.70820200  0.50779800  1
  O  O34  1  0.05207500  0.54345700  0.07993700  1
  O  O35  1  0.21796500  0.21765400  0.15635300  1
  O  O36  1  0.53082500  0.52658900  0.74590400  1
  O  O37  1  0.49819500  0.99451300  0.75086700  1
  O  O38  1  0.28687800  0.28497000  0.34438200  1
  O  O39  1  0.46505500  0.96182500  0.40627700  1
  O  O40  1  0.24864900  0.24771700  0.99968700  1
  O  O41  1  0.23102000  0.72855400  0.00668000  1
  O  O42  1  0.55489700  0.02150400  0.59534500  1
  O  O43  1  0.69892000  0.70024300  0.66836200  1
  O  O44  1  0.51878000  0.52772800  0.24639800  1
  O  O45  1  0.50619700  0.00541100  0.25190000  1
  O  O46  1  0.80064100  0.80907000  0.83057600  1
  O  O47  1  0.95326400  0.45130400  0.92064800  1
  O  O48  1  0.75743300  0.28713100  0.49275700  1
  O  O49  1  0.76872500  0.76450200  0.50357500  1
  O  O50  1  0.53718000  0.03568100  0.09616600  1
  O  O51  1  0.69947800  0.70694900  0.17160200  1
  O  O52  1  0.80197100  0.80788600  0.33119500  1
  O  O53  1  0.95240200  0.45865100  0.42075700  1
  O  O54  1  0.77332800  0.27053100  0.99342200  1
  O  O55  1  0.75202300  0.74531800  0.00018700  1
