# generated using pymatgen
data_Sm3TaO7
_symmetry_space_group_name_H-M   'P 1'
_cell_length_a   8.30366118
_cell_length_b   8.30366118
_cell_length_c   5.47188600
_cell_angle_alpha   90.00000000
_cell_angle_beta   90.00000000
_cell_angle_gamma   125.14894925
_symmetry_Int_Tables_number   1
_chemical_formula_structural   Sm3TaO7
_chemical_formula_sum   'Sm6 Ta2 O14'
_cell_volume   308.49495426
_cell_formula_units_Z   2
loop_
 _symmetry_equiv_pos_site_id
 _symmetry_equiv_pos_as_xyz
  1  'x, y, z'
loop_
 _atom_site_type_symbol
 _atom_site_label
 _atom_site_symmetry_multiplicity
 _atom_site_fract_x
 _atom_site_fract_y
 _atom_site_fract_z
 _atom_site_occupancy
  Sm  Sm0  1  0.38223700  0.61776300  0.52759100  1
  Sm  Sm1  1  0.50000000  0.00000000  0.00000000  1
  Sm  Sm2  1  0.88223700  0.11776300  0.47240900  1
  Sm  Sm3  1  0.61776300  0.38223700  0.47240900  1
  Sm  Sm4  1  0.00000000  0.50000000  0.00000000  1
  Sm  Sm5  1  0.11776300  0.88223700  0.52759100  1
  Ta  Ta6  1  0.75000000  0.75000000  0.00000000  1
  Ta  Ta7  1  0.25000000  0.25000000  0.00000000  1
  O  O8  1  0.98970200  0.01029800  0.20753100  1
  O  O9  1  0.51029800  0.48970200  0.20753100  1
  O  O10  1  0.48970200  0.51029800  0.79246900  1
  O  O11  1  0.66097200  0.89291800  0.76671700  1
  O  O12  1  0.75000000  0.25000000  0.24324300  1
  O  O13  1  0.01029800  0.98970200  0.79246900  1
  O  O14  1  0.10708200  0.33902800  0.76671700  1
  O  O15  1  0.83902800  0.60708200  0.76671700  1
  O  O16  1  0.16097200  0.39291800  0.23328300  1
  O  O17  1  0.25000000  0.75000000  0.75675700  1
  O  O18  1  0.39291800  0.16097200  0.76671700  1
  O  O19  1  0.60708200  0.83902800  0.23328300  1
  O  O20  1  0.33902800  0.10708200  0.23328300  1
  O  O21  1  0.89291800  0.66097200  0.23328300  1
