# generated using pymatgen
data_SiH2O
_symmetry_space_group_name_H-M   'P 1'
_cell_length_a   4.01717892
_cell_length_b   4.83194601
_cell_length_c   7.35898472
_cell_angle_alpha   90.00000065
_cell_angle_beta   108.99935811
_cell_angle_gamma   126.97097556
_symmetry_Int_Tables_number   1
_chemical_formula_structural   SiH2O
_chemical_formula_sum   'Si1 H2 O1'
_cell_volume   104.21894057
_cell_formula_units_Z   1
loop_
 _symmetry_equiv_pos_site_id
 _symmetry_equiv_pos_as_xyz
  1  'x, y, z'
loop_
 _atom_site_type_symbol
 _atom_site_label
 _atom_site_symmetry_multiplicity
 _atom_site_fract_x
 _atom_site_fract_y
 _atom_site_fract_z
 _atom_site_occupancy
  Si  Si0  1  0.22504200  0.61252100  0.43963000  1
  H  H1  1  0.57229600  0.78614800  0.64991000  1
  H  H2  1  0.75654000  0.37826900  0.43168600  1
  O  O3  1  0.38825500  0.69412800  0.26877300  1
