# generated using pymatgen
data_PrVSb3
_symmetry_space_group_name_H-M   'P 1'
_cell_length_a   9.40205000
_cell_length_b   8.99198600
_cell_length_c   7.68999500
_cell_angle_alpha   90.00000000
_cell_angle_beta   90.00000000
_cell_angle_gamma   90.00000000
_symmetry_Int_Tables_number   1
_chemical_formula_structural   PrVSb3
_chemical_formula_sum   'Pr4 V4 Sb12'
_cell_volume   650.13603144
_cell_formula_units_Z   4
loop_
 _symmetry_equiv_pos_site_id
 _symmetry_equiv_pos_as_xyz
  1  'x, y, z'
loop_
 _atom_site_type_symbol
 _atom_site_label
 _atom_site_symmetry_multiplicity
 _atom_site_fract_x
 _atom_site_fract_y
 _atom_site_fract_z
 _atom_site_occupancy
  Pr  Pr0  1  0.25000000  0.25336900  0.19321200  1
  Pr  Pr1  1  0.25000000  0.75336900  0.80678800  1
  Pr  Pr2  1  0.75000000  0.74663100  0.80678800  1
  Pr  Pr3  1  0.75000000  0.24663100  0.19321200  1
  V  V4  1  0.00000000  0.75000000  0.18035700  1
  V  V5  1  0.00000000  0.25000000  0.81964300  1
  V  V6  1  0.50000000  0.25000000  0.81964300  1
  V  V7  1  0.50000000  0.75000000  0.18035700  1
  Sb  Sb8  1  0.50000000  0.75000000  0.52815000  1
  Sb  Sb9  1  0.75000000  0.45599600  0.55547100  1
  Sb  Sb10  1  0.75000000  0.60243700  0.17976700  1
  Sb  Sb11  1  0.00000000  0.75000000  0.52815000  1
  Sb  Sb12  1  0.00000000  0.25000000  0.47185000  1
  Sb  Sb13  1  0.25000000  0.39756300  0.82023300  1
  Sb  Sb14  1  0.25000000  0.54400400  0.44452900  1
  Sb  Sb15  1  0.25000000  0.89756300  0.17976700  1
  Sb  Sb16  1  0.25000000  0.04400400  0.55547100  1
  Sb  Sb17  1  0.50000000  0.25000000  0.47185000  1
  Sb  Sb18  1  0.75000000  0.95599600  0.44452900  1
  Sb  Sb19  1  0.75000000  0.10243700  0.82023300  1
