# generated using pymatgen
data_Pr4AlSi5(NO)7
_symmetry_space_group_name_H-M   'P 1'
_cell_length_a   5.12497470
_cell_length_b   7.88048698
_cell_length_c   23.44674762
_cell_angle_alpha   88.79292493
_cell_angle_beta   89.55582314
_cell_angle_gamma   89.77776667
_symmetry_Int_Tables_number   1
_chemical_formula_structural   Pr4AlSi5(NO)7
_chemical_formula_sum   'Pr12 Al3 Si15 N21 O21'
_cell_volume   946.70561994
_cell_formula_units_Z   3
loop_
 _symmetry_equiv_pos_site_id
 _symmetry_equiv_pos_as_xyz
  1  'x, y, z'
loop_
 _atom_site_type_symbol
 _atom_site_label
 _atom_site_symmetry_multiplicity
 _atom_site_fract_x
 _atom_site_fract_y
 _atom_site_fract_z
 _atom_site_occupancy
  Pr  Pr0  1  0.98852500  0.66224500  0.05320100  1
  Pr  Pr1  1  0.98470100  0.33737800  0.28203700  1
  Pr  Pr2  1  0.98786100  0.64958800  0.38893800  1
  Pr  Pr3  1  0.98138800  0.34395600  0.61412100  1
  Pr  Pr4  1  0.99989000  0.66543700  0.72222800  1
  Pr  Pr5  1  0.98122400  0.33928800  0.94700400  1
  Pr  Pr6  1  0.98125000  0.17341000  0.11120400  1
  Pr  Pr7  1  0.97493800  0.16948500  0.44212700  1
  Pr  Pr8  1  0.98880600  0.82566000  0.22126000  1
  Pr  Pr9  1  0.98854600  0.15770400  0.77478500  1
  Pr  Pr10  1  0.99070800  0.82710900  0.55349400  1
  Pr  Pr11  1  0.99034100  0.82320200  0.88620200  1
  Al  Al12  1  0.46881500  0.14305000  0.21521100  1
  Al  Al13  1  0.52207900  0.00241000  0.99948900  1
  Al  Al14  1  0.53598500  0.35481500  0.38207700  1
  Si  Si15  1  0.45746100  0.14089600  0.54575500  1
  Si  Si16  1  0.45137900  0.14106100  0.87884300  1
  Si  Si17  1  0.44315300  0.85250300  0.11993900  1
  Si  Si18  1  0.44829600  0.85500500  0.45498600  1
  Si  Si19  1  0.43959200  0.85845500  0.78558400  1
  Si  Si20  1  0.50365900  0.50647500  0.16650900  1
  Si  Si21  1  0.51979100  0.50682600  0.50055300  1
  Si  Si22  1  0.51196600  0.50337400  0.83217800  1
  Si  Si23  1  0.52299200  0.99704000  0.33286900  1
  Si  Si24  1  0.51114200  0.99955900  0.66783200  1
  Si  Si25  1  0.55087400  0.35859000  0.04863100  1
  Si  Si26  1  0.54823700  0.64629700  0.62001800  1
  Si  Si27  1  0.54849900  0.35652300  0.71429100  1
  Si  Si28  1  0.54914600  0.64105000  0.28508500  1
  Si  Si29  1  0.55466900  0.64125500  0.95171800  1
  N  N30  1  0.29741600  0.66655600  0.13958300  1
  N  N31  1  0.30794600  0.66353000  0.47348000  1
  N  N32  1  0.30603700  0.66290200  0.80663300  1
  N  N33  1  0.30215500  0.92084600  0.72033600  1
  N  N34  1  0.32709500  0.00845400  0.49835700  1
  N  N35  1  0.32364200  0.00435100  0.83341200  1
  N  N36  1  0.67152500  0.50247500  0.00130700  1
  N  N37  1  0.67676200  0.50395400  0.33229500  1
  N  N38  1  0.67082900  0.50644100  0.66879800  1
  N  N39  1  0.69136000  0.58346600  0.22037700  1
  N  N40  1  0.69609300  0.58100900  0.55687200  1
  N  N41  1  0.69784500  0.57003400  0.88837600  1
  N  N42  1  0.68633200  0.41571100  0.11341500  1
  N  N43  1  0.70712400  0.17369700  0.02981200  1
  N  N44  1  0.70237700  0.15499300  0.35866200  1
  N  N45  1  0.69460400  0.16862100  0.69046100  1
  N  N46  1  0.70300000  0.41361600  0.44943800  1
  N  N47  1  0.68508700  0.40314200  0.77950800  1
  N  N48  1  0.68515700  0.83515300  0.30150400  1
  N  N49  1  0.68492100  0.84098700  0.63537300  1
  N  N50  1  0.70286000  0.82792400  0.96932600  1
  O  O51  1  0.22378600  0.36114800  0.04674200  1
  O  O52  1  0.22149900  0.63984500  0.28677700  1
  O  O53  1  0.19053400  0.36088100  0.37812900  1
  O  O54  1  0.22146200  0.35773700  0.71145100  1
  O  O55  1  0.22106500  0.63746800  0.62002200  1
  O  O56  1  0.22658300  0.63719000  0.95399600  1
  O  O57  1  0.31341000  0.07737500  0.28148400  1
  O  O58  1  0.31654300  0.34152100  0.19543400  1
  O  O59  1  0.30721200  0.91939100  0.05815700  1
  O  O60  1  0.32992200  0.33703100  0.53195300  1
  O  O61  1  0.32296900  0.09171500  0.61068400  1
  O  O62  1  0.32785900  0.91150800  0.38796600  1
  O  O63  1  0.31484300  0.09812600  0.94316600  1
  O  O64  1  0.32058100  0.33613100  0.86291400  1
  O  O65  1  0.33166000  0.99998800  0.16541400  1
  O  O66  1  0.80888000  0.13338800  0.21171900  1
  O  O67  1  0.77797700  0.14127400  0.54787800  1
  O  O68  1  0.77261800  0.14307200  0.88106600  1
  O  O69  1  0.76415000  0.86549300  0.11941100  1
  O  O70  1  0.77240900  0.86043500  0.45328800  1
  O  O71  1  0.76795400  0.86177300  0.78685700  1
