# generated using pymatgen
data_Sm2Mo2O7
_symmetry_space_group_name_H-M   'P 1'
_cell_length_a   7.23776400
_cell_length_b   7.61149600
_cell_length_c   10.43576800
_cell_angle_alpha   90.00000000
_cell_angle_beta   90.00000000
_cell_angle_gamma   90.00000000
_symmetry_Int_Tables_number   1
_chemical_formula_structural   Sm2Mo2O7
_chemical_formula_sum   'Sm8 Mo8 O28'
_cell_volume   574.90866874
_cell_formula_units_Z   4
loop_
 _symmetry_equiv_pos_site_id
 _symmetry_equiv_pos_as_xyz
  1  'x, y, z'
loop_
 _atom_site_type_symbol
 _atom_site_label
 _atom_site_symmetry_multiplicity
 _atom_site_fract_x
 _atom_site_fract_y
 _atom_site_fract_z
 _atom_site_occupancy
  Sm  Sm0  1  0.50000000  0.49254700  0.49565100  1
  Sm  Sm1  1  0.00000000  0.50745300  0.99565100  1
  Sm  Sm2  1  0.25057800  0.24838700  0.24961600  1
  Sm  Sm3  1  0.00000000  0.00571800  0.00270700  1
  Sm  Sm4  1  0.50000000  0.99428200  0.50270700  1
  Sm  Sm5  1  0.24942200  0.75161300  0.74961600  1
  Sm  Sm6  1  0.75057800  0.75161300  0.74961600  1
  Sm  Sm7  1  0.74942200  0.24838700  0.24961600  1
  Mo  Mo8  1  0.50000000  0.51387700  0.01830300  1
  Mo  Mo9  1  0.25015300  0.25189900  0.75027800  1
  Mo  Mo10  1  0.00000000  0.98616900  0.48241500  1
  Mo  Mo11  1  0.50000000  0.01383100  0.98241500  1
  Mo  Mo12  1  0.24984700  0.74810100  0.25027800  1
  Mo  Mo13  1  0.75015300  0.74810100  0.25027800  1
  Mo  Mo14  1  0.00000000  0.48612300  0.51830300  1
  Mo  Mo15  1  0.74984700  0.25189900  0.75027800  1
  O  O16  1  0.50000000  0.21161700  0.86158800  1
  O  O17  1  0.20264200  0.01497400  0.61915000  1
  O  O18  1  0.50000000  0.77385900  0.90173000  1
  O  O19  1  0.50000000  0.70490000  0.14249500  1
  O  O20  1  0.20403900  0.51329100  0.37822000  1
  O  O21  1  0.24886100  0.50753800  0.12919300  1
  O  O22  1  0.75113900  0.50753800  0.12919300  1
  O  O23  1  0.25113900  0.49246200  0.62919300  1
  O  O24  1  0.50000000  0.23760000  0.63096900  1
  O  O25  1  0.00000000  0.22614100  0.40173000  1
  O  O26  1  0.00000000  0.26215500  0.87142600  1
  O  O27  1  0.25100000  0.01153600  0.86800800  1
  O  O28  1  0.74900000  0.01153600  0.86800800  1
  O  O29  1  0.79735800  0.01497400  0.61915000  1
  O  O30  1  0.24900000  0.98846400  0.36800800  1
  O  O31  1  0.70264200  0.98502600  0.11915000  1
  O  O32  1  0.29735800  0.98502600  0.11915000  1
  O  O33  1  0.00000000  0.78838300  0.36158800  1
  O  O34  1  0.00000000  0.76240000  0.13096900  1
  O  O35  1  0.00000000  0.72633200  0.60320500  1
  O  O36  1  0.50000000  0.73784500  0.37142600  1
  O  O37  1  0.79596100  0.51329100  0.37822000  1
  O  O38  1  0.29596100  0.48670900  0.87822000  1
  O  O39  1  0.70403900  0.48670900  0.87822000  1
  O  O40  1  0.74886100  0.49246200  0.62919300  1
  O  O41  1  0.00000000  0.29510000  0.64249500  1
  O  O42  1  0.50000000  0.27366800  0.10320500  1
  O  O43  1  0.75100000  0.98846400  0.36800800  1
