# generated using pymatgen
data_Sr12Ru11O36
_symmetry_space_group_name_H-M   'P 1'
_cell_length_a   23.48240100
_cell_length_b   8.05428000
_cell_length_c   11.28761828
_cell_angle_alpha   45.60904844
_cell_angle_beta   90.00000000
_cell_angle_gamma   90.00000000
_symmetry_Int_Tables_number   1
_chemical_formula_structural   Sr12Ru11O36
_chemical_formula_sum   'Sr24 Ru22 O72'
_cell_volume   1525.54252501
_cell_formula_units_Z   2
loop_
 _symmetry_equiv_pos_site_id
 _symmetry_equiv_pos_as_xyz
  1  'x, y, z'
loop_
 _atom_site_type_symbol
 _atom_site_label
 _atom_site_symmetry_multiplicity
 _atom_site_fract_x
 _atom_site_fract_y
 _atom_site_fract_z
 _atom_site_occupancy
  Sr  Sr0  1  0.08050000  0.51385400  0.24608300  1
  Sr  Sr1  1  0.74979800  0.50255700  0.24839200  1
  Sr  Sr2  1  0.41900300  0.51119600  0.24584800  1
  Sr  Sr3  1  0.75373600  0.98389100  0.25785700  1
  Sr  Sr4  1  0.08103600  0.99245400  0.25451500  1
  Sr  Sr5  1  0.41956100  0.01325200  0.24468100  1
  Sr  Sr6  1  0.91896400  0.00754600  0.74548500  1
  Sr  Sr7  1  0.58043900  0.98674800  0.75531900  1
  Sr  Sr8  1  0.24626400  0.01610900  0.74214300  1
  Sr  Sr9  1  0.75020200  0.50255700  0.74839200  1
  Sr  Sr10  1  0.41950000  0.51385400  0.74608300  1
  Sr  Sr11  1  0.08099700  0.51119600  0.74584800  1
  Sr  Sr12  1  0.58099700  0.48880400  0.75415200  1
  Sr  Sr13  1  0.91950000  0.48614600  0.75391700  1
  Sr  Sr14  1  0.25020200  0.49744300  0.75160800  1
  Sr  Sr15  1  0.08043900  0.01325200  0.74468100  1
  Sr  Sr16  1  0.74626400  0.98389100  0.75785700  1
  Sr  Sr17  1  0.41896400  0.99245400  0.75451500  1
  Sr  Sr18  1  0.91956100  0.98674800  0.25531900  1
  Sr  Sr19  1  0.58103600  0.00754600  0.24548500  1
  Sr  Sr20  1  0.25373600  0.01610900  0.24214300  1
  Sr  Sr21  1  0.58050000  0.48614600  0.25391700  1
  Sr  Sr22  1  0.91900300  0.48880400  0.25415200  1
  Sr  Sr23  1  0.24979800  0.49744300  0.25160800  1
  Ru  Ru24  1  0.00000000  0.00000000  0.50000000  1
  Ru  Ru25  1  0.66609200  0.99818800  0.49947400  1
  Ru  Ru26  1  0.33390800  0.00181200  0.50052600  1
  Ru  Ru27  1  0.16582400  0.00229600  0.49906200  1
  Ru  Ru28  1  0.83417600  0.99770400  0.50093800  1
  Ru  Ru29  1  0.50000000  0.00000000  0.50000000  1
  Ru  Ru30  1  0.00000000  0.50000000  0.00000000  1
  Ru  Ru31  1  0.16505800  0.49820100  0.00150200  1
  Ru  Ru32  1  0.83494200  0.50179900  0.99849800  1
  Ru  Ru33  1  0.32794500  0.51352300  0.99448800  1
  Ru  Ru34  1  0.67205500  0.48647700  0.00551200  1
  Ru  Ru35  1  0.33417600  0.00229600  0.99906200  1
  Ru  Ru36  1  0.00000000  0.00000000  0.00000000  1
  Ru  Ru37  1  0.66582400  0.99770400  0.00093800  1
  Ru  Ru38  1  0.16609200  0.00181200  0.00052600  1
  Ru  Ru39  1  0.83390800  0.99818800  0.99947400  1
  Ru  Ru40  1  0.50000000  0.00000000  0.00000000  1
  Ru  Ru41  1  0.66505800  0.50179900  0.49849800  1
  Ru  Ru42  1  0.33494200  0.49820100  0.50150200  1
  Ru  Ru43  1  0.17205500  0.51352300  0.49448800  1
  Ru  Ru44  1  0.82794500  0.48647700  0.50551200  1
  Ru  Ru45  1  0.50000000  0.50000000  0.50000000  1
  O  O46  1  0.08377800  0.08965300  0.45822800  1
  O  O47  1  0.75002400  0.07039700  0.46528700  1
  O  O48  1  0.41599300  0.08536100  0.46229500  1
  O  O49  1  0.01583900  0.74691300  0.00196300  1
  O  O50  1  0.81695300  0.74823900  0.00012100  1
  O  O51  1  0.67403800  0.74115900  0.00282100  1
  O  O52  1  0.48481600  0.77763300  0.99776500  1
  O  O53  1  0.15139000  0.75288500  0.00047400  1
  O  O54  1  0.34870900  0.74931700  0.00135900  1
  O  O55  1  0.98467100  0.24601700  0.24866100  1
  O  O56  1  0.84801200  0.24414300  0.25208300  1
  O  O57  1  0.32765500  0.25606000  0.24554600  1
  O  O58  1  0.65191600  0.24943300  0.24842200  1
  O  O59  1  0.18246300  0.24907300  0.24987200  1
  O  O60  1  0.51166800  0.21581100  0.27447500  1
  O  O61  1  0.08257200  0.42303500  0.03811000  1
  O  O62  1  0.75339100  0.40841000  0.04438100  1
  O  O63  1  0.52630800  0.53043600  0.98737800  1
  O  O64  1  0.47369200  0.46956400  0.01262200  1
  O  O65  1  0.91742800  0.57696500  0.96189000  1
  O  O66  1  0.24660900  0.59159000  0.95561900  1
  O  O67  1  0.01532900  0.75398300  0.75133900  1
  O  O68  1  0.81753700  0.75092700  0.75012800  1
  O  O69  1  0.48833200  0.78418900  0.72552500  1
  O  O70  1  0.15198800  0.75585700  0.74791700  1
  O  O71  1  0.67234500  0.74394000  0.75445400  1
  O  O72  1  0.34808400  0.75056700  0.75157800  1
  O  O73  1  0.98416100  0.25308700  0.99803700  1
  O  O74  1  0.18304700  0.25176100  0.99987900  1
  O  O75  1  0.84861000  0.24711500  0.99952600  1
  O  O76  1  0.65129100  0.25068300  0.99864100  1
  O  O77  1  0.51518400  0.22236700  0.00223500  1
  O  O78  1  0.32596200  0.25884100  0.99717900  1
  O  O79  1  0.74997600  0.07039700  0.96528700  1
  O  O80  1  0.41622200  0.08965300  0.95822800  1
  O  O81  1  0.08400700  0.08536100  0.96229500  1
  O  O82  1  0.91622200  0.91034700  0.54177200  1
  O  O83  1  0.58400700  0.91463900  0.53770500  1
  O  O84  1  0.24997600  0.92960300  0.53471300  1
  O  O85  1  0.01518400  0.77763300  0.49776500  1
  O  O86  1  0.82596200  0.74115900  0.50282100  1
  O  O87  1  0.48416100  0.74691300  0.50196300  1
  O  O88  1  0.15129100  0.74931700  0.50135900  1
  O  O89  1  0.68304700  0.74823900  0.50012100  1
  O  O90  1  0.34861000  0.75288500  0.50047400  1
  O  O91  1  0.17234500  0.25606000  0.74554600  1
  O  O92  1  0.98833200  0.21581100  0.77447500  1
  O  O93  1  0.84808400  0.24943300  0.74842200  1
  O  O94  1  0.51532900  0.24601700  0.74866100  1
  O  O95  1  0.31753700  0.24907300  0.74987200  1
  O  O96  1  0.65198800  0.24414300  0.75208300  1
  O  O97  1  0.97369200  0.53043600  0.48737800  1
  O  O98  1  0.74660900  0.40841000  0.54438100  1
  O  O99  1  0.41742800  0.42303500  0.53811000  1
  O  O100  1  0.58257200  0.57696500  0.46189000  1
  O  O101  1  0.02630800  0.46956400  0.51262200  1
  O  O102  1  0.25339100  0.59159000  0.45561900  1
  O  O103  1  0.82765500  0.74394000  0.25445400  1
  O  O104  1  0.01166800  0.78418900  0.22552500  1
  O  O105  1  0.68246300  0.75092700  0.25012800  1
  O  O106  1  0.48467100  0.75398300  0.25133900  1
  O  O107  1  0.34801200  0.75585700  0.24791700  1
  O  O108  1  0.15191600  0.75056700  0.25157800  1
  O  O109  1  0.17403800  0.25884100  0.49717900  1
  O  O110  1  0.98481600  0.22236700  0.50223500  1
  O  O111  1  0.65139000  0.24711500  0.49952600  1
  O  O112  1  0.84870900  0.25068300  0.49864100  1
  O  O113  1  0.51583900  0.25308700  0.49803700  1
  O  O114  1  0.31695300  0.25176100  0.49987900  1
  O  O115  1  0.91599300  0.91463900  0.03770500  1
  O  O116  1  0.58377800  0.91034700  0.04177200  1
  O  O117  1  0.25002400  0.92960300  0.03471300  1
