# generated using pymatgen
data_Rb2Cu4H5(SO5)4
_symmetry_space_group_name_H-M   'P 1'
_cell_length_a   11.42491279
_cell_length_b   6.50584207
_cell_length_c   7.99033598
_cell_angle_alpha   88.64379212
_cell_angle_beta   65.31974043
_cell_angle_gamma   54.59682079
_symmetry_Int_Tables_number   1
_chemical_formula_structural   Rb2Cu4H5(SO5)4
_chemical_formula_sum   'Rb2 Cu4 H5 S4 O20'
_cell_volume   420.34475600
_cell_formula_units_Z   1
loop_
 _symmetry_equiv_pos_site_id
 _symmetry_equiv_pos_as_xyz
  1  'x, y, z'
loop_
 _atom_site_type_symbol
 _atom_site_label
 _atom_site_symmetry_multiplicity
 _atom_site_fract_x
 _atom_site_fract_y
 _atom_site_fract_z
 _atom_site_occupancy
  Rb  Rb0  1  0.00000000  0.50000000  0.50000000  1
  Rb  Rb1  1  0.50000000  0.50000000  0.50000000  1
  Cu  Cu2  1  0.25518000  0.99593400  0.99854800  1
  Cu  Cu3  1  0.25137500  0.49594600  0.99667700  1
  Cu  Cu4  1  0.74482000  0.00406600  0.00145200  1
  Cu  Cu5  1  0.74862500  0.50405400  0.00332300  1
  H  H6  1  0.19916300  0.30071500  0.81342800  1
  H  H7  1  0.29376900  0.70162100  0.20339100  1
  H  H8  1  0.50000000  0.50000000  0.00000000  1
  H  H9  1  0.70623100  0.29837900  0.79660900  1
  H  H10  1  0.80083700  0.69928500  0.18657200  1
  S  S11  1  0.42499600  0.07246800  0.28539800  1
  S  S12  1  0.07088700  0.93034600  0.71934500  1
  S  S13  1  0.92911300  0.06965400  0.28065500  1
  S  S14  1  0.57500400  0.92753200  0.71460200  1
  O  O15  1  0.03794600  0.15136000  0.22299600  1
  O  O16  1  0.03745000  0.77190500  0.22440800  1
  O  O17  1  0.32732400  0.17419800  0.18580800  1
  O  O18  1  0.32128400  0.17405600  0.49538300  1
  O  O19  1  0.16805700  0.32864000  0.95091000  1
  O  O20  1  0.34906500  0.65026600  0.06092400  1
  O  O21  1  0.17575400  0.82767200  0.50864600  1
  O  O22  1  0.53199500  0.15908200  0.22760500  1
  O  O23  1  0.17117100  0.82603300  0.81648400  1
  O  O24  1  0.46675400  0.22555000  0.77192200  1
  O  O25  1  0.53324600  0.77445000  0.22807800  1
  O  O26  1  0.82882900  0.17396700  0.18351600  1
  O  O27  1  0.46800500  0.84091800  0.77239500  1
  O  O28  1  0.82424600  0.17232800  0.49135400  1
  O  O29  1  0.65093500  0.34973400  0.93907600  1
  O  O30  1  0.83194300  0.67136000  0.04909000  1
  O  O31  1  0.67871600  0.82594400  0.50461700  1
  O  O32  1  0.67267600  0.82580200  0.81419200  1
  O  O33  1  0.96255000  0.22809500  0.77559200  1
  O  O34  1  0.96205500  0.84864000  0.77700400  1
