# generated using pymatgen
data_Rb4NaW2N5O
_symmetry_space_group_name_H-M   'P 1'
_cell_length_a   6.41468456
_cell_length_b   7.33820766
_cell_length_c   12.69972657
_cell_angle_alpha   106.47909755
_cell_angle_beta   103.77832366
_cell_angle_gamma   90.03111065
_symmetry_Int_Tables_number   1
_chemical_formula_structural   Rb4NaW2N5O
_chemical_formula_sum   'Rb8 Na2 W4 N10 O2'
_cell_volume   555.26323736
_cell_formula_units_Z   2
loop_
 _symmetry_equiv_pos_site_id
 _symmetry_equiv_pos_as_xyz
  1  'x, y, z'
loop_
 _atom_site_type_symbol
 _atom_site_label
 _atom_site_symmetry_multiplicity
 _atom_site_fract_x
 _atom_site_fract_y
 _atom_site_fract_z
 _atom_site_occupancy
  Rb  Rb0  1  0.06073400  0.68528500  0.13954400  1
  Rb  Rb1  1  0.21663100  0.92163600  0.42601200  1
  Rb  Rb2  1  0.28267100  0.50176800  0.57532900  1
  Rb  Rb3  1  0.43858300  0.55123800  0.86015600  1
  Rb  Rb4  1  0.56141700  0.44876200  0.13984400  1
  Rb  Rb5  1  0.71732900  0.49823200  0.42467100  1
  Rb  Rb6  1  0.78336900  0.07836400  0.57398800  1
  Rb  Rb7  1  0.93926600  0.31471500  0.86045600  1
  Na  Na8  1  0.25418500  0.99765200  0.99986700  1
  Na  Na9  1  0.74581500  0.00234800  0.00013300  1
  W  W10  1  0.11580100  0.25756700  0.24604000  1
  W  W11  1  0.38607200  0.02262600  0.75572500  1
  W  W12  1  0.61392800  0.97737400  0.24427500  1
  W  W13  1  0.88419900  0.74243300  0.75396000  1
  N  N14  1  0.11340000  0.85739900  0.71463900  1
  N  N15  1  0.04524200  0.24520400  0.09660500  1
  N  N16  1  0.35063800  0.19619900  0.67542300  1
  N  N17  1  0.45772200  0.16040000  0.90645100  1
  N  N18  1  0.38529200  0.14684100  0.28609900  1
  N  N19  1  0.61470800  0.85315900  0.71390100  1
  N  N20  1  0.54227800  0.83960000  0.09354900  1
  N  N21  1  0.64936200  0.80380100  0.32457700  1
  N  N22  1  0.95475800  0.75479600  0.90339500  1
  N  N23  1  0.88660000  0.14260100  0.28536100  1
  O  O24  1  0.15113500  0.51609400  0.32921100  1
  O  O25  1  0.84886500  0.48390600  0.67078900  1
