# generated using pymatgen
data_Sm4AlSi5(NO)7
_symmetry_space_group_name_H-M   'P 1'
_cell_length_a   6.91843000
_cell_length_b   6.95480421
_cell_length_c   20.70181683
_cell_angle_alpha   94.55866424
_cell_angle_beta   96.41258731
_cell_angle_gamma   90.96392684
_symmetry_Int_Tables_number   1
_chemical_formula_structural   Sm4AlSi5(NO)7
_chemical_formula_sum   'Sm12 Al3 Si15 N21 O21'
_cell_volume   986.39962427
_cell_formula_units_Z   3
loop_
 _symmetry_equiv_pos_site_id
 _symmetry_equiv_pos_as_xyz
  1  'x, y, z'
loop_
 _atom_site_type_symbol
 _atom_site_label
 _atom_site_symmetry_multiplicity
 _atom_site_fract_x
 _atom_site_fract_y
 _atom_site_fract_z
 _atom_site_occupancy
  Sm  Sm0  1  0.30262400  0.35538900  0.72464100  1
  Sm  Sm1  1  0.33975300  0.39614100  0.40987700  1
  Sm  Sm2  1  0.59783600  0.44451100  0.87840300  1
  Sm  Sm3  1  0.80345500  0.34442400  0.61843800  1
  Sm  Sm4  1  0.23967700  0.37014200  0.06529800  1
  Sm  Sm5  1  0.62119800  0.41098800  0.25266300  1
  Sm  Sm6  1  0.07337200  0.59150200  0.92687900  1
  Sm  Sm7  1  0.23131900  0.59478600  0.56825900  1
  Sm  Sm8  1  0.17737700  0.63289300  0.25112800  1
  Sm  Sm9  1  0.83833800  0.62163700  0.41021800  1
  Sm  Sm10  1  0.80405600  0.64590700  0.75380100  1
  Sm  Sm11  1  0.68134000  0.63215200  0.09250800  1
  Al  Al12  1  0.98978500  0.92638700  0.67173200  1
  Al  Al13  1  0.36465900  0.81317200  0.38970400  1
  Al  Al14  1  0.35019300  0.88893400  0.00018900  1
  Si  Si15  1  0.95865300  0.94996600  0.04036800  1
  Si  Si16  1  0.52638600  0.02265800  0.82186200  1
  Si  Si17  1  0.87191100  0.10578100  0.34197700  1
  Si  Si18  1  0.40614800  0.00755100  0.19171400  1
  Si  Si19  1  0.68224300  0.91437900  0.96521200  1
  Si  Si20  1  0.37045100  0.83715400  0.69346400  1
  Si  Si21  1  0.59229300  0.81359800  0.61306500  1
  Si  Si22  1  0.69173900  0.85037200  0.28659300  1
  Si  Si23  1  0.13574700  0.11682400  0.88651500  1
  Si  Si24  1  0.17636400  0.11871200  0.55987000  1
  Si  Si25  1  0.88306200  0.20327100  0.79191700  1
  Si  Si26  1  0.09155400  0.18133100  0.26495800  1
  Si  Si27  1  0.96085600  0.20916000  0.47869600  1
  Si  Si28  1  0.82321700  0.23037400  0.13687700  1
  Si  Si29  1  0.54952400  0.06436100  0.49979300  1
  N  N30  1  0.59646500  0.58521100  0.63968300  1
  N  N31  1  0.52350200  0.71615200  0.32670700  1
  N  N32  1  0.62585600  0.19890400  0.78495000  1
  N  N33  1  0.41034200  0.23616500  0.15762700  1
  N  N34  1  0.73443700  0.22728200  0.50368100  1
  N  N35  1  0.57888700  0.30322300  0.12498100  1
  N  N36  1  0.20290600  0.64164700  0.68428000  1
  N  N37  1  0.56043700  0.81985000  0.52117500  1
  N  N38  1  0.99694200  0.65310600  0.65739000  1
  N  N39  1  0.94409600  0.69853300  0.02438800  1
  N  N40  1  0.47950300  0.62074700  0.80104200  1
  N  N41  1  0.48815700  0.80594700  0.77414400  1
  N  N42  1  0.76772100  0.66930100  0.97115500  1
  N  N43  1  0.11856800  0.70091200  0.35751900  1
  N  N44  1  0.66862200  0.72420800  0.20595900  1
  N  N45  1  0.45986400  0.67649600  0.46939700  1
  N  N46  1  0.46682500  0.76544500  0.16951200  1
  N  N47  1  0.93104000  0.68474200  0.31053600  1
  N  N48  1  0.89522000  0.44589300  0.84102000  1
  N  N49  1  0.06884300  0.42677100  0.46737300  1
  N  N50  1  0.93039500  0.29756500  0.21358900  1
  O  O51  1  0.36612300  0.64178000  0.01935900  1
  O  O52  1  0.17486900  0.28681100  0.95022900  1
  O  O53  1  0.95794500  0.30904900  0.72688300  1
  O  O54  1  0.34260000  0.15231600  0.84943700  1
  O  O55  1  0.14443000  0.30077900  0.61428700  1
  O  O56  1  0.75689300  0.31707700  0.35411300  1
  O  O57  1  0.40972100  0.17459400  0.55200500  1
  O  O58  1  0.27756000  0.33598400  0.29265500  1
  O  O59  1  0.92190300  0.36590900  0.08703800  1
  O  O60  1  0.95407100  0.03847700  0.41598600  1
  O  O61  1  0.91217300  0.95878100  0.75634600  1
  O  O62  1  0.85906800  0.99813400  0.11061500  1
  O  O63  1  0.12626400  0.90613800  0.58187400  1
  O  O64  1  0.19270000  0.90462900  0.92151200  1
  O  O65  1  0.18769500  0.99050800  0.22211300  1
  O  O66  1  0.66582000  0.97232100  0.88874900  1
  O  O67  1  0.76185900  0.99231100  0.62756700  1
  O  O68  1  0.56461800  0.05526900  0.25625900  1
  O  O69  1  0.23224600  0.02851800  0.70299100  1
  O  O70  1  0.41659700  0.05507200  0.42640500  1
  O  O71  1  0.19108500  0.02299000  0.05085500  1
