# generated using pymatgen
data_NaPr2Ti2MnO9
_symmetry_space_group_name_H-M   'P 1'
_cell_length_a   5.55617000
_cell_length_b   5.60544677
_cell_length_c   23.15798794
_cell_angle_alpha   89.59427758
_cell_angle_beta   89.71207733
_cell_angle_gamma   87.82434295
_symmetry_Int_Tables_number   1
_chemical_formula_structural   NaPr2Ti2MnO9
_chemical_formula_sum   'Na4 Pr8 Ti8 Mn4 O36'
_cell_volume   720.70509531
_cell_formula_units_Z   4
loop_
 _symmetry_equiv_pos_site_id
 _symmetry_equiv_pos_as_xyz
  1  'x, y, z'
loop_
 _atom_site_type_symbol
 _atom_site_label
 _atom_site_symmetry_multiplicity
 _atom_site_fract_x
 _atom_site_fract_y
 _atom_site_fract_z
 _atom_site_occupancy
  Na  Na0  1  0.49468900  0.48314900  0.08277400  1
  Na  Na1  1  0.99157900  0.01933500  0.58314000  1
  Na  Na2  1  0.98935400  0.01593500  0.91606800  1
  Na  Na3  1  0.99518000  0.01970500  0.24991100  1
  Pr  Pr4  1  0.01629500  0.96093300  0.75058200  1
  Pr  Pr5  1  0.01477300  0.96103200  0.41718600  1
  Pr  Pr6  1  0.01109700  0.96568800  0.08280200  1
  Pr  Pr7  1  0.50702600  0.54111100  0.91721600  1
  Pr  Pr8  1  0.50919800  0.54048200  0.58284300  1
  Pr  Pr9  1  0.50982300  0.53985300  0.24872300  1
  Pr  Pr10  1  0.49645800  0.46252200  0.41621700  1
  Pr  Pr11  1  0.49737800  0.46270600  0.74995300  1
  Ti  Ti12  1  0.48399600  0.99836600  0.99912900  1
  Ti  Ti13  1  0.50451100  0.00191000  0.66243400  1
  Ti  Ti14  1  0.50334300  0.00126400  0.32911300  1
  Ti  Ti15  1  0.51723400  0.01871900  0.16577600  1
  Ti  Ti16  1  0.00152000  0.49295200  0.83722000  1
  Ti  Ti17  1  0.00085700  0.49265800  0.50357000  1
  Ti  Ti18  1  0.01873400  0.50040400  0.16695700  1
  Ti  Ti19  1  0.97979700  0.48882700  0.00141700  1
  Mn  Mn20  1  0.50592400  0.00156900  0.83451300  1
  Mn  Mn21  1  0.50421700  0.00072800  0.50064700  1
  Mn  Mn22  1  0.00074300  0.49451400  0.66624000  1
  Mn  Mn23  1  0.99985300  0.49444400  0.33223100  1
  O  O24  1  0.43081400  0.98843700  0.91745900  1
  O  O25  1  0.42325200  0.98191400  0.58311400  1
  O  O26  1  0.42403800  0.98225900  0.24932600  1
  O  O27  1  0.77368100  0.77519100  0.65373800  1
  O  O28  1  0.77240400  0.76842600  0.98704800  1
  O  O29  1  0.77798200  0.77735200  0.84615700  1
  O  O30  1  0.77668200  0.77728800  0.51263000  1
  O  O31  1  0.77180700  0.77479500  0.32002800  1
  O  O32  1  0.76321400  0.76682600  0.17873600  1
  O  O33  1  0.26605200  0.70530300  0.48482000  1
  O  O34  1  0.26824200  0.70551200  0.81867600  1
  O  O35  1  0.29311800  0.73623100  0.68295200  1
  O  O36  1  0.29168200  0.73587700  0.34935400  1
  O  O37  1  0.26053900  0.71909000  0.15442100  1
  O  O38  1  0.27448200  0.73970200  0.01247900  1
  O  O39  1  0.92448800  0.51515400  0.41512900  1
  O  O40  1  0.92586200  0.51503200  0.74872800  1
  O  O41  1  0.93043000  0.51553900  0.08318700  1
  O  O42  1  0.08252400  0.48482900  0.91722900  1
  O  O43  1  0.08099000  0.48125800  0.58358000  1
  O  O44  1  0.07723700  0.48218600  0.24931400  1
  O  O45  1  0.72991200  0.28067000  0.98692300  1
  O  O46  1  0.72197600  0.30885700  0.84504500  1
  O  O47  1  0.72157000  0.30685900  0.51106600  1
  O  O48  1  0.68859000  0.28267600  0.65507000  1
  O  O49  1  0.68652100  0.28242600  0.32164100  1
  O  O50  1  0.71611900  0.27082500  0.17969800  1
  O  O51  1  0.22287600  0.22492000  0.68415900  1
  O  O52  1  0.22563800  0.22129300  0.81736300  1
  O  O53  1  0.22100700  0.22426800  0.35044400  1
  O  O54  1  0.21838400  0.21612200  0.15240100  1
  O  O55  1  0.22795500  0.22724900  0.01494400  1
  O  O56  1  0.22547400  0.22179200  0.48369900  1
  O  O57  1  0.58644200  0.01862800  0.75149700  1
  O  O58  1  0.58482200  0.01781000  0.41786500  1
  O  O59  1  0.57961500  0.00860000  0.08341300  1
