# generated using pymatgen
data_Sr16Mn8O29
_symmetry_space_group_name_H-M   'P 1'
_cell_length_a   9.49186800
_cell_length_b   9.52975981
_cell_length_c   9.75549161
_cell_angle_alpha   79.79225115
_cell_angle_beta   79.38948271
_cell_angle_gamma   78.48173735
_symmetry_Int_Tables_number   1
_chemical_formula_structural   Sr16Mn8O29
_chemical_formula_sum   'Sr16 Mn8 O29'
_cell_volume   840.79393760
_cell_formula_units_Z   1
loop_
 _symmetry_equiv_pos_site_id
 _symmetry_equiv_pos_as_xyz
  1  'x, y, z'
loop_
 _atom_site_type_symbol
 _atom_site_label
 _atom_site_symmetry_multiplicity
 _atom_site_fract_x
 _atom_site_fract_y
 _atom_site_fract_z
 _atom_site_occupancy
  Sr  Sr0  1  0.69740900  0.63079300  0.00994000  1
  Sr  Sr1  1  0.29668000  0.76583600  0.89147800  1
  Sr  Sr2  1  0.06158800  0.14857000  0.21791400  1
  Sr  Sr3  1  0.52916900  0.06047800  0.23961600  1
  Sr  Sr4  1  0.03571700  0.51910300  0.17315700  1
  Sr  Sr5  1  0.40998600  0.50212200  0.24732900  1
  Sr  Sr6  1  0.72339600  0.21871700  0.42601100  1
  Sr  Sr7  1  0.24346400  0.19830200  0.47427600  1
  Sr  Sr8  1  0.74343100  0.83433600  0.53098300  1
  Sr  Sr9  1  0.34060400  0.82661400  0.51725200  1
  Sr  Sr10  1  0.58598400  0.53936300  0.73718700  1
  Sr  Sr11  1  0.04332500  0.53791900  0.79527400  1
  Sr  Sr12  1  0.50208000  0.05824100  0.70746000  1
  Sr  Sr13  1  0.95769200  0.94652500  0.73008200  1
  Sr  Sr14  1  0.77928600  0.24850200  0.96913000  1
  Sr  Sr15  1  0.36099500  0.30604000  0.97014100  1
  Mn  Mn16  1  0.23928400  0.86358600  0.16104600  1
  Mn  Mn17  1  0.52055300  0.92375600  0.00351200  1
  Mn  Mn18  1  0.08685600  0.64534600  0.44158700  1
  Mn  Mn19  1  0.73620600  0.56366100  0.39098700  1
  Mn  Mn20  1  0.32904500  0.43565800  0.60774400  1
  Mn  Mn21  1  0.92337900  0.33624100  0.62215400  1
  Mn  Mn22  1  0.15761800  0.13447800  0.85573300  1
  Mn  Mn23  1  0.87613800  0.88725200  0.10513300  1
  O  O24  1  0.56278400  0.78743500  0.80987200  1
  O  O25  1  0.94973400  0.72668100  0.98066100  1
  O  O26  1  0.80271300  0.06216200  0.20509300  1
  O  O27  1  0.25922500  0.97930100  0.31187500  1
  O  O28  1  0.43360400  0.75489000  0.10190200  1
  O  O29  1  0.16987500  0.68386000  0.23676700  1
  O  O30  1  0.67809300  0.85349600  0.11695200  1
  O  O31  1  0.77485600  0.47207800  0.23420200  1
  O  O32  1  0.25372800  0.33123000  0.21770600  1
  O  O33  1  0.28391100  0.60440600  0.47158000  1
  O  O34  1  0.58350400  0.66983400  0.48154500  1
  O  O35  1  0.89631700  0.65549800  0.36428800  1
  O  O36  1  0.98140100  0.22891700  0.46792500  1
  O  O37  1  0.45525500  0.33173800  0.46811400  1
  O  O38  1  0.51201300  0.99617600  0.47692800  1
  O  O39  1  0.00503800  0.74756300  0.59708300  1
  O  O40  1  0.08624400  0.43372300  0.56613600  1
  O  O41  1  0.30708500  0.26323000  0.73780600  1
  O  O42  1  0.74843900  0.42143100  0.54277500  1
  O  O43  1  0.83148700  0.44983600  0.77783100  1
  O  O44  1  0.31295200  0.55176900  0.76456600  1
  O  O45  1  0.06438500  0.94352900  0.06816100  1
  O  O46  1  0.58012900  0.10549200  0.94880000  1
  O  O47  1  0.98267300  0.18485100  0.76510700  1
  O  O48  1  0.31573200  0.01567500  0.99404000  1
  O  O49  1  0.75559100  0.04339100  0.62104000  1
  O  O50  1  0.22660900  0.98038200  0.72913800  1
  O  O51  1  0.07893600  0.28534300  0.97848300  1
  O  O52  1  0.55720600  0.43394600  0.00459500  1
