# generated using pymatgen
data_NaMn2Mo2H3O10
_symmetry_space_group_name_H-M   'P 1'
_cell_length_a   5.85590957
_cell_length_b   5.85592243
_cell_length_c   7.81793747
_cell_angle_alpha   68.58807063
_cell_angle_beta   68.58818640
_cell_angle_gamma   69.55815360
_symmetry_Int_Tables_number   1
_chemical_formula_structural   NaMn2Mo2H3O10
_chemical_formula_sum   'Na1 Mn2 Mo2 H3 O10'
_cell_volume   225.03071936
_cell_formula_units_Z   1
loop_
 _symmetry_equiv_pos_site_id
 _symmetry_equiv_pos_as_xyz
  1  'x, y, z'
loop_
 _atom_site_type_symbol
 _atom_site_label
 _atom_site_symmetry_multiplicity
 _atom_site_fract_x
 _atom_site_fract_y
 _atom_site_fract_z
 _atom_site_occupancy
  Na  Na0  1  0.50144600  0.49855700  0.50000100  1
  Mn  Mn1  1  0.00702000  0.49569400  0.00058300  1
  Mn  Mn2  1  0.50431000  0.99297200  0.99941200  1
  Mo  Mo3  1  0.91663400  0.91101700  0.29456700  1
  Mo  Mo4  1  0.08898400  0.08336800  0.70543400  1
  H  H5  1  0.68434600  0.66839500  0.78042800  1
  H  H6  1  0.33160500  0.31565400  0.21957000  1
  H  H7  1  0.50925200  0.49072400  0.00000800  1
  O  O8  1  0.75841300  0.75654100  0.52587400  1
  O  O9  1  0.24346200  0.24159000  0.47412700  1
  O  O10  1  0.83037300  0.82303300  0.12615500  1
  O  O11  1  0.17696800  0.16962900  0.87384700  1
  O  O12  1  0.65010400  0.63422600  0.92024700  1
  O  O13  1  0.36577900  0.34989800  0.07975000  1
  O  O14  1  0.81884100  0.24852900  0.26273500  1
  O  O15  1  0.25400400  0.81101400  0.26320400  1
  O  O16  1  0.18899000  0.74599800  0.73679500  1
  O  O17  1  0.75147100  0.18116300  0.73726400  1
