# generated using pymatgen
data_Rb2SeO4
_symmetry_space_group_name_H-M   'P 1'
_cell_length_a   5.20278159
_cell_length_b   5.00810490
_cell_length_c   17.28715645
_cell_angle_alpha   78.89333827
_cell_angle_beta   95.31975841
_cell_angle_gamma   118.76975823
_symmetry_Int_Tables_number   1
_chemical_formula_structural   Rb2SeO4
_chemical_formula_sum   'Rb4 Se2 O8'
_cell_volume   387.43895025
_cell_formula_units_Z   2
loop_
 _symmetry_equiv_pos_site_id
 _symmetry_equiv_pos_as_xyz
  1  'x, y, z'
loop_
 _atom_site_type_symbol
 _atom_site_label
 _atom_site_symmetry_multiplicity
 _atom_site_fract_x
 _atom_site_fract_y
 _atom_site_fract_z
 _atom_site_occupancy
  Rb  Rb0  1  0.91864800  0.04655000  0.47568500  1
  Rb  Rb1  1  0.08135200  0.12790300  0.97568500  1
  Rb  Rb2  1  0.34568200  0.76682800  0.66581500  1
  Rb  Rb3  1  0.65431800  0.42114400  0.16581500  1
  Se  Se4  1  0.29753400  0.63555500  0.29850400  1
  Se  Se5  1  0.70246600  0.33802000  0.79850400  1
  O  O6  1  0.21423000  0.83303600  0.21709000  1
  O  O7  1  0.01659900  0.26541900  0.31164200  1
  O  O8  1  0.38251900  0.76400900  0.02871900  1
  O  O9  1  0.43491500  0.49366800  0.54000200  1
  O  O10  1  0.56508500  0.05875200  0.04000200  1
  O  O11  1  0.61748100  0.38148900  0.52872000  1
  O  O12  1  0.78577100  0.61880500  0.71709000  1
  O  O13  1  0.98340200  0.24882200  0.81164200  1
