# generated using pymatgen
data_NaNO3
_symmetry_space_group_name_H-M   'P 1'
_cell_length_a   5.18466300
_cell_length_b   6.49041588
_cell_length_c   8.93224557
_cell_angle_alpha   102.85798338
_cell_angle_beta   90.69997273
_cell_angle_gamma   112.63849762
_symmetry_Int_Tables_number   1
_chemical_formula_structural   NaNO3
_chemical_formula_sum   'Na4 N4 O12'
_cell_volume   268.85574931
_cell_formula_units_Z   4
loop_
 _symmetry_equiv_pos_site_id
 _symmetry_equiv_pos_as_xyz
  1  'x, y, z'
loop_
 _atom_site_type_symbol
 _atom_site_label
 _atom_site_symmetry_multiplicity
 _atom_site_fract_x
 _atom_site_fract_y
 _atom_site_fract_z
 _atom_site_occupancy
  Na  Na0  1  0.00187100  0.99377100  0.99809000  1
  Na  Na1  1  0.49928700  0.99103500  0.49790700  1
  Na  Na2  1  0.71791800  0.48239100  0.25149000  1
  Na  Na3  1  0.24793700  0.49128600  0.74434600  1
  N  N4  1  0.31744100  0.76112600  0.12385900  1
  N  N5  1  0.87896400  0.74681900  0.62556400  1
  N  N6  1  0.12204800  0.24822700  0.37560500  1
  N  N7  1  0.62968700  0.25167300  0.87687600  1
  O  O8  1  0.10251400  0.76697900  0.18793100  1
  O  O9  1  0.51691600  0.75227100  0.20011700  1
  O  O10  1  0.33259500  0.77225600  0.98356200  1
  O  O11  1  0.75817500  0.74468900  0.74811400  1
  O  O12  1  0.75349100  0.74641600  0.50286900  1
  O  O13  1  0.12484900  0.74913300  0.62551800  1
  O  O14  1  0.87969100  0.25142900  0.38149600  1
  O  O15  1  0.25213600  0.24204200  0.49485500  1
  O  O16  1  0.23562300  0.25267600  0.25109500  1
  O  O17  1  0.38638200  0.25435700  0.87822900  1
  O  O18  1  0.75810300  0.25611300  0.00000900  1
  O  O19  1  0.74527100  0.24531000  0.75246800  1
