# generated using pymatgen
data_Co(BO2)2
_symmetry_space_group_name_H-M   'P 1'
_cell_length_a   4.45633828
_cell_length_b   5.50810424
_cell_length_c   9.73570207
_cell_angle_alpha   92.02048325
_cell_angle_beta   81.35062298
_cell_angle_gamma   74.58738037
_symmetry_Int_Tables_number   1
_chemical_formula_structural   Co(BO2)2
_chemical_formula_sum   'Co4 B8 O16'
_cell_volume   227.04751477
_cell_formula_units_Z   4
loop_
 _symmetry_equiv_pos_site_id
 _symmetry_equiv_pos_as_xyz
  1  'x, y, z'
loop_
 _atom_site_type_symbol
 _atom_site_label
 _atom_site_symmetry_multiplicity
 _atom_site_fract_x
 _atom_site_fract_y
 _atom_site_fract_z
 _atom_site_occupancy
  Co  Co0  1  0.75002100  0.32954700  0.67049800  1
  Co  Co1  1  0.24997900  0.67045700  0.32949700  1
  Co  Co2  1  0.75003100  0.82940700  0.17055600  1
  Co  Co3  1  0.24996900  0.17059400  0.82944300  1
  B  B4  1  0.12426600  0.22637400  0.14713800  1
  B  B5  1  0.12422400  0.72632800  0.64717300  1
  B  B6  1  0.37580100  0.16605800  0.46041200  1
  B  B7  1  0.37574800  0.66615100  0.96039600  1
  B  B8  1  0.87577400  0.27367000  0.35282600  1
  B  B9  1  0.87573400  0.77362400  0.85286200  1
  B  B10  1  0.62425200  0.33385000  0.03960500  1
  B  B11  1  0.62420100  0.83394400  0.53958900  1
  O  O12  1  0.47917200  0.60896000  0.10083200  1
  O  O13  1  0.47912900  0.10891900  0.60081200  1
  O  O14  1  0.02083600  0.04425400  0.24596900  1
  O  O15  1  0.02089700  0.54428900  0.74593400  1
  O  O16  1  0.52087000  0.89108100  0.39918800  1
  O  O17  1  0.52082700  0.39103900  0.89916700  1
  O  O18  1  0.97910400  0.45571100  0.25406700  1
  O  O19  1  0.97916500  0.95574600  0.75403100  1
  O  O20  1  0.46562100  0.16576400  0.11290800  1
  O  O21  1  0.46568700  0.66564100  0.61292300  1
  O  O22  1  0.03429700  0.24778400  0.47364400  1
  O  O23  1  0.03434400  0.74777600  0.97357700  1
  O  O24  1  0.53431400  0.33435500  0.38707800  1
  O  O25  1  0.53437900  0.83423500  0.88709200  1
  O  O26  1  0.96565500  0.25222400  0.02642300  1
  O  O27  1  0.96570300  0.75221600  0.52635800  1
