# generated using pymatgen
data_NaMn2FeAg(PO4)3
_symmetry_space_group_name_H-M   'P 1'
_cell_length_a   8.46500208
_cell_length_b   8.46500208
_cell_length_c   9.90466282
_cell_angle_alpha   67.78718704
_cell_angle_beta   67.78718704
_cell_angle_gamma   81.00412877
_symmetry_Int_Tables_number   1
_chemical_formula_structural   NaMn2FeAg(PO4)3
_chemical_formula_sum   'Na2 Mn4 Fe2 Ag2 P6 O24'
_cell_volume   608.22138570
_cell_formula_units_Z   2
loop_
 _symmetry_equiv_pos_site_id
 _symmetry_equiv_pos_as_xyz
  1  'x, y, z'
loop_
 _atom_site_type_symbol
 _atom_site_label
 _atom_site_symmetry_multiplicity
 _atom_site_fract_x
 _atom_site_fract_y
 _atom_site_fract_z
 _atom_site_occupancy
  Na  Na0  1  0.26840400  0.43873700  0.16145300  1
  Na  Na1  1  0.56126300  0.73159600  0.83854700  1
  Mn  Mn2  1  0.32478600  0.91886800  0.15834900  1
  Mn  Mn3  1  0.20666600  0.79333400  0.00000000  1
  Mn  Mn4  1  0.08113200  0.67521400  0.84165100  1
  Mn  Mn5  1  0.70219500  0.29780500  0.50000000  1
  Fe  Fe6  1  0.94849300  0.33887700  0.65594600  1
  Fe  Fe7  1  0.66112300  0.05150700  0.34405400  1
  Ag  Ag8  1  0.94529000  0.05471000  0.00000000  1
  Ag  Ag9  1  0.98535700  0.01464300  0.50000000  1
  P  P10  1  0.75712100  0.62504300  0.05984400  1
  P  P11  1  0.67765800  0.32234200  0.00000000  1
  P  P12  1  0.37495700  0.24287900  0.94015600  1
  P  P13  1  0.69528000  0.69892400  0.49245800  1
  P  P14  1  0.34546100  0.65453900  0.50000000  1
  P  P15  1  0.30107600  0.30472000  0.50754200  1
  O  O16  1  0.45486900  0.08934200  0.88860100  1
  O  O17  1  0.85689100  0.34742000  0.87290200  1
  O  O18  1  0.54626200  0.36385800  0.91251400  1
  O  O19  1  0.30127600  0.17403400  0.12480800  1
  O  O20  1  0.11318900  0.91952800  0.13716100  1
  O  O21  1  0.37370800  0.72540600  0.09762300  1
  O  O22  1  0.27459400  0.62629200  0.90237700  1
  O  O23  1  0.08047200  0.88681100  0.86283900  1
  O  O24  1  0.82596600  0.69872400  0.87519200  1
  O  O25  1  0.19041100  0.30567800  0.41725400  1
  O  O26  1  0.63614200  0.45373800  0.08748600  1
  O  O27  1  0.65258000  0.14310900  0.12709800  1
  O  O28  1  0.36663900  0.82444200  0.36812200  1
  O  O29  1  0.37869500  0.50039800  0.43483200  1
  O  O30  1  0.91065800  0.54513100  0.11139900  1
  O  O31  1  0.18203300  0.27765300  0.67616100  1
  O  O32  1  0.83657700  0.18175800  0.64840700  1
  O  O33  1  0.80364800  0.53094200  0.51548100  1
  O  O34  1  0.46905800  0.19635200  0.48451900  1
  O  O35  1  0.81824200  0.16342300  0.35159300  1
  O  O36  1  0.72234700  0.81796700  0.32383900  1
  O  O37  1  0.49960200  0.62130500  0.56516800  1
  O  O38  1  0.17555800  0.63336100  0.63187800  1
  O  O39  1  0.69432200  0.80958900  0.58274600  1
