# generated using pymatgen
data_Sr10Mg2Fe3(MoO6)5
_symmetry_space_group_name_H-M   'P 1'
_cell_length_a   5.64893930
_cell_length_b   56.49603035
_cell_length_c   5.66785878
_cell_angle_alpha   119.98688290
_cell_angle_beta   119.89673598
_cell_angle_gamma   89.89852915
_symmetry_Int_Tables_number   1
_chemical_formula_structural   Sr10Mg2Fe3(MoO6)5
_chemical_formula_sum   'Sr20 Mg4 Fe6 Mo10 O60'
_cell_volume   1282.42199347
_cell_formula_units_Z   2
loop_
 _symmetry_equiv_pos_site_id
 _symmetry_equiv_pos_as_xyz
  1  'x, y, z'
loop_
 _atom_site_type_symbol
 _atom_site_label
 _atom_site_symmetry_multiplicity
 _atom_site_fract_x
 _atom_site_fract_y
 _atom_site_fract_z
 _atom_site_occupancy
  Sr  Sr0  1  0.25108095  0.07495842  0.49995712  1
  Sr  Sr1  1  0.24969107  0.17504792  0.50014813  1
  Sr  Sr2  1  0.24710025  0.27482294  0.49914879  1
  Sr  Sr3  1  0.25465299  0.37474148  0.50650499  1
  Sr  Sr4  1  0.25224948  0.47521395  0.50384024  1
  Sr  Sr5  1  0.24565861  0.57531301  0.49152521  1
  Sr  Sr6  1  0.25191721  0.67461475  0.50544548  1
  Sr  Sr7  1  0.25099225  0.77500747  0.50230295  1
  Sr  Sr8  1  0.24738284  0.87550606  0.49599703  1
  Sr  Sr9  1  0.25145681  0.97489195  0.50017335  1
  Sr  Sr10  1  0.75289975  0.02517706  0.50085121  1
  Sr  Sr11  1  0.75030893  0.12495208  0.49985187  1
  Sr  Sr12  1  0.74891905  0.22504158  0.50004288  1
  Sr  Sr13  1  0.74854319  0.32510805  0.49982665  1
  Sr  Sr14  1  0.74900775  0.52499253  0.49769705  1
  Sr  Sr15  1  0.74808279  0.62538525  0.49455452  1
  Sr  Sr16  1  0.75261716  0.42449394  0.50400297  1
  Sr  Sr17  1  0.75434139  0.72468699  0.50847479  1
  Sr  Sr18  1  0.74775052  0.82478605  0.49615976  1
  Sr  Sr19  1  0.74534701  0.92525852  0.49349501  1
  Mg  Mg20  1  0.00077157  0.00005492  -0.00007328  1
  Mg  Mg21  1  0.00031987  0.09995679  0.99980320  1
  Mg  Mg22  1  0.99968013  0.20004321  0.00019680  1
  Mg  Mg23  1  0.99922843  0.29994508  0.00007328  1
  Fe  Fe24  1  0.00116813  0.40002074  0.00087969  1
  Fe  Fe25  1  0.00040211  0.50006358  0.00034363  1
  Fe  Fe26  1  0.99770356  0.60011135  0.99771772  1
  Fe  Fe27  1  0.99959789  0.79993642  0.99965637  1
  Fe  Fe28  1  0.99883187  0.89997926  0.99912031  1
  Fe  Fe29  1  0.00229644  0.69988865  0.00228228  1
  Mo  Mo30  1  0.50076894  0.04986714  0.99908446  1
  Mo  Mo31  1  0.50000000  0.15000000  -0.00000000  1
  Mo  Mo32  1  0.49923106  0.25013286  0.00091554  1
  Mo  Mo33  1  0.49971089  0.34925196  0.99708759  1
  Mo  Mo34  1  0.50136973  0.44992995  0.00257358  1
  Mo  Mo35  1  0.49868501  0.55025567  0.99699883  1
  Mo  Mo36  1  0.50000000  0.65000000  -0.00000000  1
  Mo  Mo37  1  0.50131499  0.74974433  0.00300117  1
  Mo  Mo38  1  0.50028911  0.95074804  0.00291241  1
  Mo  Mo39  1  0.49863027  0.85007005  0.99742642  1
  O  O40  1  0.26086328  0.02570365  0.51582400  1
  O  O41  1  0.25857655  0.12570508  0.51576474  1
  O  O42  1  0.25744744  0.22585269  0.51596209  1
  O  O43  1  0.25423440  0.32628556  0.51314404  1
  O  O44  1  0.26218877  0.42515499  0.52095369  1
  O  O45  1  0.25618050  0.52525776  0.51269158  1
  O  O46  1  0.24554748  0.62607344  0.49502764  1
  O  O47  1  0.26188446  0.72507853  0.52248190  1
  O  O48  1  0.25634590  0.82506712  0.51318424  1
  O  O49  1  0.24658228  0.92562285  0.49783566  1
  O  O50  1  0.22150529  0.07024481  0.99848165  1
  O  O51  1  0.22087084  0.17035982  0.99935706  1
  O  O52  1  0.21968968  0.27039980  0.99987153  1
  O  O53  1  0.23142100  0.37156618  0.01380395  1
  O  O54  1  0.20726148  0.47083594  0.99586816  1
  O  O55  1  0.20441147  0.57121692  0.98596458  1
  O  O56  1  0.22433543  0.67136872  0.01511721  1
  O  O57  1  0.20722654  0.77071760  0.99706527  1
  O  O58  1  0.20435420  0.87105309  0.98743212  1
  O  O59  1  0.22562068  0.97073378  0.99970863  1
  O  O60  1  0.29755599  0.02211645  0.99963796  1
  O  O61  1  0.29659847  0.12214916  0.00004387  1
  O  O62  1  0.29533650  0.22218127  0.99988671  1
  O  O63  1  0.28993212  0.32194664  0.99829266  1
  O  O64  1  0.29609173  0.42109612  0.01126922  1
  O  O65  1  0.29075338  0.52142148  0.00447075  1
  O  O66  1  0.27581938  0.62156862  0.98483212  1
  O  O67  1  0.29689051  0.72098189  0.01319042  1
  O  O68  1  0.29025549  0.82121507  0.00390775  1
  O  O69  1  0.27812004  0.92175613  0.99231337  1
  O  O70  1  0.74255256  0.07414731  0.48403791  1
  O  O71  1  0.74142345  0.17429492  0.48423526  1
  O  O72  1  0.73913672  0.27429635  0.48417600  1
  O  O73  1  0.75341772  0.37437715  0.50216434  1
  O  O74  1  0.74365410  0.47493288  0.48681576  1
  O  O75  1  0.73811554  0.57492147  0.47751810  1
  O  O76  1  0.75445252  0.67392656  0.50497236  1
  O  O77  1  0.74381950  0.77474224  0.48730842  1
  O  O78  1  0.73781123  0.87484501  0.47904631  1
  O  O79  1  0.74576560  0.97371444  0.48685596  1
  O  O80  1  0.70466350  0.07781873  0.00011329  1
  O  O81  1  0.70340153  0.17785084  -0.00004387  1
  O  O82  1  0.70244401  0.27788355  0.00036204  1
  O  O83  1  0.72187996  0.37824387  0.00768663  1
  O  O84  1  0.70974451  0.47878493  0.99609225  1
  O  O85  1  0.70310949  0.57901811  0.98680958  1
  O  O86  1  0.72418062  0.67843138  0.01516788  1
  O  O87  1  0.70924662  0.77857852  0.99552925  1
  O  O88  1  0.70390827  0.87890388  0.98873078  1
  O  O89  1  0.71006788  0.97805336  0.00170734  1
  O  O90  1  0.78031032  0.02960020  0.00012847  1
  O  O91  1  0.77912916  0.12964018  0.00064294  1
  O  O92  1  0.77849471  0.22975519  0.00151835  1
  O  O93  1  0.77437932  0.32926622  0.00029137  1
  O  O94  1  0.79277346  0.52928240  0.00293473  1
  O  O95  1  0.77566457  0.62863128  0.98488279  1
  O  O96  1  0.79564580  0.42894691  0.01256788  1
  O  O97  1  0.79558853  0.72878308  0.01403542  1
  O  O98  1  0.79273852  0.82916406  0.00413184  1
  O  O99  1  0.76857900  0.92843382  0.98619605  1
