# generated using pymatgen
data_NaMg3Si4HO12
_symmetry_space_group_name_H-M   'P 1'
_cell_length_a   10.74423250
_cell_length_b   9.85108180
_cell_length_c   10.31874867
_cell_angle_alpha   61.52615326
_cell_angle_beta   84.52752122
_cell_angle_gamma   78.48183852
_symmetry_Int_Tables_number   1
_chemical_formula_structural   NaMg3Si4HO12
_chemical_formula_sum   'Na4 Mg12 Si16 H4 O48'
_cell_volume   940.71291542
_cell_formula_units_Z   4
loop_
 _symmetry_equiv_pos_site_id
 _symmetry_equiv_pos_as_xyz
  1  'x, y, z'
loop_
 _atom_site_type_symbol
 _atom_site_label
 _atom_site_symmetry_multiplicity
 _atom_site_fract_x
 _atom_site_fract_y
 _atom_site_fract_z
 _atom_site_occupancy
  Na  Na0  1  0.00000000  0.50000000  0.00000000  1
  Na  Na1  1  0.24991800  0.72900900  0.54179200  1
  Na  Na2  1  0.50000000  0.50000000  0.00000000  1
  Na  Na3  1  0.75008200  0.27099100  0.45820800  1
  Mg  Mg4  1  0.00000000  0.00000000  0.00000000  1
  Mg  Mg5  1  0.00436400  0.82017900  0.36005100  1
  Mg  Mg6  1  0.24998000  0.08777900  0.82442600  1
  Mg  Mg7  1  0.24994700  0.25482000  0.48987800  1
  Mg  Mg8  1  0.25005800  0.90984600  0.18033600  1
  Mg  Mg9  1  0.50000000  0.00000000  0.00000000  1
  Mg  Mg10  1  0.50411900  0.18079200  0.63978900  1
  Mg  Mg11  1  0.49588100  0.81920800  0.36021100  1
  Mg  Mg12  1  0.74994200  0.09015400  0.81966400  1
  Mg  Mg13  1  0.75005300  0.74518000  0.51012200  1
  Mg  Mg14  1  0.75002000  0.91222100  0.17557400  1
  Mg  Mg15  1  0.99563600  0.17982100  0.63994900  1
  Si  Si16  1  0.11299800  0.12297000  0.33989600  1
  Si  Si17  1  0.11230500  0.45866200  0.65448100  1
  Si  Si18  1  0.13394600  0.63645100  0.17051200  1
  Si  Si19  1  0.13483200  0.80697200  0.82796200  1
  Si  Si20  1  0.36611000  0.19264500  0.17122800  1
  Si  Si21  1  0.36492500  0.36491700  0.82859400  1
  Si  Si22  1  0.38708900  0.53724400  0.33908100  1
  Si  Si23  1  0.38758200  0.88709600  0.65407300  1
  Si  Si24  1  0.61241800  0.11290400  0.34592700  1
  Si  Si25  1  0.61291100  0.46275600  0.66091900  1
  Si  Si26  1  0.63507500  0.63508300  0.17140600  1
  Si  Si27  1  0.63389000  0.80735500  0.82877200  1
  Si  Si28  1  0.86516800  0.19302800  0.17203800  1
  Si  Si29  1  0.86605400  0.36354900  0.82948800  1
  Si  Si30  1  0.88769500  0.54133800  0.34551900  1
  Si  Si31  1  0.88700200  0.87703000  0.66010400  1
  H  H32  1  0.12504000  0.20732400  0.99812700  1
  H  H33  1  0.37477600  0.79482900  0.99797000  1
  H  H34  1  0.62522400  0.20517100  0.00203000  1
  H  H35  1  0.87496000  0.79267600  0.00187300  1
  O  O36  1  0.01706700  0.53805100  0.24120700  1
  O  O37  1  0.11222500  0.13452100  0.49095200  1
  O  O38  1  0.02155100  0.77217900  0.75615800  1
  O  O39  1  0.14793700  0.10704000  0.99861900  1
  O  O40  1  0.10542200  0.80254900  0.17294500  1
  O  O41  1  0.10274300  0.61131700  0.49894200  1
  O  O42  1  0.14510400  0.28905600  0.65292800  1
  O  O43  1  0.14078200  0.66087800  0.99930500  1
  O  O44  1  0.10287900  0.97555200  0.82581500  1
  O  O45  1  0.22991500  0.22527100  0.24754000  1
  O  O46  1  0.13828600  0.95509700  0.34032700  1
  O  O47  1  0.22681200  0.46476000  0.75273800  1
  O  O48  1  0.27041600  0.52804700  0.24597500  1
  O  O49  1  0.35874600  0.33950100  0.00008300  1
  O  O50  1  0.35488400  0.05808800  0.65283100  1
  O  O51  1  0.27304700  0.78284700  0.75226800  1
  O  O52  1  0.39465600  0.02443800  0.17301600  1
  O  O53  1  0.35209600  0.89420000  0.99865100  1
  O  O54  1  0.36190100  0.70430700  0.34029400  1
  O  O55  1  0.38760600  0.37456400  0.48986500  1
  O  O56  1  0.39701700  0.19881400  0.82579800  1
  O  O57  1  0.48311100  0.22044700  0.24167600  1
  O  O58  1  0.39710700  0.88999700  0.49844000  1
  O  O59  1  0.47824600  0.47148100  0.75701500  1
  O  O60  1  0.52175400  0.52851900  0.24298500  1
  O  O61  1  0.60289300  0.11000300  0.50156000  1
  O  O62  1  0.51688900  0.77955300  0.75832400  1
  O  O63  1  0.64790400  0.10580000  0.00134900  1
  O  O64  1  0.60298300  0.80118600  0.17420200  1
  O  O65  1  0.61239400  0.62543600  0.51013500  1
  O  O66  1  0.63809900  0.29569300  0.65970600  1
  O  O67  1  0.64125400  0.66049900  0.99991700  1
  O  O68  1  0.60534400  0.97556200  0.82698400  1
  O  O69  1  0.72695300  0.21715300  0.24773200  1
  O  O70  1  0.64511600  0.94191200  0.34716900  1
  O  O71  1  0.72958400  0.47195300  0.75402500  1
  O  O72  1  0.77318800  0.53524000  0.24726200  1
  O  O73  1  0.85921800  0.33912200  0.00069500  1
  O  O74  1  0.86171400  0.04490300  0.65967300  1
  O  O75  1  0.77008500  0.77472900  0.75246000  1
  O  O76  1  0.89712100  0.02444800  0.17418500  1
  O  O77  1  0.85206300  0.89296000  0.00138100  1
  O  O78  1  0.85489600  0.71094400  0.34707200  1
  O  O79  1  0.89725700  0.38868300  0.50105800  1
  O  O80  1  0.89457800  0.19745100  0.82705500  1
  O  O81  1  0.97844900  0.22782100  0.24384200  1
  O  O82  1  0.88777500  0.86547900  0.50904800  1
  O  O83  1  0.98293300  0.46194900  0.75879300  1
