# generated using pymatgen
data_Sr16Fe16O43
_symmetry_space_group_name_H-M   'P 1'
_cell_length_a   5.58942327
_cell_length_b   5.58820145
_cell_length_c   44.32113948
_cell_angle_alpha   60.21790681
_cell_angle_beta   59.82584309
_cell_angle_gamma   59.77712557
_symmetry_Int_Tables_number   1
_chemical_formula_structural   Sr16Fe16O43
_chemical_formula_sum   'Sr16 Fe16 O43'
_cell_volume   977.53184270
_cell_formula_units_Z   1
loop_
 _symmetry_equiv_pos_site_id
 _symmetry_equiv_pos_as_xyz
  1  'x, y, z'
loop_
 _atom_site_type_symbol
 _atom_site_label
 _atom_site_symmetry_multiplicity
 _atom_site_fract_x
 _atom_site_fract_y
 _atom_site_fract_z
 _atom_site_occupancy
  Sr  Sr0  1  0.25011600  0.25053200  0.03123700  1
  Sr  Sr1  1  0.24925100  0.25132600  0.15422500  1
  Sr  Sr2  1  0.73482200  0.74862900  0.09569400  1
  Sr  Sr3  1  0.25074900  0.24867400  0.28327500  1
  Sr  Sr4  1  0.75000000  0.75000000  0.21875000  1
  Sr  Sr5  1  0.24988400  0.24946800  0.40626300  1
  Sr  Sr6  1  0.76517800  0.75137100  0.34180600  1
  Sr  Sr7  1  0.24893300  0.24944000  0.52951300  1
  Sr  Sr8  1  0.73459300  0.74786900  0.47077300  1
  Sr  Sr9  1  0.24168000  0.24035600  0.66030600  1
  Sr  Sr10  1  0.74983100  0.74654900  0.59431600  1
  Sr  Sr11  1  0.25832000  0.25964400  0.77719400  1
  Sr  Sr12  1  0.75000000  0.75000000  0.71875000  1
  Sr  Sr13  1  0.25106700  0.25056000  0.90798700  1
  Sr  Sr14  1  0.75016900  0.75345100  0.84318400  1
  Sr  Sr15  1  0.76540700  0.75213100  0.96672700  1
  Fe  Fe16  1  0.97802000  0.01907500  0.99752200  1
  Fe  Fe17  1  0.99964300  0.00082500  0.12489600  1
  Fe  Fe18  1  0.52207500  0.48191300  0.06492700  1
  Fe  Fe19  1  0.97540700  0.98090200  0.25256100  1
  Fe  Fe20  1  0.52459300  0.51909800  0.18493900  1
  Fe  Fe21  1  0.97792500  0.01808700  0.37257300  1
  Fe  Fe22  1  0.50035700  0.49917500  0.31260400  1
  Fe  Fe23  1  0.00055400  0.00010700  0.49996200  1
  Fe  Fe24  1  0.52198000  0.48092500  0.43997800  1
  Fe  Fe25  1  0.98001600  0.98014100  0.62745400  1
  Fe  Fe26  1  0.52427300  0.51830000  0.56024400  1
  Fe  Fe27  1  0.99756500  0.99976600  0.75030100  1
  Fe  Fe28  1  0.50243500  0.50023400  0.68719900  1
  Fe  Fe29  1  0.97572700  0.98170000  0.87725600  1
  Fe  Fe30  1  0.51998400  0.51985900  0.81004600  1
  Fe  Fe31  1  0.49944600  0.49989300  0.93753800  1
  O  O32  1  0.23630100  0.26876700  0.09300900  1
  O  O33  1  0.22882000  0.78112100  0.08697900  1
  O  O34  1  0.74963000  0.25181100  0.03104800  1
  O  O35  1  0.75086100  0.75006300  0.03144000  1
  O  O36  1  0.24977900  0.73202600  0.15688500  1
  O  O37  1  0.73577400  0.26224400  0.09690800  1
  O  O38  1  0.25000000  0.75000000  0.21875000  1
  O  O39  1  0.70545300  0.21908400  0.16298900  1
  O  O40  1  0.77495100  0.73585300  0.15319400  1
  O  O41  1  0.25022100  0.76797400  0.28061500  1
  O  O42  1  0.75000000  0.25000000  0.21875000  1
  O  O43  1  0.26369900  0.23123300  0.34449100  1
  O  O44  1  0.27118000  0.71887900  0.35052100  1
  O  O45  1  0.79454700  0.28091600  0.27451100  1
  O  O46  1  0.72504900  0.76414700  0.28430600  1
  O  O47  1  0.76422600  0.23775600  0.34059200  1
  O  O48  1  0.23627300  0.26746200  0.46817300  1
  O  O49  1  0.75037000  0.24818900  0.40645200  1
  O  O50  1  0.22863900  0.78140300  0.46183100  1
  O  O51  1  0.25287600  0.72920800  0.53134100  1
  O  O52  1  0.74913900  0.74993700  0.40606000  1
  O  O53  1  0.73655400  0.26385100  0.47196800  1
  O  O54  1  0.70727100  0.21661600  0.53862100  1
  O  O55  1  0.24669200  0.75423500  0.59240200  1
  O  O56  1  0.75359000  0.25626500  0.59401700  1
  O  O57  1  0.77463000  0.73674100  0.52796100  1
  O  O58  1  0.26989300  0.78006600  0.65139700  1
  O  O59  1  0.25000000  0.25000000  0.71875000  1
  O  O60  1  0.78457800  0.26756000  0.65219400  1
  O  O61  1  0.25000000  0.75000000  0.71875000  1
  O  O62  1  0.75000000  0.25000000  0.71875000  1
  O  O63  1  0.74566000  0.74778400  0.65872800  1
  O  O64  1  0.23010700  0.71993400  0.78610300  1
  O  O65  1  0.71542200  0.23244000  0.78530600  1
  O  O66  1  0.25330800  0.74576500  0.84509800  1
  O  O67  1  0.75434000  0.75221600  0.77877200  1
  O  O68  1  0.26372700  0.23253800  0.96932700  1
  O  O69  1  0.74641000  0.24373500  0.84348300  1
  O  O70  1  0.24712400  0.77079200  0.90615900  1
  O  O71  1  0.27136100  0.71859700  0.97566900  1
  O  O72  1  0.79272900  0.28338400  0.89887900  1
  O  O73  1  0.76344600  0.23614900  0.96553200  1
  O  O74  1  0.72537000  0.76325900  0.90953900  1
