# generated using pymatgen
data_Nb7Te6
_symmetry_space_group_name_H-M   'P 1'
_cell_length_a   11.50446564
_cell_length_b   15.13359473
_cell_length_c   15.40404206
_cell_angle_alpha   49.66236164
_cell_angle_beta   41.84672347
_cell_angle_gamma   75.50977394
_symmetry_Int_Tables_number   1
_chemical_formula_structural   Nb7Te6
_chemical_formula_sum   'Nb28 Te24'
_cell_volume   1213.64494561
_cell_formula_units_Z   4
loop_
 _symmetry_equiv_pos_site_id
 _symmetry_equiv_pos_as_xyz
  1  'x, y, z'
loop_
 _atom_site_type_symbol
 _atom_site_label
 _atom_site_symmetry_multiplicity
 _atom_site_fract_x
 _atom_site_fract_y
 _atom_site_fract_z
 _atom_site_occupancy
  Nb  Nb0  1  0.07185200  0.67676300  0.21187700  1
  Nb  Nb1  1  0.99008700  0.00369200  0.49896600  1
  Nb  Nb2  1  0.00991300  0.49630800  0.50103400  1
  Nb  Nb3  1  0.06480600  0.12796100  0.55465000  1
  Nb  Nb4  1  0.38531900  0.17520700  0.22035100  1
  Nb  Nb5  1  0.05588400  0.62091500  0.56565800  1
  Nb  Nb6  1  0.40330800  0.68325200  0.19969900  1
  Nb  Nb7  1  0.27718800  0.38261200  0.42707100  1
  Nb  Nb8  1  0.32720700  0.99676800  0.50410300  1
  Nb  Nb9  1  0.25983300  0.88185000  0.43714800  1
  Nb  Nb10  1  0.32481200  0.49916500  0.49816500  1
  Nb  Nb11  1  0.40724000  0.12168200  0.55686600  1
  Nb  Nb12  1  0.71579600  0.17050100  0.22812300  1
  Nb  Nb13  1  0.39345000  0.61303300  0.56592200  1
  Nb  Nb14  1  0.28420400  0.32949900  0.77187700  1
  Nb  Nb15  1  0.72016400  0.67625900  0.21374300  1
  Nb  Nb16  1  0.59276000  0.37831800  0.44313400  1
  Nb  Nb17  1  0.27983600  0.82374100  0.78625700  1
  Nb  Nb18  1  0.67518800  0.00083500  0.50183500  1
  Nb  Nb19  1  0.60655000  0.88696700  0.43407800  1
  Nb  Nb20  1  0.67279300  0.50323200  0.49589700  1
  Nb  Nb21  1  0.72281200  0.11738800  0.57292900  1
  Nb  Nb22  1  0.74016700  0.61815000  0.56285200  1
  Nb  Nb23  1  0.61468100  0.32479300  0.77964900  1
  Nb  Nb24  1  0.93519400  0.37203900  0.44535000  1
  Nb  Nb25  1  0.59669200  0.81674800  0.80030100  1
  Nb  Nb26  1  0.94411600  0.87908500  0.43434200  1
  Nb  Nb27  1  0.92814800  0.82323700  0.78812300  1
  Te  Te28  1  0.12848400  0.28718400  0.26572400  1
  Te  Te29  1  0.31742900  0.06739500  0.15671800  1
  Te  Te30  1  0.13981400  0.79439300  0.26376000  1
  Te  Te31  1  0.32297500  0.55797200  0.15495900  1
  Te  Te32  1  0.46703700  0.28951700  0.27012100  1
  Te  Te33  1  0.01122200  0.43340200  0.84068600  1
  Te  Te34  1  0.65694000  0.06806300  0.15104200  1
  Te  Te35  1  0.46398700  0.79034500  0.27042400  1
  Te  Te36  1  0.18988200  0.21515000  0.72960100  1
  Te  Te37  1  0.01340800  0.93983700  0.83976800  1
  Te  Te38  1  0.66157100  0.56105200  0.15148600  1
  Te  Te39  1  0.20214700  0.71367300  0.72590400  1
  Te  Te40  1  0.81011800  0.28485000  0.27039900  1
  Te  Te41  1  0.34306000  0.43193700  0.84895800  1
  Te  Te42  1  0.98877800  0.06659800  0.15931400  1
  Te  Te43  1  0.79785300  0.78632700  0.27409600  1
  Te  Te44  1  0.53296300  0.21048300  0.72987900  1
  Te  Te45  1  0.33842900  0.93894800  0.84851400  1
  Te  Te46  1  0.98659200  0.56016300  0.16023200  1
  Te  Te47  1  0.53601300  0.70965500  0.72957600  1
  Te  Te48  1  0.68257100  0.43260500  0.84328200  1
  Te  Te49  1  0.87151600  0.21281600  0.73427600  1
  Te  Te50  1  0.67702500  0.94202800  0.84504100  1
  Te  Te51  1  0.86018600  0.70560700  0.73624000  1
