# generated using pymatgen
data_Na3PO4
_symmetry_space_group_name_H-M   'P 1'
_cell_length_a   5.51481100
_cell_length_b   5.87430000
_cell_length_c   6.94076300
_cell_angle_alpha   90.00000000
_cell_angle_beta   90.00000000
_cell_angle_gamma   90.00000000
_symmetry_Int_Tables_number   1
_chemical_formula_structural   Na3PO4
_chemical_formula_sum   'Na6 P2 O8'
_cell_volume   224.85055843
_cell_formula_units_Z   2
loop_
 _symmetry_equiv_pos_site_id
 _symmetry_equiv_pos_as_xyz
  1  'x, y, z'
loop_
 _atom_site_type_symbol
 _atom_site_label
 _atom_site_symmetry_multiplicity
 _atom_site_fract_x
 _atom_site_fract_y
 _atom_site_fract_z
 _atom_site_occupancy
  Na  Na0  1  0.50787700  0.81048000  0.75318700  1
  Na  Na1  1  0.50279700  0.33586900  0.50000000  1
  Na  Na2  1  0.00787700  0.18952000  0.74681300  1
  Na  Na3  1  0.00787700  0.18952000  0.25318700  1
  Na  Na4  1  0.50787700  0.81048000  0.24681300  1
  Na  Na5  1  0.00279700  0.66413100  0.00000000  1
  P  P6  1  0.00138500  0.68265700  0.50000000  1
  P  P7  1  0.50138500  0.31734300  0.00000000  1
  O  O8  1  0.60240400  0.56614500  0.00000000  1
  O  O9  1  0.71939700  0.67545000  0.50000000  1
  O  O10  1  0.58465100  0.18994200  0.18550500  1
  O  O11  1  0.58465100  0.18994200  0.81449500  1
  O  O12  1  0.10240400  0.43385500  0.50000000  1
  O  O13  1  0.08465100  0.81005800  0.68550500  1
  O  O14  1  0.08465100  0.81005800  0.31449500  1
  O  O15  1  0.21939700  0.32455000  0.00000000  1
