# generated using pymatgen
data_Na3TmTi2Nb2O12
_symmetry_space_group_name_H-M   'P 1'
_cell_length_a   5.41716400
_cell_length_b   5.58856200
_cell_length_c   15.46891800
_cell_angle_alpha   90.00000000
_cell_angle_beta   90.00000000
_cell_angle_gamma   90.00000000
_symmetry_Int_Tables_number   1
_chemical_formula_structural   Na3TmTi2Nb2O12
_chemical_formula_sum   'Na6 Tm2 Ti4 Nb4 O24'
_cell_volume   468.30845027
_cell_formula_units_Z   2
loop_
 _symmetry_equiv_pos_site_id
 _symmetry_equiv_pos_as_xyz
  1  'x, y, z'
loop_
 _atom_site_type_symbol
 _atom_site_label
 _atom_site_symmetry_multiplicity
 _atom_site_fract_x
 _atom_site_fract_y
 _atom_site_fract_z
 _atom_site_occupancy
  Na  Na0  1  0.00493000  0.96888800  0.37082000  1
  Na  Na1  1  0.00493000  0.96888800  0.87918000  1
  Na  Na2  1  0.49507000  0.46888800  0.87918000  1
  Na  Na3  1  0.49507000  0.46888800  0.37082000  1
  Na  Na4  1  0.50880200  0.53488300  0.62500000  1
  Na  Na5  1  0.99119800  0.03488300  0.62500000  1
  Tm  Tm6  1  0.51359200  0.56787300  0.12500000  1
  Tm  Tm7  1  0.98640800  0.06787300  0.12500000  1
  Ti  Ti8  1  0.01358800  0.52401000  0.99921600  1
  Ti  Ti9  1  0.01358800  0.52401000  0.25078400  1
  Ti  Ti10  1  0.48641200  0.02401000  0.25078400  1
  Ti  Ti11  1  0.48641200  0.02401000  0.99921600  1
  Nb  Nb12  1  0.00054900  0.50112200  0.49782300  1
  Nb  Nb13  1  0.00054900  0.50112200  0.75217700  1
  Nb  Nb14  1  0.49945100  0.00112200  0.75217700  1
  Nb  Nb15  1  0.49945100  0.00112200  0.49782300  1
  O  O16  1  0.10876800  0.45589200  0.12500000  1
  O  O17  1  0.07847200  0.48204900  0.62500000  1
  O  O18  1  0.20504700  0.20743600  0.47735400  1
  O  O19  1  0.19558900  0.18950300  0.26110900  1
  O  O20  1  0.20504700  0.20743600  0.77264600  1
  O  O21  1  0.19558900  0.18950300  0.98889100  1
  O  O22  1  0.29495300  0.70743600  0.47735400  1
  O  O23  1  0.29495300  0.70743600  0.77264600  1
  O  O24  1  0.30441100  0.68950300  0.26110900  1
  O  O25  1  0.30441100  0.68950300  0.98889100  1
  O  O26  1  0.39123200  0.95589200  0.12500000  1
  O  O27  1  0.42152800  0.98204900  0.62500000  1
  O  O28  1  0.57375700  0.01781400  0.88056400  1
  O  O29  1  0.57375700  0.01781400  0.36943600  1
  O  O30  1  0.70254400  0.27894000  0.03514800  1
  O  O31  1  0.70254400  0.27894000  0.21485200  1
  O  O32  1  0.70543800  0.29193900  0.51852000  1
  O  O33  1  0.70543800  0.29193900  0.73148000  1
  O  O34  1  0.79745600  0.77894000  0.03514800  1
  O  O35  1  0.79745600  0.77894000  0.21485200  1
  O  O36  1  0.79456200  0.79193900  0.51852000  1
  O  O37  1  0.79456200  0.79193900  0.73148000  1
  O  O38  1  0.92624300  0.51781400  0.36943600  1
  O  O39  1  0.92624300  0.51781400  0.88056400  1
