# generated using pymatgen
data_Na3NO2
_symmetry_space_group_name_H-M   'P 1'
_cell_length_a   9.20457400
_cell_length_b   6.71731600
_cell_length_c   6.71731600
_cell_angle_alpha   90.00000000
_cell_angle_beta   90.00000000
_cell_angle_gamma   90.00000000
_symmetry_Int_Tables_number   1
_chemical_formula_structural   Na3NO2
_chemical_formula_sum   'Na12 N4 O8'
_cell_volume   415.33186460
_cell_formula_units_Z   4
loop_
 _symmetry_equiv_pos_site_id
 _symmetry_equiv_pos_as_xyz
  1  'x, y, z'
loop_
 _atom_site_type_symbol
 _atom_site_label
 _atom_site_symmetry_multiplicity
 _atom_site_fract_x
 _atom_site_fract_y
 _atom_site_fract_z
 _atom_site_occupancy
  Na  Na0  1  0.00000000  0.00000000  0.00000000  1
  Na  Na1  1  0.26519800  0.24924000  0.25076000  1
  Na  Na2  1  0.23480200  0.25076000  0.75076000  1
  Na  Na3  1  0.23480200  0.74924000  0.24924000  1
  Na  Na4  1  0.26519800  0.75076000  0.74924000  1
  Na  Na5  1  0.50000000  0.00000000  0.00000000  1
  Na  Na6  1  0.50000000  0.50000000  0.50000000  1
  Na  Na7  1  0.73480200  0.24924000  0.25076000  1
  Na  Na8  1  0.76519800  0.25076000  0.75076000  1
  Na  Na9  1  0.76519800  0.74924000  0.24924000  1
  Na  Na10  1  0.73480200  0.75076000  0.74924000  1
  Na  Na11  1  0.00000000  0.50000000  0.50000000  1
  N  N12  1  0.73963500  0.50000000  0.00000000  1
  N  N13  1  0.76036500  0.00000000  0.50000000  1
  N  N14  1  0.23963500  0.00000000  0.50000000  1
  N  N15  1  0.26036500  0.50000000  0.00000000  1
  O  O16  1  0.00000000  0.65823300  0.15823300  1
  O  O17  1  0.25000000  0.50000000  0.50000000  1
  O  O18  1  0.25000000  0.00000000  0.00000000  1
  O  O19  1  0.50000000  0.84176700  0.65823300  1
  O  O20  1  0.50000000  0.15823300  0.34176700  1
  O  O21  1  0.75000000  0.00000000  0.00000000  1
  O  O22  1  0.75000000  0.50000000  0.50000000  1
  O  O23  1  0.00000000  0.34176700  0.84176700  1
