# generated using pymatgen
data_Na2TiFe(PO4)3
_symmetry_space_group_name_H-M   'P 1'
_cell_length_a   8.87838335
_cell_length_b   8.88199045
_cell_length_c   17.75988993
_cell_angle_alpha   58.99173539
_cell_angle_beta   58.92773623
_cell_angle_gamma   58.91145220
_symmetry_Int_Tables_number   1
_chemical_formula_structural   Na2TiFe(PO4)3
_chemical_formula_sum   'Na8 Ti4 Fe4 P12 O48'
_cell_volume   966.43474200
_cell_formula_units_Z   4
loop_
 _symmetry_equiv_pos_site_id
 _symmetry_equiv_pos_as_xyz
  1  'x, y, z'
loop_
 _atom_site_type_symbol
 _atom_site_label
 _atom_site_symmetry_multiplicity
 _atom_site_fract_x
 _atom_site_fract_y
 _atom_site_fract_z
 _atom_site_occupancy
  Na  Na0  1  0.00419400  0.01359500  0.99337300  1
  Na  Na1  1  0.00147700  0.01623900  0.49252000  1
  Na  Na2  1  0.38450200  0.75016700  0.05855700  1
  Na  Na3  1  0.49112000  0.48065800  0.26154000  1
  Na  Na4  1  0.88617700  0.60916800  0.12313600  1
  Na  Na5  1  0.47602700  0.51822300  0.75236000  1
  Na  Na6  1  0.61539400  0.24743200  0.94349600  1
  Na  Na7  1  0.88276100  0.62002200  0.62660100  1
  Ti  Ti8  1  0.14743900  0.13950700  0.57195400  1
  Ti  Ti9  1  0.35707300  0.35495200  0.67838100  1
  Ti  Ti10  1  0.64199900  0.64313000  0.32657400  1
  Ti  Ti11  1  0.85382100  0.86106300  0.42335500  1
  Fe  Fe12  1  0.13976800  0.15160100  0.07368700  1
  Fe  Fe13  1  0.35572200  0.34607600  0.18058500  1
  Fe  Fe14  1  0.64350900  0.65454100  0.82356800  1
  Fe  Fe15  1  0.86055600  0.84989200  0.92171600  1
  P  P16  1  0.03769200  0.74737500  0.23014900  1
  P  P17  1  0.46064500  0.03738200  0.37546300  1
  P  P18  1  0.75126400  0.45415800  0.02124800  1
  P  P19  1  0.25178800  0.53516900  0.48039900  1
  P  P20  1  0.53659900  0.95311100  0.12681000  1
  P  P21  1  0.04011200  0.75012000  0.72585400  1
  P  P22  1  0.96134100  0.24776000  0.27216100  1
  P  P23  1  0.46078900  0.04902800  0.87424000  1
  P  P24  1  0.75252000  0.46242000  0.52089400  1
  P  P25  1  0.25275800  0.54493100  0.97958100  1
  P  P26  1  0.53837800  0.96403200  0.62404500  1
  P  P27  1  0.96484300  0.24624500  0.76902900  1
  O  O28  1  0.12433300  0.28347100  0.25993400  1
  O  O29  1  0.28440900  0.52498900  0.06298200  1
  O  O30  1  0.06139500  0.91444900  0.13889300  1
  O  O31  1  0.49876500  0.12781100  0.14063600  1
  O  O32  1  0.98895500  0.79291800  0.31605800  1
  O  O33  1  0.22216500  0.58068000  0.22234000  1
  O  O34  1  0.27966300  0.05817500  0.46085700  1
  O  O35  1  0.44598800  0.21573100  0.29112000  1
  O  O36  1  0.21192500  0.36881200  0.49683800  1
  O  O37  1  0.57742400  0.44032000  0.11203400  1
  O  O38  1  0.07882600  0.71689000  0.47040500  1
  O  O39  1  0.37590700  0.96943400  0.10878900  1
  O  O40  1  0.62744300  0.99420100  0.39969100  1
  O  O41  1  0.13135000  0.29214100  0.74879000  1
  O  O42  1  0.92016500  0.27389100  0.03225600  1
  O  O43  1  0.42209600  0.56066100  0.39051300  1
  O  O44  1  0.78376700  0.62597600  0.00532500  1
  O  O45  1  0.28422400  0.50100300  0.56615100  1
  O  O46  1  0.57189600  0.76947900  0.21156800  1
  O  O47  1  0.06834700  0.92295500  0.63565100  1
  O  O48  1  0.50283600  0.13168900  0.64386300  1
  O  O49  1  0.72375200  0.93037800  0.04237400  1
  O  O50  1  0.00687900  0.78258800  0.81030200  1
  O  O51  1  0.22541500  0.58214900  0.71162500  1
  O  O52  1  0.77664400  0.41883900  0.28610500  1
  O  O53  1  0.98573600  0.22421900  0.18656400  1
  O  O54  1  0.27898600  0.06322800  0.95991400  1
  O  O55  1  0.49881000  0.86758700  0.35577700  1
  O  O56  1  0.93266900  0.07572300  0.36248400  1
  O  O57  1  0.43067600  0.22919500  0.78827300  1
  O  O58  1  0.71331600  0.50574800  0.43489700  1
  O  O59  1  0.22325400  0.36950800  0.99992400  1
  O  O60  1  0.58058600  0.43650700  0.60997600  1
  O  O61  1  0.07900700  0.72322400  0.96864000  1
  O  O62  1  0.87314300  0.70236300  0.24688800  1
  O  O63  1  0.37218200  0.00238300  0.60163900  1
  O  O64  1  0.62273200  0.03108800  0.89223600  1
  O  O65  1  0.92280600  0.28020200  0.53017100  1
  O  O66  1  0.42474500  0.56082400  0.88838700  1
  O  O67  1  0.79193600  0.62599700  0.50838800  1
  O  O68  1  0.56238000  0.77924000  0.70700600  1
  O  O69  1  0.72405600  0.93662500  0.54002800  1
  O  O70  1  0.78147300  0.41756500  0.77709200  1
  O  O71  1  0.00479900  0.20760700  0.68326200  1
  O  O72  1  0.50206300  0.87585200  0.85749300  1
  O  O73  1  0.93842300  0.08260600  0.86133900  1
  O  O74  1  0.70970600  0.48428600  0.93864400  1
  O  O75  1  0.87967400  0.71279500  0.73460500  1
