# generated using pymatgen
data_Na3V2P2O10F
_symmetry_space_group_name_H-M   'P 1'
_cell_length_a   6.48072793
_cell_length_b   6.48010024
_cell_length_c   28.01611762
_cell_angle_alpha   117.59877596
_cell_angle_beta   117.61789657
_cell_angle_gamma   89.86924846
_symmetry_Int_Tables_number   1
_chemical_formula_structural   Na3V2P2O10F
_chemical_formula_sum   'Na12 V8 P8 O40 F4'
_cell_volume   889.41083060
_cell_formula_units_Z   4
loop_
 _symmetry_equiv_pos_site_id
 _symmetry_equiv_pos_as_xyz
  1  'x, y, z'
loop_
 _atom_site_type_symbol
 _atom_site_label
 _atom_site_symmetry_multiplicity
 _atom_site_fract_x
 _atom_site_fract_y
 _atom_site_fract_z
 _atom_site_occupancy
  Na  Na0  1  0.25714900  0.28412900  0.74916300  1
  Na  Na1  1  0.25643100  0.28147500  0.49909300  1
  Na  Na2  1  0.73868300  0.26330400  0.75019800  1
  Na  Na3  1  0.71892200  0.74241100  0.75106400  1
  Na  Na4  1  0.25680000  0.28397400  0.24897600  1
  Na  Na5  1  0.73846300  0.26160400  0.50000000  1
  Na  Na6  1  0.71868700  0.74365000  0.50095100  1
  Na  Na7  1  0.22011400  0.50171400  0.00000300  1
  Na  Na8  1  0.73787300  0.26248900  0.24980000  1
  Na  Na9  1  0.71872600  0.74210900  0.25086000  1
  Na  Na10  1  0.71396200  0.25119500  0.99973000  1
  Na  Na11  1  0.71605700  0.75063600  0.00089000  1
  V  V12  1  0.20354500  0.19554900  0.84948800  1
  V  V13  1  0.20595800  0.19540100  0.60038600  1
  V  V14  1  0.81223800  0.79987500  0.90121500  1
  V  V15  1  0.20600000  0.19563200  0.35045800  1
  V  V16  1  0.80449300  0.79411300  0.64956500  1
  V  V17  1  0.20648000  0.19434200  0.09857000  1
  V  V18  1  0.80467200  0.79414100  0.39961100  1
  V  V19  1  0.80581000  0.79790800  0.15050500  1
  P  P20  1  0.24877000  0.74953900  0.87485700  1
  P  P21  1  0.24874700  0.75152900  0.62507100  1
  P  P22  1  0.74595600  0.25061900  0.87457300  1
  P  P23  1  0.24872100  0.75145100  0.37505100  1
  P  P24  1  0.74710900  0.25268900  0.62495000  1
  P  P25  1  0.24917600  0.75113900  0.12545600  1
  P  P26  1  0.74703200  0.25268700  0.37492800  1
  P  P27  1  0.74791000  0.25182000  0.12505300  1
  O  O28  1  0.14927200  0.83223600  0.91928900  1
  O  O29  1  0.16175900  0.46929600  0.82978500  1
  O  O30  1  0.15735900  0.85485900  0.83132200  1
  O  O31  1  0.36777600  0.35532500  0.92847700  1
  O  O32  1  0.52874400  0.83483900  0.91799800  1
  O  O33  1  0.14837300  0.84287200  0.66958300  1
  O  O34  1  0.46865500  0.17008300  0.83009700  1
  O  O35  1  0.16246000  0.47121900  0.58149700  1
  O  O36  1  0.15719300  0.85172700  0.58046700  1
  O  O37  1  0.37069000  0.34126700  0.67911300  1
  O  O38  1  0.66097900  0.63121200  0.82230400  1
  O  O39  1  0.83354100  0.14535600  0.91824900  1
  O  O40  1  0.84295200  0.52948100  0.92115600  1
  O  O41  1  0.52888900  0.83753700  0.66853000  1
  O  O42  1  0.85346100  0.16473100  0.83143100  1
  O  O43  1  0.14846900  0.84288500  0.41959000  1
  O  O44  1  0.46890800  0.16608100  0.57994000  1
  O  O45  1  0.16248800  0.47117600  0.33153500  1
  O  O46  1  0.15721000  0.85164300  0.33045300  1
  O  O47  1  0.37058500  0.34106200  0.42913700  1
  O  O48  1  0.65882800  0.62947200  0.57085600  1
  O  O49  1  0.83326400  0.14385700  0.66785100  1
  O  O50  1  0.83401400  0.53101300  0.67003000  1
  O  O51  1  0.52887000  0.83753200  0.41852600  1
  O  O52  1  0.85584300  0.16660600  0.58205000  1
  O  O53  1  0.14720800  0.84620400  0.16936300  1
  O  O54  1  0.46880500  0.16607600  0.32994500  1
  O  O55  1  0.16163700  0.47148700  0.08118400  1
  O  O56  1  0.16172400  0.84578000  0.07934900  1
  O  O57  1  0.36670500  0.33672100  0.17744700  1
  O  O58  1  0.65892000  0.62965600  0.32085600  1
  O  O59  1  0.83334300  0.14401800  0.41788500  1
  O  O60  1  0.83390200  0.53103000  0.42000100  1
  O  O61  1  0.52911400  0.83889000  0.16928900  1
  O  O62  1  0.85585600  0.16658100  0.33205700  1
  O  O63  1  0.47086500  0.15762700  0.08012100  1
  O  O64  1  0.65659800  0.64540600  0.07154800  1
  O  O65  1  0.83154200  0.53104200  0.16928700  1
  O  O66  1  0.83946300  0.14883300  0.16949000  1
  O  O67  1  0.85775100  0.16636300  0.08251800  1
  F  F68  1  0.99083300  0.00806500  0.74994100  1
  F  F69  1  0.99112900  0.00880700  0.49997300  1
  F  F70  1  0.99088300  0.00818400  0.25001700  1
  F  F71  1  0.98495800  0.00054000  0.99999800  1
