# generated using pymatgen
data_Na3Mg4ScSi8(O11F)2
_symmetry_space_group_name_H-M   'P 1'
_cell_length_a   5.36100652
_cell_length_b   9.94353228
_cell_length_c   10.38776943
_cell_angle_alpha   61.42855059
_cell_angle_beta   83.75380675
_cell_angle_gamma   76.85355264
_symmetry_Int_Tables_number   1
_chemical_formula_structural   Na3Mg4ScSi8(O11F)2
_chemical_formula_sum   'Na3 Mg4 Sc1 Si8 O22 F2'
_cell_volume   473.56489617
_cell_formula_units_Z   1
loop_
 _symmetry_equiv_pos_site_id
 _symmetry_equiv_pos_as_xyz
  1  'x, y, z'
loop_
 _atom_site_type_symbol
 _atom_site_label
 _atom_site_symmetry_multiplicity
 _atom_site_fract_x
 _atom_site_fract_y
 _atom_site_fract_z
 _atom_site_occupancy
  Na  Na0  1  0.49981900  0.27811700  0.44384000  1
  Na  Na1  1  0.49981900  0.72696800  0.54530600  1
  Na  Na2  1  0.92761600  0.52869600  0.00032100  1
  Mg  Mg3  1  0.00040400  0.99789800  0.00436400  1
  Mg  Mg4  1  0.49993400  0.08686200  0.82685700  1
  Mg  Mg5  1  0.49982300  0.91039600  0.18017200  1
  Mg  Mg6  1  0.00004700  0.81813500  0.36414500  1
  Sc  Sc7  1  0.99992500  0.18312800  0.63463100  1
  Si  Si8  1  0.20792600  0.11807600  0.33588500  1
  Si  Si9  1  0.20688900  0.45995400  0.66066400  1
  Si  Si10  1  0.28562600  0.63415200  0.16892000  1
  Si  Si11  1  0.28680600  0.80115100  0.83291200  1
  Si  Si12  1  0.71411300  0.19639700  0.16954900  1
  Si  Si13  1  0.71254700  0.36565400  0.83326000  1
  Si  Si14  1  0.79146800  0.54668800  0.33669600  1
  Si  Si15  1  0.79200300  0.88140000  0.65927300  1
  O  O16  1  0.06833800  0.52646400  0.24951600  1
  O  O17  1  0.19774900  0.11564800  0.49376000  1
  O  O18  1  0.06816400  0.77839900  0.75049400  1
  O  O19  1  0.20087400  0.60773100  0.50373600  1
  O  O20  1  0.27380100  0.28555400  0.66850900  1
  O  O21  1  0.21609300  0.80216700  0.16719100  1
  O  O22  1  0.29122800  0.65461000  0.00059200  1
  O  O23  1  0.43217600  0.22285700  0.24242300  1
  O  O24  1  0.21431900  0.97050000  0.83199800  1
  O  O25  1  0.27184600  0.95328600  0.33179700  1
  O  O26  1  0.43048800  0.46179700  0.76122600  1
  O  O27  1  0.57166800  0.53649300  0.23828600  1
  O  O28  1  0.70544000  0.34421500  0.00116900  1
  O  O29  1  0.72405700  0.04723600  0.66760300  1
  O  O30  1  0.78450600  0.03034600  0.16689400  1
  O  O31  1  0.57327400  0.77519200  0.76461200  1
  O  O32  1  0.78588300  0.19678200  0.83275000  1
  O  O33  1  0.72613000  0.71551600  0.33213500  1
  O  O34  1  0.79969300  0.39133300  0.49356300  1
  O  O35  1  0.93019200  0.22468400  0.24995600  1
  O  O36  1  0.79581400  0.88905400  0.50321400  1
  O  O37  1  0.93044200  0.47156100  0.75144900  1
  F  F38  1  0.29373200  0.09965600  0.00033900  1
  F  F39  1  0.70932800  0.89724700  0.99999100  1
