# generated using pymatgen
data_Na4Al3Si3ClO16
_symmetry_space_group_name_H-M   'P 1'
_cell_length_a   9.18614100
_cell_length_b   9.19562664
_cell_length_c   9.19773292
_cell_angle_alpha   90.14052392
_cell_angle_beta   90.01348029
_cell_angle_gamma   90.06883750
_symmetry_Int_Tables_number   1
_chemical_formula_structural   Na4Al3Si3ClO16
_chemical_formula_sum   'Na8 Al6 Si6 Cl2 O32'
_cell_volume   776.95094566
_cell_formula_units_Z   2
loop_
 _symmetry_equiv_pos_site_id
 _symmetry_equiv_pos_as_xyz
  1  'x, y, z'
loop_
 _atom_site_type_symbol
 _atom_site_label
 _atom_site_symmetry_multiplicity
 _atom_site_fract_x
 _atom_site_fract_y
 _atom_site_fract_z
 _atom_site_occupancy
  Na  Na0  1  0.78494700  0.22092600  0.21346400  1
  Na  Na1  1  0.21881600  0.77919300  0.21790600  1
  Na  Na2  1  0.71867000  0.71182800  0.28289000  1
  Na  Na3  1  0.28605900  0.28313100  0.28524900  1
  Na  Na4  1  0.27427800  0.72837400  0.72761800  1
  Na  Na5  1  0.71950700  0.27852700  0.72053000  1
  Na  Na6  1  0.79076600  0.78747500  0.79058600  1
  Na  Na7  1  0.21757500  0.21504800  0.78510900  1
  Al  Al8  1  0.49984800  0.75019200  0.99872700  1
  Al  Al9  1  0.00026600  0.49956200  0.25159400  1
  Al  Al10  1  0.75057700  0.00023800  0.49936200  1
  Al  Al11  1  0.25081000  0.99983800  0.49912100  1
  Al  Al12  1  0.00144000  0.49935000  0.75062200  1
  Al  Al13  1  0.50142700  0.24936700  0.00038500  1
  Si  Si14  1  0.25046200  0.49932800  0.00081800  1
  Si  Si15  1  0.75181200  0.49953300  0.00142800  1
  Si  Si16  1  0.50005000  0.99951700  0.24946700  1
  Si  Si17  1  0.00135400  0.24972900  0.49982500  1
  Si  Si18  1  0.00018000  0.74974400  0.50208700  1
  Si  Si19  1  0.50180500  0.99982600  0.74888600  1
  Cl  Cl20  1  0.00746000  0.01726200  0.98287500  1
  Cl  Cl21  1  0.51297500  0.47982900  0.52886200  1
  O  O22  1  0.34966100  0.35781000  0.04291000  1
  O  O23  1  0.65200900  0.64270500  0.03945300  1
  O  O24  1  0.15413300  0.54079800  0.14572000  1
  O  O25  1  0.84441900  0.46067400  0.14848500  1
  O  O26  1  0.45804100  0.85604800  0.15221600  1
  O  O27  1  0.54268500  0.14350600  0.15396300  1
  O  O28  1  0.64311200  0.95735500  0.34655100  1
  O  O29  1  0.35302300  0.03958800  0.34248300  1
  O  O30  1  0.95979800  0.65024500  0.36063500  1
  O  O31  1  0.04426400  0.34719000  0.35743600  1
  O  O32  1  0.54157200  0.53729800  0.38326700  1
  O  O33  1  0.14378900  0.84646800  0.45756100  1
  O  O34  1  0.85739000  0.15321400  0.45526400  1
  O  O35  1  0.85668900  0.84763300  0.54075100  1
  O  O36  1  0.14471300  0.15278900  0.54060400  1
  O  O37  1  0.50017900  0.32111600  0.52062100  1
  O  O38  1  0.37682700  0.53976300  0.58379600  1
  O  O39  1  0.63338000  0.51759500  0.62665600  1
  O  O40  1  0.03986400  0.65574700  0.64753200  1
  O  O41  1  0.96049300  0.34532500  0.64453500  1
  O  O42  1  0.36022600  0.95841000  0.64891700  1
  O  O43  1  0.64597200  0.03975100  0.65330500  1
  O  O44  1  0.54008100  0.85588000  0.84578700  1
  O  O45  1  0.46047200  0.14352700  0.84668100  1
  O  O46  1  0.15449000  0.45754900  0.85730300  1
  O  O47  1  0.85092100  0.53842400  0.86034900  1
  O  O48  1  0.13197800  0.97902500  0.88548200  1
  O  O49  1  0.87211000  0.03130500  0.89567700  1
  O  O50  1  0.34419100  0.64580400  0.96201100  1
  O  O51  1  0.65611500  0.35428000  0.96214600  1
  O  O52  1  0.92420200  0.79339200  0.05633300  1
  O  O53  1  0.03891400  0.16267000  0.05065700  1
