# generated using pymatgen
data_Sr(GaS2)2
_symmetry_space_group_name_H-M   'P 1'
_cell_length_a   6.07905751
_cell_length_b   6.07905751
_cell_length_c   10.67913200
_cell_angle_alpha   90.00000000
_cell_angle_beta   90.00000000
_cell_angle_gamma   120.25295467
_symmetry_Int_Tables_number   1
_chemical_formula_structural   Sr(GaS2)2
_chemical_formula_sum   'Sr2 Ga4 S8'
_cell_volume   340.89956542
_cell_formula_units_Z   2
loop_
 _symmetry_equiv_pos_site_id
 _symmetry_equiv_pos_as_xyz
  1  'x, y, z'
loop_
 _atom_site_type_symbol
 _atom_site_label
 _atom_site_symmetry_multiplicity
 _atom_site_fract_x
 _atom_site_fract_y
 _atom_site_fract_z
 _atom_site_occupancy
  Sr  Sr0  1  0.50000000  0.50000000  0.75000000  1
  Sr  Sr1  1  0.50000000  0.50000000  0.25000000  1
  Ga  Ga2  1  0.76267300  0.23930900  0.50000000  1
  Ga  Ga3  1  0.23732700  0.76069100  0.50000000  1
  Ga  Ga4  1  0.76069100  0.23732700  0.00000000  1
  Ga  Ga5  1  0.23930900  0.76267300  0.00000000  1
  S  S6  1  0.35184200  0.18138200  0.50000000  1
  S  S7  1  0.64815800  0.81861800  0.50000000  1
  S  S8  1  0.81861800  0.64815800  0.00000000  1
  S  S9  1  0.18138200  0.35184200  0.00000000  1
  S  S10  1  0.50000000  0.00000000  0.83656000  1
  S  S11  1  0.00000000  0.50000000  0.66344000  1
  S  S12  1  0.50000000  0.00000000  0.16344000  1
  S  S13  1  0.00000000  0.50000000  0.33656000  1
