# generated using pymatgen
data_Na4Al3Si3H3O14
_symmetry_space_group_name_H-M   'P 1'
_cell_length_a   9.14826600
_cell_length_b   9.16207600
_cell_length_c   9.35515368
_cell_angle_alpha   89.20053498
_cell_angle_beta   90.00000000
_cell_angle_gamma   90.00000000
_symmetry_Int_Tables_number   1
_chemical_formula_structural   Na4Al3Si3H3O14
_chemical_formula_sum   'Na8 Al6 Si6 H6 O28'
_cell_volume   784.04559916
_cell_formula_units_Z   2
loop_
 _symmetry_equiv_pos_site_id
 _symmetry_equiv_pos_as_xyz
  1  'x, y, z'
loop_
 _atom_site_type_symbol
 _atom_site_label
 _atom_site_symmetry_multiplicity
 _atom_site_fract_x
 _atom_site_fract_y
 _atom_site_fract_z
 _atom_site_occupancy
  Na  Na0  1  0.81439200  0.80627200  0.78376000  1
  Na  Na1  1  0.81439200  0.19372800  0.21624000  1
  Na  Na2  1  0.72936200  0.73488300  0.26854200  1
  Na  Na3  1  0.72936200  0.26511700  0.73145800  1
  Na  Na4  1  0.22585300  0.77116000  0.75379600  1
  Na  Na5  1  0.22585300  0.22884000  0.24620400  1
  Na  Na6  1  0.19418100  0.80993200  0.22369700  1
  Na  Na7  1  0.19418100  0.19006800  0.77630300  1
  Al  Al8  1  0.00371500  0.49419200  0.75200100  1
  Al  Al9  1  0.00371500  0.50580800  0.24799900  1
  Al  Al10  1  0.75666500  0.00000000  0.50000000  1
  Al  Al11  1  0.50276000  0.24962900  0.99811000  1
  Al  Al12  1  0.50276000  0.75037100  0.00189000  1
  Al  Al13  1  0.25682400  0.00000000  0.50000000  1
  Si  Si14  1  0.00351500  0.74678800  0.49655400  1
  Si  Si15  1  0.00351500  0.25321200  0.50344600  1
  Si  Si16  1  0.75527900  0.50000000  0.00000000  1
  Si  Si17  1  0.50742700  0.99585700  0.24930300  1
  Si  Si18  1  0.50742700  0.00414300  0.75069700  1
  Si  Si19  1  0.25413900  0.50000000  0.00000000  1
  H  H20  1  0.89162600  0.90283300  0.12004000  1
  H  H21  1  0.84880600  0.85366700  0.06997900  1
  H  H22  1  0.84880600  0.14633300  0.93002100  1
  H  H23  1  0.04393400  0.94802900  0.90058700  1
  H  H24  1  0.04393400  0.05197100  0.09941300  1
  H  H25  1  0.89162600  0.09716700  0.87996000  1
  O  O26  1  0.96673200  0.66526400  0.34446200  1
  O  O27  1  0.96673200  0.33473600  0.65553800  1
  O  O28  1  0.85586200  0.83966800  0.53285500  1
  O  O29  1  0.85586200  0.16033200  0.46714500  1
  O  O30  1  0.85219800  0.54355300  0.85757300  1
  O  O31  1  0.85219800  0.45644700  0.14242700  1
  O  O32  1  0.65780600  0.64282700  0.04200300  1
  O  O33  1  0.65780600  0.35717300  0.95799700  1
  O  O34  1  0.65320600  0.96452800  0.34644400  1
  O  O35  1  0.65320600  0.03547200  0.65355600  1
  O  O36  1  0.54745700  0.86628200  0.85669100  1
  O  O37  1  0.54745700  0.13371800  0.14330900  1
  O  O38  1  0.47305700  0.84356600  0.16428400  1
  O  O39  1  0.47305700  0.15643400  0.83571600  1
  O  O40  1  0.36397600  0.96587000  0.65381700  1
  O  O41  1  0.36397600  0.03413000  0.34618300  1
  O  O42  1  0.35150400  0.64322700  0.95325900  1
  O  O43  1  0.35150400  0.35677300  0.04674100  1
  O  O44  1  0.15568400  0.45452400  0.86056600  1
  O  O45  1  0.15568400  0.54547600  0.13943400  1
  O  O46  1  0.15238700  0.84254600  0.47076200  1
  O  O47  1  0.15238700  0.15745400  0.52923800  1
  O  O48  1  0.24175400  0.06869300  0.01018300  1
  O  O49  1  0.24175400  0.93130700  0.98981700  1
  O  O50  1  0.03804500  0.63739900  0.63163000  1
  O  O51  1  0.03804500  0.36260100  0.36837000  1
  O  O52  1  0.03331000  0.05884900  0.20221800  1
  O  O53  1  0.03331000  0.94115100  0.79778200  1
