# generated using pymatgen
data_NaCaH6S2NO9
_symmetry_space_group_name_H-M   'P 1'
_cell_length_a   7.54763093
_cell_length_b   10.55069513
_cell_length_c   11.29089200
_cell_angle_alpha   90.00000000
_cell_angle_beta   90.00000000
_cell_angle_gamma   105.45789999
_symmetry_Int_Tables_number   1
_chemical_formula_structural   NaCaH6S2NO9
_chemical_formula_sum   'Na4 Ca4 H24 S8 N4 O36'
_cell_volume   866.60037089
_cell_formula_units_Z   4
loop_
 _symmetry_equiv_pos_site_id
 _symmetry_equiv_pos_as_xyz
  1  'x, y, z'
loop_
 _atom_site_type_symbol
 _atom_site_label
 _atom_site_symmetry_multiplicity
 _atom_site_fract_x
 _atom_site_fract_y
 _atom_site_fract_z
 _atom_site_occupancy
  Na  Na0  1  0.10624600  0.71699800  0.18070000  1
  Na  Na1  1  0.10624600  0.21699800  0.31930000  1
  Na  Na2  1  0.88821300  0.78061800  0.68270000  1
  Na  Na3  1  0.88821300  0.28061800  0.81730000  1
  Ca  Ca4  1  0.39944500  0.68336900  0.59880200  1
  Ca  Ca5  1  0.39944500  0.18336900  0.90119800  1
  Ca  Ca6  1  0.59791100  0.81646800  0.09886900  1
  Ca  Ca7  1  0.59791100  0.31646800  0.40113100  1
  H  H8  1  0.18133400  0.93669100  0.55059800  1
  H  H9  1  0.01963200  0.65018700  0.50066400  1
  H  H10  1  0.98502400  0.55170600  0.60624100  1
  H  H11  1  0.18133400  0.43669100  0.94940200  1
  H  H12  1  0.01963200  0.15018700  0.99933600  1
  H  H13  1  0.98502400  0.05170600  0.89375900  1
  H  H14  1  0.14230200  0.54301600  0.86403600  1
  H  H15  1  0.14230200  0.04301600  0.63596400  1
  H  H16  1  0.34374300  0.87795900  0.40207300  1
  H  H17  1  0.46400500  0.96598500  0.49936200  1
  H  H18  1  0.34374300  0.37795900  0.09792700  1
  H  H19  1  0.46400500  0.46598500  0.00063800  1
  H  H20  1  0.64735700  0.62170200  0.90295500  1
  H  H21  1  0.64735700  0.12170200  0.59704500  1
  H  H22  1  0.82964200  0.95886000  0.36148300  1
  H  H23  1  0.73488400  0.58966100  0.02456900  1
  H  H24  1  0.82964200  0.45886000  0.13851700  1
  H  H25  1  0.01439400  0.94801200  0.10688300  1
  H  H26  1  0.97989800  0.85017700  0.00071000  1
  H  H27  1  0.73488400  0.08966100  0.47543100  1
  H  H28  1  0.95988500  0.50420700  0.02615700  1
  H  H29  1  0.01439400  0.44801200  0.39311700  1
  H  H30  1  0.97989800  0.35017700  0.49929000  1
  H  H31  1  0.95988500  0.00420700  0.47384300  1
  S  S32  1  0.25524200  0.80734300  0.87428000  1
  S  S33  1  0.25524200  0.30734300  0.62572000  1
  S  S34  1  0.40207700  0.54404000  0.29846100  1
  S  S35  1  0.59629600  0.95548000  0.79579000  1
  S  S36  1  0.40207700  0.04404000  0.20153900  1
  S  S37  1  0.59629600  0.45548000  0.70421000  1
  S  S38  1  0.74365700  0.69226400  0.37440100  1
  S  S39  1  0.74365700  0.19226400  0.12559900  1
  N  N40  1  0.38379700  0.94587600  0.82660400  1
  N  N41  1  0.38379700  0.44587600  0.67339600  1
  N  N42  1  0.61555500  0.55343400  0.32733400  1
  N  N43  1  0.61555500  0.05343400  0.17266600  1
  O  O44  1  0.07896200  0.96511500  0.58891300  1
  O  O45  1  0.06616800  0.82248500  0.86985300  1
  O  O46  1  0.06269400  0.63786000  0.58267500  1
  O  O47  1  0.07896200  0.46511500  0.91108700  1
  O  O48  1  0.06616800  0.32248500  0.63014700  1
  O  O49  1  0.06269400  0.13786000  0.91732500  1
  O  O50  1  0.30640300  0.78162600  0.99696900  1
  O  O51  1  0.27346900  0.69852200  0.79544100  1
  O  O52  1  0.33196600  0.90473200  0.23847900  1
  O  O53  1  0.36448300  0.88206000  0.48886000  1
  O  O54  1  0.30607700  0.57304900  0.40565600  1
  O  O55  1  0.38417700  0.63367800  0.20103000  1
  O  O56  1  0.30640300  0.28162600  0.50303100  1
  O  O57  1  0.27346900  0.19852200  0.70455900  1
  O  O58  1  0.33196600  0.40473200  0.26152100  1
  O  O59  1  0.36448300  0.38206000  0.01114000  1
  O  O60  1  0.30607700  0.07304900  0.09434400  1
  O  O61  1  0.38417700  0.13367800  0.29897000  1
  O  O62  1  0.61170800  0.86599000  0.69741400  1
  O  O63  1  0.69504000  0.92613800  0.90154100  1
  O  O64  1  0.62919600  0.61971100  0.98980400  1
  O  O65  1  0.66543400  0.59455200  0.74161400  1
  O  O66  1  0.72250900  0.80009800  0.29529800  1
  O  O67  1  0.69382500  0.71804300  0.49739400  1
  O  O68  1  0.61170800  0.36599000  0.80258600  1
  O  O69  1  0.69504000  0.42613800  0.59845900  1
  O  O70  1  0.62919600  0.11971100  0.51019600  1
  O  O71  1  0.66543400  0.09455200  0.75838600  1
  O  O72  1  0.72250900  0.30009800  0.20470200  1
  O  O73  1  0.69382500  0.21804300  0.00260600  1
  O  O74  1  0.93538700  0.86273200  0.08218800  1
  O  O75  1  0.93356500  0.67838500  0.36923800  1
  O  O76  1  0.89539800  0.53716900  0.09254200  1
  O  O77  1  0.93538700  0.36273200  0.41781200  1
  O  O78  1  0.93356500  0.17838500  0.13076200  1
  O  O79  1  0.89539800  0.03716900  0.40745800  1
