# generated using pymatgen
data_NaCdFe(PO4)2
_symmetry_space_group_name_H-M   'P 1'
_cell_length_a   6.58548087
_cell_length_b   8.98371219
_cell_length_c   17.78586798
_cell_angle_alpha   91.84635471
_cell_angle_beta   106.23919560
_cell_angle_gamma   107.15380793
_symmetry_Int_Tables_number   1
_chemical_formula_structural   NaCdFe(PO4)2
_chemical_formula_sum   'Na6 Cd6 Fe6 P12 O48'
_cell_volume   957.75196967
_cell_formula_units_Z   6
loop_
 _symmetry_equiv_pos_site_id
 _symmetry_equiv_pos_as_xyz
  1  'x, y, z'
loop_
 _atom_site_type_symbol
 _atom_site_label
 _atom_site_symmetry_multiplicity
 _atom_site_fract_x
 _atom_site_fract_y
 _atom_site_fract_z
 _atom_site_occupancy
  Na  Na0  1  0.99927800  0.49868400  0.75084900  1
  Na  Na1  1  0.00479500  0.50050100  0.24695000  1
  Na  Na2  1  0.49841200  0.50004600  0.75282600  1
  Na  Na3  1  0.76397800  0.01372100  0.99327800  1
  Na  Na4  1  0.75047300  0.01324100  0.49283100  1
  Na  Na5  1  0.74352300  0.73408300  0.13221900  1
  Cd  Cd6  1  0.25331200  0.26267500  0.87080600  1
  Cd  Cd7  1  0.26019900  0.26092400  0.37138100  1
  Cd  Cd8  1  0.14752000  0.38363800  0.03810500  1
  Cd  Cd9  1  0.74446900  0.72947800  0.63269400  1
  Cd  Cd10  1  0.50861900  0.49864200  0.24620900  1
  Cd  Cd11  1  0.86970400  0.63536000  0.45996600  1
  Fe  Fe12  1  0.36331000  0.93163800  0.80953600  1
  Fe  Fe13  1  0.13554200  0.38442600  0.53491100  1
  Fe  Fe14  1  0.35317900  0.93072600  0.30806700  1
  Fe  Fe15  1  0.86883400  0.62332600  0.96825800  1
  Fe  Fe16  1  0.62840100  0.06674800  0.68834900  1
  Fe  Fe17  1  0.63682100  0.06437700  0.18594400  1
  P  P18  1  0.37225300  0.65533300  0.92798100  1
  P  P19  1  0.25293600  0.72166700  0.64396000  1
  P  P20  1  0.13145000  0.14025900  0.67523200  1
  P  P21  1  0.37026300  0.65122300  0.43048400  1
  P  P22  1  0.24750100  0.73292300  0.14143400  1
  P  P23  1  0.13562000  0.13194100  0.17598900  1
  P  P24  1  0.86338700  0.85937800  0.82369700  1
  P  P25  1  0.74554100  0.27740500  0.85613800  1
  P  P26  1  0.63117400  0.34349100  0.57034400  1
  P  P27  1  0.85970300  0.87301300  0.32733000  1
  P  P28  1  0.75075600  0.26920500  0.35663600  1
  P  P29  1  0.63311800  0.34599800  0.06949400  1
  O  O30  1  0.09696900  0.97746800  0.82809000  1
  O  O31  1  0.18180200  0.61617800  0.96748500  1
  O  O32  1  0.04252300  0.74592200  0.58907900  1
  O  O33  1  0.24882400  0.74081900  0.73090000  1
  O  O34  1  0.40651400  0.82408300  0.90239100  1
  O  O35  1  0.09372300  0.98763800  0.32739200  1
  O  O36  1  0.18685600  0.28067100  0.73727700  1
  O  O37  1  0.31249400  0.53122200  0.85684500  1
  O  O38  1  0.11873400  0.19595000  0.59253400  1
  O  O39  1  0.18290200  0.57928700  0.46934200  1
  O  O40  1  0.26602800  0.55257600  0.62861400  1
  O  O41  1  0.03486700  0.73728900  0.07808800  1
  O  O42  1  0.59634000  0.66054300  0.98980400  1
  O  O43  1  0.46717600  0.84149100  0.63336200  1
  O  O44  1  0.21349600  0.75537800  0.22438300  1
  O  O45  1  0.31164900  0.05285500  0.70080600  1
  O  O46  1  0.36050300  0.81003000  0.40015800  1
  O  O47  1  0.68511700  0.94822300  0.79575600  1
  O  O48  1  0.19847200  0.28629300  0.23368900  1
  O  O49  1  0.33913500  0.53139600  0.35976300  1
  O  O50  1  0.53116000  0.15524200  0.86675500  1
  O  O51  1  0.40509700  0.34231200  0.50891100  1
  O  O52  1  0.11792600  0.16062400  0.09092200  1
  O  O53  1  0.28298200  0.56916700  0.14109200  1
  O  O54  1  0.73769100  0.44623000  0.87233900  1
  O  O55  1  0.86625600  0.80902900  0.90620800  1
  O  O56  1  0.59384200  0.68367400  0.49686400  1
  O  O57  1  0.45694500  0.85280000  0.13023500  1
  O  O58  1  0.68554600  0.46384100  0.64215500  1
  O  O59  1  0.80792500  0.71484900  0.76370500  1
  O  O60  1  0.32821600  0.05847400  0.20908300  1
  O  O61  1  0.60633100  0.17536600  0.59421900  1
  O  O62  1  0.66813300  0.94486500  0.28990000  1
  O  O63  1  0.74923300  0.25702300  0.76910300  1
  O  O64  1  0.54492000  0.14627000  0.37209800  1
  O  O65  1  0.41028400  0.32020800  0.00397000  1
  O  O66  1  0.94889100  0.24442100  0.91241400  1
  O  O67  1  0.71473300  0.43136500  0.36145600  1
  O  O68  1  0.81828000  0.38656500  0.52914200  1
  O  O69  1  0.86570100  0.85912000  0.41332000  1
  O  O70  1  0.66159500  0.45643800  0.14288200  1
  O  O71  1  0.81359900  0.71553500  0.27764500  1
  O  O72  1  0.89697300  0.01875900  0.66746900  1
  O  O73  1  0.65025600  0.18409500  0.09467900  1
  O  O74  1  0.77818200  0.24564200  0.27371600  1
  O  O75  1  0.96391800  0.25896000  0.42048400  1
  O  O76  1  0.81942100  0.42118000  0.03068600  1
  O  O77  1  0.90776700  0.01656100  0.17689500  1
