# generated using pymatgen
data_Ho3SbO3
_symmetry_space_group_name_H-M   'P 1'
_cell_length_a   6.80503926
_cell_length_b   6.80503926
_cell_length_c   11.69258586
_cell_angle_alpha   62.97646571
_cell_angle_beta   62.97646571
_cell_angle_gamma   32.89429602
_symmetry_Int_Tables_number   1
_chemical_formula_structural   Ho3SbO3
_chemical_formula_sum   'Ho6 Sb2 O6'
_cell_volume   258.97306671
_cell_formula_units_Z   2
loop_
 _symmetry_equiv_pos_site_id
 _symmetry_equiv_pos_as_xyz
  1  'x, y, z'
loop_
 _atom_site_type_symbol
 _atom_site_label
 _atom_site_symmetry_multiplicity
 _atom_site_fract_x
 _atom_site_fract_y
 _atom_site_fract_z
 _atom_site_occupancy
  Ho  Ho0  1  0.12086300  0.12086300  0.55697000  1
  Ho  Ho1  1  0.87913700  0.87913700  0.44303000  1
  Ho  Ho2  1  0.34249000  0.34249000  0.20754500  1
  Ho  Ho3  1  0.65751000  0.65751000  0.79245500  1
  Ho  Ho4  1  0.87189100  0.87189100  0.90173400  1
  Ho  Ho5  1  0.12810900  0.12810900  0.09826600  1
  Sb  Sb6  1  0.38232500  0.38232500  0.68039500  1
  Sb  Sb7  1  0.61767500  0.61767500  0.31960500  1
  O  O8  1  0.31079000  0.31079000  0.40906800  1
  O  O9  1  0.68921000  0.68921000  0.59093200  1
  O  O10  1  0.33538100  0.33538100  0.01555100  1
  O  O11  1  0.66461900  0.66461900  0.98444900  1
  O  O12  1  0.93674400  0.93674400  0.19142100  1
  O  O13  1  0.06325600  0.06325600  0.80857900  1
