# generated using pymatgen
data_Na3Ca2Mg10Si16(O11F)4
_symmetry_space_group_name_H-M   'P 1'
_cell_length_a   7.82210821
_cell_length_b   8.08959250
_cell_length_c   18.03346926
_cell_angle_alpha   59.78071364
_cell_angle_beta   83.21522709
_cell_angle_gamma   76.20598770
_symmetry_Int_Tables_number   1
_chemical_formula_structural   Na3Ca2Mg10Si16(O11F)4
_chemical_formula_sum   'Na3 Ca2 Mg10 Si16 O44 F4'
_cell_volume   957.60375549
_cell_formula_units_Z   1
loop_
 _symmetry_equiv_pos_site_id
 _symmetry_equiv_pos_as_xyz
  1  'x, y, z'
loop_
 _atom_site_type_symbol
 _atom_site_label
 _atom_site_symmetry_multiplicity
 _atom_site_fract_x
 _atom_site_fract_y
 _atom_site_fract_z
 _atom_site_occupancy
  Na  Na0  1  0.48593800  0.24552800  0.79969100  1
  Na  Na1  1  0.71413700  0.65069900  0.38518100  1
  Na  Na2  1  0.24869700  0.41101000  0.52137800  1
  Ca  Ca3  1  0.35775100  0.18467200  0.25583300  1
  Ca  Ca4  1  0.53739100  0.91663400  0.71743700  1
  Mg  Mg5  1  0.15560600  0.78825000  0.96078900  1
  Mg  Mg6  1  0.83231200  0.06406300  0.56059200  1
  Mg  Mg7  1  0.95319900  0.28791300  0.18062800  1
  Mg  Mg8  1  0.01294900  0.76550200  0.28331700  1
  Mg  Mg9  1  0.12623700  0.84813100  0.42650900  1
  Mg  Mg10  1  0.43175800  0.93731600  0.99962000  1
  Mg  Mg11  1  0.60843000  0.01253200  0.15807300  1
  Mg  Mg12  1  0.56357800  0.86902000  0.51551100  1
  Mg  Mg13  1  0.09592900  0.13458400  0.74830800  1
  Mg  Mg14  1  0.97143100  0.77079500  0.78467900  1
  Si  Si15  1  0.65033200  0.46238000  0.24391800  1
  Si  Si16  1  0.71680100  0.45929900  0.87821700  1
  Si  Si17  1  0.72870800  0.43195300  0.04563100  1
  Si  Si18  1  0.78934500  0.84663900  0.95447300  1
  Si  Si19  1  0.62232600  0.42002600  0.60120500  1
  Si  Si20  1  0.75306800  0.02574800  0.37968700  1
  Si  Si21  1  0.90502800  0.61464500  0.62875600  1
  Si  Si22  1  0.94165500  0.71477800  0.14120100  1
  Si  Si23  1  0.10889500  0.25119100  0.90196600  1
  Si  Si24  1  0.12017300  0.26000700  0.42056800  1
  Si  Si25  1  0.16035400  0.99708600  0.62878000  1
  Si  Si26  1  0.39789000  0.69600200  0.30817400  1
  Si  Si27  1  0.19745700  0.04381500  0.11513000  1
  Si  Si28  1  0.32582500  0.56577400  0.86012300  1
  Si  Si29  1  0.29022700  0.66297400  0.15115200  1
  Si  Si30  1  0.26910200  0.66053400  0.62378300  1
  O  O31  1  0.79765900  0.55169400  0.16854300  1
  O  O32  1  0.25057000  0.23496500  0.12127500  1
  O  O33  1  0.75878800  0.57068000  0.57852000  1
  O  O34  1  0.91267400  0.86124700  0.37230100  1
  O  O35  1  0.35248500  0.86855900  0.58741300  1
  O  O36  1  0.06485100  0.13319100  0.52717100  1
  O  O37  1  0.72873400  0.25694400  0.14132700  1
  O  O38  1  0.06668800  0.03036100  0.19868500  1
  O  O39  1  0.52376800  0.46125300  0.84260800  1
  O  O40  1  0.74435000  0.68126000  0.82033200  1
  O  O41  1  0.67191000  0.37648100  0.97877800  1
  O  O42  1  0.18194600  0.16333700  0.99849300  1
  O  O43  1  0.94522000  0.84238100  0.88447400  1
  O  O44  1  0.82598600  0.80929700  0.19824700  1
  O  O45  1  0.97249700  0.04456000  0.68197600  1
  O  O46  1  0.76986800  0.23710300  0.29411300  1
  O  O47  1  0.47379200  0.47600000  0.19884400  1
  O  O48  1  0.60650900  0.22125200  0.68561700  1
  O  O49  1  0.58450900  0.52606000  0.31768400  1
  O  O50  1  0.77382100  0.79737400  0.63795300  1
  O  O51  1  0.89818500  0.30444200  0.88076000  1
  O  O52  1  0.43310700  0.26090700  0.11363400  1
  O  O53  1  0.67311300  0.67054100  0.00111200  1
  O  O54  1  0.40369500  0.90385500  0.11786200  1
  O  O55  1  0.10574300  0.85936500  0.11733700  1
  O  O56  1  0.15088200  0.11955900  0.37868000  1
  O  O57  1  0.08878200  0.68603800  0.56193600  1
  O  O58  1  0.47631400  0.89181700  0.26603300  1
  O  O59  1  0.43552200  0.58058000  0.56300200  1
  O  O60  1  0.12760400  0.75677400  0.68061300  1
  O  O61  1  0.29841200  0.67330500  0.39620600  1
  O  O62  1  0.98885300  0.41023400  0.70711300  1
  O  O63  1  0.26282800  0.66160200  0.25598400  1
  O  O64  1  0.91687100  0.81232600  0.03191000  1
  O  O65  1  0.32768600  0.70995600  0.04804600  1
  O  O66  1  0.12113300  0.52325200  0.17895200  1
  O  O67  1  0.20605300  0.09489600  0.86888700  1
  O  O68  1  0.28758000  0.79952500  0.80442500  1
  O  O69  1  0.76608800  0.02897100  0.46927400  1
  O  O70  1  0.56309200  0.96814000  0.38953900  1
  O  O71  1  0.27908100  0.11624800  0.64759100  1
  O  O72  1  0.99648900  0.47206500  0.37941500  1
  O  O73  1  0.62789200  0.03393900  0.92340000  1
  O  O74  1  0.17412700  0.47018500  0.84704600  1
  F  F75  1  0.29556600  0.52820900  0.95755300  1
  F  F76  1  0.32153800  0.27074800  0.43649600  1
  F  F77  1  0.94809200  0.42469800  0.03609000  1
  F  F78  1  0.68562100  0.34872700  0.52644500  1
