# generated using pymatgen
data_MgTi2O5
_symmetry_space_group_name_H-M   'P 1'
_cell_length_a   11.32629381
_cell_length_b   5.26591249
_cell_length_c   10.07558400
_cell_angle_alpha   90.00000000
_cell_angle_beta   90.00000000
_cell_angle_gamma   110.98308071
_symmetry_Int_Tables_number   1
_chemical_formula_structural   MgTi2O5
_chemical_formula_sum   'Mg6 Ti12 O30'
_cell_volume   561.09013547
_cell_formula_units_Z   6
loop_
 _symmetry_equiv_pos_site_id
 _symmetry_equiv_pos_as_xyz
  1  'x, y, z'
loop_
 _atom_site_type_symbol
 _atom_site_label
 _atom_site_symmetry_multiplicity
 _atom_site_fract_x
 _atom_site_fract_y
 _atom_site_fract_z
 _atom_site_occupancy
  Mg  Mg0  1  0.06691100  0.39309900  0.25172600  1
  Mg  Mg1  1  0.28575100  0.71977100  0.43295200  1
  Mg  Mg2  1  0.38091500  0.28022900  0.93295200  1
  Mg  Mg3  1  0.59975600  0.60690100  0.75172600  1
  Mg  Mg4  1  0.73121400  0.38627600  0.25101900  1
  Mg  Mg5  1  0.93545200  0.61372400  0.75101900  1
  Ti  Ti6  1  0.04254100  0.26357500  0.55990400  1
  Ti  Ti7  1  0.04465700  0.26731200  0.93882200  1
  Ti  Ti8  1  0.26953800  0.61777600  0.75110400  1
  Ti  Ti9  1  0.29045300  0.73359900  0.06151800  1
  Ti  Ti10  1  0.37621300  0.26640100  0.56151800  1
  Ti  Ti11  1  0.39712900  0.38222400  0.25110400  1
  Ti  Ti12  1  0.62412600  0.73642500  0.05990400  1
  Ti  Ti13  1  0.62201000  0.73268800  0.43882200  1
  Ti  Ti14  1  0.71007500  0.26674300  0.56887700  1
  Ti  Ti15  1  0.70944300  0.27391000  0.93454300  1
  Ti  Ti16  1  0.95659200  0.73325700  0.06887700  1
  Ti  Ti17  1  0.95722400  0.72609000  0.43454300  1
  O  O18  1  0.01663300  0.09468400  0.11374900  1
  O  O19  1  0.01924700  0.08633300  0.38592500  1
  O  O20  1  0.08391800  0.46519500  0.74707600  1
  O  O21  1  0.10750000  0.63588100  0.07033500  1
  O  O22  1  0.09622600  0.61428600  0.43421000  1
  O  O23  1  0.22688500  0.36975800  0.56934000  1
  O  O24  1  0.22468000  0.38348600  0.93011700  1
  O  O25  1  0.26345000  0.52362100  0.24284500  1
  O  O26  1  0.31739300  0.91149300  0.62315600  1
  O  O27  1  0.31662200  0.88672900  0.88319400  1
  O  O28  1  0.35004400  0.11327100  0.38319400  1
  O  O29  1  0.34927400  0.08850700  0.12315600  1
  O  O30  1  0.40321700  0.47637900  0.74284500  1
  O  O31  1  0.43978100  0.63024200  0.06934000  1
  O  O32  1  0.44198600  0.61651400  0.43011700  1
  O  O33  1  0.55916700  0.36411900  0.57033500  1
  O  O34  1  0.57044100  0.38571400  0.93421000  1
  O  O35  1  0.58274900  0.53480500  0.24707600  1
  O  O36  1  0.65003400  0.90531600  0.61374900  1
  O  O37  1  0.64742000  0.91366700  0.88592500  1
  O  O38  1  0.68244200  0.08251600  0.38618500  1
  O  O39  1  0.68805400  0.09045700  0.11273500  1
  O  O40  1  0.74158800  0.43780900  0.74807900  1
  O  O41  1  0.77179100  0.63116000  0.06634300  1
  O  O42  1  0.76620400  0.61114300  0.43624300  1
  O  O43  1  0.89487600  0.36884000  0.56634300  1
  O  O44  1  0.90046300  0.38885700  0.93624300  1
  O  O45  1  0.92507800  0.56219100  0.24807900  1
  O  O46  1  0.97861300  0.90954300  0.61273500  1
  O  O47  1  0.98422500  0.91748400  0.88618500  1
