# generated using pymatgen
data_Na21ZnS10Cl3O40
_symmetry_space_group_name_H-M   'P 1'
_cell_length_a   14.34246095
_cell_length_b   14.93967016
_cell_length_c   15.00902321
_cell_angle_alpha   110.70107214
_cell_angle_beta   110.44435613
_cell_angle_gamma   109.41824045
_symmetry_Int_Tables_number   1
_chemical_formula_structural   Na21ZnS10Cl3O40
_chemical_formula_sum   'Na42 Zn2 S20 Cl6 O80'
_cell_volume   2407.50604296
_cell_formula_units_Z   2
loop_
 _symmetry_equiv_pos_site_id
 _symmetry_equiv_pos_as_xyz
  1  'x, y, z'
loop_
 _atom_site_type_symbol
 _atom_site_label
 _atom_site_symmetry_multiplicity
 _atom_site_fract_x
 _atom_site_fract_y
 _atom_site_fract_z
 _atom_site_occupancy
  Na  Na0  1  0.23785562  0.02308597  0.03572335  1
  Na  Na1  1  0.13227416  0.60437300  0.72788813  1
  Na  Na2  1  0.07517839  0.04693180  0.84770202  1
  Na  Na3  1  0.98059467  0.48856544  0.22937433  1
  Na  Na4  1  0.04850149  0.76171229  0.04694457  1
  Na  Na5  1  0.25120849  0.78131920  0.28330386  1
  Na  Na6  1  0.37188230  0.61994339  0.51182679  1
  Na  Na7  1  0.48890512  0.75174013  0.91454606  1
  Na  Na8  1  0.25277003  0.22883049  0.76464115  1
  Na  Na9  1  0.27298870  0.48705940  0.20556866  1
  Na  Na10  1  0.25154062  0.22357900  0.35319830  1
  Na  Na11  1  0.42153713  0.41083454  0.75444143  1
  Na  Na12  1  0.23125028  0.99900260  0.47230846  1
  Na  Na13  1  0.51427276  0.76338717  0.46018149  1
  Na  Na14  1  0.71150268  0.98824850  0.77253223  1
  Na  Na15  1  0.25584474  0.47075722  0.95577494  1
  Na  Na16  1  0.53542724  0.22523889  0.77663448  1
  Na  Na17  1  0.76749015  0.69472540  0.97306529  1
  Na  Na18  1  0.49341984  0.97839265  0.79511406  1
  Na  Na19  1  0.70059906  0.72320821  0.64691535  1
  Na  Na20  1  0.68232932  0.96386435  0.44514166  1
  Na  Na21  1  0.54966124  0.23505647  0.53435912  1
  Na  Na22  1  0.53354947  0.54170740  0.27799125  1
  Na  Na23  1  0.26594845  0.85552116  0.84603170  1
  Na  Na24  1  0.50469190  0.52225280  0.65277696  1
  Na  Na25  1  0.45910892  0.97543011  0.28213914  1
  Na  Na26  1  0.47543731  0.35434585  0.04980061  1
  Na  Na27  1  0.79500045  0.81618250  0.30538228  1
  Na  Na28  1  0.74101563  0.52101035  0.54874354  1
  Na  Na29  1  0.79077720  0.27458381  0.75494838  1
  Na  Na30  1  0.78068872  0.36987083  0.38593501  1
  Na  Na31  1  0.08362741  0.14609116  0.08939225  1
  Na  Na32  1  0.55769462  0.67544136  0.08498081  1
  Na  Na33  1  0.14842968  0.48206490  0.48402618  1
  Na  Na34  1  0.96399437  0.26879142  0.00467230  1
  Na  Na35  1  0.96177777  0.53448780  0.81024816  1
  Na  Na36  1  0.00124799  0.96790634  0.22462440  1
  Na  Na37  1  0.75811809  0.22001836  0.17138729  1
  Na  Na38  1  0.91797488  0.00191737  0.61837451  1
  Na  Na39  1  0.48750992  0.15120672  0.99801862  1
  Na  Na40  1  0.84824950  0.49273529  0.00969407  1
  Na  Na41  1  0.75775407  0.99390764  0.02254422  1
  Zn  Zn42  1  0.01342645  0.80249622  0.49413550  1
  Zn  Zn43  1  0.97911116  0.28247622  0.55420465  1
  S  S44  1  0.00106580  0.57694732  0.50312084  1
  S  S45  1  0.24254707  0.98915876  0.72954544  1
  S  S46  1  0.99737010  0.07190390  0.48894345  1
  S  S47  1  0.24728523  0.47320077  0.73143865  1
  S  S48  1  0.00582450  0.22051252  0.23989806  1
  S  S49  1  0.06520711  0.50596690  0.02287202  1
  S  S50  1  0.52986832  0.77224969  0.74231051  1
  S  S51  1  0.48382162  0.98919377  0.06210188  1
  S  S52  1  0.43541340  0.45566061  0.42152421  1
  S  S53  1  0.46521878  0.72777096  0.22584933  1
  S  S54  1  0.24697469  0.28643242  0.01559106  1
  S  S55  1  0.27104434  0.02529370  0.26968605  1
  S  S56  1  0.92357119  0.90391271  0.93146184  1
  S  S57  1  0.52733844  0.01394910  0.57693982  1
  S  S58  1  0.72184394  0.23047596  0.95808780  1
  S  S59  1  0.74843762  0.50811065  0.77967416  1
  S  S60  1  0.77917268  0.75105164  0.49168691  1
  S  S61  1  0.58280155  0.48679867  0.97861114  1
  S  S62  1  0.76271461  0.23302340  0.48985092  1
  S  S63  1  0.98962334  0.74208442  0.26346594  1
  Cl  Cl64  1  0.11302539  0.73886456  0.87847193  1
  Cl  Cl65  1  0.22454602  0.60960564  0.34990347  1
  Cl  Cl66  1  0.38620928  0.23520983  0.59840532  1
  Cl  Cl67  1  0.71951769  0.84266556  0.10054868  1
  Cl  Cl68  1  0.61521568  0.34036923  0.20991820  1
  Cl  Cl69  1  0.90591712  0.11340707  0.78711634  1
  O  O70  1  0.04205793  0.97592826  0.95313147  1
  O  O71  1  0.16273160  0.96937968  0.77134907  1
  O  O72  1  0.17184006  0.93498222  0.60244168  1
  O  O73  1  0.11638088  0.43242539  0.66423008  1
  O  O74  1  0.11835894  0.80788071  0.33564555  1
  O  O75  1  0.12666986  0.62656574  0.58538871  1
  O  O76  1  0.31270112  0.93778465  0.75620429  1
  O  O77  1  0.01291776  0.17541480  0.48476896  1
  O  O78  1  0.43178592  0.86923334  0.97643007  1
  O  O79  1  0.07158456  0.10645578  0.60712698  1
  O  O80  1  0.30137528  0.59109839  0.82056628  1
  O  O81  1  0.20654357  0.27494768  0.90362945  1
  O  O82  1  0.06887327  0.31025003  0.35840877  1
  O  O83  1  0.26190252  0.40492206  0.78117881  1
  O  O84  1  0.24120809  0.90657194  0.20640677  1
  O  O85  1  0.02402550  0.26777078  0.17028427  1
  O  O86  1  0.09599871  0.62457398  0.07152640  1
  O  O87  1  0.99666327  0.45091084  0.06348702  1
  O  O88  1  0.29195624  0.46270199  0.65570452  1
  O  O89  1  0.02817814  0.01304823  0.41370446  1
  O  O90  1  0.41033080  0.95182410  0.47478479  1
  O  O91  1  0.40371901  0.73203743  0.68610712  1
  O  O92  1  0.05276087  0.14301959  0.23028348  1
  O  O93  1  0.59752254  0.89091950  0.83788457  1
  O  O94  1  0.17049179  0.49708975  0.05490035  1
  O  O95  1  0.32167117  0.11039983  0.77997931  1
  O  O96  1  0.55399560  0.70061413  0.78357314  1
  O  O97  1  0.48012795  0.36713633  0.89481022  1
  O  O98  1  0.56611094  0.55835241  0.93202316  1
  O  O99  1  0.42313643  0.80313033  0.26533971  1
  O  O100  1  0.15662007  0.27638641  0.04495095  1
  O  O101  1  0.59141907  0.95247045  0.56102401  1
  O  O102  1  0.36435726  0.45569618  0.47624527  1
  O  O103  1  0.20548259  0.03450235  0.32794502  1
  O  O104  1  0.56645722  0.76783223  0.65799020  1
  O  O105  1  0.36855282  0.34936946  0.31334841  1
  O  O106  1  0.46174276  0.55366644  0.40557682  1
  O  O107  1  0.45027259  0.65385882  0.27290230  1
  O  O108  1  0.23775779  0.06485103  0.19218204  1
  O  O109  1  0.35474629  0.40064332  0.10157197  1
  O  O110  1  0.40269389  0.65763701  0.10151102  1
  O  O111  1  0.66158743  0.54261916  0.77403910  1
  O  O112  1  0.59512117  0.17978027  0.92030210  1
  O  O113  1  0.59274075  0.79784328  0.27046523  1
  O  O114  1  0.27407400  0.19718805  0.01165550  1
  O  O115  1  0.54787141  0.47424819  0.50256812  1
  O  O116  1  0.73363305  0.82304734  0.53452133  1
  O  O117  1  0.39890741  0.09721019  0.35303339  1
  O  O118  1  0.51885202  0.02594035  0.67639118  1
  O  O119  1  0.84916095  0.80819682  0.81472962  1
  O  O120  1  0.59845062  0.12903713  0.60222168  1
  O  O121  1  0.69666907  0.38704754  0.74118914  1
  O  O122  1  0.76423762  0.67103867  0.52923090  1
  O  O123  1  0.84919236  0.57810558  0.89976199  1
  O  O124  1  0.74273248  0.28470210  0.89493316  1
  O  O125  1  0.72209409  0.69265306  0.36885827  1
  O  O126  1  0.58099360  0.52907813  0.08420786  1
  O  O127  1  0.79450745  0.52903574  0.70960056  1
  O  O128  1  0.75024652  0.14019846  0.93323639  1
  O  O129  1  0.87262900  0.99937910  0.45180494  1
  O  O130  1  0.39023958  0.01743892  0.02455816  1
  O  O131  1  0.70419567  0.29760077  0.49102342  1
  O  O132  1  0.90863400  0.83261716  0.54554836  1
  O  O133  1  0.52305014  0.01070543  0.17520725  1
  O  O134  1  0.68198115  0.11345887  0.43573360  1
  O  O135  1  0.69059499  0.48908932  0.99759134  1
  O  O136  1  0.86101486  0.27974972  0.60876394  1
  O  O137  1  0.99094037  0.44295027  0.89660300  1
  O  O138  1  0.94234713  0.77284564  0.34031166  1
  O  O139  1  0.58194142  0.06083759  0.05707327  1
  O  O140  1  0.87424315  0.97783462  0.95207867  1
  O  O141  1  0.93055673  0.53941095  0.55047767  1
  O  O142  1  0.83050743  0.25430141  0.43238513  1
  O  O143  1  0.98165327  0.65883526  0.47818014  1
  O  O144  1  0.96290801  0.47729917  0.39614501  1
  O  O145  1  0.93797576  0.86427087  0.01150170  1
  O  O146  1  0.94729281  0.77278840  0.17953587  1
  O  O147  1  0.79504534  0.31416789  0.08117941  1
  O  O148  1  0.94447572  0.62090681  0.20762214  1
  O  O149  1  0.87893430  0.15484069  0.19532181  1
