# generated using pymatgen
data_KMn2O4
_symmetry_space_group_name_H-M   'P 1'
_cell_length_a   5.86350800
_cell_length_b   9.82005100
_cell_length_c   14.50308561
_cell_angle_alpha   64.00646231
_cell_angle_beta   90.00000000
_cell_angle_gamma   90.00000000
_symmetry_Int_Tables_number   1
_chemical_formula_structural   KMn2O4
_chemical_formula_sum   'K8 Mn16 O32'
_cell_volume   750.61242722
_cell_formula_units_Z   8
loop_
 _symmetry_equiv_pos_site_id
 _symmetry_equiv_pos_as_xyz
  1  'x, y, z'
loop_
 _atom_site_type_symbol
 _atom_site_label
 _atom_site_symmetry_multiplicity
 _atom_site_fract_x
 _atom_site_fract_y
 _atom_site_fract_z
 _atom_site_occupancy
  K  K0  1  0.87499100  0.36486700  0.37581200  1
  K  K1  1  0.37499500  0.35812100  0.36458300  1
  K  K2  1  0.12500900  0.36486700  0.87581200  1
  K  K3  1  0.62500500  0.35812100  0.86458300  1
  K  K4  1  0.87499100  0.63513300  0.12418800  1
  K  K5  1  0.37499500  0.64187900  0.13541700  1
  K  K6  1  0.62500500  0.64187900  0.63541700  1
  K  K7  1  0.12500900  0.63513300  0.62418800  1
  Mn  Mn8  1  0.87499900  0.02094400  0.58279500  1
  Mn  Mn9  1  0.37493600  0.02107000  0.58275800  1
  Mn  Mn10  1  0.87499400  0.74366800  0.32229300  1
  Mn  Mn11  1  0.37529500  0.74263600  0.32372100  1
  Mn  Mn12  1  0.37529500  0.25736400  0.17627900  1
  Mn  Mn13  1  0.87499400  0.25633200  0.17770700  1
  Mn  Mn14  1  0.37493600  0.97893000  0.91724200  1
  Mn  Mn15  1  0.87499900  0.97905600  0.91720500  1
  Mn  Mn16  1  0.62506400  0.02107000  0.08275800  1
  Mn  Mn17  1  0.12500100  0.02094400  0.08279500  1
  Mn  Mn18  1  0.62470500  0.74263600  0.82372100  1
  Mn  Mn19  1  0.12500600  0.74366800  0.82229300  1
  Mn  Mn20  1  0.62470500  0.25736400  0.67627900  1
  Mn  Mn21  1  0.12500600  0.25633200  0.67770700  1
  Mn  Mn22  1  0.62506400  0.97893000  0.41724200  1
  Mn  Mn23  1  0.12500100  0.97905600  0.41720500  1
  O  O24  1  0.62505300  0.08223800  0.82750700  1
  O  O25  1  0.12485000  0.08194000  0.82771800  1
  O  O26  1  0.62557500  0.19242800  0.11381300  1
  O  O27  1  0.12465600  0.19299600  0.11328800  1
  O  O28  1  0.62557500  0.80757200  0.38618700  1
  O  O29  1  0.12465600  0.80700400  0.38671200  1
  O  O30  1  0.62505300  0.91776200  0.67249300  1
  O  O31  1  0.12485000  0.91806000  0.67228200  1
  O  O32  1  0.37494700  0.08223800  0.32750700  1
  O  O33  1  0.87515000  0.08194000  0.32771800  1
  O  O34  1  0.37442500  0.19242800  0.61381300  1
  O  O35  1  0.87534400  0.19299600  0.61328800  1
  O  O36  1  0.87534400  0.80700400  0.88671200  1
  O  O37  1  0.37442500  0.80757200  0.88618700  1
  O  O38  1  0.87515000  0.91806000  0.17228200  1
  O  O39  1  0.37494700  0.91776200  0.17249300  1
  O  O40  1  0.87498000  0.11652600  0.98294100  1
  O  O41  1  0.37504700  0.11647900  0.98298800  1
  O  O42  1  0.37505600  0.62748700  0.80283200  1
  O  O43  1  0.87464200  0.62735700  0.80301300  1
  O  O44  1  0.37504700  0.88352100  0.51701200  1
  O  O45  1  0.87498000  0.88347400  0.51705900  1
  O  O46  1  0.87464200  0.37264300  0.69698700  1
  O  O47  1  0.37505600  0.37251300  0.69716800  1
  O  O48  1  0.62495300  0.11647900  0.48298800  1
  O  O49  1  0.12502000  0.11652600  0.48294100  1
  O  O50  1  0.62494400  0.62748700  0.30283200  1
  O  O51  1  0.12535800  0.62735700  0.30301300  1
  O  O52  1  0.62495300  0.88352100  0.01701200  1
  O  O53  1  0.12502000  0.88347400  0.01705900  1
  O  O54  1  0.62494400  0.37251300  0.19716800  1
  O  O55  1  0.12535800  0.37264300  0.19698700  1
