# generated using pymatgen
data_SrAg2(IO2)4
_symmetry_space_group_name_H-M   'P 1'
_cell_length_a   7.42978330
_cell_length_b   7.42978330
_cell_length_c   7.42978330
_cell_angle_alpha   115.87578394
_cell_angle_beta   115.87578394
_cell_angle_gamma   97.30533101
_symmetry_Int_Tables_number   1
_chemical_formula_structural   SrAg2(IO2)4
_chemical_formula_sum   'Sr1 Ag2 I4 O8'
_cell_volume   305.39780275
_cell_formula_units_Z   1
loop_
 _symmetry_equiv_pos_site_id
 _symmetry_equiv_pos_as_xyz
  1  'x, y, z'
loop_
 _atom_site_type_symbol
 _atom_site_label
 _atom_site_symmetry_multiplicity
 _atom_site_fract_x
 _atom_site_fract_y
 _atom_site_fract_z
 _atom_site_occupancy
  Sr  Sr0  1  0.00000000  0.00000000  0.00000000  1
  Ag  Ag1  1  0.50000000  0.00000000  0.50000000  1
  Ag  Ag2  1  0.00000000  0.50000000  0.50000000  1
  I  I3  1  0.49033200  0.50966800  0.50000000  1
  I  I4  1  0.00966800  0.99033200  0.50000000  1
  I  I5  1  0.50966800  0.00966800  0.01933600  1
  I  I6  1  0.99033200  0.49033200  0.98066400  1
  O  O7  1  0.19245700  0.88283900  0.77597000  1
  O  O8  1  0.10686900  0.41648700  0.22403000  1
  O  O9  1  0.80754300  0.58351300  0.69038200  1
  O  O10  1  0.89313100  0.11716100  0.30961800  1
  O  O11  1  0.58351300  0.89313100  0.77597000  1
  O  O12  1  0.11716100  0.80754300  0.22403000  1
  O  O13  1  0.88283900  0.10686900  0.69038200  1
  O  O14  1  0.41648700  0.19245700  0.30961800  1
