# generated using pymatgen
data_Yb(MnAl2)4
_symmetry_space_group_name_H-M   'P 1'
_cell_length_a   5.17335200
_cell_length_b   6.72566472
_cell_length_c   6.72566472
_cell_angle_alpha   81.49385490
_cell_angle_beta   67.38122519
_cell_angle_gamma   67.38122519
_symmetry_Int_Tables_number   1
_chemical_formula_structural   Yb(MnAl2)4
_chemical_formula_sum   'Yb1 Mn4 Al8'
_cell_volume   199.39998885
_cell_formula_units_Z   1
loop_
 _symmetry_equiv_pos_site_id
 _symmetry_equiv_pos_as_xyz
  1  'x, y, z'
loop_
 _atom_site_type_symbol
 _atom_site_label
 _atom_site_symmetry_multiplicity
 _atom_site_fract_x
 _atom_site_fract_y
 _atom_site_fract_z
 _atom_site_occupancy
  Yb  Yb0  1  0.00000000  0.00000000  0.00000000  1
  Mn  Mn1  1  0.00000000  0.00000000  0.50000000  1
  Mn  Mn2  1  0.50000000  0.00000000  0.50000000  1
  Mn  Mn3  1  0.50000000  0.50000000  0.00000000  1
  Mn  Mn4  1  0.00000000  0.50000000  0.00000000  1
  Al  Al5  1  0.00000000  0.33176000  0.66824000  1
  Al  Al6  1  0.00000000  0.66824000  0.33176000  1
  Al  Al7  1  0.66824000  0.33176000  0.33176000  1
  Al  Al8  1  0.33176000  0.66824000  0.66824000  1
  Al  Al9  1  0.50000000  0.77354100  0.22645900  1
  Al  Al10  1  0.50000000  0.22645900  0.77354100  1
  Al  Al11  1  0.72645900  0.77354100  0.77354100  1
  Al  Al12  1  0.27354100  0.22645900  0.22645900  1
