# generated using pymatgen
data_Li6Mn3CoO10
_symmetry_space_group_name_H-M   'P 1'
_cell_length_a   2.87245036
_cell_length_b   8.52079177
_cell_length_c   7.75964455
_cell_angle_alpha   73.73205575
_cell_angle_beta   79.33367851
_cell_angle_gamma   90.00000359
_symmetry_Int_Tables_number   1
_chemical_formula_structural   Li6Mn3CoO10
_chemical_formula_sum   'Li6 Mn3 Co1 O10'
_cell_volume   178.89659277
_cell_formula_units_Z   1
loop_
 _symmetry_equiv_pos_site_id
 _symmetry_equiv_pos_as_xyz
  1  'x, y, z'
loop_
 _atom_site_type_symbol
 _atom_site_label
 _atom_site_symmetry_multiplicity
 _atom_site_fract_x
 _atom_site_fract_y
 _atom_site_fract_z
 _atom_site_occupancy
  Li  Li0  1  0.59954700  0.29902600  0.80090500  1
  Li  Li1  1  0.79292600  0.89016200  0.41414800  1
  Li  Li2  1  0.00323900  0.52723100  0.99352200  1
  Li  Li3  1  0.19808400  0.07904300  0.60383200  1
  Li  Li4  1  0.40665500  0.70669500  0.18669000  1
  Li  Li5  1  0.60088700  0.79976700  0.79822500  1
  Mn  Mn6  1  0.00284900  0.98451800  0.99430200  1
  Mn  Mn7  1  0.19753800  0.61148600  0.60492300  1
  Mn  Mn8  1  0.39856900  0.19752200  0.20286200  1
  Co  Co9  1  0.80010000  0.40845000  0.39980000  1
  O  O10  1  0.59209000  0.04916600  0.81582000  1
  O  O11  1  0.78757200  0.64707400  0.42485500  1
  O  O12  1  0.99110200  0.22866800  0.01779500  1
  O  O13  1  0.20006300  0.82729000  0.59987400  1
  O  O14  1  0.38961200  0.45187600  0.22077600  1
  O  O15  1  0.60819100  0.54834700  0.78361800  1
  O  O16  1  0.80661700  0.15288700  0.38676500  1
  O  O17  1  0.00112400  0.76943400  0.99775200  1
  O  O18  1  0.21039600  0.37288200  0.57920700  1
  O  O19  1  0.41283700  0.94847500  0.17432700  1
