# generated using pymatgen
data_BaYbFe4O7
_symmetry_space_group_name_H-M   'P 1'
_cell_length_a   6.41128701
_cell_length_b   6.41128701
_cell_length_c   6.41128701
_cell_angle_alpha   119.80725695
_cell_angle_beta   119.80725695
_cell_angle_gamma   90.33416621
_symmetry_Int_Tables_number   1
_chemical_formula_structural   BaYbFe4O7
_chemical_formula_sum   'Ba1 Yb1 Fe4 O7'
_cell_volume   186.88569289
_cell_formula_units_Z   1
loop_
 _symmetry_equiv_pos_site_id
 _symmetry_equiv_pos_as_xyz
  1  'x, y, z'
loop_
 _atom_site_type_symbol
 _atom_site_label
 _atom_site_symmetry_multiplicity
 _atom_site_fract_x
 _atom_site_fract_y
 _atom_site_fract_z
 _atom_site_occupancy
  Ba  Ba0  1  0.25000000  0.75000000  0.50000000  1
  Yb  Yb1  1  0.00000000  0.00000000  0.00000000  1
  Fe  Fe2  1  0.62182200  0.40563400  0.26122700  1
  Fe  Fe3  1  0.14440700  0.36059600  0.73877300  1
  Fe  Fe4  1  0.59436600  0.85559300  0.21618900  1
  Fe  Fe5  1  0.63940400  0.37817800  0.78381100  1
  O  O6  1  0.23175200  0.73009500  0.91735800  1
  O  O7  1  0.81273700  0.31439400  0.08264200  1
  O  O8  1  0.26990500  0.18726300  0.50165600  1
  O  O9  1  0.68560600  0.76824800  0.49834400  1
  O  O10  1  0.74543800  0.74543800  0.00000000  1
  O  O11  1  0.25456200  0.25456200  0.00000000  1
  O  O12  1  0.75000000  0.25000000  0.50000000  1
