# generated using pymatgen
data_Li4MnCo2O7
_symmetry_space_group_name_H-M   'P 1'
_cell_length_a   2.92375400
_cell_length_b   10.62896636
_cell_length_c   8.36510573
_cell_angle_alpha   78.47314435
_cell_angle_beta   90.00000000
_cell_angle_gamma   82.09464734
_symmetry_Int_Tables_number   1
_chemical_formula_structural   Li4MnCo2O7
_chemical_formula_sum   'Li8 Mn2 Co4 O14'
_cell_volume   252.19317365
_cell_formula_units_Z   2
loop_
 _symmetry_equiv_pos_site_id
 _symmetry_equiv_pos_as_xyz
  1  'x, y, z'
loop_
 _atom_site_type_symbol
 _atom_site_label
 _atom_site_symmetry_multiplicity
 _atom_site_fract_x
 _atom_site_fract_y
 _atom_site_fract_z
 _atom_site_occupancy
  Li  Li0  1  0.42857100  0.14285700  0.21428600  1
  Li  Li1  1  0.28898000  0.42204000  0.64434100  1
  Li  Li2  1  0.14397500  0.71205000  0.06923200  1
  Li  Li3  1  0.99939800  0.00120400  0.51574500  1
  Li  Li4  1  0.85774500  0.28451000  0.91282600  1
  Li  Li5  1  0.71316800  0.57366500  0.35934000  1
  Li  Li6  1  0.56816300  0.86367400  0.78423000  1
  Li  Li7  1  0.42857100  0.14285700  0.71428600  1
  Mn  Mn8  1  0.99850200  0.00299700  0.98818100  1
  Mn  Mn9  1  0.85864100  0.28271700  0.44039000  1
  Co  Co10  1  0.71518400  0.56963300  0.85680100  1
  Co  Co11  1  0.57061500  0.85877000  0.28460200  1
  Co  Co12  1  0.28652800  0.42694400  0.14396900  1
  Co  Co13  1  0.14195900  0.71608200  0.57177100  1
  O  O14  1  0.43634600  0.12730700  0.97056000  1
  O  O15  1  0.29331000  0.41338100  0.39449800  1
  O  O16  1  0.14936100  0.70128000  0.82160500  1
  O  O17  1  0.00487700  0.99024600  0.23647100  1
  O  O18  1  0.85623900  0.28752000  0.65669500  1
  O  O19  1  0.71946900  0.56106000  0.10747900  1
  O  O20  1  0.57398800  0.85202400  0.53214600  1
  O  O21  1  0.42079700  0.15840700  0.45801100  1
  O  O22  1  0.28315500  0.43369100  0.89642600  1
  O  O23  1  0.13767400  0.72465400  0.32109200  1
  O  O24  1  0.00090300  0.99819400  0.77187700  1
  O  O25  1  0.85226600  0.29546800  0.19210000  1
  O  O26  1  0.70778200  0.58443500  0.60696700  1
  O  O27  1  0.56383300  0.87233300  0.03407300  1
