# generated using pymatgen
data_Yb(InSe2)2
_symmetry_space_group_name_H-M   'P 1'
_cell_length_a   6.34672682
_cell_length_b   6.34672682
_cell_length_c   10.76388800
_cell_angle_alpha   90.00000000
_cell_angle_beta   90.00000000
_cell_angle_gamma   114.78538278
_symmetry_Int_Tables_number   1
_chemical_formula_structural   Yb(InSe2)2
_chemical_formula_sum   'Yb2 In4 Se8'
_cell_volume   393.64012718
_cell_formula_units_Z   2
loop_
 _symmetry_equiv_pos_site_id
 _symmetry_equiv_pos_as_xyz
  1  'x, y, z'
loop_
 _atom_site_type_symbol
 _atom_site_label
 _atom_site_symmetry_multiplicity
 _atom_site_fract_x
 _atom_site_fract_y
 _atom_site_fract_z
 _atom_site_occupancy
  Yb  Yb0  1  0.50000000  0.50000000  0.25000000  1
  Yb  Yb1  1  0.50000000  0.50000000  0.75000000  1
  In  In2  1  0.77184700  0.22254000  0.50000000  1
  In  In3  1  0.22815300  0.77746000  0.50000000  1
  In  In4  1  0.77746000  0.22815300  0.00000000  1
  In  In5  1  0.22254000  0.77184700  0.00000000  1
  Se  Se6  1  0.77966100  0.64878200  0.50000000  1
  Se  Se7  1  0.22033900  0.35121800  0.50000000  1
  Se  Se8  1  0.35121800  0.22033900  0.00000000  1
  Se  Se9  1  0.64878200  0.77966100  0.00000000  1
  Se  Se10  1  0.00000000  0.50000000  0.18680100  1
  Se  Se11  1  0.50000000  0.00000000  0.31319900  1
  Se  Se12  1  0.00000000  0.50000000  0.81319900  1
  Se  Se13  1  0.50000000  0.00000000  0.68680100  1
