# generated using pymatgen
data_Li7Mn2(CoO4)3
_symmetry_space_group_name_H-M   'P 1'
_cell_length_a   5.90632374
_cell_length_b   11.79492804
_cell_length_c   6.49773922
_cell_angle_alpha   103.02510671
_cell_angle_beta   103.74089532
_cell_angle_gamma   89.79037443
_symmetry_Int_Tables_number   1
_chemical_formula_structural   Li7Mn2(CoO4)3
_chemical_formula_sum   'Li14 Mn4 Co6 O24'
_cell_volume   427.79914119
_cell_formula_units_Z   2
loop_
 _symmetry_equiv_pos_site_id
 _symmetry_equiv_pos_as_xyz
  1  'x, y, z'
loop_
 _atom_site_type_symbol
 _atom_site_label
 _atom_site_symmetry_multiplicity
 _atom_site_fract_x
 _atom_site_fract_y
 _atom_site_fract_z
 _atom_site_occupancy
  Li  Li0  1  0.16661200  0.08331600  0.66670100  1
  Li  Li1  1  0.16666100  0.58334100  0.66662100  1
  Li  Li2  1  0.16663000  0.33334000  0.66664700  1
  Li  Li3  1  0.16664500  0.83332700  0.66661800  1
  Li  Li4  1  0.66664200  0.08331600  0.66664600  1
  Li  Li5  1  0.66669900  0.58334100  0.66666700  1
  Li  Li6  1  0.82867200  0.16584700  0.33506300  1
  Li  Li7  1  0.82885000  0.66584600  0.33508200  1
  Li  Li8  1  0.50448400  0.00084400  0.99821400  1
  Li  Li9  1  0.50459400  0.50081600  0.99819400  1
  Li  Li10  1  0.50268000  0.24536700  0.99065300  1
  Li  Li11  1  0.50273200  0.74535900  0.99061800  1
  Li  Li12  1  0.83061300  0.42132800  0.34266500  1
  Li  Li13  1  0.83057500  0.92134000  0.34267800  1
  Mn  Mn14  1  0.99465600  0.50152900  0.99619100  1
  Mn  Mn15  1  0.33869500  0.16525600  0.33741300  1
  Mn  Mn16  1  0.99449700  0.00150600  0.99607600  1
  Mn  Mn17  1  0.33903400  0.66520700  0.33728900  1
  Co  Co18  1  0.66670200  0.83334800  0.66669100  1
  Co  Co19  1  0.99193300  0.24773800  0.99368800  1
  Co  Co20  1  0.34135000  0.41890500  0.33959500  1
  Co  Co21  1  0.66667500  0.33334600  0.66667900  1
  Co  Co22  1  0.99199800  0.74774600  0.99373600  1
  Co  Co23  1  0.34133900  0.91891000  0.33959500  1
  O  O24  1  0.91876800  0.45832500  0.68855300  1
  O  O25  1  0.91873400  0.95833400  0.68863100  1
  O  O26  1  0.41453300  0.20834200  0.64483000  1
  O  O27  1  0.41463300  0.70831800  0.64472500  1
  O  O28  1  0.55889700  0.04744800  0.33264500  1
  O  O29  1  0.55907900  0.54741300  0.33262900  1
  O  O30  1  0.77433200  0.11920800  0.00069600  1
  O  O31  1  0.77438500  0.61922700  0.00068600  1
  O  O32  1  0.23515700  0.12010400  0.01005500  1
  O  O33  1  0.23530300  0.62009800  0.00997300  1
  O  O34  1  0.09804000  0.04654800  0.32338600  1
  O  O35  1  0.09819100  0.54655000  0.32329500  1
  O  O36  1  0.90586800  0.22127300  0.68873200  1
  O  O37  1  0.90594900  0.72129000  0.68877300  1
  O  O38  1  0.42743100  0.44538200  0.64456400  1
  O  O39  1  0.42738100  0.94536100  0.64453200  1
  O  O40  1  0.56447100  0.28192200  0.32841200  1
  O  O41  1  0.56459100  0.78193800  0.32837500  1
  O  O42  1  0.76883100  0.38473000  0.00490800  1
  O  O43  1  0.76876800  0.88469800  0.00493900  1
  O  O44  1  0.23381200  0.38283300  0.01642300  1
  O  O45  1  0.23380600  0.88284500  0.01644600  1
  O  O46  1  0.09947700  0.28382300  0.31690900  1
  O  O47  1  0.09959400  0.78377800  0.31686400  1
