# generated using pymatgen
data_Li4MnCo2O7
_symmetry_space_group_name_H-M   'P 1'
_cell_length_a   5.92905581
_cell_length_b   6.57350287
_cell_length_c   7.72701288
_cell_angle_alpha   115.97041558
_cell_angle_beta   111.36292683
_cell_angle_gamma   75.98136293
_symmetry_Int_Tables_number   1
_chemical_formula_structural   Li4MnCo2O7
_chemical_formula_sum   'Li8 Mn2 Co4 O14'
_cell_volume   250.91072776
_cell_formula_units_Z   2
loop_
 _symmetry_equiv_pos_site_id
 _symmetry_equiv_pos_as_xyz
  1  'x, y, z'
loop_
 _atom_site_type_symbol
 _atom_site_label
 _atom_site_symmetry_multiplicity
 _atom_site_fract_x
 _atom_site_fract_y
 _atom_site_fract_z
 _atom_site_occupancy
  Li  Li0  1  0.21533000  0.43141400  0.14140500  1
  Li  Li1  1  0.92324800  0.85090900  0.28490500  1
  Li  Li2  1  0.64401700  0.29151700  0.42478200  1
  Li  Li3  1  0.34806900  0.71206100  0.56472900  1
  Li  Li4  1  0.07088700  0.14451600  0.71226200  1
  Li  Li5  1  0.79100800  0.57031200  0.87095800  1
  Li  Li6  1  0.50117500  0.00090400  0.00118600  1
  Li  Li7  1  0.71410400  0.43279500  0.14363900  1
  Mn  Mn8  1  0.00141400  0.00418700  0.00201500  1
  Mn  Mn9  1  0.13769700  0.28563900  0.42624900  1
  Co  Co10  1  0.44224700  0.83995500  0.27885700  1
  Co  Co11  1  0.84813700  0.70619200  0.56192400  1
  Co  Co12  1  0.57486800  0.14991000  0.72184300  1
  Co  Co13  1  0.28570700  0.57105800  0.85684300  1
  O  O14  1  0.89501300  0.26034800  0.92638800  1
  O  O15  1  0.59899500  0.72604800  0.08135800  1
  O  O16  1  0.29304400  0.14441300  0.21086100  1
  O  O17  1  0.03472400  0.56214200  0.37462900  1
  O  O18  1  0.73471100  0.99500400  0.50589400  1
  O  O19  1  0.43349800  0.42369800  0.63776100  1
  O  O20  1  0.17371300  0.84565800  0.80007200  1
  O  O21  1  0.53989800  0.58634900  0.36904600  1
  O  O22  1  0.25656200  0.01383800  0.48842400  1
  O  O23  1  0.96822000  0.42084600  0.62502400  1
  O  O24  1  0.70981000  0.86835800  0.79996200  1
  O  O25  1  0.39219500  0.29837400  0.91104300  1
  O  O26  1  0.11727600  0.72207700  0.06115100  1
  O  O27  1  0.85443400  0.14147800  0.21678800  1
