# generated using pymatgen
data_Li4MnCo2O7
_symmetry_space_group_name_H-M   'P 1'
_cell_length_a   2.91451600
_cell_length_b   10.70364251
_cell_length_c   8.36953252
_cell_angle_alpha   78.41276847
_cell_angle_beta   90.00000000
_cell_angle_gamma   82.17510788
_symmetry_Int_Tables_number   1
_chemical_formula_structural   Li4MnCo2O7
_chemical_formula_sum   'Li8 Mn2 Co4 O14'
_cell_volume   253.29211445
_cell_formula_units_Z   2
loop_
 _symmetry_equiv_pos_site_id
 _symmetry_equiv_pos_as_xyz
  1  'x, y, z'
loop_
 _atom_site_type_symbol
 _atom_site_label
 _atom_site_symmetry_multiplicity
 _atom_site_fract_x
 _atom_site_fract_y
 _atom_site_fract_z
 _atom_site_occupancy
  Li  Li0  1  0.42695100  0.14609600  0.21451700  1
  Li  Li1  1  0.28053600  0.43892700  0.65366300  1
  Li  Li2  1  0.14887700  0.70224500  0.05846200  1
  Li  Li3  1  0.00376900  0.99246200  0.50306500  1
  Li  Li4  1  0.85366000  0.29268100  0.92801600  1
  Li  Li5  1  0.71128100  0.57743900  0.35628900  1
  Li  Li6  1  0.57596000  0.84808200  0.78069300  1
  Li  Li7  1  0.71397700  0.57204800  0.85374600  1
  Mn  Mn8  1  0.00059700  0.99880700  0.00175300  1
  Mn  Mn9  1  0.85610300  0.28779500  0.42385500  1
  Co  Co10  1  0.57452800  0.85094600  0.29772000  1
  Co  Co11  1  0.42824400  0.14351100  0.71402300  1
  Co  Co12  1  0.28134600  0.43730800  0.11555600  1
  Co  Co13  1  0.14621900  0.70756200  0.59529100  1
  O  O14  1  0.43752300  0.12495300  0.97497800  1
  O  O15  1  0.29490300  0.41019500  0.39804100  1
  O  O16  1  0.14152000  0.71696000  0.80796000  1
  O  O17  1  0.00479700  0.99040700  0.23611200  1
  O  O18  1  0.86276300  0.27447400  0.66381700  1
  O  O19  1  0.71906400  0.56187200  0.11441400  1
  O  O20  1  0.57231400  0.85537200  0.53011400  1
  O  O21  1  0.42034400  0.15931200  0.45516700  1
  O  O22  1  0.28979500  0.42041100  0.90671900  1
  O  O23  1  0.13627600  0.72745000  0.32409100  1
  O  O24  1  0.99396700  0.01206600  0.76598900  1
  O  O25  1  0.85212200  0.29575500  0.19468100  1
  O  O26  1  0.70967500  0.58065000  0.60012800  1
  O  O27  1  0.56289200  0.87421500  0.03114000  1
