# generated using pymatgen
data_Li7Mn4CoO12
_symmetry_space_group_name_H-M   'P 1'
_cell_length_a   5.90260025
_cell_length_b   10.11480755
_cell_length_c   8.21958300
_cell_angle_alpha   66.50331742
_cell_angle_beta   89.24253757
_cell_angle_gamma   103.96013674
_symmetry_Int_Tables_number   1
_chemical_formula_structural   Li7Mn4CoO12
_chemical_formula_sum   'Li14 Mn8 Co2 O24'
_cell_volume   433.44351877
_cell_formula_units_Z   2
loop_
 _symmetry_equiv_pos_site_id
 _symmetry_equiv_pos_as_xyz
  1  'x, y, z'
loop_
 _atom_site_type_symbol
 _atom_site_label
 _atom_site_symmetry_multiplicity
 _atom_site_fract_x
 _atom_site_fract_y
 _atom_site_fract_z
 _atom_site_occupancy
  Li  Li0  1  0.66669600  0.33331900  0.83333900  1
  Li  Li1  1  0.16670500  0.33330700  0.83336600  1
  Li  Li2  1  0.66673200  0.83328100  0.33336400  1
  Li  Li3  1  0.16673500  0.83329900  0.33334000  1
  Li  Li4  1  0.66664900  0.83332000  0.83333100  1
  Li  Li5  1  0.16665500  0.83332000  0.83333600  1
  Li  Li6  1  0.50867900  0.50733100  0.99813000  1
  Li  Li7  1  0.01577400  0.50802100  0.00038800  1
  Li  Li8  1  0.31756300  0.15866200  0.66625400  1
  Li  Li9  1  0.82464500  0.15933500  0.66857100  1
  Li  Li10  1  0.48873400  0.99488100  0.52656200  1
  Li  Li11  1  0.00736500  0.00089300  0.52451700  1
  Li  Li12  1  0.84458000  0.67180200  0.14010700  1
  Li  Li13  1  0.32605000  0.66577400  0.14215200  1
  Mn  Mn14  1  0.98973100  0.99550000  0.99263300  1
  Mn  Mn15  1  0.49113500  0.99591100  0.99208400  1
  Mn  Mn16  1  0.34361700  0.67117900  0.67401100  1
  Mn  Mn17  1  0.84218700  0.67078800  0.67460300  1
  Mn  Mn18  1  0.50321500  0.50213000  0.49343000  1
  Mn  Mn19  1  0.00781500  0.50378700  0.49157700  1
  Mn  Mn20  1  0.32547100  0.16291600  0.17518800  1
  Mn  Mn21  1  0.83008100  0.16453500  0.17329800  1
  Co  Co22  1  0.66668000  0.33334300  0.33331700  1
  Co  Co23  1  0.16664400  0.33334900  0.33333900  1
  O  O24  1  0.30956000  0.14933400  0.93519900  1
  O  O25  1  0.80749500  0.14882700  0.93109400  1
  O  O26  1  0.52583200  0.51783700  0.73553000  1
  O  O27  1  0.02379200  0.51734100  0.73145100  1
  O  O28  1  0.35519900  0.66235400  0.43125500  1
  O  O29  1  0.84731600  0.65999800  0.43033900  1
  O  O30  1  0.48596400  0.00668900  0.23632200  1
  O  O31  1  0.97813000  0.00431500  0.23536100  1
  O  O32  1  0.17439300  0.32351100  0.09884300  1
  O  O33  1  0.68038300  0.32477900  0.10272600  1
  O  O34  1  0.65291700  0.34187100  0.56392900  1
  O  O35  1  0.15886300  0.34314200  0.56784400  1
  O  O36  1  0.65378500  0.81293200  0.59517500  1
  O  O37  1  0.15428600  0.81270800  0.59335800  1
  O  O38  1  0.67956600  0.85372000  0.07149000  1
  O  O39  1  0.17908500  0.85396100  0.07327900  1
  O  O40  1  0.47912900  0.47753400  0.26178800  1
  O  O41  1  0.00991700  0.49500500  0.25836600  1
  O  O42  1  0.32340200  0.17168700  0.40830200  1
  O  O43  1  0.85418800  0.18913700  0.40482500  1
  O  O44  1  0.00000900  0.00282100  0.76766600  1
  O  O45  1  0.49903700  0.00411900  0.76644200  1
  O  O46  1  0.83430000  0.66255700  0.90021300  1
  O  O47  1  0.33331300  0.66383900  0.89896500  1
