# generated using pymatgen
data_Li7Mn4CoO12
_symmetry_space_group_name_H-M   'P 1'
_cell_length_a   5.93090731
_cell_length_b   10.36884113
_cell_length_c   8.02096910
_cell_angle_alpha   110.16932370
_cell_angle_beta   75.24929671
_cell_angle_gamma   82.80173089
_symmetry_Int_Tables_number   1
_chemical_formula_structural   Li7Mn4CoO12
_chemical_formula_sum   'Li14 Mn8 Co2 O24'
_cell_volume   435.24274265
_cell_formula_units_Z   2
loop_
 _symmetry_equiv_pos_site_id
 _symmetry_equiv_pos_as_xyz
  1  'x, y, z'
loop_
 _atom_site_type_symbol
 _atom_site_label
 _atom_site_symmetry_multiplicity
 _atom_site_fract_x
 _atom_site_fract_y
 _atom_site_fract_z
 _atom_site_occupancy
  Li  Li0  1  0.75088500  0.16575800  0.83254300  1
  Li  Li1  1  0.24917500  0.16753800  0.83407700  1
  Li  Li2  1  0.88953500  0.08966600  0.44179500  1
  Li  Li3  1  0.38993800  0.08858200  0.44123200  1
  Li  Li4  1  0.61004000  0.24480600  0.22545500  1
  Li  Li5  1  0.11049700  0.24369600  0.22488500  1
  Li  Li6  1  0.87781200  0.40833000  0.08249300  1
  Li  Li7  1  0.38666500  0.40545100  0.08390000  1
  Li  Li8  1  0.61338500  0.92786000  0.58273200  1
  Li  Li9  1  0.12223300  0.92499600  0.58413800  1
  Li  Li10  1  0.88489900  0.75216100  0.75842100  1
  Li  Li11  1  0.37174200  0.75186200  0.75249500  1
  Li  Li12  1  0.62825800  0.58154300  0.91419300  1
  Li  Li13  1  0.11512900  0.58124000  0.90825900  1
  Mn  Mn14  1  0.74373400  0.83023600  0.16569200  1
  Mn  Mn15  1  0.24699600  0.83136000  0.16789900  1
  Mn  Mn16  1  0.25624300  0.50309100  0.50097700  1
  Mn  Mn17  1  0.75294300  0.50194200  0.49879100  1
  Mn  Mn18  1  0.98975100  0.00511400  0.99567000  1
  Mn  Mn19  1  0.48946700  0.00494700  0.99488200  1
  Mn  Mn20  1  0.01021400  0.32827200  0.67102500  1
  Mn  Mn21  1  0.51050400  0.32837000  0.67179900  1
  Co  Co22  1  0.50000600  0.66665000  0.33332800  1
  Co  Co23  1  0.99999700  0.66664300  0.33333300  1
  O  O24  1  0.17368300  0.02941100  0.17934000  1
  O  O25  1  0.67488200  0.02842000  0.17912100  1
  O  O26  1  0.82630500  0.30390900  0.48732400  1
  O  O27  1  0.32510500  0.30490900  0.48755000  1
  O  O28  1  0.69212400  0.36913200  0.84795700  1
  O  O29  1  0.19133600  0.37054600  0.84803200  1
  O  O30  1  0.30785600  0.96420600  0.81871400  1
  O  O31  1  0.80866100  0.96279900  0.81863900  1
  O  O32  1  0.68436700  0.69705800  0.51081100  1
  O  O33  1  0.20166500  0.69935400  0.53120000  1
  O  O34  1  0.79833000  0.63396400  0.13547100  1
  O  O35  1  0.31562300  0.63625300  0.15585500  1
  O  O36  1  0.45407200  0.86646800  0.36992500  1
  O  O37  1  0.95711000  0.86250400  0.37002400  1
  O  O38  1  0.54592400  0.46684600  0.29673600  1
  O  O39  1  0.04287800  0.47081500  0.29663700  1
  O  O40  1  0.93289500  0.19428100  0.04386400  1
  O  O41  1  0.43325500  0.19435100  0.04374100  1
  O  O42  1  0.06712600  0.13910300  0.62281000  1
  O  O43  1  0.56679200  0.13891200  0.62289800  1
  O  O44  1  0.96043300  0.53285200  0.69869600  1
  O  O45  1  0.46381600  0.53163500  0.70082600  1
  O  O46  1  0.53616300  0.80166300  0.96584400  1
  O  O47  1  0.03955000  0.80049700  0.96797200  1
