# generated using pymatgen
data_Li7Mn4CoO12
_symmetry_space_group_name_H-M   'P 1'
_cell_length_a   5.02218895
_cell_length_b   5.02215596
_cell_length_c   19.54401092
_cell_angle_alpha   93.86541217
_cell_angle_beta   93.86502745
_cell_angle_gamma   117.57907866
_symmetry_Int_Tables_number   1
_chemical_formula_structural   Li7Mn4CoO12
_chemical_formula_sum   'Li14 Mn8 Co2 O24'
_cell_volume   433.21857812
_cell_formula_units_Z   2
loop_
 _symmetry_equiv_pos_site_id
 _symmetry_equiv_pos_as_xyz
  1  'x, y, z'
loop_
 _atom_site_type_symbol
 _atom_site_label
 _atom_site_symmetry_multiplicity
 _atom_site_fract_x
 _atom_site_fract_y
 _atom_site_fract_z
 _atom_site_occupancy
  Li  Li0  1  0.66666000  0.33333900  0.99999100  1
  Li  Li1  1  0.66666100  0.33334000  0.50001000  1
  Li  Li2  1  0.41399700  0.08066100  0.12234700  1
  Li  Li3  1  0.41474700  0.08141000  0.62248700  1
  Li  Li4  1  0.91933900  0.58600300  0.37765100  1
  Li  Li5  1  0.91858600  0.58525100  0.87751500  1
  Li  Li6  1  0.07806400  0.42215500  0.12396500  1
  Li  Li7  1  0.07776500  0.42254500  0.62414700  1
  Li  Li8  1  0.57784400  0.92193300  0.37603400  1
  Li  Li9  1  0.57745900  0.92223700  0.87585400  1
  Li  Li10  1  0.75549100  0.74472300  0.12396600  1
  Li  Li11  1  0.75587200  0.74441500  0.62414900  1
  Li  Li12  1  0.25527800  0.24451100  0.37603300  1
  Li  Li13  1  0.25558000  0.24412000  0.87585300  1
  Mn  Mn14  1  0.99865800  0.00136600  0.00003200  1
  Mn  Mn15  1  0.99863700  0.00134300  0.49997000  1
  Mn  Mn16  1  0.33468100  0.66529900  0.49997000  1
  Mn  Mn17  1  0.33470300  0.66532100  0.00003200  1
  Mn  Mn18  1  0.49908800  0.50090400  0.25000000  1
  Mn  Mn19  1  0.49993900  0.50005700  0.74999900  1
  Mn  Mn20  1  0.83424600  0.16576400  0.25000000  1
  Mn  Mn21  1  0.83340400  0.16660200  0.74999800  1
  Co  Co22  1  0.16666600  0.83333200  0.75000100  1
  Co  Co23  1  0.16666600  0.83333500  0.25000000  1
  O  O24  1  0.05844300  0.72511100  0.05601100  1
  O  O25  1  0.05846700  0.72513800  0.55605700  1
  O  O26  1  0.27489100  0.94155600  0.44398800  1
  O  O27  1  0.27486800  0.94153400  0.94394300  1
  O  O28  1  0.56042500  0.22709400  0.30940900  1
  O  O29  1  0.56453500  0.23118600  0.80983900  1
  O  O30  1  0.77290700  0.43957300  0.19059100  1
  O  O31  1  0.76880800  0.43547100  0.69016100  1
  O  O32  1  0.68963200  0.99966600  0.05484000  1
  O  O33  1  0.68953100  0.99946800  0.55485700  1
  O  O34  1  0.33297700  0.35627200  0.05484100  1
  O  O35  1  0.33277900  0.35617200  0.55485800  1
  O  O36  1  0.00033500  0.31036700  0.44516000  1
  O  O37  1  0.00053200  0.31047100  0.94514300  1
  O  O38  1  0.64373000  0.66702300  0.44515800  1
  O  O39  1  0.64383100  0.66722000  0.94514100  1
  O  O40  1  0.22975900  0.56813300  0.30831700  1
  O  O41  1  0.23030000  0.56922700  0.80792700  1
  O  O42  1  0.90146200  0.89643600  0.30831500  1
  O  O43  1  0.90253900  0.89698600  0.80792900  1
  O  O44  1  0.43186000  0.77024300  0.19168500  1
  O  O45  1  0.43078300  0.76969700  0.69207200  1
  O  O46  1  0.10356000  0.09854200  0.19168200  1
  O  O47  1  0.10301700  0.09744800  0.69207300  1
