# generated using pymatgen
data_Li7Mn5O12
_symmetry_space_group_name_H-M   'P 1'
_cell_length_a   5.83569045
_cell_length_b   14.68008819
_cell_length_c   5.96861385
_cell_angle_alpha   98.11318312
_cell_angle_beta   119.10430877
_cell_angle_gamma   84.07544088
_symmetry_Int_Tables_number   1
_chemical_formula_structural   Li7Mn5O12
_chemical_formula_sum   'Li14 Mn10 O24'
_cell_volume   441.93520343
_cell_formula_units_Z   2
loop_
 _symmetry_equiv_pos_site_id
 _symmetry_equiv_pos_as_xyz
  1  'x, y, z'
loop_
 _atom_site_type_symbol
 _atom_site_label
 _atom_site_symmetry_multiplicity
 _atom_site_fract_x
 _atom_site_fract_y
 _atom_site_fract_z
 _atom_site_occupancy
  Li  Li0  1  0.33297900  0.16672700  0.24948500  1
  Li  Li1  1  0.33368400  0.16659700  0.75011000  1
  Li  Li2  1  0.83329600  0.66666700  0.49989800  1
  Li  Li3  1  0.83333500  0.66668800  0.00018700  1
  Li  Li4  1  0.83331800  0.16659600  0.74998300  1
  Li  Li5  1  0.83329800  0.16673700  0.24996600  1
  Li  Li6  1  0.15754900  0.32594500  0.47884400  1
  Li  Li7  1  0.15717900  0.32582200  0.97843200  1
  Li  Li8  1  0.50916800  0.00740800  0.52109700  1
  Li  Li9  1  0.50945200  0.00750400  0.02138700  1
  Li  Li10  1  0.00670500  0.50121300  0.25266900  1
  Li  Li11  1  0.00750900  0.50099900  0.75323700  1
  Li  Li12  1  0.66003600  0.83216300  0.74756800  1
  Li  Li13  1  0.65919000  0.83232300  0.24672300  1
  Mn  Mn14  1  0.33342600  0.66669900  0.49984900  1
  Mn  Mn15  1  0.33334600  0.66667100  0.00035800  1
  Mn  Mn16  1  0.99345800  0.00747700  0.51317500  1
  Mn  Mn17  1  0.99344500  0.00743000  0.01317900  1
  Mn  Mn18  1  0.67323800  0.32582400  0.48691300  1
  Mn  Mn19  1  0.67319900  0.32591300  0.98683200  1
  Mn  Mn20  1  0.49533400  0.49718400  0.73262600  1
  Mn  Mn21  1  0.49530600  0.49675500  0.23289700  1
  Mn  Mn22  1  0.17156900  0.83618700  0.26751200  1
  Mn  Mn23  1  0.17104500  0.83655200  0.76700200  1
  O  O24  1  0.14547900  0.07370000  0.36032300  1
  O  O25  1  0.14577500  0.07363700  0.86041000  1
  O  O26  1  0.52115400  0.25966100  0.63964100  1
  O  O27  1  0.52076200  0.25969300  0.13942500  1
  O  O28  1  0.97807700  0.25673200  0.61165000  1
  O  O29  1  0.97814000  0.25678500  0.11198900  1
  O  O30  1  0.68858000  0.07657200  0.38815000  1
  O  O31  1  0.68847400  0.07654100  0.88792000  1
  O  O32  1  0.80065800  0.40734600  0.82879000  1
  O  O33  1  0.80026200  0.40753500  0.32886400  1
  O  O34  1  0.86631900  0.92580700  0.67108100  1
  O  O35  1  0.86607900  0.92592400  0.17118500  1
  O  O36  1  0.64806500  0.58324500  0.62489700  1
  O  O37  1  0.64770600  0.58283700  0.12377700  1
  O  O38  1  0.01862300  0.75007700  0.37507900  1
  O  O39  1  0.01898700  0.75050500  0.87650500  1
  O  O40  1  0.48717700  0.75179100  0.39013300  1
  O  O41  1  0.48642800  0.75184500  0.89033000  1
  O  O42  1  0.17992800  0.58145400  0.10979500  1
  O  O43  1  0.17990600  0.58160700  0.60994900  1
  O  O44  1  0.31237800  0.91753600  0.64429100  1
  O  O45  1  0.31211300  0.91770300  0.14506000  1
  O  O46  1  0.35424100  0.41579100  0.35573200  1
  O  O47  1  0.35462500  0.41559600  0.85509400  1
