# generated using pymatgen
data_Li9Mn2Co5O16
_symmetry_space_group_name_H-M   'P 1'
_cell_length_a   5.04399195
_cell_length_b   5.82920562
_cell_length_c   10.20670186
_cell_angle_alpha   73.40780405
_cell_angle_beta   98.80139579
_cell_angle_gamma   90.00000410
_symmetry_Int_Tables_number   1
_chemical_formula_structural   Li9Mn2Co5O16
_chemical_formula_sum   'Li9 Mn2 Co5 O16'
_cell_volume   283.91710047
_cell_formula_units_Z   1
loop_
 _symmetry_equiv_pos_site_id
 _symmetry_equiv_pos_as_xyz
  1  'x, y, z'
loop_
 _atom_site_type_symbol
 _atom_site_label
 _atom_site_symmetry_multiplicity
 _atom_site_fract_x
 _atom_site_fract_y
 _atom_site_fract_z
 _atom_site_occupancy
  Li  Li0  1  0.24617600  0.61983100  0.24719800  1
  Li  Li1  1  0.75455000  0.38114000  0.75027100  1
  Li  Li2  1  0.24545000  0.13141100  0.24972900  1
  Li  Li3  1  0.75162900  0.38140000  0.24324500  1
  Li  Li4  1  0.24877300  0.12143000  0.75120500  1
  Li  Li5  1  0.75122700  0.87263500  0.24879500  1
  Li  Li6  1  0.75382400  0.86702900  0.75280200  1
  Li  Li7  1  0.24837100  0.62464500  0.75675500  1
  Li  Li8  1  0.00000000  0.50291300  0.00000000  1
  Mn  Mn9  1  0.00000000  0.99496700  0.00000000  1
  Mn  Mn10  1  0.50000000  0.25815600  0.00000000  1
  Co  Co11  1  0.50006500  0.74917900  0.50138200  1
  Co  Co12  1  0.49993500  0.25056100  0.49861800  1
  Co  Co13  1  0.00026500  0.50011900  0.49976500  1
  Co  Co14  1  0.99973500  0.99988400  0.50023500  1
  Co  Co15  1  0.50000000  0.74863000  0.00000000  1
  O  O16  1  0.85799300  0.71034400  0.10973100  1
  O  O17  1  0.37919100  0.44094300  0.61576800  1
  O  O18  1  0.85422100  0.17925700  0.10961400  1
  O  O19  1  0.39460200  0.44255000  0.11160600  1
  O  O20  1  0.87971800  0.19248400  0.61549500  1
  O  O21  1  0.36041200  0.94652500  0.10832900  1
  O  O22  1  0.37883400  0.94270900  0.61618600  1
  O  O23  1  0.87862200  0.69075200  0.61820900  1
  O  O24  1  0.62116600  0.55889500  0.38381400  1
  O  O25  1  0.14577900  0.28887100  0.89038600  1
  O  O26  1  0.62080900  0.05671100  0.38423200  1
  O  O27  1  0.12137800  0.30896100  0.38179100  1
  O  O28  1  0.63958800  0.05485400  0.89167100  1
  O  O29  1  0.12028300  0.80797900  0.38450500  1
  O  O30  1  0.14200700  0.82007500  0.89026900  1
  O  O31  1  0.60539800  0.55415600  0.88839400  1
