# generated using pymatgen
data_Li9Mn2Co5O16
_symmetry_space_group_name_H-M   'P 1'
_cell_length_a   5.10959270
_cell_length_b   7.71514447
_cell_length_c   7.71514469
_cell_angle_alpha   96.39206465
_cell_angle_beta   76.26296431
_cell_angle_gamma   76.26296133
_symmetry_Int_Tables_number   1
_chemical_formula_structural   Li9Mn2Co5O16
_chemical_formula_sum   'Li9 Mn2 Co5 O16'
_cell_volume   282.42023987
_cell_formula_units_Z   1
loop_
 _symmetry_equiv_pos_site_id
 _symmetry_equiv_pos_as_xyz
  1  'x, y, z'
loop_
 _atom_site_type_symbol
 _atom_site_label
 _atom_site_symmetry_multiplicity
 _atom_site_fract_x
 _atom_site_fract_y
 _atom_site_fract_z
 _atom_site_occupancy
  Li  Li0  1  0.00606200  0.12949700  0.38229600  1
  Li  Li1  1  0.99393800  0.61770400  0.87050300  1
  Li  Li2  1  0.49791700  0.99302200  0.50108400  1
  Li  Li3  1  0.50208300  0.49891600  0.00697800  1
  Li  Li4  1  0.01115500  0.86624200  0.61364400  1
  Li  Li5  1  0.98884500  0.38635600  0.13375800  1
  Li  Li6  1  0.51071600  0.74968700  0.74068900  1
  Li  Li7  1  0.48928400  0.25931100  0.25031300  1
  Li  Li8  1  0.50000000  0.62584300  0.37415700  1
  Mn  Mn9  1  0.00000000  0.00005100  0.99994900  1
  Mn  Mn10  1  0.50000000  0.87156000  0.12844000  1
  Co  Co11  1  0.00000000  0.50405700  0.49594300  1
  Co  Co12  1  0.50000000  0.38034000  0.61966000  1
  Co  Co13  1  0.00000000  0.74783000  0.25217000  1
  Co  Co14  1  0.00000000  0.25009600  0.74990400  1
  Co  Co15  1  0.50000000  0.12338200  0.87661800  1
  O  O16  1  0.75041400  0.98154000  0.23545900  1
  O  O17  1  0.76422000  0.49175700  0.73273500  1
  O  O18  1  0.24456800  0.87055700  0.35254300  1
  O  O19  1  0.27034400  0.35652600  0.86632100  1
  O  O20  1  0.78322000  0.73375700  0.48609300  1
  O  O21  1  0.77339600  0.24312700  0.99776800  1
  O  O22  1  0.23299100  0.60598400  0.61494000  1
  O  O23  1  0.28277100  0.11372200  0.11500300  1
  O  O24  1  0.23578000  0.26726500  0.50824300  1
  O  O25  1  0.24958600  0.76454100  0.01846000  1
  O  O26  1  0.72965600  0.13367900  0.64347400  1
  O  O27  1  0.75543200  0.64745700  0.12944300  1
  O  O28  1  0.22660400  0.00223200  0.75687300  1
  O  O29  1  0.21678000  0.51390700  0.26624300  1
  O  O30  1  0.71722900  0.88499700  0.88627800  1
  O  O31  1  0.76700900  0.38506000  0.39401600  1
