# generated using pymatgen
data_Li9Mn2Co5O16
_symmetry_space_group_name_H-M   'P 1'
_cell_length_a   5.13086698
_cell_length_b   7.74561420
_cell_length_c   7.74561404
_cell_angle_alpha   96.38826114
_cell_angle_beta   76.09333391
_cell_angle_gamma   76.09333488
_symmetry_Int_Tables_number   1
_chemical_formula_structural   Li9Mn2Co5O16
_chemical_formula_sum   'Li9 Mn2 Co5 O16'
_cell_volume   285.33777528
_cell_formula_units_Z   1
loop_
 _symmetry_equiv_pos_site_id
 _symmetry_equiv_pos_as_xyz
  1  'x, y, z'
loop_
 _atom_site_type_symbol
 _atom_site_label
 _atom_site_symmetry_multiplicity
 _atom_site_fract_x
 _atom_site_fract_y
 _atom_site_fract_z
 _atom_site_occupancy
  Li  Li0  1  0.01300800  0.11622100  0.36790000  1
  Li  Li1  1  0.98699200  0.63210000  0.88377900  1
  Li  Li2  1  0.50013100  0.99606100  0.49340200  1
  Li  Li3  1  0.49986900  0.50659800  0.00393900  1
  Li  Li4  1  0.00434500  0.87772700  0.62826900  1
  Li  Li5  1  0.99565500  0.37173100  0.12227300  1
  Li  Li6  1  0.49821800  0.75290200  0.75512800  1
  Li  Li7  1  0.50178200  0.24487200  0.24709800  1
  Li  Li8  1  0.50000000  0.87542100  0.12457900  1
  Mn  Mn9  1  0.00000000  0.00004500  0.99995500  1
  Mn  Mn10  1  0.50000000  0.37469500  0.62530500  1
  Co  Co11  1  0.00000000  0.50124700  0.49875300  1
  Co  Co12  1  0.00000000  0.75444400  0.24555600  1
  Co  Co13  1  0.00000000  0.24901900  0.75098100  1
  Co  Co14  1  0.50000000  0.62706400  0.37293600  1
  Co  Co15  1  0.50000000  0.12274400  0.87725600  1
  O  O16  1  0.77701700  0.99958900  0.23819000  1
  O  O17  1  0.77566700  0.49693700  0.74702500  1
  O  O18  1  0.25364700  0.84567000  0.37084000  1
  O  O19  1  0.26919300  0.35999000  0.86241300  1
  O  O20  1  0.73658000  0.73424000  0.48684900  1
  O  O21  1  0.77344000  0.23911300  0.99479500  1
  O  O22  1  0.26891100  0.61192000  0.60504000  1
  O  O23  1  0.24706700  0.11466000  0.09986000  1
  O  O24  1  0.22433300  0.25297500  0.50306300  1
  O  O25  1  0.22298300  0.76181000  0.00041100  1
  O  O26  1  0.73080700  0.13758700  0.64001000  1
  O  O27  1  0.74635300  0.62916000  0.15433000  1
  O  O28  1  0.22656000  0.00520500  0.76088700  1
  O  O29  1  0.26342000  0.51315100  0.26576000  1
  O  O30  1  0.75293300  0.90014000  0.88534000  1
  O  O31  1  0.73108900  0.39496000  0.38808000  1
