# generated using pymatgen
data_Yb3Ga8Ir3
_symmetry_space_group_name_H-M   'P 1'
_cell_length_a   8.23305520
_cell_length_b   8.23305520
_cell_length_c   8.23305520
_cell_angle_alpha   150.15993659
_cell_angle_beta   107.63795939
_cell_angle_gamma   80.18781463
_symmetry_Int_Tables_number   1
_chemical_formula_structural   Yb3Ga8Ir3
_chemical_formula_sum   'Yb3 Ga8 Ir3'
_cell_volume   259.55384134
_cell_formula_units_Z   1
loop_
 _symmetry_equiv_pos_site_id
 _symmetry_equiv_pos_as_xyz
  1  'x, y, z'
loop_
 _atom_site_type_symbol
 _atom_site_label
 _atom_site_symmetry_multiplicity
 _atom_site_fract_x
 _atom_site_fract_y
 _atom_site_fract_z
 _atom_site_occupancy
  Yb  Yb0  1  0.50000000  0.50000000  0.00000000  1
  Yb  Yb1  1  0.17376600  0.17376600  0.00000000  1
  Yb  Yb2  1  0.82623400  0.82623400  0.00000000  1
  Ga  Ga3  1  0.08899100  0.37801700  0.71097500  1
  Ga  Ga4  1  0.91100900  0.62198300  0.28902500  1
  Ga  Ga5  1  0.66704200  0.37801700  0.28902500  1
  Ga  Ga6  1  0.33295800  0.62198300  0.71097500  1
  Ga  Ga7  1  0.80419200  0.16885000  0.63534100  1
  Ga  Ga8  1  0.19580800  0.83115000  0.36465900  1
  Ga  Ga9  1  0.53350900  0.16885000  0.36465900  1
  Ga  Ga10  1  0.46649100  0.83115000  0.63534100  1
  Ir  Ir11  1  0.00000000  0.50000000  0.50000000  1
  Ir  Ir12  1  0.77826100  0.00000000  0.77826100  1
  Ir  Ir13  1  0.22173900  0.00000000  0.22173900  1
