# generated using pymatgen
data_Li9Mn2Co5O16
_symmetry_space_group_name_H-M   'P 1'
_cell_length_a   6.45487096
_cell_length_b   6.45392814
_cell_length_c   7.85316935
_cell_angle_alpha   87.72890832
_cell_angle_beta   113.94159047
_cell_angle_gamma   108.25910689
_symmetry_Int_Tables_number   1
_chemical_formula_structural   Li9Mn2Co5O16
_chemical_formula_sum   'Li9 Mn2 Co5 O16'
_cell_volume   282.50610349
_cell_formula_units_Z   1
loop_
 _symmetry_equiv_pos_site_id
 _symmetry_equiv_pos_as_xyz
  1  'x, y, z'
loop_
 _atom_site_type_symbol
 _atom_site_label
 _atom_site_symmetry_multiplicity
 _atom_site_fract_x
 _atom_site_fract_y
 _atom_site_fract_z
 _atom_site_occupancy
  Li  Li0  1  0.87761900  0.06263600  0.31628900  1
  Li  Li1  1  0.87630800  0.56095600  0.81065200  1
  Li  Li2  1  0.13035400  0.93871400  0.68438900  1
  Li  Li3  1  0.13252200  0.44317400  0.19482000  1
  Li  Li4  1  0.37690600  0.81499600  0.07024400  1
  Li  Li5  1  0.37293400  0.30824500  0.55887800  1
  Li  Li6  1  0.61202000  0.68811100  0.43277200  1
  Li  Li7  1  0.62236500  0.18549300  0.93660100  1
  Li  Li8  1  0.25382200  0.87236300  0.37584500  1
  Mn  Mn9  1  0.00418900  0.00412600  0.00275200  1
  Mn  Mn10  1  0.75461900  0.62628700  0.13253700  1
  Co  Co11  1  0.00131700  0.49768800  0.49881000  1
  Co  Co12  1  0.24858400  0.37739600  0.87548200  1
  Co  Co13  1  0.49392400  0.75077200  0.74204800  1
  Co  Co14  1  0.49962700  0.24508900  0.25159000  1
  Co  Co15  1  0.74546100  0.12367700  0.61929800  1
  O  O16  1  0.71052900  0.90112000  0.04038200  1
  O  O17  1  0.70538900  0.39881000  0.53437800  1
  O  O18  1  0.92332700  0.75163900  0.38793600  1
  O  O19  1  0.95429900  0.27413900  0.90795800  1
  O  O20  1  0.20691700  0.64926300  0.78630600  1
  O  O21  1  0.18545400  0.14633600  0.25310300  1
  O  O22  1  0.45369700  0.51993800  0.15872700  1
  O  O23  1  0.46035600  0.02728900  0.66513800  1
  O  O24  1  0.04857100  0.22808400  0.59529500  1
  O  O25  1  0.03797000  0.72428200  0.08254500  1
  O  O26  1  0.28899400  0.09876300  0.95785500  1
  O  O27  1  0.30029700  0.58703900  0.47976600  1
  O  O28  1  0.56075800  0.98843300  0.33971600  1
  O  O29  1  0.55888900  0.49083400  0.86361600  1
  O  O30  1  0.80687500  0.86215100  0.73272800  1
  O  O31  1  0.79510600  0.35216200  0.21154400  1
