# generated using pymatgen
data_Li9Mn2Co5O16
_symmetry_space_group_name_H-M   'P 1'
_cell_length_a   5.18378678
_cell_length_b   10.35546339
_cell_length_c   5.90270180
_cell_angle_alpha   104.52620002
_cell_angle_beta   71.41144947
_cell_angle_gamma   84.94307480
_symmetry_Int_Tables_number   1
_chemical_formula_structural   Li9Mn2Co5O16
_chemical_formula_sum   'Li9 Mn2 Co5 O16'
_cell_volume   285.80862667
_cell_formula_units_Z   1
loop_
 _symmetry_equiv_pos_site_id
 _symmetry_equiv_pos_as_xyz
  1  'x, y, z'
loop_
 _atom_site_type_symbol
 _atom_site_label
 _atom_site_symmetry_multiplicity
 _atom_site_fract_x
 _atom_site_fract_y
 _atom_site_fract_z
 _atom_site_occupancy
  Li  Li0  1  0.49792700  0.13226800  0.93830200  1
  Li  Li1  1  0.50009900  0.37686900  0.31010300  1
  Li  Li2  1  0.50931900  0.61805900  0.67569500  1
  Li  Li3  1  0.49884400  0.87337900  0.06713900  1
  Li  Li4  1  0.50384600  0.13117000  0.44405400  1
  Li  Li5  1  0.49265600  0.37934400  0.82085100  1
  Li  Li6  1  0.49807600  0.61632600  0.18557800  1
  Li  Li7  1  0.50035600  0.87509100  0.55587800  1
  Li  Li8  1  0.00079600  0.49632900  0.25314300  1
  Mn  Mn9  1  0.99439700  0.00207300  0.99770400  1
  Mn  Mn10  1  0.99698400  0.74857400  0.62500000  1
  Co  Co11  1  0.00199600  0.25176900  0.37070500  1
  Co  Co12  1  0.99095500  0.49307000  0.74866000  1
  Co  Co13  1  0.00687600  0.73713500  0.12000800  1
  Co  Co14  1  0.99729800  0.00087800  0.49520900  1
  Co  Co15  1  0.00934300  0.25276800  0.88030800  1
  O  O16  1  0.22778500  0.06833400  0.73789200  1
  O  O17  1  0.23204900  0.30798900  0.11507900  1
  O  O18  1  0.22677800  0.57591500  0.49672600  1
  O  O19  1  0.21580700  0.82144400  0.84003200  1
  O  O20  1  0.20953200  0.05853500  0.21024000  1
  O  O21  1  0.24048600  0.31056400  0.61339800  1
  O  O22  1  0.23870100  0.57436200  0.97484300  1
  O  O23  1  0.21862200  0.82043600  0.36286600  1
  O  O24  1  0.76814600  0.17916100  0.12784500  1
  O  O25  1  0.77512700  0.42528400  0.53208100  1
  O  O26  1  0.76648900  0.69121500  0.89616800  1
  O  O27  1  0.76766600  0.93568400  0.25658800  1
  O  O28  1  0.78750300  0.17684300  0.62586500  1
  O  O29  1  0.77245600  0.42972100  0.01312700  1
  O  O30  1  0.77061200  0.70006100  0.42940100  1
  O  O31  1  0.78247200  0.93935100  0.77951300  1
