# generated using pymatgen
data_Li9Mn2Co5O16
_symmetry_space_group_name_H-M   'P 1'
_cell_length_a   5.76904829
_cell_length_b   8.50583175
_cell_length_c   6.52856144
_cell_angle_alpha   90.27360811
_cell_angle_beta   116.22079831
_cell_angle_gamma   89.99999794
_symmetry_Int_Tables_number   1
_chemical_formula_structural   Li9Mn2Co5O16
_chemical_formula_sum   'Li9 Mn2 Co5 O16'
_cell_volume   287.39037192
_cell_formula_units_Z   1
loop_
 _symmetry_equiv_pos_site_id
 _symmetry_equiv_pos_as_xyz
  1  'x, y, z'
loop_
 _atom_site_type_symbol
 _atom_site_label
 _atom_site_symmetry_multiplicity
 _atom_site_fract_x
 _atom_site_fract_y
 _atom_site_fract_z
 _atom_site_occupancy
  Li  Li0  1  0.62283500  0.26052400  0.74806000  1
  Li  Li1  1  0.37477500  0.73947600  0.25194000  1
  Li  Li2  1  0.12522500  0.26052400  0.74806000  1
  Li  Li3  1  0.50011200  0.50123900  0.00022400  1
  Li  Li4  1  0.25000000  0.00000000  0.50000000  1
  Li  Li5  1  0.99988800  0.49876100  0.99977600  1
  Li  Li6  1  0.87716500  0.73947600  0.25194000  1
  Li  Li7  1  0.75000000  0.00000000  0.50000000  1
  Li  Li8  1  0.25000000  0.50000000  0.50000000  1
  Mn  Mn9  1  0.00043200  0.00243400  0.00086300  1
  Mn  Mn10  1  0.49956800  0.99756600  0.99913700  1
  Co  Co11  1  0.75000000  0.50000000  0.50000000  1
  Co  Co12  1  0.61837900  0.73833700  0.74439900  1
  Co  Co13  1  0.37398000  0.26166300  0.25560100  1
  Co  Co14  1  0.12602000  0.73833700  0.74439900  1
  Co  Co15  1  0.88162100  0.26166300  0.25560100  1
  O  O16  1  0.63769900  0.99922500  0.77149300  1
  O  O17  1  0.40245400  0.49262000  0.26823500  1
  O  O18  1  0.13379400  0.99922500  0.77149300  1
  O  O19  1  0.51165500  0.24363800  0.02331000  1
  O  O20  1  0.26156300  0.75804400  0.52312500  1
  O  O21  1  0.00532400  0.24535700  0.01064800  1
  O  O22  1  0.86578100  0.49262000  0.26823500  1
  O  O23  1  0.75231300  0.72883500  0.50462600  1
  O  O24  1  0.63421900  0.50738000  0.73176500  1
  O  O25  1  0.36620600  0.00077500  0.22850700  1
  O  O26  1  0.09754600  0.50738000  0.73176500  1
  O  O27  1  0.49467600  0.75464300  0.98935200  1
  O  O28  1  0.23843700  0.24195600  0.47687500  1
  O  O29  1  0.98834500  0.75636200  0.97669000  1
  O  O30  1  0.86230100  0.00077500  0.22850700  1
  O  O31  1  0.74768700  0.27116500  0.49537400  1
