# generated using pymatgen
data_Li9Mn2Co5O16
_symmetry_space_group_name_H-M   'P 1'
_cell_length_a   5.01851359
_cell_length_b   9.76960748
_cell_length_c   5.85435100
_cell_angle_alpha   90.00000000
_cell_angle_beta   90.00000000
_cell_angle_gamma   99.45411945
_symmetry_Int_Tables_number   1
_chemical_formula_structural   Li9Mn2Co5O16
_chemical_formula_sum   'Li9 Mn2 Co5 O16'
_cell_volume   283.13380353
_cell_formula_units_Z   1
loop_
 _symmetry_equiv_pos_site_id
 _symmetry_equiv_pos_as_xyz
  1  'x, y, z'
loop_
 _atom_site_type_symbol
 _atom_site_label
 _atom_site_symmetry_multiplicity
 _atom_site_fract_x
 _atom_site_fract_y
 _atom_site_fract_z
 _atom_site_occupancy
  Li  Li0  1  0.24934500  0.25005400  0.24990400  1
  Li  Li1  1  0.75065500  0.74994600  0.24990400  1
  Li  Li2  1  0.74899700  0.25338800  0.50440400  1
  Li  Li3  1  0.25100300  0.74661200  0.50440400  1
  Li  Li4  1  0.24738800  0.25210500  0.74931300  1
  Li  Li5  1  0.75261200  0.74789500  0.74931300  1
  Li  Li6  1  0.76164100  0.25816700  0.99618500  1
  Li  Li7  1  0.23835900  0.74183300  0.99618500  1
  Li  Li8  1  0.00000000  0.50000000  0.75033500  1
  Mn  Mn9  1  0.00000000  0.00000000  0.00167900  1
  Mn  Mn10  1  0.50000000  0.50000000  0.50058600  1
  Co  Co11  1  0.50000000  0.50000000  0.98983400  1
  Co  Co12  1  0.50000000  0.00000000  0.25214100  1
  Co  Co13  1  0.00000000  0.50000000  0.25490300  1
  Co  Co14  1  0.00000000  0.00000000  0.50650800  1
  Co  Co15  1  0.50000000  0.00000000  0.74628900  1
  O  O16  1  0.87628400  0.11461800  0.23799800  1
  O  O17  1  0.35639100  0.61096200  0.26044900  1
  O  O18  1  0.36502000  0.11571500  0.49012900  1
  O  O19  1  0.86050400  0.60834200  0.48227100  1
  O  O20  1  0.89090000  0.11928500  0.76229800  1
  O  O21  1  0.39603700  0.61720600  0.73582600  1
  O  O22  1  0.35631900  0.11324700  0.00528500  1
  O  O23  1  0.86338600  0.60615200  0.02480100  1
  O  O24  1  0.64360900  0.38903800  0.26044900  1
  O  O25  1  0.12371600  0.88538200  0.23799800  1
  O  O26  1  0.13949600  0.39165800  0.48227100  1
  O  O27  1  0.63498000  0.88428500  0.49012900  1
  O  O28  1  0.60396300  0.38279400  0.73582600  1
  O  O29  1  0.10910000  0.88071500  0.76229800  1
  O  O30  1  0.13661400  0.39384800  0.02480100  1
  O  O31  1  0.64368100  0.88675300  0.00528500  1
