# generated using pymatgen
data_Li9Mn2Co5O16
_symmetry_space_group_name_H-M   'P 1'
_cell_length_a   5.07655494
_cell_length_b   5.81465790
_cell_length_c   10.16785518
_cell_angle_alpha   73.38535256
_cell_angle_beta   99.59501920
_cell_angle_gamma   89.99999884
_symmetry_Int_Tables_number   1
_chemical_formula_structural   Li9Mn2Co5O16
_chemical_formula_sum   'Li9 Mn2 Co5 O16'
_cell_volume   283.22367059
_cell_formula_units_Z   1
loop_
 _symmetry_equiv_pos_site_id
 _symmetry_equiv_pos_as_xyz
  1  'x, y, z'
loop_
 _atom_site_type_symbol
 _atom_site_label
 _atom_site_symmetry_multiplicity
 _atom_site_fract_x
 _atom_site_fract_y
 _atom_site_fract_z
 _atom_site_occupancy
  Li  Li0  1  0.25829400  0.62598600  0.25931000  1
  Li  Li1  1  0.74170600  0.38529600  0.74069000  1
  Li  Li2  1  0.25829400  0.11470400  0.25931000  1
  Li  Li3  1  0.75222100  0.37049200  0.25901700  1
  Li  Li4  1  0.24777900  0.12950800  0.74098300  1
  Li  Li5  1  0.74331200  0.86823400  0.26353300  1
  Li  Li6  1  0.74170600  0.87401400  0.74069000  1
  Li  Li7  1  0.25668800  0.63176600  0.73646700  1
  Li  Li8  1  0.50000000  0.75000000  0.50000000  1
  Mn  Mn9  1  0.00065200  0.99946100  0.00107900  1
  Mn  Mn10  1  0.99934800  0.50053900  0.99892100  1
  Co  Co11  1  0.50000000  0.25000000  0.50000000  1
  Co  Co12  1  0.00000000  0.50673800  0.50000000  1
  Co  Co13  1  0.50000000  0.25000000  0.00000000  1
  Co  Co14  1  0.00000000  0.99326200  0.50000000  1
  Co  Co15  1  0.50000000  0.75000000  0.00000000  1
  O  O16  1  0.89685100  0.69088900  0.11370300  1
  O  O17  1  0.36616600  0.42475300  0.60923300  1
  O  O18  1  0.89685100  0.19540900  0.11370300  1
  O  O19  1  0.35549100  0.44440800  0.11118300  1
  O  O20  1  0.85567400  0.19414600  0.61170800  1
  O  O21  1  0.35754300  0.94232800  0.11534300  1
  O  O22  1  0.36616600  0.96601400  0.60923300  1
  O  O23  1  0.89574800  0.69078700  0.61842600  1
  O  O24  1  0.63383400  0.53398600  0.39076700  1
  O  O25  1  0.10314900  0.30459100  0.88629700  1
  O  O26  1  0.63383400  0.07524700  0.39076700  1
  O  O27  1  0.14432600  0.30585400  0.38829200  1
  O  O28  1  0.64450900  0.05559200  0.88881700  1
  O  O29  1  0.10425200  0.80921300  0.38157400  1
  O  O30  1  0.10314900  0.80911100  0.88629700  1
  O  O31  1  0.64245700  0.55767200  0.88465700  1
