# generated using pymatgen
data_Na5(WO3)14
_symmetry_space_group_name_H-M   'P 1'
_cell_length_a   19.83814079
_cell_length_b   19.83814079
_cell_length_c   19.83814079
_cell_angle_alpha   164.05160124
_cell_angle_beta   157.35436552
_cell_angle_gamma   27.82058064
_symmetry_Int_Tables_number   1
_chemical_formula_structural   Na5(WO3)14
_chemical_formula_sum   'Na5 W14 O42'
_cell_volume   825.65546525
_cell_formula_units_Z   1
loop_
 _symmetry_equiv_pos_site_id
 _symmetry_equiv_pos_as_xyz
  1  'x, y, z'
loop_
 _atom_site_type_symbol
 _atom_site_label
 _atom_site_symmetry_multiplicity
 _atom_site_fract_x
 _atom_site_fract_y
 _atom_site_fract_z
 _atom_site_occupancy
  Na  Na0  1  0.00000000  0.50000000  0.50000000  1
  Na  Na1  1  0.21430800  0.21430800  0.00000000  1
  Na  Na2  1  0.42841700  0.92841700  0.50000000  1
  Na  Na3  1  0.78569200  0.78569200  0.00000000  1
  Na  Na4  1  0.57158300  0.07158300  0.50000000  1
  W  W5  1  0.32088800  0.57219300  0.74869500  1
  W  W6  1  0.25004400  0.00000000  0.25004400  1
  W  W7  1  0.17650100  0.42780700  0.74869500  1
  W  W8  1  0.03751700  0.28623500  0.75128200  1
  W  W9  1  0.96248300  0.71376500  0.24871800  1
  W  W10  1  0.89293100  0.14293000  0.75000000  1
  W  W11  1  0.10706900  0.85707000  0.25000000  1
  W  W12  1  0.74995600  0.00000000  0.74995600  1
  W  W13  1  0.82349900  0.57219300  0.25130500  1
  W  W14  1  0.67911200  0.42780700  0.25130500  1
  W  W15  1  0.60707000  0.85707000  0.75000000  1
  W  W16  1  0.46504700  0.71376500  0.75128200  1
  W  W17  1  0.53495300  0.28623500  0.24871800  1
  W  W18  1  0.39293000  0.14293000  0.25000000  1
  O  O19  1  0.21410400  0.21450100  0.50008300  1
  O  O20  1  0.14569700  0.64622300  0.00552900  1
  O  O21  1  0.28558200  0.78549900  0.99960300  1
  O  O22  1  0.21410400  0.71402100  0.99960300  1
  O  O23  1  0.28558200  0.28597900  0.50008300  1
  O  O24  1  0.14569700  0.14016800  0.49947500  1
  O  O25  1  0.21421100  0.71421100  0.50000000  1
  O  O26  1  0.92931300  0.42931300  0.50000000  1
  O  O27  1  0.28504300  0.28504300  0.00000000  1
  O  O28  1  0.14361000  0.14361000  0.00000000  1
  O  O29  1  0.00000000  0.00000000  0.00000000  1
  O  O30  1  0.07068700  0.57068700  0.50000000  1
  O  O31  1  0.06846400  0.57315300  0.99956300  1
  O  O32  1  0.06846400  0.06890000  0.49531100  1
  O  O33  1  0.00000000  0.50000000  0.00000000  1
  O  O34  1  0.93153600  0.42684700  0.00043700  1
  O  O35  1  0.00000000  0.00000000  0.50000000  1
  O  O36  1  0.85430300  0.85983200  0.50052500  1
  O  O37  1  0.93153600  0.93110000  0.50468900  1
  O  O38  1  0.85430300  0.35377700  0.99447100  1
  O  O39  1  0.78589600  0.78549900  0.49991700  1
  O  O40  1  0.78589600  0.28597900  0.00039700  1
  O  O41  1  0.64069300  0.64622300  0.50052500  1
  O  O42  1  0.64069300  0.14016800  0.99447100  1
  O  O43  1  0.71441800  0.71402100  0.49991700  1
  O  O44  1  0.71441800  0.21450100  0.00039700  1
  O  O45  1  0.71495700  0.71495700  0.00000000  1
  O  O46  1  0.78578900  0.28578900  0.50000000  1
  O  O47  1  0.64211300  0.14211300  0.50000000  1
  O  O48  1  0.57144100  0.57144100  0.00000000  1
  O  O49  1  0.42855900  0.42855900  0.00000000  1
  O  O50  1  0.50000000  0.00000000  0.50000000  1
  O  O51  1  0.85639000  0.85639000  0.00000000  1
  O  O52  1  0.35930700  0.35377700  0.49947500  1
  O  O53  1  0.50000000  0.00000000  0.00000000  1
  O  O54  1  0.35930700  0.85983200  0.00552900  1
  O  O55  1  0.50000000  0.50000000  0.50000000  1
  O  O56  1  0.42641000  0.42684700  0.49531100  1
  O  O57  1  0.57359000  0.06890000  0.00043700  1
  O  O58  1  0.42641000  0.93110000  0.99956300  1
  O  O59  1  0.57359000  0.57315300  0.50468900  1
  O  O60  1  0.35788700  0.85788700  0.50000000  1
