# generated using pymatgen
data_Na3CoO3
_symmetry_space_group_name_H-M   'P 1'
_cell_length_a   6.00461100
_cell_length_b   6.67813600
_cell_length_c   9.66697447
_cell_angle_alpha   86.33045153
_cell_angle_beta   90.00000000
_cell_angle_gamma   90.00000000
_symmetry_Int_Tables_number   1
_chemical_formula_structural   Na3CoO3
_chemical_formula_sum   'Na12 Co4 O12'
_cell_volume   386.84714235
_cell_formula_units_Z   4
loop_
 _symmetry_equiv_pos_site_id
 _symmetry_equiv_pos_as_xyz
  1  'x, y, z'
loop_
 _atom_site_type_symbol
 _atom_site_label
 _atom_site_symmetry_multiplicity
 _atom_site_fract_x
 _atom_site_fract_y
 _atom_site_fract_z
 _atom_site_occupancy
  Na  Na0  1  0.63962300  0.91981100  0.65112700  1
  Na  Na1  1  0.86037700  0.91981100  0.15112700  1
  Na  Na2  1  0.28143500  0.64723200  0.80891800  1
  Na  Na3  1  0.79670400  0.62981800  0.92047800  1
  Na  Na4  1  0.21856500  0.64723200  0.30891800  1
  Na  Na5  1  0.70329600  0.62981800  0.42047800  1
  Na  Na6  1  0.29670400  0.37018200  0.57952200  1
  Na  Na7  1  0.78143500  0.35276800  0.69108200  1
  Na  Na8  1  0.20329600  0.37018200  0.07952200  1
  Na  Na9  1  0.71856500  0.35276800  0.19108200  1
  Na  Na10  1  0.13962300  0.08018900  0.84887300  1
  Na  Na11  1  0.36037700  0.08018900  0.34887300  1
  Co  Co12  1  0.09787700  0.82436500  0.56443200  1
  Co  Co13  1  0.40212300  0.82436500  0.06443200  1
  Co  Co14  1  0.59787700  0.17563500  0.93556800  1
  Co  Co15  1  0.90212300  0.17563500  0.43556800  1
  O  O16  1  0.53474400  0.90006500  0.88264400  1
  O  O17  1  0.96525600  0.90006500  0.38264400  1
  O  O18  1  0.37763800  0.74233400  0.52652000  1
  O  O19  1  0.12236200  0.74233400  0.02652000  1
  O  O20  1  0.93197400  0.65859500  0.67751300  1
  O  O21  1  0.56802600  0.65859500  0.17751300  1
  O  O22  1  0.43197400  0.34140500  0.82248700  1
  O  O23  1  0.06802600  0.34140500  0.32248700  1
  O  O24  1  0.87763800  0.25766600  0.97348000  1
  O  O25  1  0.62236200  0.25766600  0.47348000  1
  O  O26  1  0.03474400  0.09993500  0.61735600  1
  O  O27  1  0.46525600  0.09993500  0.11735600  1
