# generated using pymatgen
data_Na5Mn2P2(CO7)2
_symmetry_space_group_name_H-M   'P 1'
_cell_length_a   8.49264300
_cell_length_b   8.53612237
_cell_length_c   10.46281032
_cell_angle_alpha   108.31195717
_cell_angle_beta   107.86335217
_cell_angle_gamma   103.00802735
_symmetry_Int_Tables_number   1
_chemical_formula_structural   Na5Mn2P2(CO7)2
_chemical_formula_sum   'Na10 Mn4 P4 C4 O28'
_cell_volume   640.52918925
_cell_formula_units_Z   2
loop_
 _symmetry_equiv_pos_site_id
 _symmetry_equiv_pos_as_xyz
  1  'x, y, z'
loop_
 _atom_site_type_symbol
 _atom_site_label
 _atom_site_symmetry_multiplicity
 _atom_site_fract_x
 _atom_site_fract_y
 _atom_site_fract_z
 _atom_site_occupancy
  Na  Na0  1  0.80224700  0.54975300  0.07990800  1
  Na  Na1  1  0.00538500  0.00970800  0.23796100  1
  Na  Na2  1  0.49132100  0.47941900  0.25282300  1
  Na  Na3  1  0.25196600  0.76056500  0.25465400  1
  Na  Na4  1  0.73376900  0.23172900  0.23611800  1
  Na  Na5  1  0.26623100  0.76827100  0.76388200  1
  Na  Na6  1  0.74803400  0.23943500  0.74534600  1
  Na  Na7  1  0.99461500  0.99029200  0.76203900  1
  Na  Na8  1  0.50867900  0.52058100  0.74717700  1
  Na  Na9  1  0.19775300  0.45024700  0.92009200  1
  Mn  Mn10  1  0.69332900  0.94091600  0.35932800  1
  Mn  Mn11  1  0.19204100  0.44656400  0.35869200  1
  Mn  Mn12  1  0.30667100  0.05908400  0.64067200  1
  Mn  Mn13  1  0.80795900  0.55343600  0.64130800  1
  P  P14  1  0.93431000  0.68906000  0.41959900  1
  P  P15  1  0.43947900  0.18544600  0.42400900  1
  P  P16  1  0.06569000  0.31094000  0.58040100  1
  P  P17  1  0.56052100  0.81455400  0.57599100  1
  C  C18  1  0.51953300  0.76717600  0.07365100  1
  C  C19  1  0.02854800  0.28157500  0.06640100  1
  C  C20  1  0.48046700  0.23282400  0.92634900  1
  C  C21  1  0.97145200  0.71842500  0.93359900  1
  O  O22  1  0.04304500  0.78788300  0.07523000  1
  O  O23  1  0.55034300  0.30465000  0.06679100  1
  O  O24  1  0.17369800  0.42308400  0.13556800  1
  O  O25  1  0.66304300  0.91188400  0.14957400  1
  O  O26  1  0.45696700  0.70150600  0.15191400  1
  O  O27  1  0.96439700  0.22300000  0.14753700  1
  O  O28  1  0.01996400  0.59654000  0.32198900  1
  O  O29  1  0.83021100  0.77679200  0.32861600  1
  O  O30  1  0.52635800  0.07698800  0.33576000  1
  O  O31  1  0.33940400  0.26830900  0.33114500  1
  O  O32  1  0.92592000  0.17149300  0.42666800  1
  O  O33  1  0.29952800  0.05089800  0.44754600  1
  O  O34  1  0.79921600  0.54774300  0.43616900  1
  O  O35  1  0.42127900  0.67560900  0.42361200  1
  O  O36  1  0.07408000  0.82850700  0.57333200  1
  O  O37  1  0.20078400  0.45225700  0.56383100  1
  O  O38  1  0.70047200  0.94910200  0.55245400  1
  O  O39  1  0.57872100  0.32439100  0.57638800  1
  O  O40  1  0.98003600  0.40346000  0.67801100  1
  O  O41  1  0.16978900  0.22320800  0.67138400  1
  O  O42  1  0.47364200  0.92301200  0.66424000  1
  O  O43  1  0.66059600  0.73169100  0.66885500  1
  O  O44  1  0.54303300  0.29849400  0.84808600  1
  O  O45  1  0.03560300  0.77700000  0.85246300  1
  O  O46  1  0.33695700  0.08811600  0.85042600  1
  O  O47  1  0.82630200  0.57691600  0.86443200  1
  O  O48  1  0.44965700  0.69535000  0.93320900  1
  O  O49  1  0.95695500  0.21211700  0.92477000  1
