# generated using pymatgen
data_Na5Mn2As(CO4)4
_symmetry_space_group_name_H-M   'P 1'
_cell_length_a   10.11727810
_cell_length_b   10.07535209
_cell_length_c   10.01672056
_cell_angle_alpha   60.46889187
_cell_angle_beta   60.05242846
_cell_angle_gamma   59.47867967
_symmetry_Int_Tables_number   1
_chemical_formula_structural   Na5Mn2As(CO4)4
_chemical_formula_sum   'Na10 Mn4 As2 C8 O32'
_cell_volume   721.88691673
_cell_formula_units_Z   2
loop_
 _symmetry_equiv_pos_site_id
 _symmetry_equiv_pos_as_xyz
  1  'x, y, z'
loop_
 _atom_site_type_symbol
 _atom_site_label
 _atom_site_symmetry_multiplicity
 _atom_site_fract_x
 _atom_site_fract_y
 _atom_site_fract_z
 _atom_site_occupancy
  Na  Na0  1  0.78915700  0.21084300  0.21084300  1
  Na  Na1  1  0.54063300  0.54063300  0.95936700  1
  Na  Na2  1  0.53697200  0.96302800  0.96302800  1
  Na  Na3  1  0.79199800  0.79199800  0.20800200  1
  Na  Na4  1  0.21175900  0.78824100  0.21175900  1
  Na  Na5  1  0.78824100  0.21175900  0.78824100  1
  Na  Na6  1  0.95936700  0.95936700  0.54063300  1
  Na  Na7  1  0.21084300  0.78915700  0.78915700  1
  Na  Na8  1  0.20800200  0.20800200  0.79199800  1
  Na  Na9  1  0.96302800  0.53697200  0.53697200  1
  Mn  Mn10  1  0.36998700  0.37739600  0.87592000  1
  Mn  Mn11  1  0.37739600  0.36998700  0.37669700  1
  Mn  Mn12  1  0.37669700  0.87592000  0.37739600  1
  Mn  Mn13  1  0.87592000  0.37669700  0.36998700  1
  As  As14  1  0.00000000  0.00000000  0.00000000  1
  As  As15  1  0.75000000  0.75000000  0.75000000  1
  C  C16  1  0.58751800  0.22968000  0.59144800  1
  C  C17  1  0.59135500  0.59144800  0.22968000  1
  C  C18  1  0.22968000  0.58751800  0.59135500  1
  C  C19  1  0.59144800  0.59135500  0.58751800  1
  C  C20  1  0.16014500  0.15333700  0.16386800  1
  C  C21  1  0.52264900  0.16386800  0.15333700  1
  C  C22  1  0.15333700  0.16014500  0.52264900  1
  C  C23  1  0.16386800  0.52264900  0.16014500  1
  O  O24  1  0.51822000  0.28111600  0.01443000  1
  O  O25  1  0.57276900  0.47942300  0.21994300  1
  O  O26  1  0.72786500  0.21994300  0.47942300  1
  O  O27  1  0.28111600  0.51822000  0.18623400  1
  O  O28  1  0.72266200  0.56816000  0.24333500  1
  O  O29  1  0.20970300  0.92684800  0.93363700  1
  O  O30  1  0.92981100  0.93363700  0.92684800  1
  O  O31  1  0.56673600  0.22313900  0.73426400  1
  O  O32  1  0.47586000  0.73426400  0.22313900  1
  O  O33  1  0.22313900  0.56673600  0.47586000  1
  O  O34  1  0.73426400  0.47586000  0.56673600  1
  O  O35  1  0.92684800  0.20970300  0.92981100  1
  O  O36  1  0.93363700  0.92981100  0.20970300  1
  O  O37  1  0.27213800  0.17507100  0.02384900  1
  O  O38  1  0.52894300  0.02384900  0.17507100  1
  O  O39  1  0.56816000  0.72266200  0.46584300  1
  O  O40  1  0.18623400  0.01443000  0.28111600  1
  O  O41  1  0.21994300  0.72786500  0.57276900  1
  O  O42  1  0.47942300  0.57276900  0.72786500  1
  O  O43  1  0.83306200  0.80948700  0.54097700  1
  O  O44  1  0.81647400  0.54097700  0.80948700  1
  O  O45  1  0.01827300  0.26567600  0.18925000  1
  O  O46  1  0.52680100  0.18925000  0.26567600  1
  O  O47  1  0.18925000  0.52680100  0.01827300  1
  O  O48  1  0.26567600  0.01827300  0.52680100  1
  O  O49  1  0.80948700  0.83306200  0.81647400  1
  O  O50  1  0.54097700  0.81647400  0.83306200  1
  O  O51  1  0.01443000  0.18623400  0.51822000  1
  O  O52  1  0.46584300  0.24333500  0.56816000  1
  O  O53  1  0.17507100  0.27213800  0.52894300  1
  O  O54  1  0.02384900  0.52894300  0.27213800  1
  O  O55  1  0.24333500  0.46584300  0.72266200  1
