# generated using pymatgen
data_SmPO4
_symmetry_space_group_name_H-M   'P 1'
_cell_length_a   6.35834707
_cell_length_b   7.07333728
_cell_length_c   7.07333728
_cell_angle_alpha   119.98053729
_cell_angle_beta   90.00756899
_cell_angle_gamma   89.99243101
_symmetry_Int_Tables_number   1
_chemical_formula_structural   SmPO4
_chemical_formula_sum   'Sm3 P3 O12'
_cell_volume   275.55527616
_cell_formula_units_Z   3
loop_
 _symmetry_equiv_pos_site_id
 _symmetry_equiv_pos_as_xyz
  1  'x, y, z'
loop_
 _atom_site_type_symbol
 _atom_site_label
 _atom_site_symmetry_multiplicity
 _atom_site_fract_x
 _atom_site_fract_y
 _atom_site_fract_z
 _atom_site_occupancy
  Sm  Sm0  1  0.66682800  0.40603500  0.90049400  1
  Sm  Sm1  1  0.33317200  0.90049400  0.40603500  1
  Sm  Sm2  1  0.00000000  0.39992500  0.39992500  1
  P  P3  1  0.16701500  0.41045600  0.90342100  1
  P  P4  1  0.83298500  0.90342100  0.41045600  1
  P  P5  1  0.50000000  0.39049100  0.39049100  1
  O  O6  1  0.34922300  0.58422100  0.44781800  1
  O  O7  1  0.65077700  0.44781800  0.58422100  1
  O  O8  1  0.64954000  0.33591800  0.19714700  1
  O  O9  1  0.35046000  0.19714700  0.33591800  1
  O  O10  1  0.01924900  0.35623100  0.04339800  1
  O  O11  1  0.98075100  0.04339800  0.35623100  1
  O  O12  1  0.31461200  0.21603000  0.76174700  1
  O  O13  1  0.68538800  0.76174700  0.21603000  1
  O  O14  1  0.32001600  0.60162600  0.03904600  1
  O  O15  1  0.67998400  0.03904600  0.60162600  1
  O  O16  1  0.01492600  0.46908200  0.76894500  1
  O  O17  1  0.98507400  0.76894500  0.46908200  1
