# generated using pymatgen
data_Na2Co3O4
_symmetry_space_group_name_H-M   'P 1'
_cell_length_a   7.58195436
_cell_length_b   7.58195436
_cell_length_c   5.66491190
_cell_angle_alpha   74.23256174
_cell_angle_beta   74.23256174
_cell_angle_gamma   48.89408486
_symmetry_Int_Tables_number   1
_chemical_formula_structural   Na2Co3O4
_chemical_formula_sum   'Na4 Co6 O8'
_cell_volume   234.19178971
_cell_formula_units_Z   2
loop_
 _symmetry_equiv_pos_site_id
 _symmetry_equiv_pos_as_xyz
  1  'x, y, z'
loop_
 _atom_site_type_symbol
 _atom_site_label
 _atom_site_symmetry_multiplicity
 _atom_site_fract_x
 _atom_site_fract_y
 _atom_site_fract_z
 _atom_site_occupancy
  Na  Na0  1  0.76162800  0.99992900  0.97561600  1
  Na  Na1  1  0.99992900  0.76162800  0.47561600  1
  Na  Na2  1  0.00007100  0.23837200  0.52438400  1
  Na  Na3  1  0.23837200  0.00007100  0.02438400  1
  Co  Co4  1  0.43843200  0.19542900  0.57370500  1
  Co  Co5  1  0.19542900  0.43843200  0.07370500  1
  Co  Co6  1  0.80457100  0.56156800  0.92629500  1
  Co  Co7  1  0.56156800  0.80457100  0.42629500  1
  Co  Co8  1  0.48213700  0.51786300  0.75000000  1
  Co  Co9  1  0.51786300  0.48213700  0.25000000  1
  O  O10  1  0.67215100  0.24496800  0.54421000  1
  O  O11  1  0.24496800  0.67215100  0.04421000  1
  O  O12  1  0.13791300  0.40183100  0.76915200  1
  O  O13  1  0.59816900  0.86208700  0.73084800  1
  O  O14  1  0.40183100  0.13791300  0.26915200  1
  O  O15  1  0.86208700  0.59816900  0.23084800  1
  O  O16  1  0.75503200  0.32784900  0.95579000  1
  O  O17  1  0.32784900  0.75503200  0.45579000  1
