# generated using pymatgen
data_Na2BiO3
_symmetry_space_group_name_H-M   'P 1'
_cell_length_a   11.43821336
_cell_length_b   10.89115864
_cell_length_c   5.98098972
_cell_angle_alpha   79.58262878
_cell_angle_beta   69.46827007
_cell_angle_gamma   30.94910115
_symmetry_Int_Tables_number   1
_chemical_formula_structural   Na2BiO3
_chemical_formula_sum   'Na8 Bi4 O12'
_cell_volume   347.52653380
_cell_formula_units_Z   4
loop_
 _symmetry_equiv_pos_site_id
 _symmetry_equiv_pos_as_xyz
  1  'x, y, z'
loop_
 _atom_site_type_symbol
 _atom_site_label
 _atom_site_symmetry_multiplicity
 _atom_site_fract_x
 _atom_site_fract_y
 _atom_site_fract_z
 _atom_site_occupancy
  Na  Na0  1  0.99659800  0.99659800  0.50340200  1
  Na  Na1  1  0.42102000  0.42102000  0.57898000  1
  Na  Na2  1  0.82898000  0.82898000  0.67102000  1
  Na  Na3  1  0.25340200  0.25340200  0.74659800  1
  Na  Na4  1  0.74659800  0.74659800  0.25340200  1
  Na  Na5  1  0.67102000  0.67102000  0.82898000  1
  Na  Na6  1  0.57898000  0.57898000  0.42102000  1
  Na  Na7  1  0.50340200  0.50340200  0.99659800  1
  Bi  Bi8  1  0.91608900  0.91608900  0.08391100  1
  Bi  Bi9  1  0.33391100  0.33391100  0.16608900  1
  Bi  Bi10  1  0.16608900  0.16608900  0.33391100  1
  Bi  Bi11  1  0.08391100  0.08391100  0.91608900  1
  O  O12  1  0.15225200  0.66666900  0.31132400  1
  O  O13  1  0.66666900  0.15225200  0.86975500  1
  O  O14  1  0.09774800  0.58333100  0.93867600  1
  O  O15  1  0.58333100  0.09774800  0.38024500  1
  O  O16  1  0.02855800  0.47144200  0.47144200  1
  O  O17  1  0.47144200  0.02855800  0.02855800  1
  O  O18  1  0.38024500  0.93867600  0.58333100  1
  O  O19  1  0.93867600  0.38024500  0.09774800  1
  O  O20  1  0.86975500  0.31132400  0.66666900  1
  O  O21  1  0.31132400  0.86975500  0.15225200  1
  O  O22  1  0.22144200  0.77855800  0.77855800  1
  O  O23  1  0.77855800  0.22144200  0.22144200  1
