# generated using pymatgen
data_MnWO4
_symmetry_space_group_name_H-M   'P 1'
_cell_length_a   5.49042409
_cell_length_b   5.49050400
_cell_length_c   6.21765077
_cell_angle_alpha   90.00000550
_cell_angle_beta   63.80475780
_cell_angle_gamma   89.99998403
_symmetry_Int_Tables_number   1
_chemical_formula_structural   MnWO4
_chemical_formula_sum   'Mn2 W2 O8'
_cell_volume   168.18206889
_cell_formula_units_Z   2
loop_
 _symmetry_equiv_pos_site_id
 _symmetry_equiv_pos_as_xyz
  1  'x, y, z'
loop_
 _atom_site_type_symbol
 _atom_site_label
 _atom_site_symmetry_multiplicity
 _atom_site_fract_x
 _atom_site_fract_y
 _atom_site_fract_z
 _atom_site_occupancy
  Mn  Mn0  1  0.49999300  0.49999600  0.00000600  1
  Mn  Mn1  1  0.00000100  0.99999400  0.99999900  1
  W  W2  1  0.50000100  0.25000700  0.49999900  1
  W  W3  1  0.00000100  0.75000600  0.49999900  1
  O  O4  1  0.67244900  0.25000100  0.15510500  1
  O  O5  1  0.17245000  0.74999900  0.15510500  1
  O  O6  1  0.32755200  0.25000100  0.84489400  1
  O  O7  1  0.82755000  0.74999900  0.84489400  1
  O  O8  1  0.76106700  0.00000000  0.47786900  1
  O  O9  1  0.26106800  0.49999900  0.47786900  1
  O  O10  1  0.73893300  0.50000000  0.52213100  1
  O  O11  1  0.23893400  0.99999900  0.52213000  1
