# generated using pymatgen
data_Mn3P6WO24
_symmetry_space_group_name_H-M   'P 1'
_cell_length_a   8.72390484
_cell_length_b   8.72390484
_cell_length_c   8.72390440
_cell_angle_alpha   58.41919507
_cell_angle_beta   58.41919507
_cell_angle_gamma   58.41919794
_symmetry_Int_Tables_number   1
_chemical_formula_structural   Mn3P6WO24
_chemical_formula_sum   'Mn3 P6 W1 O24'
_cell_volume   452.49554219
_cell_formula_units_Z   1
loop_
 _symmetry_equiv_pos_site_id
 _symmetry_equiv_pos_as_xyz
  1  'x, y, z'
loop_
 _atom_site_type_symbol
 _atom_site_label
 _atom_site_symmetry_multiplicity
 _atom_site_fract_x
 _atom_site_fract_y
 _atom_site_fract_z
 _atom_site_occupancy
  Mn  Mn0  1  0.14337700  0.14337700  0.14337700  1
  Mn  Mn1  1  0.35823900  0.35823900  0.35823900  1
  Mn  Mn2  1  0.64470100  0.64470100  0.64470100  1
  P  P3  1  0.74920900  0.03737600  0.45736900  1
  P  P4  1  0.03737600  0.45736900  0.74920900  1
  P  P5  1  0.45736900  0.74920900  0.03737600  1
  P  P6  1  0.52431900  0.26244500  0.96786000  1
  P  P7  1  0.96786000  0.52431900  0.26244500  1
  P  P8  1  0.26244500  0.96786000  0.52431900  1
  W  W9  1  0.85942700  0.85942700  0.85942700  1
  O  O10  1  0.27229700  0.14395200  0.51289900  1
  O  O11  1  0.51289900  0.27229700  0.14395200  1
  O  O12  1  0.92868500  0.05747800  0.28044200  1
  O  O13  1  0.14395200  0.51289900  0.27229700  1
  O  O14  1  0.57216900  0.21974300  0.44508800  1
  O  O15  1  0.77942700  0.00213600  0.63824900  1
  O  O16  1  0.05747800  0.28044200  0.92868500  1
  O  O17  1  0.21974300  0.44508800  0.57216900  1
  O  O18  1  0.44508800  0.57216900  0.21974300  1
  O  O19  1  0.35733300  0.22896400  0.98906000  1
  O  O20  1  0.70996500  0.07886100  0.93824700  1
  O  O21  1  0.98906000  0.35733300  0.22896400  1
  O  O22  1  0.00213600  0.63824900  0.77942700  1
  O  O23  1  0.28044200  0.92868500  0.05747800  1
  O  O24  1  0.63824900  0.77942700  0.00213600  1
  O  O25  1  0.55684300  0.42993000  0.78142200  1
  O  O26  1  0.78142200  0.55684300  0.42993000  1
  O  O27  1  0.93824700  0.70996500  0.07886100  1
  O  O28  1  0.22896400  0.98906000  0.35733300  1
  O  O29  1  0.42993000  0.78142200  0.55684300  1
  O  O30  1  0.85978700  0.48526500  0.72743600  1
  O  O31  1  0.07886100  0.93824700  0.70996500  1
  O  O32  1  0.48526500  0.72743600  0.85978700  1
  O  O33  1  0.72743600  0.85978700  0.48526500  1
