# generated using pymatgen
data_MnCd4O5
_symmetry_space_group_name_H-M   'P 1'
_cell_length_a   6.67784573
_cell_length_b   7.48880427
_cell_length_c   11.10257135
_cell_angle_alpha   78.23648970
_cell_angle_beta   89.99682575
_cell_angle_gamma   77.12028158
_symmetry_Int_Tables_number   1
_chemical_formula_structural   MnCd4O5
_chemical_formula_sum   'Mn4 Cd16 O20'
_cell_volume   529.29242853
_cell_formula_units_Z   4
loop_
 _symmetry_equiv_pos_site_id
 _symmetry_equiv_pos_as_xyz
  1  'x, y, z'
loop_
 _atom_site_type_symbol
 _atom_site_label
 _atom_site_symmetry_multiplicity
 _atom_site_fract_x
 _atom_site_fract_y
 _atom_site_fract_z
 _atom_site_occupancy
  Mn  Mn0  1  0.09997800  0.60008400  0.59952700  1
  Mn  Mn1  1  0.00002100  0.99989200  0.00043700  1
  Mn  Mn2  1  0.59998200  0.60004100  0.59958900  1
  Mn  Mn3  1  0.49999200  0.99996800  0.00041100  1
  Cd  Cd4  1  0.79999500  0.79999500  0.80000500  1
  Cd  Cd5  1  0.30000200  0.79999500  0.80000400  1
  Cd  Cd6  1  0.05000000  0.79999900  0.30000500  1
  Cd  Cd7  1  0.55000000  0.79999900  0.30000500  1
  Cd  Cd8  1  0.14918100  0.40330900  0.89607300  1
  Cd  Cd9  1  0.64917800  0.40330900  0.89607800  1
  Cd  Cd10  1  0.95079900  0.19670300  0.70393600  1
  Cd  Cd11  1  0.45080300  0.19670300  0.70393100  1
  Cd  Cd12  1  0.85005800  0.59974900  0.09866200  1
  Cd  Cd13  1  0.35006300  0.59974700  0.09866200  1
  Cd  Cd14  1  0.24993600  0.00025900  0.50134500  1
  Cd  Cd15  1  0.74993100  0.00026200  0.50134500  1
  Cd  Cd16  1  0.90002100  0.39991500  0.40283900  1
  Cd  Cd17  1  0.40002300  0.39991500  0.40283900  1
  Cd  Cd18  1  0.19998700  0.20007700  0.19716400  1
  Cd  Cd19  1  0.69998600  0.20007700  0.19716400  1
  O  O20  1  0.02711500  0.89157400  0.64866000  1
  O  O21  1  0.52712100  0.89157100  0.64866400  1
  O  O22  1  0.07289700  0.70841600  0.95134400  1
  O  O23  1  0.57289200  0.70841700  0.95134000  1
  O  O24  1  0.87331200  0.50677500  0.73977900  1
  O  O25  1  0.37331700  0.50677000  0.73978300  1
  O  O26  1  0.22669600  0.09323700  0.86023800  1
  O  O27  1  0.72669500  0.09324100  0.86023300  1
  O  O28  1  0.77346000  0.90622500  0.14057500  1
  O  O29  1  0.27345200  0.90622400  0.14057500  1
  O  O30  1  0.82655700  0.69376200  0.45941200  1
  O  O31  1  0.32655000  0.69376000  0.45941300  1
  O  O32  1  0.12473600  0.50118300  0.25031500  1
  O  O33  1  0.62473000  0.50118400  0.25031400  1
  O  O34  1  0.97528200  0.09881600  0.34968700  1
  O  O35  1  0.47528700  0.09881400  0.34968800  1
  O  O36  1  0.17323200  0.30701700  0.55527300  1
  O  O37  1  0.67322800  0.30701900  0.55527500  1
  O  O38  1  0.92675100  0.29299800  0.04470500  1
  O  O39  1  0.42675400  0.29299700  0.04470400  1
