# generated using pymatgen
data_MnFeCo(PO4)3
_symmetry_space_group_name_H-M   'P 1'
_cell_length_a   5.97244200
_cell_length_b   9.90311900
_cell_length_c   14.54577313
_cell_angle_alpha   89.67980896
_cell_angle_beta   90.00000000
_cell_angle_gamma   90.00000000
_symmetry_Int_Tables_number   1
_chemical_formula_structural   MnFeCo(PO4)3
_chemical_formula_sum   'Mn4 Fe4 Co4 P12 O48'
_cell_volume   860.30801056
_cell_formula_units_Z   4
loop_
 _symmetry_equiv_pos_site_id
 _symmetry_equiv_pos_as_xyz
  1  'x, y, z'
loop_
 _atom_site_type_symbol
 _atom_site_label
 _atom_site_symmetry_multiplicity
 _atom_site_fract_x
 _atom_site_fract_y
 _atom_site_fract_z
 _atom_site_occupancy
  Mn  Mn0  1  0.00000000  0.21572600  0.14657100  1
  Mn  Mn1  1  0.00000000  0.21602800  0.81283400  1
  Mn  Mn2  1  0.50000000  0.28664700  0.31109400  1
  Mn  Mn3  1  0.50000000  0.28657000  0.97843800  1
  Fe  Fe4  1  0.00000000  0.21984300  0.48710300  1
  Fe  Fe5  1  0.50000000  0.27439700  0.65323000  1
  Fe  Fe6  1  0.00000000  0.72827800  0.01033500  1
  Fe  Fe7  1  0.00000000  0.72297600  0.34787900  1
  Co  Co8  1  0.00000000  0.72162100  0.68200100  1
  Co  Co9  1  0.50000000  0.77752900  0.51171700  1
  Co  Co10  1  0.50000000  0.78174400  0.18436200  1
  Co  Co11  1  0.50000000  0.77143100  0.84254100  1
  P  P12  1  0.50000000  0.10012700  0.13876500  1
  P  P13  1  0.50000000  0.09845900  0.47204800  1
  P  P14  1  0.50000000  0.09599500  0.80687200  1
  P  P15  1  0.00000000  0.40147000  0.30519600  1
  P  P16  1  0.00000000  0.40102800  0.63852200  1
  P  P17  1  0.00000000  0.40106100  0.97147100  1
  P  P18  1  0.50000000  0.60372700  0.03009900  1
  P  P19  1  0.50000000  0.59839600  0.36177200  1
  P  P20  1  0.50000000  0.59861500  0.69194500  1
  P  P21  1  0.00000000  0.90290400  0.19419000  1
  P  P22  1  0.00000000  0.90212700  0.86015600  1
  P  P23  1  0.00000000  0.89924200  0.53173500  1
  O  O24  1  0.00000000  0.05354000  0.21927200  1
  O  O25  1  0.00000000  0.05441600  0.88379600  1
  O  O26  1  0.00000000  0.05004900  0.55395600  1
  O  O27  1  0.50000000  0.12095400  0.24351200  1
  O  O28  1  0.50000000  0.12032200  0.91062400  1
  O  O29  1  0.50000000  0.11780100  0.57651400  1
  O  O30  1  0.70143900  0.17150100  0.08999000  1
  O  O31  1  0.29856100  0.17150100  0.08999000  1
  O  O32  1  0.29531300  0.16772300  0.42513800  1
  O  O33  1  0.70468700  0.16772300  0.42513800  1
  O  O34  1  0.30149900  0.16893500  0.75570900  1
  O  O35  1  0.69850100  0.16893500  0.75570900  1
  O  O36  1  0.79892600  0.32600700  0.59135400  1
  O  O37  1  0.20107400  0.32600700  0.59135400  1
  O  O38  1  0.79892600  0.32927200  0.25638700  1
  O  O39  1  0.20107400  0.32927200  0.25638700  1
  O  O40  1  0.79906700  0.32849300  0.92276500  1
  O  O41  1  0.20093300  0.32849300  0.92276500  1
  O  O42  1  0.00000000  0.37843300  0.40912600  1
  O  O43  1  0.00000000  0.37906100  0.07626900  1
  O  O44  1  0.00000000  0.37977300  0.74383400  1
  O  O45  1  0.50000000  0.44838500  0.71674600  1
  O  O46  1  0.50000000  0.45052500  0.04790400  1
  O  O47  1  0.50000000  0.44647600  0.38474900  1
  O  O48  1  0.00000000  0.55165500  0.61646900  1
  O  O49  1  0.00000000  0.55327700  0.28352800  1
  O  O50  1  0.00000000  0.55250400  0.95139300  1
  O  O51  1  0.50000000  0.62787900  0.92443800  1
  O  O52  1  0.50000000  0.61859400  0.25692100  1
  O  O53  1  0.50000000  0.61878000  0.58762100  1
  O  O54  1  0.29725000  0.67416500  0.07750400  1
  O  O55  1  0.70275000  0.67416500  0.07750400  1
  O  O56  1  0.29796100  0.67333100  0.74091800  1
  O  O57  1  0.70203900  0.67333100  0.74091800  1
  O  O58  1  0.29831600  0.67107700  0.41045700  1
  O  O59  1  0.70168400  0.67107700  0.41045700  1
  O  O60  1  0.79901600  0.82811100  0.24351200  1
  O  O61  1  0.20098400  0.82811100  0.24351200  1
  O  O62  1  0.79874400  0.82553900  0.58020000  1
  O  O63  1  0.20125600  0.82553900  0.58020000  1
  O  O64  1  0.80014600  0.82977000  0.91053800  1
  O  O65  1  0.19985400  0.82977000  0.91053800  1
  O  O66  1  0.00000000  0.88471900  0.75596100  1
  O  O67  1  0.00000000  0.87869600  0.42728500  1
  O  O68  1  0.00000000  0.88419900  0.09062900  1
  O  O69  1  0.50000000  0.94785900  0.11843300  1
  O  O70  1  0.50000000  0.94403100  0.78742000  1
  O  O71  1  0.50000000  0.94402200  0.45228000  1
