# generated using pymatgen
data_Mn3NiSn2(PO4)6
_symmetry_space_group_name_H-M   'P 1'
_cell_length_a   8.57090060
_cell_length_b   8.57090060
_cell_length_c   8.57090084
_cell_angle_alpha   61.50476187
_cell_angle_beta   61.50476187
_cell_angle_gamma   61.50475711
_symmetry_Int_Tables_number   1
_chemical_formula_structural   Mn3NiSn2(PO4)6
_chemical_formula_sum   'Mn3 Ni1 Sn2 P6 O24'
_cell_volume   460.24725397
_cell_formula_units_Z   1
loop_
 _symmetry_equiv_pos_site_id
 _symmetry_equiv_pos_as_xyz
  1  'x, y, z'
loop_
 _atom_site_type_symbol
 _atom_site_label
 _atom_site_symmetry_multiplicity
 _atom_site_fract_x
 _atom_site_fract_y
 _atom_site_fract_z
 _atom_site_occupancy
  Mn  Mn0  1  0.14949200  0.14949200  0.14949200  1
  Mn  Mn1  1  0.34920900  0.34920900  0.34920900  1
  Mn  Mn2  1  0.65063700  0.65063700  0.65063700  1
  Ni  Ni3  1  0.85233200  0.85233200  0.85233200  1
  Sn  Sn4  1  0.99888000  0.99888000  0.99888000  1
  Sn  Sn5  1  0.49937500  0.49937500  0.49937500  1
  P  P6  1  0.45312500  0.75197000  0.04833900  1
  P  P7  1  0.55150400  0.24931300  0.94873400  1
  P  P8  1  0.94873400  0.55150400  0.24931300  1
  P  P9  1  0.24931300  0.94873400  0.55150400  1
  P  P10  1  0.75197000  0.04833900  0.45312500  1
  P  P11  1  0.04833900  0.45312500  0.75197000  1
  O  O12  1  0.32359500  0.09557000  0.51418900  1
  O  O13  1  0.51418900  0.32359500  0.09557000  1
  O  O14  1  0.90441400  0.06716000  0.24757600  1
  O  O15  1  0.09557000  0.51418900  0.32359500  1
  O  O16  1  0.82375400  0.00826600  0.60116000  1
  O  O17  1  0.59793800  0.25192500  0.43328000  1
  O  O18  1  0.06716000  0.24757600  0.90441400  1
  O  O19  1  0.25192500  0.43328000  0.59793800  1
  O  O20  1  0.39983400  0.18057500  0.98564300  1
  O  O21  1  0.43328000  0.59793800  0.25192500  1
  O  O22  1  0.75306600  0.09571200  0.93047100  1
  O  O23  1  0.98564300  0.39983400  0.18057500  1
  O  O24  1  0.00826600  0.60116000  0.82375400  1
  O  O25  1  0.24757600  0.90441400  0.06716000  1
  O  O26  1  0.56910100  0.40316400  0.74559700  1
  O  O27  1  0.60116000  0.82375400  0.00826600  1
  O  O28  1  0.74559700  0.56910100  0.40316400  1
  O  O29  1  0.93047100  0.75306600  0.09571200  1
  O  O30  1  0.40316400  0.74559700  0.56910100  1
  O  O31  1  0.18057500  0.98564300  0.39983400  1
  O  O32  1  0.90116200  0.48450600  0.67943000  1
  O  O33  1  0.09571200  0.93047100  0.75306600  1
  O  O34  1  0.48450600  0.67943000  0.90116200  1
  O  O35  1  0.67943000  0.90116200  0.48450600  1
