# generated using pymatgen
data_CoCu2SiS4
_symmetry_space_group_name_H-M   'P 1'
_cell_length_a   6.39952932
_cell_length_b   6.39952932
_cell_length_c   6.39952932
_cell_angle_alpha   132.04119911
_cell_angle_beta   132.04119911
_cell_angle_gamma   70.16396516
_symmetry_Int_Tables_number   1
_chemical_formula_structural   CoCu2SiS4
_chemical_formula_sum   'Co1 Cu2 Si1 S4'
_cell_volume   141.69603133
_cell_formula_units_Z   1
loop_
 _symmetry_equiv_pos_site_id
 _symmetry_equiv_pos_as_xyz
  1  'x, y, z'
loop_
 _atom_site_type_symbol
 _atom_site_label
 _atom_site_symmetry_multiplicity
 _atom_site_fract_x
 _atom_site_fract_y
 _atom_site_fract_z
 _atom_site_occupancy
  Co  Co0  1  0.00000000  0.00000000  0.00000000  1
  Cu  Cu1  1  0.25000000  0.75000000  0.50000000  1
  Cu  Cu2  1  0.75000000  0.25000000  0.50000000  1
  Si  Si3  1  0.50000000  0.50000000  0.00000000  1
  S  S4  1  0.62073000  0.13881800  0.00000000  1
  S  S5  1  0.13881800  0.62073000  0.00000000  1
  S  S6  1  0.86118200  0.86118200  0.48191200  1
  S  S7  1  0.37927000  0.37927000  0.51808800  1
