# generated using pymatgen
data_BaFe2(PO4)2
_symmetry_space_group_name_H-M   'P 1'
_cell_length_a   4.92573283
_cell_length_b   4.92327515
_cell_length_c   8.57577155
_cell_angle_alpha   72.11535666
_cell_angle_beta   73.78975962
_cell_angle_gamma   58.69244537
_symmetry_Int_Tables_number   1
_chemical_formula_structural   BaFe2(PO4)2
_chemical_formula_sum   'Ba1 Fe2 P2 O8'
_cell_volume   167.26135385
_cell_formula_units_Z   1
loop_
 _symmetry_equiv_pos_site_id
 _symmetry_equiv_pos_as_xyz
  1  'x, y, z'
loop_
 _atom_site_type_symbol
 _atom_site_label
 _atom_site_symmetry_multiplicity
 _atom_site_fract_x
 _atom_site_fract_y
 _atom_site_fract_z
 _atom_site_occupancy
  Ba  Ba0  1  0.00006700  0.99991300  0.00008200  1
  Fe  Fe1  1  0.18049000  0.18240100  0.49336800  1
  Fe  Fe2  1  0.81930300  0.81759400  0.50662000  1
  P  P3  1  0.57867700  0.57238900  0.27668100  1
  P  P4  1  0.42130000  0.42763000  0.72339100  1
  O  O5  1  0.64523300  0.63156700  0.08717100  1
  O  O6  1  0.35512300  0.36867100  0.91277400  1
  O  O7  1  0.56425600  0.85087800  0.33623500  1
  O  O8  1  0.85202400  0.23920300  0.35096800  1
  O  O9  1  0.24959600  0.56756000  0.33571100  1
  O  O10  1  0.43575200  0.14882000  0.66401600  1
  O  O11  1  0.14785300  0.76069000  0.64903700  1
  O  O12  1  0.75032600  0.43268500  0.66394600  1
