# generated using pymatgen
data_Li6MnV3(PO4)6
_symmetry_space_group_name_H-M   'P 1'
_cell_length_a   8.70234238
_cell_length_b   8.76605049
_cell_length_c   15.05239168
_cell_angle_alpha   106.16484737
_cell_angle_beta   89.97250545
_cell_angle_gamma   61.17179102
_symmetry_Int_Tables_number   1
_chemical_formula_structural   Li6MnV3(PO4)6
_chemical_formula_sum   'Li12 Mn2 V6 P12 O48'
_cell_volume   953.73211733
_cell_formula_units_Z   2
loop_
 _symmetry_equiv_pos_site_id
 _symmetry_equiv_pos_as_xyz
  1  'x, y, z'
loop_
 _atom_site_type_symbol
 _atom_site_label
 _atom_site_symmetry_multiplicity
 _atom_site_fract_x
 _atom_site_fract_y
 _atom_site_fract_z
 _atom_site_occupancy
  Li  Li0  1  0.29769700  0.75585800  0.32218000  1
  Li  Li1  1  0.18692000  0.70937700  0.55207700  1
  Li  Li2  1  0.68362700  0.71984100  0.04987000  1
  Li  Li3  1  0.16635300  0.25491200  0.18887800  1
  Li  Li4  1  0.20873200  0.67998600  0.82957500  1
  Li  Li5  1  0.71195700  0.68056900  0.33000800  1
  Li  Li6  1  0.26610500  0.21333300  0.63198600  1
  Li  Li7  1  0.76571900  0.21499000  0.13127500  1
  Li  Li8  1  0.81078000  0.74534300  0.81782100  1
  Li  Li9  1  0.67981000  0.24470600  0.68506300  1
  Li  Li10  1  0.36073500  0.18058700  0.97915300  1
  Li  Li11  1  0.86109200  0.17932800  0.48042500  1
  Mn  Mn12  1  0.03254800  0.35340100  0.82065400  1
  Mn  Mn13  1  0.78620400  0.85254000  0.57321600  1
  V  V14  1  0.28565600  0.85846400  0.07353500  1
  V  V15  1  0.47212600  0.63934800  0.68040500  1
  V  V16  1  0.53307000  0.35809300  0.32040000  1
  V  V17  1  0.21843900  0.14024000  0.42459400  1
  V  V18  1  0.97297200  0.64128800  0.17899400  1
  V  V19  1  0.71547700  0.14023900  0.92295000  1
  P  P20  1  0.01160300  0.95126900  0.73404700  1
  P  P21  1  0.51688900  0.95671900  0.23617100  1
  P  P22  1  0.02204000  0.25357400  0.02154600  1
  P  P23  1  0.09884100  0.53855000  0.37533100  1
  P  P24  1  0.40372200  0.45723000  0.12389600  1
  P  P25  1  0.47944900  0.75217400  0.47771000  1
  P  P26  1  0.52054100  0.25725800  0.52390300  1
  P  P27  1  0.59856000  0.53920700  0.87557200  1
  P  P28  1  0.90485200  0.44983500  0.62738700  1
  P  P29  1  0.97354900  0.75821300  0.97799000  1
  P  P30  1  0.48662500  0.03671700  0.76198200  1
  P  P31  1  0.98721800  0.03961800  0.26314400  1
  O  O32  1  0.02176500  0.84236100  0.23995600  1
  O  O33  1  0.46384900  0.91892800  0.13682800  1
  O  O34  1  0.40062000  0.94550500  0.30986900  1
  O  O35  1  0.00764500  0.68160200  0.47324100  1
  O  O36  1  0.30089500  0.91463500  0.46980900  1
  O  O37  1  0.35538700  0.64853200  0.12286700  1
  O  O38  1  0.23524000  0.44571600  0.14515000  1
  O  O39  1  0.26587400  0.55147100  0.35268400  1
  O  O40  1  0.20313500  0.79226600  0.72594900  1
  O  O41  1  0.70727700  0.79617100  0.22895300  1
  O  O42  1  0.20507400  0.10029900  0.03432400  1
  O  O43  1  0.15162800  0.34135900  0.37021300  1
  O  O44  1  0.10705800  0.05033100  0.19074900  1
  O  O45  1  0.01446300  0.28955900  0.53604500  1
  O  O46  1  0.11787100  0.81295800  0.99653900  1
  O  O47  1  0.43247100  0.69254200  0.55602100  1
  O  O48  1  0.50848000  0.29842100  0.03156800  1
  O  O49  1  0.02733600  0.41069200  0.70474900  1
  O  O50  1  0.04606400  0.60816100  0.87994500  1
  O  O51  1  0.62801300  0.80248000  0.49354800  1
  O  O52  1  0.92873300  0.69340400  0.05504500  1
  O  O53  1  0.03254500  0.08523400  0.36391900  1
  O  O54  1  0.52692500  0.41625600  0.19942200  1
  O  O55  1  0.55207000  0.59867000  0.37971600  1
  O  O56  1  0.52165100  0.83959000  0.73888700  1
  O  O57  1  0.49658000  0.14710600  0.26190900  1
  O  O58  1  0.43690900  0.42160400  0.61684700  1
  O  O59  1  0.94431900  0.41596400  0.11487700  1
  O  O60  1  0.95795000  0.91063100  0.63403900  1
  O  O61  1  0.46803300  0.58844200  0.80384000  1
  O  O62  1  0.07306200  0.30356500  0.93921000  1
  O  O63  1  0.38291600  0.19218800  0.50789400  1
  O  O64  1  0.97171400  0.58276900  0.30182800  1
  O  O65  1  0.56459700  0.31247700  0.44235900  1
  O  O66  1  0.88162500  0.19361800  0.00555100  1
  O  O67  1  0.89697800  0.93992600  0.80838500  1
  O  O68  1  0.50742100  0.68251700  0.97321200  1
  O  O69  1  0.79256100  0.92213600  0.97308500  1
  O  O70  1  0.86199900  0.63891100  0.62689200  1
  O  O71  1  0.29499600  0.17967200  0.75828300  1
  O  O72  1  0.79653700  0.18321500  0.25952100  1
  O  O73  1  0.73609900  0.43882800  0.64729100  1
  O  O74  1  0.76672200  0.55074000  0.85301200  1
  O  O75  1  0.70373500  0.10821900  0.53657400  1
  O  O76  1  0.65083000  0.34178600  0.86902600  1
  O  O77  1  0.60516400  0.04764800  0.68881000  1
  O  O78  1  0.53063300  0.08495000  0.86271000  1
  O  O79  1  0.98964500  0.14096900  0.75611100  1
