# generated using pymatgen
data_Er2Sn5
_symmetry_space_group_name_H-M   'P 1'
_cell_length_a   4.38761900
_cell_length_b   4.42273000
_cell_length_c   19.11049100
_cell_angle_alpha   90.00000000
_cell_angle_beta   90.00000000
_cell_angle_gamma   90.00000000
_symmetry_Int_Tables_number   1
_chemical_formula_structural   Er2Sn5
_chemical_formula_sum   'Er4 Sn10'
_cell_volume   370.84393536
_cell_formula_units_Z   2
loop_
 _symmetry_equiv_pos_site_id
 _symmetry_equiv_pos_as_xyz
  1  'x, y, z'
loop_
 _atom_site_type_symbol
 _atom_site_label
 _atom_site_symmetry_multiplicity
 _atom_site_fract_x
 _atom_site_fract_y
 _atom_site_fract_z
 _atom_site_occupancy
  Er  Er0  1  0.50000000  0.00000000  0.20044700  1
  Er  Er1  1  0.00000000  0.50000000  0.79955300  1
  Er  Er2  1  0.50000000  0.50000000  0.62889700  1
  Er  Er3  1  0.00000000  0.00000000  0.37110300  1
  Sn  Sn4  1  0.50000000  0.50000000  0.92314200  1
  Sn  Sn5  1  0.00000000  0.00000000  0.07685800  1
  Sn  Sn6  1  0.50000000  0.50000000  0.07674500  1
  Sn  Sn7  1  0.00000000  0.00000000  0.92325500  1
  Sn  Sn8  1  0.50000000  0.00000000  0.76740500  1
  Sn  Sn9  1  0.00000000  0.50000000  0.23259500  1
  Sn  Sn10  1  0.50000000  0.50000000  0.34089700  1
  Sn  Sn11  1  0.00000000  0.00000000  0.65910300  1
  Sn  Sn12  1  0.50000000  0.00000000  0.50053100  1
  Sn  Sn13  1  0.00000000  0.50000000  0.49946900  1
