# generated using pymatgen
data_Li6MnV3(PO4)6
_symmetry_space_group_name_H-M   'P 1'
_cell_length_a   9.07256276
_cell_length_b   8.47599437
_cell_length_c   14.66261172
_cell_angle_alpha   90.43285371
_cell_angle_beta   74.42473293
_cell_angle_gamma   61.81878464
_symmetry_Int_Tables_number   1
_chemical_formula_structural   Li6MnV3(PO4)6
_chemical_formula_sum   'Li12 Mn2 V6 P12 O48'
_cell_volume   945.32071304
_cell_formula_units_Z   2
loop_
 _symmetry_equiv_pos_site_id
 _symmetry_equiv_pos_as_xyz
  1  'x, y, z'
loop_
 _atom_site_type_symbol
 _atom_site_label
 _atom_site_symmetry_multiplicity
 _atom_site_fract_x
 _atom_site_fract_y
 _atom_site_fract_z
 _atom_site_occupancy
  Li  Li0  1  0.15124700  0.25343900  0.33133000  1
  Li  Li1  1  0.14943200  0.79578200  0.13173200  1
  Li  Li2  1  0.15026700  0.29558300  0.63210500  1
  Li  Li3  1  0.15049300  0.72622700  0.46064200  1
  Li  Li4  1  0.15018700  0.22603700  0.96172500  1
  Li  Li5  1  0.14918800  0.75458500  0.83211000  1
  Li  Li6  1  0.84989100  0.24455300  0.16794500  1
  Li  Li7  1  0.84928300  0.77555200  0.03908800  1
  Li  Li8  1  0.85245000  0.27233600  0.53909000  1
  Li  Li9  1  0.84890400  0.70468400  0.36865900  1
  Li  Li10  1  0.84909700  0.20387400  0.86827100  1
  Li  Li11  1  0.84935900  0.74788600  0.66867400  1
  Mn  Mn12  1  0.56085900  0.22132800  0.07148600  1
  Mn  Mn13  1  0.95682400  0.02175400  0.67360700  1
  V  V14  1  0.04624300  0.97653100  0.32595000  1
  V  V15  1  0.04498800  0.47762000  0.82602900  1
  V  V16  1  0.43839700  0.28038000  0.42691100  1
  V  V17  1  0.56263400  0.71952700  0.57305600  1
  V  V18  1  0.43672400  0.78147600  0.92798000  1
  V  V19  1  0.95336100  0.52318200  0.17402300  1
  P  P20  1  0.25004700  0.08286900  0.12574600  1
  P  P21  1  0.25246900  0.02128100  0.47849700  1
  P  P22  1  0.25189300  0.51855000  0.26828800  1
  P  P23  1  0.25060100  0.02050000  0.77061600  1
  P  P24  1  0.25098500  0.58410400  0.62528400  1
  P  P25  1  0.24955500  0.52086800  0.97886900  1
  P  P26  1  0.75090900  0.48104400  0.02091100  1
  P  P27  1  0.74908000  0.41546500  0.37470400  1
  P  P28  1  0.75107000  0.97829800  0.22955700  1
  P  P29  1  0.74972000  0.47966300  0.72983800  1
  P  P30  1  0.74994600  0.98028100  0.52012200  1
  P  P31  1  0.74583000  0.91483800  0.87687400  1
  O  O32  1  0.09727800  0.25960400  0.10495500  1
  O  O33  1  0.18908800  0.06699800  0.23356100  1
  O  O34  1  0.09711800  0.61597700  0.07753500  1
  O  O35  1  0.09897800  0.12412200  0.57432600  1
  O  O36  1  0.10004700  0.47620300  0.26746300  1
  O  O37  1  0.41876100  0.08892600  0.10060400  1
  O  O38  1  0.27359400  0.17431000  0.42842300  1
  O  O39  1  0.19428300  0.71729000  0.25220600  1
  O  O40  1  0.19339600  0.21913100  0.75374900  1
  O  O41  1  0.26924000  0.49627000  0.37038300  1
  O  O42  1  0.42480300  0.38770200  0.19186400  1
  O  O43  1  0.09513900  0.75811800  0.60457800  1
  O  O44  1  0.26365100  0.92521700  0.06219300  1
  O  O45  1  0.26844700  0.42480500  0.56153400  1
  O  O46  1  0.58188700  0.10886900  0.30598700  1
  O  O47  1  0.19240600  0.56655800  0.73271800  1
  O  O48  1  0.19485600  0.92440400  0.41608800  1
  O  O49  1  0.19128400  0.42563700  0.91629700  1
  O  O50  1  0.73654700  0.99881400  0.12741300  1
  O  O51  1  0.58093300  0.61441100  0.00334600  1
  O  O52  1  0.57941500  0.11381000  0.50219300  1
  O  O53  1  0.09725900  0.97902200  0.77203200  1
  O  O54  1  0.73939900  0.32389700  0.06849000  1
  O  O55  1  0.58000500  0.40584600  0.40081600  1
  O  O56  1  0.41781400  0.59511500  0.59932100  1
  O  O57  1  0.26476300  0.67838300  0.93166100  1
  O  O58  1  0.90252100  0.02089900  0.23215500  1
  O  O59  1  0.42028100  0.88457600  0.49707700  1
  O  O60  1  0.42021500  0.38568300  0.99438600  1
  O  O61  1  0.26963800  0.99712000  0.87244800  1
  O  O62  1  0.80780500  0.57902300  0.08288900  1
  O  O63  1  0.80419200  0.07891300  0.58242500  1
  O  O64  1  0.80659300  0.43304000  0.26724400  1
  O  O65  1  0.42017100  0.89238900  0.69357000  1
  O  O66  1  0.73245300  0.57386100  0.43795800  1
  O  O67  1  0.72800400  0.07583500  0.94122100  1
  O  O68  1  0.90180900  0.24012800  0.39563500  1
  O  O69  1  0.57869700  0.61048500  0.80667800  1
  O  O70  1  0.73204300  0.50453000  0.62804100  1
  O  O71  1  0.80801600  0.77953200  0.24728700  1
  O  O72  1  0.80460500  0.28184300  0.74713900  1
  O  O73  1  0.73398600  0.82369900  0.56730400  1
  O  O74  1  0.57655000  0.90581100  0.90493100  1
  O  O75  1  0.90186300  0.52191400  0.73097000  1
  O  O76  1  0.90378500  0.88321700  0.42162300  1
  O  O77  1  0.90307000  0.38586400  0.92150600  1
  O  O78  1  0.80093400  0.93169700  0.77073400  1
  O  O79  1  0.90044300  0.74041400  0.89731900  1
