# generated using pymatgen
data_Li3V2P4(HO8)2
_symmetry_space_group_name_H-M   'P 1'
_cell_length_a   9.45768122
_cell_length_b   9.39833587
_cell_length_c   7.90360836
_cell_angle_alpha   78.64358395
_cell_angle_beta   78.66118834
_cell_angle_gamma   117.71818504
_symmetry_Int_Tables_number   1
_chemical_formula_structural   Li3V2P4(HO8)2
_chemical_formula_sum   'Li6 V4 P8 H4 O32'
_cell_volume   575.13337414
_cell_formula_units_Z   2
loop_
 _symmetry_equiv_pos_site_id
 _symmetry_equiv_pos_as_xyz
  1  'x, y, z'
loop_
 _atom_site_type_symbol
 _atom_site_label
 _atom_site_symmetry_multiplicity
 _atom_site_fract_x
 _atom_site_fract_y
 _atom_site_fract_z
 _atom_site_occupancy
  Li  Li0  1  0.45908100  0.09490100  0.34114500  1
  Li  Li1  1  0.04547700  0.41167600  0.65495400  1
  Li  Li2  1  0.33684200  0.20714000  0.84856500  1
  Li  Li3  1  0.65700500  0.78827900  0.15516100  1
  Li  Li4  1  0.95887900  0.59639800  0.34368700  1
  Li  Li5  1  0.55015400  0.91364400  0.65654600  1
  V  V6  1  0.24736200  0.25019500  0.48915700  1
  V  V7  1  0.50008700  0.99948600  0.00185900  1
  V  V8  1  0.99631300  0.49573600  0.00444600  1
  V  V9  1  0.75178200  0.75064600  0.50258900  1
  P  P10  1  0.25752500  0.60476000  0.26840100  1
  P  P11  1  0.75584800  0.10753100  0.26784300  1
  P  P12  1  0.64253600  0.49291600  0.22725100  1
  P  P13  1  0.14539100  0.99345800  0.23059400  1
  P  P14  1  0.35363500  0.50905300  0.76466800  1
  P  P15  1  0.85781400  0.00923000  0.76134600  1
  P  P16  1  0.73887300  0.39521400  0.73932800  1
  P  P17  1  0.23804100  0.89139700  0.73897300  1
  H  H18  1  0.75745800  0.26689400  0.51493100  1
  H  H19  1  0.25378600  0.76592600  0.51169400  1
  H  H20  1  0.48591400  0.49391300  0.98792500  1
  H  H21  1  0.98299100  0.99503100  0.98662100  1
  O  O22  1  0.12675800  0.06490800  0.05224800  1
  O  O23  1  0.16392000  0.11355100  0.35457700  1
  O  O24  1  0.01760200  0.18979200  0.64867900  1
  O  O25  1  0.23168100  0.05483200  0.68863600  1
  O  O26  1  0.63041300  0.08958700  0.16263500  1
  O  O27  1  0.13279900  0.58684700  0.15939700  1
  O  O28  1  0.26954800  0.44407000  0.31882300  1
  O  O29  1  0.48599000  0.31211900  0.35477600  1
  O  O30  1  0.68715400  0.12840000  0.44833000  1
  O  O31  1  0.18201900  0.62576200  0.44650600  1
  O  O32  1  0.33149800  0.38225400  0.65362600  1
  O  O33  1  0.18731400  0.51076400  0.81438400  1
  O  O34  1  0.69521100  0.01469500  0.80886800  1
  O  O35  1  0.61540800  0.56061400  0.05364300  1
  O  O36  1  0.92940200  0.27327900  0.14325700  1
  O  O37  1  0.43586800  0.76067200  0.14997000  1
  O  O38  1  0.56209700  0.23644400  0.84967900  1
  O  O39  1  0.06740200  0.72698500  0.85640000  1
  O  O40  1  0.37768700  0.43121300  0.94048700  1
  O  O41  1  0.80687600  0.48341700  0.18680800  1
  O  O42  1  0.31156300  0.99360100  0.19267400  1
  O  O43  1  0.66515900  0.61692700  0.33774800  1
  O  O44  1  0.81931400  0.37498400  0.55561200  1
  O  O45  1  0.31297700  0.87523500  0.55155000  1
  O  O46  1  0.50635500  0.68791200  0.64944100  1
  O  O47  1  0.73182100  0.55460500  0.68371000  1
  O  O48  1  0.86592700  0.40942400  0.84237500  1
  O  O49  1  0.36898700  0.91440000  0.83584700  1
  O  O50  1  0.76835100  0.94784900  0.30627200  1
  O  O51  1  0.99153000  0.81608600  0.34984500  1
  O  O52  1  0.84482400  0.89177800  0.64975200  1
  O  O53  1  0.87333900  0.94081200  0.95022300  1
