# generated using pymatgen
data_Li3P5(WO6)4
_symmetry_space_group_name_H-M   'P 1'
_cell_length_a   8.57309300
_cell_length_b   9.58762803
_cell_length_c   14.23397300
_cell_angle_alpha   92.86851477
_cell_angle_beta   107.52662470
_cell_angle_gamma   63.44277648
_symmetry_Int_Tables_number   1
_chemical_formula_structural   Li3P5(WO6)4
_chemical_formula_sum   'Li6 P10 W8 O48'
_cell_volume   993.02169804
_cell_formula_units_Z   2
loop_
 _symmetry_equiv_pos_site_id
 _symmetry_equiv_pos_as_xyz
  1  'x, y, z'
loop_
 _atom_site_type_symbol
 _atom_site_label
 _atom_site_symmetry_multiplicity
 _atom_site_fract_x
 _atom_site_fract_y
 _atom_site_fract_z
 _atom_site_occupancy
  Li  Li0  1  0.94225900  0.86385800  0.28154000  1
  Li  Li1  1  0.47542300  0.36385800  0.78154000  1
  Li  Li2  1  0.52801100  0.63556500  0.22143100  1
  Li  Li3  1  0.97369500  0.55580300  0.03073700  1
  Li  Li4  1  0.05785500  0.13556500  0.72143100  1
  Li  Li5  1  0.50123900  0.05580300  0.53073700  1
  P  P6  1  0.29152700  0.87703700  0.60658800  1
  P  P7  1  0.80934100  0.94100800  0.04502900  1
  P  P8  1  0.85420800  0.75067200  0.74993200  1
  P  P9  1  0.56319200  0.62255400  0.89721800  1
  P  P10  1  0.70856100  0.55672900  0.45789500  1
  P  P11  1  0.29468000  0.44100800  0.54502900  1
  P  P12  1  0.43802400  0.37703700  0.10658800  1
  P  P13  1  0.14505300  0.25067200  0.24993200  1
  P  P14  1  0.19260300  0.05672900  0.95789500  1
  P  P15  1  0.71147100  0.12255400  0.39721800  1
  W  W16  1  0.52434500  0.99376100  0.18036000  1
  W  W17  1  0.18899800  0.71737400  0.98071100  1
  W  W18  1  0.92695000  0.77966800  0.52116600  1
  W  W19  1  0.66225300  0.49376100  0.68036000  1
  W  W20  1  0.34327100  0.50577300  0.32177100  1
  W  W21  1  0.07434000  0.21737400  0.48071100  1
  W  W22  1  0.81454800  0.27966800  0.02116600  1
  W  W23  1  0.47272800  0.00577300  0.82177100  1
  O  O24  1  0.10948400  0.94109800  0.92679400  1
  O  O25  1  0.29443600  0.98754600  0.52937500  1
  O  O26  1  0.30492100  0.94857500  0.70801300  1
  O  O27  1  0.68523100  0.89125900  0.76552700  1
  O  O28  1  0.37083800  0.97886900  0.04465900  1
  O  O29  1  0.10699700  0.87202500  0.57794300  1
  O  O30  1  0.55277900  0.78442500  0.89066900  1
  O  O31  1  0.76141800  0.90745400  0.13558900  1
  O  O32  1  0.88699900  0.80514700  0.66017700  1
  O  O33  1  0.59343900  0.80352400  0.23183100  1
  O  O34  1  0.94963100  0.77084100  0.40207400  1
  O  O35  1  0.02368100  0.70274200  0.84303900  1
  O  O36  1  0.45135100  0.71583500  0.61507600  1
  O  O37  1  0.95061100  0.78008000  0.02301800  1
  O  O38  1  0.72140300  0.71047400  0.48369600  1
  O  O39  1  0.39791700  0.62535000  0.92045300  1
  O  O40  1  0.32044300  0.73007800  0.09947600  1
  O  O41  1  0.16476800  0.69372500  0.26950200  1
  O  O42  1  0.82038100  0.60570100  0.72906500  1
  O  O43  1  0.55705800  0.54998300  0.79702600  1
  O  O44  1  0.74884800  0.51663200  0.97975200  1
  O  O45  1  0.53421300  0.59467600  0.36749900  1
  O  O46  1  0.12265000  0.55282800  0.57340900  1
  O  O47  1  0.30330500  0.51723400  0.45622500  1
  O  O48  1  0.69495300  0.47886900  0.54465900  1
  O  O49  1  0.87621200  0.44109800  0.42679400  1
  O  O50  1  0.46671600  0.40745400  0.63558900  1
  O  O51  1  0.24739300  0.48754600  0.02937500  1
  O  O52  1  0.45451700  0.44857500  0.20801300  1
  O  O53  1  0.18903700  0.39125900  0.26552700  1
  O  O54  1  0.83486800  0.30352400  0.73183100  1
  O  O55  1  0.68160000  0.27084100  0.90207400  1
  O  O56  1  0.59892000  0.37202500  0.07794300  1
  O  O57  1  0.29232700  0.28008000  0.52301800  1
  O  O58  1  0.05182000  0.21047400  0.98369600  1
  O  O59  1  0.55346500  0.28442500  0.39066900  1
  O  O60  1  0.96803100  0.30514700  0.16017700  1
  O  O61  1  0.04895500  0.23007800  0.59947600  1
  O  O62  1  0.41100900  0.19372500  0.76950200  1
  O  O63  1  0.11661600  0.20274200  0.34303900  1
  O  O64  1  0.23861100  0.09467600  0.86749900  1
  O  O65  1  0.44789100  0.21583500  0.11507600  1
  O  O66  1  0.89718600  0.12535000  0.42045300  1
  O  O67  1  0.63568600  0.01723400  0.95622500  1
  O  O68  1  0.30298400  0.10570100  0.22906500  1
  O  O69  1  0.68998500  0.04998300  0.29702600  1
  O  O70  1  0.71427000  0.01663200  0.47975200  1
  O  O71  1  0.89793100  0.05282800  0.07340900  1
