# generated using pymatgen
data_MgPNO5
_symmetry_space_group_name_H-M   'P 1'
_cell_length_a   5.10665400
_cell_length_b   5.85074400
_cell_length_c   7.03399800
_cell_angle_alpha   90.00000000
_cell_angle_beta   90.00000000
_cell_angle_gamma   90.00000000
_symmetry_Int_Tables_number   1
_chemical_formula_structural   MgPNO5
_chemical_formula_sum   'Mg2 P2 N2 O10'
_cell_volume   210.15985966
_cell_formula_units_Z   2
loop_
 _symmetry_equiv_pos_site_id
 _symmetry_equiv_pos_as_xyz
  1  'x, y, z'
loop_
 _atom_site_type_symbol
 _atom_site_label
 _atom_site_symmetry_multiplicity
 _atom_site_fract_x
 _atom_site_fract_y
 _atom_site_fract_z
 _atom_site_occupancy
  Mg  Mg0  1  0.60406000  0.00000000  0.98297500  1
  Mg  Mg1  1  0.10406000  0.50000000  0.01702500  1
  P  P2  1  0.56319500  0.50000000  0.79306700  1
  P  P3  1  0.06319500  0.00000000  0.20693300  1
  N  N4  1  0.79223500  0.00000000  0.54155000  1
  N  N5  1  0.29223500  0.50000000  0.45845000  1
  O  O6  1  0.85724000  0.50000000  0.80117100  1
  O  O7  1  0.35724000  0.00000000  0.19882900  1
  O  O8  1  0.53490600  0.50000000  0.55465600  1
  O  O9  1  0.03490600  0.00000000  0.44534400  1
  O  O10  1  0.42119000  0.70952800  0.87606500  1
  O  O11  1  0.42119000  0.29047200  0.87606500  1
  O  O12  1  0.92119000  0.79047200  0.12393500  1
  O  O13  1  0.92119000  0.20952800  0.12393500  1
  O  O14  1  0.83798400  0.00000000  0.70981300  1
  O  O15  1  0.33798400  0.50000000  0.29018700  1
