# generated using pymatgen
data_Li2VF6
_symmetry_space_group_name_H-M   'P 1'
_cell_length_a   8.69137807
_cell_length_b   8.72065671
_cell_length_c   10.25374791
_cell_angle_alpha   83.86202962
_cell_angle_beta   96.26484769
_cell_angle_gamma   119.58333451
_symmetry_Int_Tables_number   1
_chemical_formula_structural   Li2VF6
_chemical_formula_sum   'Li12 V6 F36'
_cell_volume   670.56145330
_cell_formula_units_Z   6
loop_
 _symmetry_equiv_pos_site_id
 _symmetry_equiv_pos_as_xyz
  1  'x, y, z'
loop_
 _atom_site_type_symbol
 _atom_site_label
 _atom_site_symmetry_multiplicity
 _atom_site_fract_x
 _atom_site_fract_y
 _atom_site_fract_z
 _atom_site_occupancy
  Li  Li0  1  0.06372100  0.66707300  0.93007800  1
  Li  Li1  1  0.34092900  0.94089000  0.43171400  1
  Li  Li2  1  0.11743700  0.44844500  0.45571600  1
  Li  Li3  1  0.55302000  0.86855900  0.95822700  1
  Li  Li4  1  0.33544600  0.37127000  0.97516100  1
  Li  Li5  1  0.37480800  0.33645900  0.52458800  1
  Li  Li6  1  0.80695000  0.80534300  0.74841600  1
  Li  Li7  1  0.45448300  0.11603000  0.04560100  1
  Li  Li8  1  0.86537400  0.54895300  0.54665300  1
  Li  Li9  1  0.67013300  0.06211400  0.57371600  1
  Li  Li10  1  0.99090300  0.71638700  0.27411200  1
  Li  Li11  1  0.93908700  0.33243500  0.07681800  1
  V  V12  1  0.00381700  0.00149700  0.49648600  1
  V  V13  1  0.33337600  0.66016600  0.70437200  1
  V  V14  1  0.99918700  0.00343000  0.99898000  1
  V  V15  1  0.33986700  0.66494600  0.20707100  1
  V  V16  1  0.66108900  0.33320100  0.79652300  1
  V  V17  1  0.65863900  0.33313300  0.29270100  1
  F  F18  1  0.05377300  0.91801900  0.65757800  1
  F  F19  1  0.06023300  0.91712100  0.15606900  1
  F  F20  1  0.11322500  0.58642100  0.60433300  1
  F  F21  1  0.10981200  0.58225800  0.11032700  1
  F  F22  1  0.26735600  0.75225200  0.83431800  1
  F  F23  1  0.23170200  0.74148300  0.32805000  1
  F  F24  1  0.09760600  0.23645800  0.54890600  1
  F  F25  1  0.42138200  0.87878100  0.60245700  1
  F  F26  1  0.26067800  0.45638700  0.80568300  1
  F  F27  1  0.08329900  0.23765600  0.04941500  1
  F  F28  1  0.41370600  0.88062500  0.09933900  1
  F  F29  1  0.24150800  0.44848700  0.30685800  1
  F  F30  1  0.39233400  0.56105400  0.57610300  1
  F  F31  1  0.23918400  0.09751400  0.95398800  1
  F  F32  1  0.56317300  0.76146400  0.79612600  1
  F  F33  1  0.40870000  0.58602900  0.07259500  1
  F  F34  1  0.24116200  0.08403500  0.44992600  1
  F  F35  1  0.54110800  0.75251500  0.30415200  1
  F  F36  1  0.45651900  0.26055000  0.69408700  1
  F  F37  1  0.77896700  0.92487400  0.57037500  1
  F  F38  1  0.56184400  0.39288100  0.92376700  1
  F  F39  1  0.44352300  0.24426800  0.19333200  1
  F  F40  1  0.77352500  0.92959200  0.05547100  1
  F  F41  1  0.58782500  0.41141500  0.42845200  1
  F  F42  1  0.76023600  0.56242100  0.70452400  1
  F  F43  1  0.58735500  0.11334100  0.89399500  1
  F  F44  1  0.92719100  0.77925300  0.92736200  1
  F  F45  1  0.75324400  0.54825100  0.20461000  1
  F  F46  1  0.58514300  0.11799900  0.39573800  1
  F  F47  1  0.93833700  0.77090000  0.43532400  1
  F  F48  1  0.75350800  0.26977000  0.66366900  1
  F  F49  1  0.73115000  0.24514800  0.16397600  1
  F  F50  1  0.87959800  0.41962700  0.89816000  1
  F  F51  1  0.88852100  0.42658100  0.39264800  1
  F  F52  1  0.92755800  0.05719900  0.83593700  1
  F  F53  1  0.92269500  0.06067000  0.34345600  1
