# generated using pymatgen
data_K3ReC4(N2O)2
_symmetry_space_group_name_H-M   'P 1'
_cell_length_a   7.07158184
_cell_length_b   9.93434637
_cell_length_c   7.31741715
_cell_angle_alpha   108.49908157
_cell_angle_beta   123.43337654
_cell_angle_gamma   100.12936187
_symmetry_Int_Tables_number   1
_chemical_formula_structural   K3ReC4(N2O)2
_chemical_formula_sum   'K3 Re1 C4 N4 O2'
_cell_volume   364.70794670
_cell_formula_units_Z   1
loop_
 _symmetry_equiv_pos_site_id
 _symmetry_equiv_pos_as_xyz
  1  'x, y, z'
loop_
 _atom_site_type_symbol
 _atom_site_label
 _atom_site_symmetry_multiplicity
 _atom_site_fract_x
 _atom_site_fract_y
 _atom_site_fract_z
 _atom_site_occupancy
  K  K0  1  0.50000000  0.50000000  0.50000000  1
  K  K1  1  0.63899200  0.91663100  0.25948200  1
  K  K2  1  0.36100800  0.08336900  0.74051800  1
  Re  Re3  1  0.00000000  0.00000000  0.00000000  1
  C  C4  1  0.07332100  0.79945500  0.98579100  1
  C  C5  1  0.92667900  0.20054500  0.01420900  1
  C  C6  1  0.61172600  0.85121700  0.76864300  1
  C  C7  1  0.38827400  0.14878300  0.23135700  1
  N  N8  1  0.11846000  0.69039200  0.97939500  1
  N  N9  1  0.88154000  0.30960800  0.02060500  1
  N  N10  1  0.39899300  0.76739900  0.65543400  1
  N  N11  1  0.60100700  0.23260100  0.34456600  1
  O  O12  1  0.02958200  0.03346800  0.27431600  1
  O  O13  1  0.97041800  0.96653200  0.72568400  1
