# generated using pymatgen
data_KAsO3
_symmetry_space_group_name_H-M   'P 1'
_cell_length_a   4.78157200
_cell_length_b   6.10477500
_cell_length_c   13.53870900
_cell_angle_alpha   90.00000000
_cell_angle_beta   90.00000000
_cell_angle_gamma   90.00000000
_symmetry_Int_Tables_number   1
_chemical_formula_structural   KAsO3
_chemical_formula_sum   'K4 As4 O12'
_cell_volume   395.20061830
_cell_formula_units_Z   4
loop_
 _symmetry_equiv_pos_site_id
 _symmetry_equiv_pos_as_xyz
  1  'x, y, z'
loop_
 _atom_site_type_symbol
 _atom_site_label
 _atom_site_symmetry_multiplicity
 _atom_site_fract_x
 _atom_site_fract_y
 _atom_site_fract_z
 _atom_site_occupancy
  K  K0  1  0.80137700  0.28633100  0.64795000  1
  K  K1  1  0.19862300  0.78633100  0.85205000  1
  K  K2  1  0.69862300  0.71366900  0.14795000  1
  K  K3  1  0.30137700  0.21366900  0.35205000  1
  As  As4  1  0.31066900  0.79618600  0.57852600  1
  As  As5  1  0.68933100  0.29618600  0.92147400  1
  As  As6  1  0.18933100  0.20381400  0.07852600  1
  As  As7  1  0.81066900  0.70381400  0.42147400  1
  O  O8  1  0.20812400  0.60061700  0.65682200  1
  O  O9  1  0.79187600  0.10061700  0.84317800  1
  O  O10  1  0.29187600  0.39938300  0.15682200  1
  O  O11  1  0.70812400  0.89938300  0.34317800  1
  O  O12  1  0.31181300  0.05998500  0.61112300  1
  O  O13  1  0.68818700  0.55998400  0.88887700  1
  O  O14  1  0.18818700  0.94001600  0.11112300  1
  O  O15  1  0.81181300  0.44001600  0.38887700  1
  O  O16  1  0.16314200  0.78150600  0.45572800  1
  O  O17  1  0.83685800  0.28150600  0.04427200  1
  O  O18  1  0.33685800  0.21849400  0.95572800  1
  O  O19  1  0.66314200  0.71849400  0.54427200  1
