# generated using pymatgen
data_Li2Mn3P5O18
_symmetry_space_group_name_H-M   'P 1'
_cell_length_a   4.86815400
_cell_length_b   12.75287164
_cell_length_c   12.58071864
_cell_angle_alpha   87.74318021
_cell_angle_beta   90.00000000
_cell_angle_gamma   78.99672581
_symmetry_Int_Tables_number   1
_chemical_formula_structural   Li2Mn3P5O18
_chemical_formula_sum   'Li4 Mn6 P10 O36'
_cell_volume   766.07229908
_cell_formula_units_Z   2
loop_
 _symmetry_equiv_pos_site_id
 _symmetry_equiv_pos_as_xyz
  1  'x, y, z'
loop_
 _atom_site_type_symbol
 _atom_site_label
 _atom_site_symmetry_multiplicity
 _atom_site_fract_x
 _atom_site_fract_y
 _atom_site_fract_z
 _atom_site_occupancy
  Li  Li0  1  0.51129000  0.68782500  0.86473600  1
  Li  Li1  1  0.80088500  0.68782500  0.36473600  1
  Li  Li2  1  0.19911500  0.31217500  0.63526400  1
  Li  Li3  1  0.48871000  0.31217500  0.13526400  1
  Mn  Mn4  1  0.17025400  0.60364300  0.62027000  1
  Mn  Mn5  1  0.22610300  0.60364300  0.12027000  1
  Mn  Mn6  1  0.77389700  0.39635700  0.87973000  1
  Mn  Mn7  1  0.82974600  0.39635700  0.37973000  1
  Mn  Mn8  1  0.50000000  0.00000000  0.50000000  1
  Mn  Mn9  1  0.50000000  0.00000000  0.00000000  1
  P  P10  1  0.06654300  0.86373300  0.58768000  1
  P  P11  1  0.06972500  0.86373300  0.08768000  1
  P  P12  1  0.15726000  0.54965900  0.87218800  1
  P  P13  1  0.29308000  0.54965900  0.37218800  1
  P  P14  1  0.70692000  0.45034100  0.62781200  1
  P  P15  1  0.84274000  0.45034100  0.12781200  1
  P  P16  1  0.93027500  0.13626700  0.91232000  1
  P  P17  1  0.93345700  0.13626700  0.41232000  1
  P  P18  1  0.73528000  0.00000000  0.75000000  1
  P  P19  1  0.26472000  0.00000000  0.25000000  1
  O  O20  1  0.61366600  0.93805500  0.83617700  1
  O  O21  1  0.22307700  0.91182500  0.99729100  1
  O  O22  1  0.44828000  0.93805500  0.33617700  1
  O  O23  1  0.99652300  0.92455000  0.69540600  1
  O  O24  1  0.86509900  0.91182500  0.49729100  1
  O  O25  1  0.07892700  0.92455000  0.19540600  1
  O  O26  1  0.36797000  0.86961300  0.56001800  1
  O  O27  1  0.76241700  0.86961300  0.06001800  1
  O  O28  1  0.02267200  0.75057600  0.61902500  1
  O  O29  1  0.22675100  0.75057600  0.11902500  1
  O  O30  1  0.23026600  0.61849500  0.96410500  1
  O  O31  1  0.23464800  0.61673700  0.77385000  1
  O  O32  1  0.15123900  0.61849500  0.46410500  1
  O  O33  1  0.14861500  0.61673700  0.27385000  1
  O  O34  1  0.75509300  0.56525500  0.62383300  1
  O  O35  1  0.83569500  0.54690000  0.87436200  1
  O  O36  1  0.67965200  0.56525500  0.12383300  1
  O  O37  1  0.61740500  0.54690000  0.37436200  1
  O  O38  1  0.38259500  0.45310000  0.62563800  1
  O  O39  1  0.32034800  0.43474500  0.87616700  1
  O  O40  1  0.16430500  0.45310000  0.12563800  1
  O  O41  1  0.24490700  0.43474500  0.37616700  1
  O  O42  1  0.85138500  0.38326300  0.72615000  1
  O  O43  1  0.84876100  0.38150500  0.53589500  1
  O  O44  1  0.76535200  0.38326300  0.22615000  1
  O  O45  1  0.76973400  0.38150500  0.03589500  1
  O  O46  1  0.77324900  0.24942400  0.88097500  1
  O  O47  1  0.97732800  0.24942400  0.38097500  1
  O  O48  1  0.23758300  0.13038700  0.93998200  1
  O  O49  1  0.63203000  0.13038700  0.43998200  1
  O  O50  1  0.92107300  0.07545000  0.80459400  1
  O  O51  1  0.13490100  0.08817500  0.50270900  1
  O  O52  1  0.00347700  0.07545000  0.30459400  1
  O  O53  1  0.55172000  0.06194500  0.66382300  1
  O  O54  1  0.77692300  0.08817500  0.00270900  1
  O  O55  1  0.38633400  0.06194500  0.16382300  1
