# generated using pymatgen
data_K2LaPCO7
_symmetry_space_group_name_H-M   'P 1'
_cell_length_a   7.43009400
_cell_length_b   5.73874100
_cell_length_c   10.17711316
_cell_angle_alpha   87.26517209
_cell_angle_beta   90.00000000
_cell_angle_gamma   90.00000000
_symmetry_Int_Tables_number   1
_chemical_formula_structural   K2LaPCO7
_chemical_formula_sum   'K4 La2 P2 C2 O14'
_cell_volume   433.45160701
_cell_formula_units_Z   2
loop_
 _symmetry_equiv_pos_site_id
 _symmetry_equiv_pos_as_xyz
  1  'x, y, z'
loop_
 _atom_site_type_symbol
 _atom_site_label
 _atom_site_symmetry_multiplicity
 _atom_site_fract_x
 _atom_site_fract_y
 _atom_site_fract_z
 _atom_site_occupancy
  K  K0  1  0.48701200  0.24437700  0.78976000  1
  K  K1  1  0.01298800  0.24437700  0.78976000  1
  K  K2  1  0.51298800  0.75562300  0.21024000  1
  K  K3  1  0.98701200  0.75562300  0.21024000  1
  La  La4  1  0.75000000  0.78424800  0.61737200  1
  La  La5  1  0.25000000  0.21575200  0.38262800  1
  P  P6  1  0.25000000  0.70496000  0.57312800  1
  P  P7  1  0.75000000  0.29504000  0.42687200  1
  C  C8  1  0.75000000  0.73014800  0.90383900  1
  C  C9  1  0.25000000  0.26985200  0.09616100  1
  O  O10  1  0.25000000  0.30299600  0.97274700  1
  O  O11  1  0.75000000  0.93915000  0.84437700  1
  O  O12  1  0.75000000  0.55456700  0.82304200  1
  O  O13  1  0.07710900  0.79776600  0.63927900  1
  O  O14  1  0.42289100  0.79776600  0.63927900  1
  O  O15  1  0.75000000  0.21019000  0.57633100  1
  O  O16  1  0.25000000  0.43153900  0.58110000  1
  O  O17  1  0.75000000  0.56846100  0.41890000  1
  O  O18  1  0.25000000  0.78981000  0.42366900  1
  O  O19  1  0.57710900  0.20223400  0.36072100  1
  O  O20  1  0.92289100  0.20223400  0.36072100  1
  O  O21  1  0.25000000  0.44543300  0.17695800  1
  O  O22  1  0.25000000  0.06085000  0.15562300  1
  O  O23  1  0.75000000  0.69700400  0.02725300  1
