# generated using pymatgen
data_KFe11O17
_symmetry_space_group_name_H-M   'P 1'
_cell_length_a   5.98981860
_cell_length_b   5.99181501
_cell_length_c   24.05905956
_cell_angle_alpha   89.92025961
_cell_angle_beta   89.87583075
_cell_angle_gamma   120.00688190
_symmetry_Int_Tables_number   1
_chemical_formula_structural   KFe11O17
_chemical_formula_sum   'K2 Fe22 O34'
_cell_volume   747.73624050
_cell_formula_units_Z   2
loop_
 _symmetry_equiv_pos_site_id
 _symmetry_equiv_pos_as_xyz
  1  'x, y, z'
loop_
 _atom_site_type_symbol
 _atom_site_label
 _atom_site_symmetry_multiplicity
 _atom_site_fract_x
 _atom_site_fract_y
 _atom_site_fract_z
 _atom_site_occupancy
  K  K0  1  0.33290400  0.66620500  0.75077100  1
  K  K1  1  0.66561900  0.33375100  0.25007900  1
  Fe  Fe2  1  0.16797900  0.83212700  0.60600200  1
  Fe  Fe3  1  0.16830100  0.83258400  0.89396900  1
  Fe  Fe4  1  0.33456100  0.66546100  0.17510300  1
  Fe  Fe5  1  0.33517900  0.66745800  0.02619200  1
  Fe  Fe6  1  0.99994900  0.00012100  0.00037600  1
  Fe  Fe7  1  0.33344300  0.66327800  0.32467400  1
  Fe  Fe8  1  0.99966200  0.99979400  0.49951700  1
  Fe  Fe9  1  0.16775300  0.33594400  0.60584500  1
  Fe  Fe10  1  0.16852100  0.33554100  0.89392300  1
  Fe  Fe11  1  0.33174600  0.66520300  0.47350100  1
  Fe  Fe12  1  0.66401800  0.83225500  0.60594700  1
  Fe  Fe13  1  0.66519600  0.83231200  0.89384600  1
  Fe  Fe14  1  0.33299800  0.16573600  0.10235300  1
  Fe  Fe15  1  0.33659400  0.17116700  0.39228300  1
  Fe  Fe16  1  0.83014400  0.66417500  0.10743000  1
  Fe  Fe17  1  0.66540300  0.33270100  0.67501000  1
  Fe  Fe18  1  0.83455900  0.66804900  0.39785500  1
  Fe  Fe19  1  0.66714500  0.33360300  0.82493600  1
  Fe  Fe20  1  0.66488300  0.33226300  0.97550500  1
  Fe  Fe21  1  0.66785800  0.33543000  0.52437400  1
  Fe  Fe22  1  0.82931000  0.16495400  0.10761700  1
  Fe  Fe23  1  0.83446200  0.17061300  0.39210400  1
  O  O24  1  0.16300000  0.85009300  0.05198600  1
  O  O25  1  0.14855100  0.83682200  0.44801200  1
  O  O26  1  0.00750300  0.50342100  0.64699400  1
  O  O27  1  0.00805800  0.50402900  0.85386300  1
  O  O28  1  0.33428100  0.66739700  0.25023600  1
  O  O29  1  0.00967700  0.00457100  0.14239700  1
  O  O30  1  0.16309600  0.31251700  0.05189900  1
  O  O31  1  0.99555000  0.98993600  0.35737500  1
  O  O32  1  0.99983300  0.00010200  0.64345600  1
  O  O33  1  0.15610400  0.31213500  0.44889100  1
  O  O34  1  0.00021000  0.00015500  0.85650700  1
  O  O35  1  0.49744300  0.99346400  0.85253400  1
  O  O36  1  0.49537800  0.99124600  0.64693200  1
  O  O37  1  0.33327400  0.66700800  0.55455400  1
  O  O38  1  0.33428600  0.66698000  0.94532600  1
  O  O39  1  0.31388500  0.15600300  0.55018000  1
  O  O40  1  0.31348900  0.15666000  0.94924500  1
  O  O41  1  0.49494500  0.50380600  0.64675400  1
  O  O42  1  0.49722600  0.50420900  0.85229600  1
  O  O43  1  0.51430400  0.50563600  0.35391700  1
  O  O44  1  0.49405400  0.48682400  0.14541200  1
  O  O45  1  0.68814900  0.84438600  0.05133700  1
  O  O46  1  0.68731800  0.83784500  0.44842100  1
  O  O47  1  0.66126800  0.33063800  0.05621200  1
  O  O48  1  0.66877500  0.33937300  0.44386400  1
  O  O49  1  0.50344200  0.00693000  0.35320100  1
  O  O50  1  0.49571700  0.00736900  0.14629400  1
  O  O51  1  0.84338000  0.68678000  0.55089400  1
  O  O52  1  0.84352200  0.68626200  0.94996900  1
  O  O53  1  0.66356300  0.33303600  0.75058600  1
  O  O54  1  0.99242900  0.49616000  0.14710300  1
  O  O55  1  0.99421500  0.50382100  0.35389800  1
  O  O56  1  0.84240700  0.15666000  0.55032500  1
  O  O57  1  0.84348200  0.15720200  0.94991400  1
