# generated using pymatgen
data_FeSbO4
_symmetry_space_group_name_H-M   'P 1'
_cell_length_a   5.57185000
_cell_length_b   5.71205975
_cell_length_c   5.57134755
_cell_angle_alpha   60.81295942
_cell_angle_beta   90.00005374
_cell_angle_gamma   90.00003313
_symmetry_Int_Tables_number   1
_chemical_formula_structural   FeSbO4
_chemical_formula_sum   'Fe2 Sb2 O8'
_cell_volume   154.80421156
_cell_formula_units_Z   2
loop_
 _symmetry_equiv_pos_site_id
 _symmetry_equiv_pos_as_xyz
  1  'x, y, z'
loop_
 _atom_site_type_symbol
 _atom_site_label
 _atom_site_symmetry_multiplicity
 _atom_site_fract_x
 _atom_site_fract_y
 _atom_site_fract_z
 _atom_site_occupancy
  Fe  Fe0  1  0.49999800  0.00000500  0.49999800  1
  Fe  Fe1  1  0.99999900  0.00000100  0.00000000  1
  Sb  Sb2  1  0.24999600  0.50000000  0.50000000  1
  Sb  Sb3  1  0.75000800  0.50000000  0.00000000  1
  O  O4  1  0.25001400  0.10250800  0.69873100  1
  O  O5  1  0.74998500  0.10250800  0.19876700  1
  O  O6  1  0.25001400  0.89749100  0.30127000  1
  O  O7  1  0.74998500  0.89749100  0.80123400  1
  O  O8  1  0.00000000  0.41686300  0.79156700  1
  O  O9  1  0.50000000  0.41685200  0.29157300  1
  O  O10  1  0.50000000  0.58314700  0.70842800  1
  O  O11  1  0.00000000  0.58313500  0.20843300  1
