# generated using pymatgen
data_HfZrO4
_symmetry_space_group_name_H-M   'P 1'
_cell_length_a   10.22960100
_cell_length_b   10.22960100
_cell_length_c   10.22960100
_cell_angle_alpha   90.00000000
_cell_angle_beta   90.00000000
_cell_angle_gamma   90.00000000
_symmetry_Int_Tables_number   1
_chemical_formula_structural   HfZrO4
_chemical_formula_sum   'Hf16 Zr16 O64'
_cell_volume   1070.47390236
_cell_formula_units_Z   16
loop_
 _symmetry_equiv_pos_site_id
 _symmetry_equiv_pos_as_xyz
  1  'x, y, z'
loop_
 _atom_site_type_symbol
 _atom_site_label
 _atom_site_symmetry_multiplicity
 _atom_site_fract_x
 _atom_site_fract_y
 _atom_site_fract_z
 _atom_site_occupancy
  Hf  Hf0  1  0.12381100  0.37437900  0.37387300  1
  Hf  Hf1  1  0.12612700  0.87618900  0.87437900  1
  Hf  Hf2  1  0.12562100  0.62612700  0.62381100  1
  Hf  Hf3  1  0.12458300  0.12458300  0.12458300  1
  Hf  Hf4  1  0.37541700  0.87541700  0.62458300  1
  Hf  Hf5  1  0.37437900  0.37387300  0.12381100  1
  Hf  Hf6  1  0.37387300  0.12381100  0.37437900  1
  Hf  Hf7  1  0.37618900  0.62562100  0.87387300  1
  Hf  Hf8  1  0.62381100  0.12562100  0.62612700  1
  Hf  Hf9  1  0.62612700  0.62381100  0.12562100  1
  Hf  Hf10  1  0.62562100  0.87387300  0.37618900  1
  Hf  Hf11  1  0.62458300  0.37541700  0.87541700  1
  Hf  Hf12  1  0.87541700  0.62458300  0.37541700  1
  Hf  Hf13  1  0.87437900  0.12612700  0.87618900  1
  Hf  Hf14  1  0.87387300  0.37618900  0.62562100  1
  Hf  Hf15  1  0.87618900  0.87437900  0.12612700  1
  Zr  Zr16  1  0.12610200  0.62522600  0.12356000  1
  Zr  Zr17  1  0.12356000  0.12610200  0.62522600  1
  Zr  Zr18  1  0.12512600  0.87487400  0.37487400  1
  Zr  Zr19  1  0.12522600  0.37644000  0.87389800  1
  Zr  Zr20  1  0.37477400  0.62356000  0.37389800  1
  Zr  Zr21  1  0.37487400  0.12512600  0.87487400  1
  Zr  Zr22  1  0.37644000  0.87389800  0.12522600  1
  Zr  Zr23  1  0.37389800  0.37477400  0.62356000  1
  Zr  Zr24  1  0.62610200  0.87477400  0.87644000  1
  Zr  Zr25  1  0.62356000  0.37389800  0.37477400  1
  Zr  Zr26  1  0.62512600  0.62512600  0.62512600  1
  Zr  Zr27  1  0.62522600  0.12356000  0.12610200  1
  Zr  Zr28  1  0.87477400  0.87644000  0.62610200  1
  Zr  Zr29  1  0.87487400  0.37487400  0.12512600  1
  Zr  Zr30  1  0.87644000  0.62610200  0.87477400  1
  Zr  Zr31  1  0.87389800  0.12522600  0.37644000  1
  O  O32  1  0.99647300  0.74493300  0.24936900  1
  O  O33  1  0.00026000  0.99564200  0.25048800  1
  O  O34  1  0.00146600  0.75506100  0.99937000  1
  O  O35  1  0.99769400  0.00230600  0.50230600  1
  O  O36  1  0.00237400  0.00237400  0.00237400  1
  O  O37  1  0.99937000  0.00146600  0.75506100  1
  O  O38  1  0.00435800  0.75048800  0.49974000  1
  O  O39  1  0.99873300  0.25134100  0.75065700  1
  O  O40  1  0.24865900  0.24934300  0.49873300  1
  O  O41  1  0.24934300  0.49873300  0.24865900  1
  O  O42  1  0.25123100  0.24876900  0.75123100  1
  O  O43  1  0.24936900  0.99647300  0.74493300  1
  O  O44  1  0.24951200  0.99974000  0.49564200  1
  O  O45  1  0.25506100  0.50063000  0.99853400  1
  O  O46  1  0.25506700  0.74936900  0.50352700  1
  O  O47  1  0.24851600  0.74851600  0.75148400  1
  O  O48  1  0.25148400  0.25148400  0.25148400  1
  O  O49  1  0.24493300  0.25063100  0.00352700  1
  O  O50  1  0.24493900  0.49937000  0.49853400  1
  O  O51  1  0.25048800  0.00026000  0.99564200  1
  O  O52  1  0.25063100  0.00352700  0.24493300  1
  O  O53  1  0.24876900  0.75123100  0.25123100  1
  O  O54  1  0.25065700  0.50126700  0.74865900  1
  O  O55  1  0.25134100  0.75065700  0.99873300  1
  O  O56  1  0.50126700  0.74865900  0.25065700  1
  O  O57  1  0.49762600  0.99762600  0.50237400  1
  O  O58  1  0.50230600  0.99769400  0.00230600  1
  O  O59  1  0.50063000  0.99853400  0.25506100  1
  O  O60  1  0.49564200  0.24951200  0.99974000  1
  O  O61  1  0.49853400  0.24493900  0.49937000  1
  O  O62  1  0.50352700  0.25506700  0.74936900  1
  O  O63  1  0.49974000  0.00435800  0.75048800  1
  O  O64  1  0.50026000  0.50435800  0.74951200  1
  O  O65  1  0.49647300  0.75506700  0.75063100  1
  O  O66  1  0.50146600  0.74493900  0.00063000  1
  O  O67  1  0.49937000  0.49853400  0.24493900  1
  O  O68  1  0.49769400  0.49769400  0.49769400  1
  O  O69  1  0.50237400  0.49762600  0.99762600  1
  O  O70  1  0.50435800  0.74951200  0.50026000  1
  O  O71  1  0.49873300  0.24865900  0.24934300  1
  O  O72  1  0.74865900  0.25065700  0.50126700  1
  O  O73  1  0.74934300  0.00126700  0.75134100  1
  O  O74  1  0.75123100  0.25123100  0.24876900  1
  O  O75  1  0.74936900  0.50352700  0.25506700  1
  O  O76  1  0.74951200  0.50026000  0.50435800  1
  O  O77  1  0.75506100  0.99937000  0.00146600  1
  O  O78  1  0.75506700  0.75063100  0.49647300  1
  O  O79  1  0.74851600  0.75148400  0.24851600  1
  O  O80  1  0.75148400  0.24851600  0.74851600  1
  O  O81  1  0.74493300  0.24936900  0.99647300  1
  O  O82  1  0.74493900  0.00063000  0.50146600  1
  O  O83  1  0.75048800  0.49974000  0.00435800  1
  O  O84  1  0.75063100  0.49647300  0.75506700  1
  O  O85  1  0.74876900  0.74876900  0.74876900  1
  O  O86  1  0.75065700  0.99873300  0.25134100  1
  O  O87  1  0.75134100  0.74934300  0.00126700  1
  O  O88  1  0.00126700  0.75134100  0.74934300  1
  O  O89  1  0.99564200  0.25048800  0.00026000  1
  O  O90  1  0.00230600  0.50230600  0.99769400  1
  O  O91  1  0.00063000  0.50146600  0.74493900  1
  O  O92  1  0.99762600  0.50237400  0.49762600  1
  O  O93  1  0.99853400  0.25506100  0.50063000  1
  O  O94  1  0.00352700  0.24493300  0.25063100  1
  O  O95  1  0.99974000  0.49564200  0.24951200  1
