# generated using pymatgen
data_FeCo3O8
_symmetry_space_group_name_H-M   'P 1'
_cell_length_a   8.03867700
_cell_length_b   8.11151586
_cell_length_c   8.15851278
_cell_angle_alpha   89.71692671
_cell_angle_beta   89.98536444
_cell_angle_gamma   89.66595056
_symmetry_Int_Tables_number   1
_chemical_formula_structural   FeCo3O8
_chemical_formula_sum   'Fe4 Co12 O32'
_cell_volume   531.96726184
_cell_formula_units_Z   4
loop_
 _symmetry_equiv_pos_site_id
 _symmetry_equiv_pos_as_xyz
  1  'x, y, z'
loop_
 _atom_site_type_symbol
 _atom_site_label
 _atom_site_symmetry_multiplicity
 _atom_site_fract_x
 _atom_site_fract_y
 _atom_site_fract_z
 _atom_site_occupancy
  Fe  Fe0  1  0.12644200  0.87649500  0.37628600  1
  Fe  Fe1  1  0.37621200  0.12644400  0.87505500  1
  Fe  Fe2  1  0.62657800  0.62610300  0.62230500  1
  Fe  Fe3  1  0.87649200  0.37536900  0.12663300  1
  Co  Co4  1  0.12026200  0.12750400  0.62645500  1
  Co  Co5  1  0.12444900  0.37962900  0.87154400  1
  Co  Co6  1  0.12821400  0.62687200  0.11886900  1
  Co  Co7  1  0.36987300  0.37393400  0.61738400  1
  Co  Co8  1  0.37493800  0.61736800  0.36777300  1
  Co  Co9  1  0.37599400  0.87050000  0.12315400  1
  Co  Co10  1  0.61752800  0.36803400  0.37610700  1
  Co  Co11  1  0.62653500  0.12007800  0.12967700  1
  Co  Co12  1  0.63147600  0.87534400  0.87981500  1
  Co  Co13  1  0.86891300  0.12293900  0.37927800  1
  Co  Co14  1  0.87514400  0.88210400  0.63441000  1
  Co  Co15  1  0.87980700  0.63288900  0.87622800  1
  O  O16  1  0.10813000  0.11410300  0.39495300  1
  O  O17  1  0.10724300  0.90011700  0.62616300  1
  O  O18  1  0.11583200  0.60958500  0.88527800  1
  O  O19  1  0.13604700  0.14461400  0.85896200  1
  O  O20  1  0.11437500  0.39245700  0.10776000  1
  O  O21  1  0.13699200  0.35993800  0.63709600  1
  O  O22  1  0.13899600  0.64010000  0.35434500  1
  O  O23  1  0.14888400  0.85626500  0.12057300  1
  O  O24  1  0.35937900  0.13883300  0.64034300  1
  O  O25  1  0.35791500  0.36287300  0.85643100  1
  O  O26  1  0.36262000  0.63504500  0.13684700  1
  O  O27  1  0.37397700  0.60195800  0.59634500  1
  O  O28  1  0.36688900  0.85655200  0.35216600  1
  O  O29  1  0.38335800  0.38275700  0.38447900  1
  O  O30  1  0.39003700  0.11009800  0.10876000  1
  O  O31  1  0.39113700  0.89041600  0.89055100  1
  O  O32  1  0.60060100  0.37640300  0.60232000  1
  O  O33  1  0.60463600  0.59767400  0.37515900  1
  O  O34  1  0.61040600  0.88944300  0.11241100  1
  O  O35  1  0.63693200  0.35166100  0.14208800  1
  O  O36  1  0.61263500  0.11047400  0.89209300  1
  O  O37  1  0.63524300  0.13561600  0.36358900  1
  O  O38  1  0.64401200  0.87359600  0.65231200  1
  O  O39  1  0.64999200  0.64730900  0.87315500  1
  O  O40  1  0.85790000  0.35286200  0.36336500  1
  O  O41  1  0.85450700  0.12044700  0.14934000  1
  O  O42  1  0.86419800  0.86611800  0.86730300  1
  O  O43  1  0.88529700  0.89319800  0.39851200  1
  O  O44  1  0.87649600  0.65232100  0.64740600  1
  O  O45  1  0.88486700  0.11487300  0.61409500  1
  O  O46  1  0.89299100  0.39402000  0.88916700  1
  O  O47  1  0.89862100  0.62680800  0.10580000  1
