# generated using pymatgen
data_FeO
_symmetry_space_group_name_H-M   'P 1'
_cell_length_a   5.31915444
_cell_length_b   5.31915444
_cell_length_c   10.50193800
_cell_angle_alpha   90.00000000
_cell_angle_beta   90.00000000
_cell_angle_gamma   120.00000549
_symmetry_Int_Tables_number   1
_chemical_formula_structural   FeO
_chemical_formula_sum   'Fe12 O12'
_cell_volume   257.32694147
_cell_formula_units_Z   12
loop_
 _symmetry_equiv_pos_site_id
 _symmetry_equiv_pos_as_xyz
  1  'x, y, z'
loop_
 _atom_site_type_symbol
 _atom_site_label
 _atom_site_symmetry_multiplicity
 _atom_site_fract_x
 _atom_site_fract_y
 _atom_site_fract_z
 _atom_site_occupancy
  Fe  Fe0  1  0.31617300  0.98745300  0.62582800  1
  Fe  Fe1  1  0.32736400  0.99749700  0.87523100  1
  Fe  Fe2  1  0.01254700  0.32871900  0.62582800  1
  Fe  Fe3  1  0.00250300  0.32986700  0.87523100  1
  Fe  Fe4  1  0.67128100  0.68382700  0.62582800  1
  Fe  Fe5  1  0.67013300  0.67263600  0.87523100  1
  Fe  Fe6  1  0.32871900  0.01254700  0.12582800  1
  Fe  Fe7  1  0.32986700  0.00250300  0.37523100  1
  Fe  Fe8  1  0.68382700  0.67128100  0.12582800  1
  Fe  Fe9  1  0.67263600  0.67013300  0.37523100  1
  Fe  Fe10  1  0.99749700  0.32736400  0.37523100  1
  Fe  Fe11  1  0.98745300  0.31617300  0.12582800  1
  O  O12  1  0.98468000  0.66617800  0.24881100  1
  O  O13  1  0.33333300  0.66666700  0.01044300  1
  O  O14  1  0.00000000  0.00000000  0.99227900  1
  O  O15  1  0.00000000  0.00000000  0.49227900  1
  O  O16  1  0.33333300  0.66666700  0.49106200  1
  O  O17  1  0.33382200  0.31850200  0.24881100  1
  O  O18  1  0.68149800  0.01532000  0.24881100  1
  O  O19  1  0.31850200  0.33382200  0.74881100  1
  O  O20  1  0.66666700  0.33333300  0.51044300  1
  O  O21  1  0.66666700  0.33333300  0.99106200  1
  O  O22  1  0.01532000  0.68149800  0.74881100  1
  O  O23  1  0.66617800  0.98468000  0.74881100  1
