# generated using pymatgen
data_Fe5(OF4)2
_symmetry_space_group_name_H-M   'P 1'
_cell_length_a   4.79388200
_cell_length_b   5.75322600
_cell_length_c   13.70455473
_cell_angle_alpha   79.11843418
_cell_angle_beta   90.00000000
_cell_angle_gamma   90.00000000
_symmetry_Int_Tables_number   1
_chemical_formula_structural   Fe5(OF4)2
_chemical_formula_sum   'Fe10 O4 F16'
_cell_volume   371.17935781
_cell_formula_units_Z   2
loop_
 _symmetry_equiv_pos_site_id
 _symmetry_equiv_pos_as_xyz
  1  'x, y, z'
loop_
 _atom_site_type_symbol
 _atom_site_label
 _atom_site_symmetry_multiplicity
 _atom_site_fract_x
 _atom_site_fract_y
 _atom_site_fract_z
 _atom_site_occupancy
  Fe  Fe0  1  0.51537200  0.75760200  0.98907900  1
  Fe  Fe1  1  0.50248200  0.53520200  0.60399800  1
  Fe  Fe2  1  0.53166000  0.13537900  0.78915600  1
  Fe  Fe3  1  0.48569400  0.94361300  0.40048700  1
  Fe  Fe4  1  0.48172900  0.35183200  0.19661600  1
  Fe  Fe5  1  0.98569400  0.05638700  0.59951300  1
  Fe  Fe6  1  0.03166000  0.86462100  0.21084400  1
  Fe  Fe7  1  0.98172900  0.64816800  0.80338400  1
  Fe  Fe8  1  0.00248200  0.46479800  0.39600200  1
  Fe  Fe9  1  0.01537200  0.24239800  0.01092100  1
  O  O10  1  0.18524800  0.16874400  0.13335000  1
  O  O11  1  0.20372000  0.77366500  0.32961200  1
  O  O12  1  0.70372000  0.22633500  0.67038800  1
  O  O13  1  0.68524800  0.83125600  0.86665000  1
  F  F14  1  0.20767600  0.96219200  0.74713900  1
  F  F15  1  0.20124000  0.55323600  0.94923900  1
  F  F16  1  0.19544600  0.37496500  0.53877500  1
  F  F17  1  0.28876500  0.05970900  0.94232900  1
  F  F18  1  0.29856300  0.86766100  0.54650700  1
  F  F19  1  0.30125900  0.27769700  0.33613600  1
  F  F20  1  0.29976000  0.69273400  0.12197700  1
  F  F21  1  0.30138500  0.44444500  0.76141800  1
  F  F22  1  0.70767600  0.03780800  0.25286100  1
  F  F23  1  0.70124000  0.44676400  0.05076100  1
  F  F24  1  0.69544600  0.62503500  0.46122500  1
  F  F25  1  0.79976000  0.30726600  0.87802300  1
  F  F26  1  0.78876500  0.94029100  0.05767100  1
  F  F27  1  0.79856300  0.13233900  0.45349300  1
  F  F28  1  0.80125900  0.72230300  0.66386400  1
  F  F29  1  0.80138500  0.55555500  0.23858200  1
