# generated using pymatgen
data_Fe6O5F7
_symmetry_space_group_name_H-M   'P 1'
_cell_length_a   4.77148132
_cell_length_b   4.77148132
_cell_length_c   9.32644770
_cell_angle_alpha   89.78737626
_cell_angle_beta   89.78737626
_cell_angle_gamma   92.25594364
_symmetry_Int_Tables_number   1
_chemical_formula_structural   Fe6O5F7
_chemical_formula_sum   'Fe6 O5 F7'
_cell_volume   212.16794164
_cell_formula_units_Z   1
loop_
 _symmetry_equiv_pos_site_id
 _symmetry_equiv_pos_as_xyz
  1  'x, y, z'
loop_
 _atom_site_type_symbol
 _atom_site_label
 _atom_site_symmetry_multiplicity
 _atom_site_fract_x
 _atom_site_fract_y
 _atom_site_fract_z
 _atom_site_occupancy
  Fe  Fe0  1  0.99884900  0.00115100  0.00000000  1
  Fe  Fe1  1  0.04118600  0.02035400  0.34050400  1
  Fe  Fe2  1  0.97964600  0.95881400  0.65949600  1
  Fe  Fe3  1  0.49207900  0.48373700  0.15514400  1
  Fe  Fe4  1  0.51626300  0.50792100  0.84485600  1
  Fe  Fe5  1  0.47227200  0.52772800  0.50000000  1
  O  O6  1  0.18905600  0.81094400  0.50000000  1
  O  O7  1  0.69840000  0.69179600  0.00474100  1
  O  O8  1  0.68087400  0.68143400  0.66499400  1
  O  O9  1  0.30820400  0.30160000  0.99525900  1
  O  O10  1  0.31856600  0.31912600  0.33500600  1
  F  F11  1  0.20681000  0.80099900  0.18050200  1
  F  F12  1  0.19900100  0.79319000  0.81949800  1
  F  F13  1  0.70783600  0.71416600  0.33431100  1
  F  F14  1  0.28583400  0.29216400  0.66568900  1
  F  F15  1  0.80644000  0.20140800  0.18533500  1
  F  F16  1  0.79859200  0.19356000  0.81466500  1
  F  F17  1  0.80009300  0.19990700  0.50000000  1
