# generated using pymatgen
data_Fe3CoSb2(PO4)6
_symmetry_space_group_name_H-M   'P 1'
_cell_length_a   8.80823553
_cell_length_b   8.80823553
_cell_length_c   8.80823552
_cell_angle_alpha   58.70195505
_cell_angle_beta   58.70195505
_cell_angle_gamma   58.70196213
_symmetry_Int_Tables_number   1
_chemical_formula_structural   Fe3CoSb2(PO4)6
_chemical_formula_sum   'Fe3 Co1 Sb2 P6 O24'
_cell_volume   468.89513336
_cell_formula_units_Z   1
loop_
 _symmetry_equiv_pos_site_id
 _symmetry_equiv_pos_as_xyz
  1  'x, y, z'
loop_
 _atom_site_type_symbol
 _atom_site_label
 _atom_site_symmetry_multiplicity
 _atom_site_fract_x
 _atom_site_fract_y
 _atom_site_fract_z
 _atom_site_occupancy
  Fe  Fe0  1  0.85254900  0.85254900  0.85254900  1
  Fe  Fe1  1  0.64914000  0.64914000  0.64914000  1
  Fe  Fe2  1  0.35128300  0.35128300  0.35128300  1
  Co  Co3  1  0.14604500  0.14604500  0.14604500  1
  Sb  Sb4  1  0.00168700  0.00168700  0.00168700  1
  Sb  Sb5  1  0.50107400  0.50107400  0.50107400  1
  P  P6  1  0.24881200  0.53398300  0.96320900  1
  P  P7  1  0.96320900  0.24881200  0.53398300  1
  P  P8  1  0.53398300  0.96320900  0.24881200  1
  P  P9  1  0.45907000  0.04175600  0.75282500  1
  P  P10  1  0.04175600  0.75282500  0.45907000  1
  P  P11  1  0.75282500  0.45907000  0.04175600  1
  O  O12  1  0.70392000  0.48761500  0.88357600  1
  O  O13  1  0.48761500  0.88357600  0.70392000  1
  O  O14  1  0.08210700  0.72921200  0.94190400  1
  O  O15  1  0.88357600  0.70392000  0.48761500  1
  O  O16  1  0.20093900  0.37522800  0.99171400  1
  O  O17  1  0.41747700  0.55717600  0.76804900  1
  O  O18  1  0.94190400  0.08210700  0.72921100  1
  O  O19  1  0.76804900  0.41747700  0.55717600  1
  O  O20  1  0.61673800  0.00855400  0.80319500  1
  O  O21  1  0.55717600  0.76804900  0.41747700  1
  O  O22  1  0.26484400  0.06137500  0.92392100  1
  O  O23  1  0.00855400  0.80319500  0.61673800  1
  O  O24  1  0.99171400  0.20093900  0.37522800  1
  O  O25  1  0.72921100  0.94190400  0.08210700  1
  O  O26  1  0.43710600  0.23385700  0.58475900  1
  O  O27  1  0.37522800  0.99171400  0.20093900  1
  O  O28  1  0.23385700  0.58475900  0.43710600  1
  O  O29  1  0.06137500  0.92392100  0.26484400  1
  O  O30  1  0.58475900  0.43710600  0.23385700  1
  O  O31  1  0.80319500  0.61673800  0.00855400  1
  O  O32  1  0.11690900  0.30232700  0.50606400  1
  O  O33  1  0.92392100  0.26484400  0.06137500  1
  O  O34  1  0.50606400  0.11690900  0.30232700  1
  O  O35  1  0.30232700  0.50606400  0.11690900  1
