# generated using pymatgen
data_Gd2W2O9
_symmetry_space_group_name_H-M   'P 1'
_cell_length_a   9.85529570
_cell_length_b   9.85529570
_cell_length_c   7.25140700
_cell_angle_alpha   90.00000000
_cell_angle_beta   90.00000000
_cell_angle_gamma   105.71413996
_symmetry_Int_Tables_number   1
_chemical_formula_structural   Gd2W2O9
_chemical_formula_sum   'Gd8 W8 O36'
_cell_volume   677.98284914
_cell_formula_units_Z   4
loop_
 _symmetry_equiv_pos_site_id
 _symmetry_equiv_pos_as_xyz
  1  'x, y, z'
loop_
 _atom_site_type_symbol
 _atom_site_label
 _atom_site_symmetry_multiplicity
 _atom_site_fract_x
 _atom_site_fract_y
 _atom_site_fract_z
 _atom_site_occupancy
  Gd  Gd0  1  0.11994000  0.40936600  0.49647700  1
  Gd  Gd1  1  0.40936600  0.11994000  0.50352300  1
  Gd  Gd2  1  0.77053900  0.22946100  0.25000000  1
  Gd  Gd3  1  0.77463800  0.22536200  0.75000000  1
  Gd  Gd4  1  0.22536200  0.77463800  0.25000000  1
  Gd  Gd5  1  0.22946100  0.77053900  0.75000000  1
  Gd  Gd6  1  0.59063400  0.88006000  0.00352300  1
  Gd  Gd7  1  0.88006000  0.59063400  0.99647700  1
  W  W8  1  0.95503600  0.95503600  0.00000000  1
  W  W9  1  0.14993500  0.39422100  0.99707100  1
  W  W10  1  0.39422100  0.14993500  0.00292900  1
  W  W11  1  0.49970500  0.50029500  0.25000000  1
  W  W12  1  0.50029500  0.49970500  0.75000000  1
  W  W13  1  0.60577900  0.85006500  0.50292900  1
  W  W14  1  0.85006500  0.60577900  0.49707100  1
  W  W15  1  0.04496400  0.04496400  0.50000000  1
  O  O16  1  0.32977500  0.03254500  0.20415700  1
  O  O17  1  0.03254500  0.32977500  0.79584300  1
  O  O18  1  0.19850200  0.19850200  0.50000000  1
  O  O19  1  0.33328900  0.03251900  0.80137300  1
  O  O20  1  0.03251900  0.33328900  0.19862700  1
  O  O21  1  0.22576800  0.22576800  0.00000000  1
  O  O22  1  0.11366000  0.57739600  0.99640100  1
  O  O23  1  0.57739600  0.11366000  0.00359900  1
  O  O24  1  0.30476000  0.47555800  0.18742500  1
  O  O25  1  0.47555800  0.30476000  0.81257500  1
  O  O26  1  0.30370400  0.47719100  0.80803600  1
  O  O27  1  0.47719100  0.30370400  0.19196400  1
  O  O28  1  0.63045200  0.20932400  0.50358000  1
  O  O29  1  0.20932400  0.63045200  0.49642000  1
  O  O30  1  0.44184200  0.44184200  0.50000000  1
  O  O31  1  0.08931500  0.84913300  0.99131600  1
  O  O32  1  0.84913300  0.08931500  0.00868400  1
  O  O33  1  0.99504400  0.00495600  0.75000000  1
  O  O34  1  0.00495600  0.99504400  0.25000000  1
  O  O35  1  0.15086700  0.91068500  0.50868400  1
  O  O36  1  0.91068500  0.15086700  0.49131600  1
  O  O37  1  0.55815800  0.55815800  0.00000000  1
  O  O38  1  0.36954800  0.79067600  0.00358000  1
  O  O39  1  0.79067600  0.36954800  0.99642000  1
  O  O40  1  0.52280900  0.69629600  0.69196400  1
  O  O41  1  0.69629600  0.52280900  0.30803600  1
  O  O42  1  0.52444200  0.69524000  0.31257500  1
  O  O43  1  0.69524000  0.52444200  0.68742500  1
  O  O44  1  0.88634000  0.42260400  0.49640100  1
  O  O45  1  0.42260400  0.88634000  0.50359900  1
  O  O46  1  0.77423200  0.77423200  0.50000000  1
  O  O47  1  0.96748100  0.66671100  0.69862700  1
  O  O48  1  0.66671100  0.96748100  0.30137300  1
  O  O49  1  0.80149800  0.80149800  0.00000000  1
  O  O50  1  0.96745500  0.67022500  0.29584300  1
  O  O51  1  0.67022500  0.96745500  0.70415700  1
