# generated using pymatgen
data_Fe4O7F
_symmetry_space_group_name_H-M   'P 1'
_cell_length_a   6.03215400
_cell_length_b   6.41624200
_cell_length_c   6.61664500
_cell_angle_alpha   90.00000000
_cell_angle_beta   90.00000000
_cell_angle_gamma   90.00000000
_symmetry_Int_Tables_number   1
_chemical_formula_structural   Fe4O7F
_chemical_formula_sum   'Fe8 O14 F2'
_cell_volume   256.08903906
_cell_formula_units_Z   2
loop_
 _symmetry_equiv_pos_site_id
 _symmetry_equiv_pos_as_xyz
  1  'x, y, z'
loop_
 _atom_site_type_symbol
 _atom_site_label
 _atom_site_symmetry_multiplicity
 _atom_site_fract_x
 _atom_site_fract_y
 _atom_site_fract_z
 _atom_site_occupancy
  Fe  Fe0  1  0.74278100  0.00000000  0.74156500  1
  Fe  Fe1  1  0.25721900  0.00000000  0.74156500  1
  Fe  Fe2  1  0.50000000  0.50000000  0.73173800  1
  Fe  Fe3  1  0.00000000  0.50000000  0.75624100  1
  Fe  Fe4  1  0.50000000  0.00000000  0.24375900  1
  Fe  Fe5  1  0.00000000  0.00000000  0.26826200  1
  Fe  Fe6  1  0.24278100  0.50000000  0.25843500  1
  Fe  Fe7  1  0.75721900  0.50000000  0.25843500  1
  O  O8  1  0.00000000  0.00000000  0.56681600  1
  O  O9  1  0.50000000  0.00000000  0.54644000  1
  O  O10  1  0.75257900  0.69391600  0.75265800  1
  O  O11  1  0.24742100  0.69391600  0.75265800  1
  O  O12  1  0.74742100  0.80608400  0.24734200  1
  O  O13  1  0.25257900  0.80608400  0.24734200  1
  O  O14  1  0.75257900  0.30608400  0.75265800  1
  O  O15  1  0.24742100  0.30608400  0.75265800  1
  O  O16  1  0.50000000  0.00000000  0.93695300  1
  O  O17  1  0.00000000  0.50000000  0.45356000  1
  O  O18  1  0.50000000  0.50000000  0.43318400  1
  O  O19  1  0.00000000  0.50000000  0.06304700  1
  O  O20  1  0.74742100  0.19391600  0.24734200  1
  O  O21  1  0.25257900  0.19391600  0.24734200  1
  F  F22  1  0.00000000  0.00000000  0.95339500  1
  F  F23  1  0.50000000  0.50000000  0.04660500  1
