# generated using pymatgen
data_Er2Zr2O7
_symmetry_space_group_name_H-M   'P 1'
_cell_length_a   5.87969699
_cell_length_b   5.87969699
_cell_length_c   5.61369890
_cell_angle_alpha   83.87647490
_cell_angle_beta   83.87647490
_cell_angle_gamma   107.69267524
_symmetry_Int_Tables_number   1
_chemical_formula_structural   Er2Zr2O7
_chemical_formula_sum   'Er2 Zr2 O7'
_cell_volume   181.84327855
_cell_formula_units_Z   1
loop_
 _symmetry_equiv_pos_site_id
 _symmetry_equiv_pos_as_xyz
  1  'x, y, z'
loop_
 _atom_site_type_symbol
 _atom_site_label
 _atom_site_symmetry_multiplicity
 _atom_site_fract_x
 _atom_site_fract_y
 _atom_site_fract_z
 _atom_site_occupancy
  Er  Er0  1  0.68905700  0.31094300  0.50000000  1
  Er  Er1  1  0.31094300  0.68905700  0.50000000  1
  Zr  Zr2  1  0.74376000  0.74376000  0.89630900  1
  Zr  Zr3  1  0.25624000  0.25624000  0.10369100  1
  O  O4  1  0.00000000  0.00000000  0.00000000  1
  O  O5  1  0.94494700  0.59402600  0.69612200  1
  O  O6  1  0.55677900  0.55677900  0.23340000  1
  O  O7  1  0.59402600  0.94494700  0.69612200  1
  O  O8  1  0.40597400  0.05505300  0.30387800  1
  O  O9  1  0.44322100  0.44322100  0.76660000  1
  O  O10  1  0.05505300  0.40597400  0.30387800  1
