# generated using pymatgen
data_Cs2MgO2
_symmetry_space_group_name_H-M   'P 1'
_cell_length_a   6.78398700
_cell_length_b   10.06912700
_cell_length_c   16.71256841
_cell_angle_alpha   63.10303704
_cell_angle_beta   90.00000000
_cell_angle_gamma   90.00000000
_symmetry_Int_Tables_number   1
_chemical_formula_structural   Cs2MgO2
_chemical_formula_sum   'Cs16 Mg8 O16'
_cell_volume   1018.11765062
_cell_formula_units_Z   8
loop_
 _symmetry_equiv_pos_site_id
 _symmetry_equiv_pos_as_xyz
  1  'x, y, z'
loop_
 _atom_site_type_symbol
 _atom_site_label
 _atom_site_symmetry_multiplicity
 _atom_site_fract_x
 _atom_site_fract_y
 _atom_site_fract_z
 _atom_site_occupancy
  Cs  Cs0  1  0.33522200  0.85205700  0.97256200  1
  Cs  Cs1  1  0.86590100  0.92488400  0.83649500  1
  Cs  Cs2  1  0.08593200  0.67943800  0.74141200  1
  Cs  Cs3  1  0.57042900  0.57198200  0.87810400  1
  Cs  Cs4  1  0.16477800  0.85205700  0.47256200  1
  Cs  Cs5  1  0.63409900  0.92488400  0.33649500  1
  Cs  Cs6  1  0.07042900  0.42801800  0.62189600  1
  Cs  Cs7  1  0.58593200  0.32056200  0.75858800  1
  Cs  Cs8  1  0.41406800  0.67943800  0.24141200  1
  Cs  Cs9  1  0.92957100  0.57198200  0.37810400  1
  Cs  Cs10  1  0.36590100  0.07511600  0.66350500  1
  Cs  Cs11  1  0.83522200  0.14794300  0.52743800  1
  Cs  Cs12  1  0.42957100  0.42801800  0.12189600  1
  Cs  Cs13  1  0.91406800  0.32056200  0.25858800  1
  Cs  Cs14  1  0.13409900  0.07511600  0.16350500  1
  Cs  Cs15  1  0.66477800  0.14794300  0.02743800  1
  Mg  Mg16  1  0.62881300  0.75363800  0.62583800  1
  Mg  Mg17  1  0.05038100  0.41332900  0.96014000  1
  Mg  Mg18  1  0.55038100  0.58667100  0.53986000  1
  Mg  Mg19  1  0.12881300  0.24636200  0.87416200  1
  Mg  Mg20  1  0.87118700  0.75363800  0.12583800  1
  Mg  Mg21  1  0.44961900  0.41332900  0.46014000  1
  Mg  Mg22  1  0.94961900  0.58667100  0.03986000  1
  Mg  Mg23  1  0.37118700  0.24636200  0.37416200  1
  O  O24  1  0.69046400  0.85688600  0.69386900  1
  O  O25  1  0.11886900  0.62471300  0.93276300  1
  O  O26  1  0.76709600  0.73371500  0.52853700  1
  O  O27  1  0.41191400  0.61663500  0.63961100  1
  O  O28  1  0.91191400  0.38336500  0.86038900  1
  O  O29  1  0.26709600  0.26628500  0.97146300  1
  O  O30  1  0.80953600  0.85688600  0.19386900  1
  O  O31  1  0.38113100  0.62471300  0.43276300  1
  O  O32  1  0.61886900  0.37528700  0.56723700  1
  O  O33  1  0.19046400  0.14311400  0.80613100  1
  O  O34  1  0.73290400  0.73371500  0.02853700  1
  O  O35  1  0.08808600  0.61663500  0.13961100  1
  O  O36  1  0.58808600  0.38336500  0.36038900  1
  O  O37  1  0.23290400  0.26628500  0.47146300  1
  O  O38  1  0.88113100  0.37528700  0.06723700  1
  O  O39  1  0.30953600  0.14311400  0.30613100  1
