# generated using pymatgen
data_Cs2HfO3
_symmetry_space_group_name_H-M   'P 1'
_cell_length_a   6.50899700
_cell_length_b   7.29396057
_cell_length_c   14.53772900
_cell_angle_alpha   90.00000000
_cell_angle_beta   90.00000000
_cell_angle_gamma   116.49955890
_symmetry_Int_Tables_number   1
_chemical_formula_structural   Cs2HfO3
_chemical_formula_sum   'Cs8 Hf4 O12'
_cell_volume   617.68478213
_cell_formula_units_Z   4
loop_
 _symmetry_equiv_pos_site_id
 _symmetry_equiv_pos_as_xyz
  1  'x, y, z'
loop_
 _atom_site_type_symbol
 _atom_site_label
 _atom_site_symmetry_multiplicity
 _atom_site_fract_x
 _atom_site_fract_y
 _atom_site_fract_z
 _atom_site_occupancy
  Cs  Cs0  1  0.05228100  0.10456300  0.13407400  1
  Cs  Cs1  1  0.36710700  0.73421500  0.07103800  1
  Cs  Cs2  1  0.13289300  0.26578500  0.57103800  1
  Cs  Cs3  1  0.44771900  0.89543700  0.63407400  1
  Cs  Cs4  1  0.55228100  0.10456300  0.36592600  1
  Cs  Cs5  1  0.86710700  0.73421500  0.42896200  1
  Cs  Cs6  1  0.63289300  0.26578500  0.92896200  1
  Cs  Cs7  1  0.94771900  0.89543700  0.86592600  1
  Hf  Hf8  1  0.24009900  0.48019900  0.32753200  1
  Hf  Hf9  1  0.25990100  0.51980100  0.82753200  1
  Hf  Hf10  1  0.74009900  0.48019900  0.17246800  1
  Hf  Hf11  1  0.75990100  0.51980100  0.67246800  1
  O  O12  1  0.01700300  0.53400500  0.25000000  1
  O  O13  1  0.32887400  0.65774800  0.43302000  1
  O  O14  1  0.09869400  0.19738700  0.36449200  1
  O  O15  1  0.17112600  0.34225200  0.93302000  1
  O  O16  1  0.40130600  0.80261300  0.86449200  1
  O  O17  1  0.48299700  0.46599500  0.75000000  1
  O  O18  1  0.51700300  0.53400500  0.25000000  1
  O  O19  1  0.82887400  0.65774800  0.06698000  1
  O  O20  1  0.90130600  0.80261300  0.63550800  1
  O  O21  1  0.59869400  0.19738700  0.13550800  1
  O  O22  1  0.67112600  0.34225200  0.56698000  1
  O  O23  1  0.98299700  0.46599500  0.75000000  1
