# generated using pymatgen
data_Fe2Co3Sb3O16
_symmetry_space_group_name_H-M   'P 1'
_cell_length_a   5.93757455
_cell_length_b   5.93757455
_cell_length_c   9.02268274
_cell_angle_alpha   89.11569742
_cell_angle_beta   89.11569742
_cell_angle_gamma   60.81297391
_symmetry_Int_Tables_number   1
_chemical_formula_structural   Fe2Co3Sb3O16
_chemical_formula_sum   'Fe2 Co3 Sb3 O16'
_cell_volume   277.66089239
_cell_formula_units_Z   1
loop_
 _symmetry_equiv_pos_site_id
 _symmetry_equiv_pos_as_xyz
  1  'x, y, z'
loop_
 _atom_site_type_symbol
 _atom_site_label
 _atom_site_symmetry_multiplicity
 _atom_site_fract_x
 _atom_site_fract_y
 _atom_site_fract_z
 _atom_site_occupancy
  Fe  Fe0  1  0.67374900  0.67374900  0.49715100  1
  Fe  Fe1  1  0.34167500  0.34167500  0.98044900  1
  Co  Co2  1  0.83227200  0.83227200  0.20336700  1
  Co  Co3  1  0.66483800  0.16524900  0.71178800  1
  Co  Co4  1  0.16524900  0.66483800  0.71178800  1
  Sb  Sb5  1  0.82912800  0.33446600  0.21118100  1
  Sb  Sb6  1  0.33446600  0.82912800  0.21118100  1
  Sb  Sb7  1  0.16466600  0.16466600  0.71288300  1
  O  O8  1  0.82706700  0.32546900  0.60490300  1
  O  O9  1  0.51345200  0.51345200  0.34404100  1
  O  O10  1  0.67401000  0.67401000  0.09232200  1
  O  O11  1  0.98882700  0.98882700  0.31770000  1
  O  O12  1  0.99026400  0.99026400  0.81966400  1
  O  O13  1  0.32546900  0.82706700  0.60490300  1
  O  O14  1  0.95796100  0.51619300  0.33992500  1
  O  O15  1  0.51619300  0.95796100  0.33992500  1
  O  O16  1  0.16864000  0.16864000  0.09579900  1
  O  O17  1  0.83990000  0.83990000  0.61469200  1
  O  O18  1  0.48691900  0.04944200  0.84017300  1
  O  O19  1  0.04944200  0.48691900  0.84017300  1
  O  O20  1  0.34000700  0.34000700  0.60233700  1
  O  O21  1  0.66557000  0.17303300  0.09573800  1
  O  O22  1  0.47729900  0.47729900  0.82602200  1
  O  O23  1  0.17303300  0.66557000  0.09573800  1
