# generated using pymatgen
data_Cr2Fe3Sn(PO4)6
_symmetry_space_group_name_H-M   'P 1'
_cell_length_a   8.57984841
_cell_length_b   8.57984841
_cell_length_c   8.57984868
_cell_angle_alpha   60.70727703
_cell_angle_beta   60.70727703
_cell_angle_gamma   60.70728340
_symmetry_Int_Tables_number   1
_chemical_formula_structural   Cr2Fe3Sn(PO4)6
_chemical_formula_sum   'Cr2 Fe3 Sn1 P6 O24'
_cell_volume   453.73428857
_cell_formula_units_Z   1
loop_
 _symmetry_equiv_pos_site_id
 _symmetry_equiv_pos_as_xyz
  1  'x, y, z'
loop_
 _atom_site_type_symbol
 _atom_site_label
 _atom_site_symmetry_multiplicity
 _atom_site_fract_x
 _atom_site_fract_y
 _atom_site_fract_z
 _atom_site_occupancy
  Cr  Cr0  1  0.00322600  0.00322600  0.00322600  1
  Cr  Cr1  1  0.49919400  0.49919400  0.49919400  1
  Fe  Fe2  1  0.14664800  0.14664800  0.14664800  1
  Fe  Fe3  1  0.35345300  0.35345300  0.35345300  1
  Fe  Fe4  1  0.64545900  0.64545900  0.64545900  1
  Sn  Sn5  1  0.85495200  0.85495200  0.85495200  1
  P  P6  1  0.95306000  0.54204400  0.25421800  1
  P  P7  1  0.25421800  0.95306000  0.54204400  1
  P  P8  1  0.54204400  0.25421800  0.95306000  1
  P  P9  1  0.44978000  0.74734300  0.04924300  1
  P  P10  1  0.74734300  0.04924300  0.44978000  1
  P  P11  1  0.04924300  0.44978000  0.74734300  1
  O  O12  1  0.50392300  0.31951200  0.10776900  1
  O  O13  1  0.10776900  0.50392300  0.31951200  1
  O  O14  1  0.25419300  0.90939000  0.06286300  1
  O  O15  1  0.31951200  0.10776900  0.50392300  1
  O  O16  1  0.60342500  0.81536200  0.01589400  1
  O  O17  1  0.43527700  0.58932000  0.24663300  1
  O  O18  1  0.90939000  0.06286300  0.25419300  1
  O  O19  1  0.58932000  0.24663300  0.43527700  1
  O  O20  1  0.99454600  0.39124100  0.18129600  1
  O  O21  1  0.24663300  0.43527700  0.58932000  1
  O  O22  1  0.93972500  0.74421800  0.09261200  1
  O  O23  1  0.18129600  0.99454600  0.39124100  1
  O  O24  1  0.81536200  0.01589400  0.60342500  1
  O  O25  1  0.06286300  0.25419300  0.90939000  1
  O  O26  1  0.75396900  0.55984500  0.41017600  1
  O  O27  1  0.01589400  0.60342500  0.81536200  1
  O  O28  1  0.41017600  0.75396900  0.55984500  1
  O  O29  1  0.09261200  0.93972500  0.74421800  1
  O  O30  1  0.55984500  0.41017600  0.75396900  1
  O  O31  1  0.39124100  0.18129600  0.99454600  1
  O  O32  1  0.68317200  0.89004600  0.49697300  1
  O  O33  1  0.74421800  0.09261200  0.93972500  1
  O  O34  1  0.89004600  0.49697300  0.68317200  1
  O  O35  1  0.49697300  0.68317200  0.89004600  1
