# generated using pymatgen
data_Fe2OF2
_symmetry_space_group_name_H-M   'P 1'
_cell_length_a   5.48566893
_cell_length_b   5.48566893
_cell_length_c   14.27973973
_cell_angle_alpha   89.98405396
_cell_angle_beta   89.98405396
_cell_angle_gamma   58.50056592
_symmetry_Int_Tables_number   1
_chemical_formula_structural   Fe2OF2
_chemical_formula_sum   'Fe12 O6 F12'
_cell_volume   366.39359415
_cell_formula_units_Z   6
loop_
 _symmetry_equiv_pos_site_id
 _symmetry_equiv_pos_as_xyz
  1  'x, y, z'
loop_
 _atom_site_type_symbol
 _atom_site_label
 _atom_site_symmetry_multiplicity
 _atom_site_fract_x
 _atom_site_fract_y
 _atom_site_fract_z
 _atom_site_occupancy
  Fe  Fe0  1  0.99822800  0.01433200  0.64705200  1
  Fe  Fe1  1  0.01433200  0.99822800  0.14705200  1
  Fe  Fe2  1  0.63422800  0.64935500  0.81201500  1
  Fe  Fe3  1  0.65086500  0.64593700  0.52210900  1
  Fe  Fe4  1  0.64935500  0.63422800  0.31201500  1
  Fe  Fe5  1  0.64593700  0.65086500  0.02210900  1
  Fe  Fe6  1  0.35406300  0.34913500  0.97789100  1
  Fe  Fe7  1  0.35064500  0.36577200  0.68798500  1
  Fe  Fe8  1  0.34913500  0.35406300  0.47789100  1
  Fe  Fe9  1  0.36577200  0.35064500  0.18798500  1
  Fe  Fe10  1  0.98566800  0.00177200  0.85294800  1
  Fe  Fe11  1  0.00177200  0.98566800  0.35294800  1
  O  O12  1  0.67815300  0.35156300  0.91499600  1
  O  O13  1  0.35156300  0.67815300  0.41499600  1
  O  O14  1  0.64843700  0.32184700  0.58500400  1
  O  O15  1  0.32184700  0.64843700  0.08500400  1
  O  O16  1  0.26711200  0.73288800  0.75000000  1
  O  O17  1  0.73288800  0.26711200  0.25000000  1
  F  F18  1  0.01701400  0.32147900  0.74943600  1
  F  F19  1  0.32147900  0.01701400  0.24943600  1
  F  F20  1  0.35681100  0.98459600  0.91833000  1
  F  F21  1  0.98459600  0.35681100  0.41833000  1
  F  F22  1  0.33721600  0.05113500  0.58252100  1
  F  F23  1  0.05113500  0.33721600  0.08252100  1
  F  F24  1  0.94886500  0.66278400  0.91747900  1
  F  F25  1  0.66278400  0.94886500  0.41747900  1
  F  F26  1  0.01540400  0.64318900  0.58167000  1
  F  F27  1  0.64318900  0.01540400  0.08167000  1
  F  F28  1  0.67852100  0.98298600  0.75056400  1
  F  F29  1  0.98298600  0.67852100  0.25056400  1
