# generated using pymatgen
data_Co2(SO4)3
_symmetry_space_group_name_H-M   'P 1'
_cell_length_a   8.33370299
_cell_length_b   11.86072792
_cell_length_c   8.55229600
_cell_angle_alpha   90.00000000
_cell_angle_beta   90.00000000
_cell_angle_gamma   90.81427650
_symmetry_Int_Tables_number   1
_chemical_formula_structural   Co2(SO4)3
_chemical_formula_sum   'Co8 S12 O48'
_cell_volume   845.25592890
_cell_formula_units_Z   4
loop_
 _symmetry_equiv_pos_site_id
 _symmetry_equiv_pos_as_xyz
  1  'x, y, z'
loop_
 _atom_site_type_symbol
 _atom_site_label
 _atom_site_symmetry_multiplicity
 _atom_site_fract_x
 _atom_site_fract_y
 _atom_site_fract_z
 _atom_site_occupancy
  Co  Co0  1  0.24888000  0.88970900  0.02910400  1
  Co  Co1  1  0.25112000  0.61029100  0.52910400  1
  Co  Co2  1  0.25373500  0.38276300  0.96840600  1
  Co  Co3  1  0.24626500  0.11723700  0.46840600  1
  Co  Co4  1  0.75373500  0.88276300  0.53159400  1
  Co  Co5  1  0.74626500  0.61723700  0.03159400  1
  Co  Co6  1  0.74888000  0.38970900  0.47089600  1
  Co  Co7  1  0.75112000  0.11029100  0.97089600  1
  S  S8  1  0.04036000  0.49317200  0.24600500  1
  S  S9  1  0.10963200  0.85059600  0.37997800  1
  S  S10  1  0.11696800  0.14447200  0.11294900  1
  S  S11  1  0.39036800  0.64940400  0.87997800  1
  S  S12  1  0.38303200  0.35552800  0.61294900  1
  S  S13  1  0.45964000  0.00682800  0.74600500  1
  S  S14  1  0.54036000  0.99317200  0.25399500  1
  S  S15  1  0.61696800  0.64447200  0.38705100  1
  S  S16  1  0.60963200  0.35059600  0.12002200  1
  S  S17  1  0.88303200  0.85552800  0.88705100  1
  S  S18  1  0.89036800  0.14940400  0.62002200  1
  S  S19  1  0.95964000  0.50682800  0.75399500  1
  O  O20  1  0.05204200  0.44539500  0.87182600  1
  O  O21  1  0.04980100  0.89997500  0.88480100  1
  O  O22  1  0.05369900  0.59796200  0.67808400  1
  O  O23  1  0.05650900  0.18587700  0.57998300  1
  O  O24  1  0.10130400  0.57837700  0.36058700  1
  O  O25  1  0.12694200  0.83490400  0.20518900  1
  O  O26  1  0.13365800  0.97045600  0.41733900  1
  O  O27  1  0.12609900  0.24199000  0.00533400  1
  O  O28  1  0.16575300  0.18290100  0.27356800  1
  O  O29  1  0.18460000  0.44179900  0.17154800  1
  O  O30  1  0.22742400  0.78001800  0.46187400  1
  O  O31  1  0.27257600  0.71998200  0.96187400  1
  O  O32  1  0.23109300  0.05681500  0.06261300  1
  O  O33  1  0.26890700  0.44318500  0.56261300  1
  O  O34  1  0.31540000  0.05820100  0.67154800  1
  O  O35  1  0.33424700  0.31709900  0.77356800  1
  O  O36  1  0.36634200  0.52954400  0.91733900  1
  O  O37  1  0.37390100  0.25801000  0.50533400  1
  O  O38  1  0.37305800  0.66509600  0.70518900  1
  O  O39  1  0.39869600  0.92162300  0.86058700  1
  O  O40  1  0.44630100  0.90203800  0.17808400  1
  O  O41  1  0.45019900  0.60002500  0.38480100  1
  O  O42  1  0.44349100  0.31412300  0.07998300  1
  O  O43  1  0.44795800  0.05460500  0.37182600  1
  O  O44  1  0.55204200  0.94539500  0.62817400  1
  O  O45  1  0.55650900  0.68587700  0.92001700  1
  O  O46  1  0.54980100  0.39997500  0.61519900  1
  O  O47  1  0.55369900  0.09796200  0.82191600  1
  O  O48  1  0.60130400  0.07837700  0.13941300  1
  O  O49  1  0.62694200  0.33490400  0.29481100  1
  O  O50  1  0.62609900  0.74199000  0.49466600  1
  O  O51  1  0.63365800  0.47045600  0.08266100  1
  O  O52  1  0.66575300  0.68290100  0.22643200  1
  O  O53  1  0.68460000  0.94179900  0.32845200  1
  O  O54  1  0.73109300  0.55681500  0.43738700  1
  O  O55  1  0.76890700  0.94318500  0.93738700  1
  O  O56  1  0.72742400  0.28001800  0.03812600  1
  O  O57  1  0.77257600  0.21998200  0.53812600  1
  O  O58  1  0.81540000  0.55820100  0.82845200  1
  O  O59  1  0.83424700  0.81709900  0.72643200  1
  O  O60  1  0.87390100  0.75801000  0.99466600  1
  O  O61  1  0.86634200  0.02954400  0.58266100  1
  O  O62  1  0.87305800  0.16509600  0.79481100  1
  O  O63  1  0.89869600  0.42162300  0.63941300  1
  O  O64  1  0.94349100  0.81412300  0.42001700  1
  O  O65  1  0.94630100  0.40203800  0.32191600  1
  O  O66  1  0.95019900  0.10002500  0.11519900  1
  O  O67  1  0.94795800  0.55460500  0.12817400  1
