# generated using pymatgen
data_Cr12Fe7O48
_symmetry_space_group_name_H-M   'P 1'
_cell_length_a   5.07300605
_cell_length_b   10.32469297
_cell_length_c   17.69507525
_cell_angle_alpha   89.77883833
_cell_angle_beta   89.30022255
_cell_angle_gamma   90.19215674
_symmetry_Int_Tables_number   1
_chemical_formula_structural   Cr12Fe7O48
_chemical_formula_sum   'Cr12 Fe7 O48'
_cell_volume   926.73763463
_cell_formula_units_Z   1
loop_
 _symmetry_equiv_pos_site_id
 _symmetry_equiv_pos_as_xyz
  1  'x, y, z'
loop_
 _atom_site_type_symbol
 _atom_site_label
 _atom_site_symmetry_multiplicity
 _atom_site_fract_x
 _atom_site_fract_y
 _atom_site_fract_z
 _atom_site_occupancy
  Cr  Cr0  1  0.23615500  0.74625700  0.94358900  1
  Cr  Cr1  1  0.23268400  0.03113800  0.65389300  1
  Cr  Cr2  1  0.23207600  0.46882100  0.65290400  1
  Cr  Cr3  1  0.28781800  0.52668100  0.15244100  1
  Cr  Cr4  1  0.29092500  0.97586500  0.15696100  1
  Cr  Cr5  1  0.29008600  0.25056300  0.44452700  1
  Cr  Cr6  1  0.71612500  0.74994900  0.56069300  1
  Cr  Cr7  1  0.71520700  0.47458200  0.84397000  1
  Cr  Cr8  1  0.71409900  0.02887400  0.84672100  1
  Cr  Cr9  1  0.75891500  0.53108400  0.34311100  1
  Cr  Cr10  1  0.76051400  0.96955900  0.34444600  1
  Cr  Cr11  1  0.76423500  0.24693300  0.05601300  1
  Fe  Fe12  1  0.23301000  0.75229200  0.29518100  1
  Fe  Fe13  1  0.22984200  0.06677500  0.97599000  1
  Fe  Fe14  1  0.40787400  0.75202800  0.75075900  1
  Fe  Fe15  1  0.59271500  0.25004700  0.24694900  1
  Fe  Fe16  1  0.76122700  0.06736900  0.52733200  1
  Fe  Fe17  1  0.76249600  0.43381500  0.52675900  1
  Fe  Fe18  1  0.76779300  0.56733400  0.02175300  1
  O  O19  1  0.04282700  0.23099200  0.00458300  1
  O  O20  1  0.03757000  0.61539600  0.35621800  1
  O  O21  1  0.03894200  0.88578400  0.35895400  1
  O  O22  1  0.13429700  0.62957600  0.21047500  1
  O  O23  1  0.11139900  0.87374500  0.21412500  1
  O  O24  1  0.10112400  0.12439000  0.46553000  1
  O  O25  1  0.10158200  0.37624400  0.46513300  1
  O  O26  1  0.11051700  0.00872500  0.08046700  1
  O  O27  1  0.07805900  0.49762900  0.08281800  1
  O  O28  1  0.18789200  0.74541800  0.84988600  1
  O  O29  1  0.18800700  0.60987000  0.70029000  1
  O  O30  1  0.18713100  0.88939700  0.70110500  1
  O  O31  1  0.36469900  0.11394900  0.20451900  1
  O  O32  1  0.36525100  0.39051400  0.19878100  1
  O  O33  1  0.37242700  0.25076100  0.35351500  1
  O  O34  1  0.43427000  0.49206800  0.57829300  1
  O  O35  1  0.43495000  0.00864900  0.57930100  1
  O  O36  1  0.38106300  0.88423200  0.96696100  1
  O  O37  1  0.44088500  0.62745700  0.96582900  1
  O  O38  1  0.37711000  0.12892800  0.70934100  1
  O  O39  1  0.37887400  0.37125200  0.70840700  1
  O  O40  1  0.44439300  0.10609100  0.88253500  1
  O  O41  1  0.45766700  0.38904100  0.87026000  1
  O  O42  1  0.46518100  0.74961000  0.50666900  1
  O  O43  1  0.57369300  0.25044700  0.50267500  1
  O  O44  1  0.55901000  0.60014300  0.11824700  1
  O  O45  1  0.55296900  0.90167100  0.13144800  1
  O  O46  1  0.54618000  0.62530300  0.29951800  1
  O  O47  1  0.54649000  0.87513500  0.30083200  1
  O  O48  1  0.55800800  0.12968000  0.03339500  1
  O  O49  1  0.61924000  0.38509400  0.03300300  1
  O  O50  1  0.62507400  0.01004500  0.42698700  1
  O  O51  1  0.62603000  0.49013600  0.42626400  1
  O  O52  1  0.62557600  0.75034600  0.65325300  1
  O  O53  1  0.62751200  0.61080600  0.79645000  1
  O  O54  1  0.62825700  0.89163100  0.80076200  1
  O  O55  1  0.81138400  0.10616800  0.29475600  1
  O  O56  1  0.80756700  0.39485600  0.29306400  1
  O  O57  1  0.81025400  0.24498100  0.15049700  1
  O  O58  1  0.89684300  0.50946000  0.92133000  1
  O  O59  1  0.92357600  0.99965500  0.91853300  1
  O  O60  1  0.89683400  0.61621800  0.54021100  1
  O  O61  1  0.89597300  0.88470300  0.53986000  1
  O  O62  1  0.86441300  0.12442100  0.78874400  1
  O  O63  1  0.89452500  0.37917300  0.79010100  1
  O  O64  1  0.94901400  0.10175900  0.62124100  1
  O  O65  1  0.94852100  0.39683800  0.62084200  1
  O  O66  1  0.95837100  0.73005000  0.99646900  1
