# generated using pymatgen
data_CeHfO4
_symmetry_space_group_name_H-M   'P 1'
_cell_length_a   10.55553500
_cell_length_b   10.55553500
_cell_length_c   10.55553500
_cell_angle_alpha   90.00000000
_cell_angle_beta   90.00000000
_cell_angle_gamma   90.00000000
_symmetry_Int_Tables_number   1
_chemical_formula_structural   CeHfO4
_chemical_formula_sum   'Ce16 Hf16 O64'
_cell_volume   1176.09052282
_cell_formula_units_Z   16
loop_
 _symmetry_equiv_pos_site_id
 _symmetry_equiv_pos_as_xyz
  1  'x, y, z'
loop_
 _atom_site_type_symbol
 _atom_site_label
 _atom_site_symmetry_multiplicity
 _atom_site_fract_x
 _atom_site_fract_y
 _atom_site_fract_z
 _atom_site_occupancy
  Ce  Ce0  1  0.12401000  0.37513100  0.37412300  1
  Ce  Ce1  1  0.12587700  0.87599000  0.87513100  1
  Ce  Ce2  1  0.12486900  0.62587700  0.62401000  1
  Ce  Ce3  1  0.12518300  0.12518300  0.12518300  1
  Ce  Ce4  1  0.37481700  0.87481700  0.62518300  1
  Ce  Ce5  1  0.37513100  0.37412300  0.12401000  1
  Ce  Ce6  1  0.37412300  0.12401000  0.37513100  1
  Ce  Ce7  1  0.37599000  0.62486900  0.87412300  1
  Ce  Ce8  1  0.62401000  0.12486900  0.62587700  1
  Ce  Ce9  1  0.62587700  0.62401000  0.12486900  1
  Ce  Ce10  1  0.62486900  0.87412300  0.37599000  1
  Ce  Ce11  1  0.62518300  0.37481700  0.87481700  1
  Ce  Ce12  1  0.87481700  0.62518300  0.37481700  1
  Ce  Ce13  1  0.87513100  0.12587700  0.87599000  1
  Ce  Ce14  1  0.87412300  0.37599000  0.62486900  1
  Ce  Ce15  1  0.87599000  0.87513100  0.12587700  1
  Hf  Hf16  1  0.12445400  0.62317500  0.12225400  1
  Hf  Hf17  1  0.12225400  0.12445400  0.62317500  1
  Hf  Hf18  1  0.13068400  0.86931600  0.36931600  1
  Hf  Hf19  1  0.12317500  0.37774600  0.87554600  1
  Hf  Hf20  1  0.37682500  0.62225400  0.37554600  1
  Hf  Hf21  1  0.36931600  0.13068400  0.86931600  1
  Hf  Hf22  1  0.37774600  0.87554600  0.12317500  1
  Hf  Hf23  1  0.37554600  0.37682500  0.62225400  1
  Hf  Hf24  1  0.62445400  0.87682500  0.87774600  1
  Hf  Hf25  1  0.62225400  0.37554600  0.37682500  1
  Hf  Hf26  1  0.63068400  0.63068400  0.63068400  1
  Hf  Hf27  1  0.62317500  0.12225400  0.12445400  1
  Hf  Hf28  1  0.87682500  0.87774600  0.62445400  1
  Hf  Hf29  1  0.86931600  0.36931600  0.13068400  1
  Hf  Hf30  1  0.87774600  0.62445400  0.87682500  1
  Hf  Hf31  1  0.87554600  0.12317500  0.37774600  1
  O  O32  1  0.01092900  0.74623000  0.24862200  1
  O  O33  1  0.00139700  0.99655400  0.26408300  1
  O  O34  1  0.00096000  0.74131600  0.99998600  1
  O  O35  1  0.99490600  0.00509400  0.50509400  1
  O  O36  1  0.00122400  0.00122400  0.00122400  1
  O  O37  1  0.99998600  0.00096000  0.74131600  1
  O  O38  1  0.00344600  0.76408300  0.49860300  1
  O  O39  1  0.01237800  0.25108500  0.75006000  1
  O  O40  1  0.24891500  0.24994000  0.51237800  1
  O  O41  1  0.24994000  0.51237800  0.24891500  1
  O  O42  1  0.25185000  0.24815000  0.75185000  1
  O  O43  1  0.24862200  0.01092900  0.74623000  1
  O  O44  1  0.23591700  0.99860300  0.49655400  1
  O  O45  1  0.24131600  0.50001400  0.99904000  1
  O  O46  1  0.25377000  0.74862200  0.48907100  1
  O  O47  1  0.24990000  0.74990000  0.75010000  1
  O  O48  1  0.25010000  0.25010000  0.25010000  1
  O  O49  1  0.24623000  0.25137800  0.98907100  1
  O  O50  1  0.25868400  0.49998600  0.49904000  1
  O  O51  1  0.26408300  0.00139700  0.99655400  1
  O  O52  1  0.25137800  0.98907100  0.24623000  1
  O  O53  1  0.24815000  0.75185000  0.25185000  1
  O  O54  1  0.25006000  0.48762200  0.74891500  1
  O  O55  1  0.25108500  0.75006000  0.01237800  1
  O  O56  1  0.48762200  0.74891500  0.25006000  1
  O  O57  1  0.49877600  0.99877600  0.50122400  1
  O  O58  1  0.50509400  0.99490600  0.00509400  1
  O  O59  1  0.50001400  0.99904000  0.24131600  1
  O  O60  1  0.49655400  0.23591700  0.99860300  1
  O  O61  1  0.49904000  0.25868400  0.49998600  1
  O  O62  1  0.48907100  0.25377000  0.74862200  1
  O  O63  1  0.49860300  0.00344600  0.76408300  1
  O  O64  1  0.50139700  0.50344600  0.73591700  1
  O  O65  1  0.51092900  0.75377000  0.75137800  1
  O  O66  1  0.50096000  0.75868400  0.00001400  1
  O  O67  1  0.49998600  0.49904000  0.25868400  1
  O  O68  1  0.49490600  0.49490600  0.49490600  1
  O  O69  1  0.50122400  0.49877600  0.99877600  1
  O  O70  1  0.50344600  0.73591700  0.50139700  1
  O  O71  1  0.51237800  0.24891500  0.24994000  1
  O  O72  1  0.74891500  0.25006000  0.48762200  1
  O  O73  1  0.74994000  0.98762200  0.75108500  1
  O  O74  1  0.75185000  0.25185000  0.24815000  1
  O  O75  1  0.74862200  0.48907100  0.25377000  1
  O  O76  1  0.73591700  0.50139700  0.50344600  1
  O  O77  1  0.74131600  0.99998600  0.00096000  1
  O  O78  1  0.75377000  0.75137800  0.51092900  1
  O  O79  1  0.74990000  0.75010000  0.24990000  1
  O  O80  1  0.75010000  0.24990000  0.74990000  1
  O  O81  1  0.74623000  0.24862200  0.01092900  1
  O  O82  1  0.75868400  0.00001400  0.50096000  1
  O  O83  1  0.76408300  0.49860300  0.00344600  1
  O  O84  1  0.75137800  0.51092900  0.75377000  1
  O  O85  1  0.74815000  0.74815000  0.74815000  1
  O  O86  1  0.75006000  0.01237800  0.25108500  1
  O  O87  1  0.75108500  0.74994000  0.98762200  1
  O  O88  1  0.98762200  0.75108500  0.74994000  1
  O  O89  1  0.99655400  0.26408300  0.00139700  1
  O  O90  1  0.00509400  0.50509400  0.99490600  1
  O  O91  1  0.00001400  0.50096000  0.75868400  1
  O  O92  1  0.99877600  0.50122400  0.49877600  1
  O  O93  1  0.99904000  0.24131600  0.50001400  1
  O  O94  1  0.98907100  0.24623000  0.25137800  1
  O  O95  1  0.99860300  0.49655400  0.23591700  1
