# generated using pymatgen
data_Cd(CoO2)2
_symmetry_space_group_name_H-M   'P 1'
_cell_length_a   6.28785278
_cell_length_b   6.13537628
_cell_length_c   6.28968379
_cell_angle_alpha   59.11078490
_cell_angle_beta   89.91368417
_cell_angle_gamma   59.12273367
_symmetry_Int_Tables_number   1
_chemical_formula_structural   Cd(CoO2)2
_chemical_formula_sum   'Cd2 Co4 O8'
_cell_volume   167.03073630
_cell_formula_units_Z   2
loop_
 _symmetry_equiv_pos_site_id
 _symmetry_equiv_pos_as_xyz
  1  'x, y, z'
loop_
 _atom_site_type_symbol
 _atom_site_label
 _atom_site_symmetry_multiplicity
 _atom_site_fract_x
 _atom_site_fract_y
 _atom_site_fract_z
 _atom_site_occupancy
  Cd  Cd0  1  0.00000900  0.99997500  0.00002800  1
  Cd  Cd1  1  0.24999200  0.50002500  0.74997400  1
  Co  Co2  1  0.62500000  0.75000000  0.37500000  1
  Co  Co3  1  0.62500000  0.75000000  0.87500000  1
  Co  Co4  1  0.12500100  0.25000000  0.37500000  1
  Co  Co5  1  0.62500000  0.25000000  0.37500000  1
  O  O6  1  0.85504200  0.28989900  0.14106400  1
  O  O7  1  0.39489400  0.21016400  0.18101600  1
  O  O8  1  0.85891800  0.70996200  0.14526700  1
  O  O9  1  0.43112400  0.70997400  0.14467700  1
  O  O10  1  0.39495600  0.21010100  0.60893400  1
  O  O11  1  0.85510400  0.28983900  0.56898300  1
  O  O12  1  0.39108300  0.79003700  0.60473300  1
  O  O13  1  0.81887700  0.79002500  0.60532200  1
