# generated using pymatgen
data_Fe2OF3
_symmetry_space_group_name_H-M   'P 1'
_cell_length_a   3.14350900
_cell_length_b   4.83906000
_cell_length_c   24.03390010
_cell_angle_alpha   89.01214664
_cell_angle_beta   90.00000000
_cell_angle_gamma   90.00000000
_symmetry_Int_Tables_number   1
_chemical_formula_structural   Fe2OF3
_chemical_formula_sum   'Fe10 O5 F15'
_cell_volume   365.54042615
_cell_formula_units_Z   5
loop_
 _symmetry_equiv_pos_site_id
 _symmetry_equiv_pos_as_xyz
  1  'x, y, z'
loop_
 _atom_site_type_symbol
 _atom_site_label
 _atom_site_symmetry_multiplicity
 _atom_site_fract_x
 _atom_site_fract_y
 _atom_site_fract_z
 _atom_site_occupancy
  Fe  Fe0  1  0.00000000  0.96439100  0.00491700  1
  Fe  Fe1  1  0.00000000  0.01849800  0.80116600  1
  Fe  Fe2  1  0.00000000  0.98067100  0.60542100  1
  Fe  Fe3  1  0.00000000  0.97481300  0.40561800  1
  Fe  Fe4  1  0.00000000  0.97213800  0.20562100  1
  Fe  Fe5  1  0.50000000  0.46891300  0.89389300  1
  Fe  Fe6  1  0.50000000  0.52301300  0.69775300  1
  Fe  Fe7  1  0.50000000  0.51392800  0.49812500  1
  Fe  Fe8  1  0.50000000  0.51076400  0.29816200  1
  Fe  Fe9  1  0.50000000  0.50536800  0.09795000  1
  O  O10  1  0.50000000  0.82046200  0.63813900  1
  O  O11  1  0.50000000  0.81276900  0.43797200  1
  O  O12  1  0.50000000  0.80117300  0.03656000  1
  O  O13  1  0.50000000  0.81005300  0.23768300  1
  O  O14  1  0.00000000  0.30623000  0.86382600  1
  F  F15  1  0.50000000  0.79980700  0.84513000  1
  F  F16  1  0.00000000  0.69270400  0.93942300  1
  F  F17  1  0.00000000  0.71432200  0.54155600  1
  F  F18  1  0.00000000  0.71229100  0.34124600  1
  F  F19  1  0.00000000  0.71085200  0.14046900  1
  F  F20  1  0.00000000  0.70937900  0.74465700  1
  F  F21  1  0.00000000  0.30460700  0.65587900  1
  F  F22  1  0.00000000  0.29454900  0.25666000  1
  F  F23  1  0.00000000  0.28474700  0.05705800  1
  F  F24  1  0.00000000  0.29739400  0.45677100  1
  F  F25  1  0.50000000  0.19392300  0.96179500  1
  F  F26  1  0.50000000  0.21408800  0.75762200  1
  F  F27  1  0.50000000  0.19792400  0.55932000  1
  F  F28  1  0.50000000  0.19584200  0.35979100  1
  F  F29  1  0.50000000  0.19438400  0.15981700  1
