# generated using pymatgen
data_BaSrI4
_symmetry_space_group_name_H-M   'P 1'
_cell_length_a   10.37191500
_cell_length_b   10.77772400
_cell_length_c   10.95993700
_cell_angle_alpha   90.00000000
_cell_angle_beta   90.00000000
_cell_angle_gamma   90.00000000
_symmetry_Int_Tables_number   1
_chemical_formula_structural   BaSrI4
_chemical_formula_sum   'Ba4 Sr4 I16'
_cell_volume   1225.16354145
_cell_formula_units_Z   4
loop_
 _symmetry_equiv_pos_site_id
 _symmetry_equiv_pos_as_xyz
  1  'x, y, z'
loop_
 _atom_site_type_symbol
 _atom_site_label
 _atom_site_symmetry_multiplicity
 _atom_site_fract_x
 _atom_site_fract_y
 _atom_site_fract_z
 _atom_site_occupancy
  Ba  Ba0  1  0.75000000  0.19677100  0.75000000  1
  Ba  Ba1  1  0.25000000  0.30322900  0.75000000  1
  Ba  Ba2  1  0.75000000  0.69677100  0.25000000  1
  Ba  Ba3  1  0.25000000  0.80322900  0.25000000  1
  Sr  Sr4  1  0.00000000  0.25000000  0.26442700  1
  Sr  Sr5  1  0.50000000  0.25000000  0.23557300  1
  Sr  Sr6  1  0.00000000  0.75000000  0.73557300  1
  Sr  Sr7  1  0.50000000  0.75000000  0.76442700  1
  I  I8  1  0.03867300  0.05034400  0.72829000  1
  I  I9  1  0.46132700  0.05034400  0.77171000  1
  I  I10  1  0.23622200  0.20816800  0.06075600  1
  I  I11  1  0.26377800  0.20816800  0.43924400  1
  I  I12  1  0.76377800  0.29183200  0.06075600  1
  I  I13  1  0.73622200  0.29183200  0.43924400  1
  I  I14  1  0.53867300  0.44965600  0.77171000  1
  I  I15  1  0.96132700  0.44965600  0.72829000  1
  I  I16  1  0.03867300  0.55034400  0.27171000  1
  I  I17  1  0.46132700  0.55034400  0.22829000  1
  I  I18  1  0.26377800  0.70816800  0.56075600  1
  I  I19  1  0.23622200  0.70816800  0.93924400  1
  I  I20  1  0.73622200  0.79183200  0.56075600  1
  I  I21  1  0.76377800  0.79183200  0.93924400  1
  I  I22  1  0.53867300  0.94965600  0.22829000  1
  I  I23  1  0.96132700  0.94965600  0.27171000  1
