# generated using pymatgen
data_Ba4Lu6O13
_symmetry_space_group_name_H-M   'P 1'
_cell_length_a   12.55348031
_cell_length_b   12.55348031
_cell_length_c   12.55348031
_cell_angle_alpha   152.41159014
_cell_angle_beta   121.95989797
_cell_angle_gamma   65.44145328
_symmetry_Int_Tables_number   1
_chemical_formula_structural   Ba4Lu6O13
_chemical_formula_sum   'Ba8 Lu12 O26'
_cell_volume   770.06422155
_cell_formula_units_Z   2
loop_
 _symmetry_equiv_pos_site_id
 _symmetry_equiv_pos_as_xyz
  1  'x, y, z'
loop_
 _atom_site_type_symbol
 _atom_site_label
 _atom_site_symmetry_multiplicity
 _atom_site_fract_x
 _atom_site_fract_y
 _atom_site_fract_z
 _atom_site_occupancy
  Ba  Ba0  1  0.29112000  0.15823500  0.12980200  1
  Ba  Ba1  1  0.45719400  0.33386300  0.11936900  1
  Ba  Ba2  1  0.21449400  0.83386300  0.37667000  1
  Ba  Ba3  1  0.02843300  0.65823500  0.36711500  1
  Ba  Ba4  1  0.97156700  0.33868200  0.62980200  1
  Ba  Ba5  1  0.78550600  0.16217600  0.61936900  1
  Ba  Ba6  1  0.54280600  0.66217600  0.87667000  1
  Ba  Ba7  1  0.70888000  0.83868200  0.86711500  1
  Lu  Lu8  1  0.83744700  0.39400400  0.30359800  1
  Lu  Lu9  1  0.37187500  0.74802300  0.62513500  1
  Lu  Lu10  1  0.55851500  0.93572800  0.59049300  1
  Lu  Lu11  1  0.34523500  0.43572800  0.87721300  1
  Lu  Lu12  1  0.12288800  0.24802300  0.87614800  1
  Lu  Lu13  1  0.90959400  0.96615100  0.80359800  1
  Lu  Lu14  1  0.09040600  0.89400400  0.05655700  1
  Lu  Lu15  1  0.87711200  0.75326000  0.12513500  1
  Lu  Lu16  1  0.65476500  0.53197800  0.09049300  1
  Lu  Lu17  1  0.44148500  0.03197800  0.37721300  1
  Lu  Lu18  1  0.62812500  0.25326000  0.37614800  1
  Lu  Lu19  1  0.16255300  0.46615100  0.55655700  1
  O  O20  1  0.00000000  0.69793700  0.69793700  1
  O  O21  1  0.00000000  0.19793700  0.19793700  1
  O  O22  1  0.74094600  0.35581200  0.36269100  1
  O  O23  1  0.74533600  0.09211600  0.89719500  1
  O  O24  1  0.50493400  0.50485000  0.49757600  1
  O  O25  1  0.47668400  0.87787300  0.64571500  1
  O  O26  1  0.51954600  0.58080600  0.19692200  1
  O  O27  1  0.24542800  0.49284700  0.24965000  1
  O  O28  1  0.24319800  0.99284700  0.74742000  1
  O  O29  1  0.38388400  0.08080600  0.56126000  1
  O  O30  1  0.00687900  0.12174500  0.86269100  1
  O  O31  1  0.23215900  0.37787300  0.90119000  1
  O  O32  1  0.80507900  0.65185900  0.39719500  1
  O  O33  1  0.00727400  0.00485000  0.49991600  1
  O  O34  1  0.99272600  0.49264200  0.99757600  1
  O  O35  1  0.19492100  0.59211600  0.84678000  1
  O  O36  1  0.76784100  0.66903100  0.14571500  1
  O  O37  1  0.99312100  0.85581200  0.11486600  1
  O  O38  1  0.61611600  0.17737600  0.69692200  1
  O  O39  1  0.75680200  0.50422200  0.74965000  1
  O  O40  1  0.75457200  0.00422200  0.24742000  1
  O  O41  1  0.48045400  0.67737600  0.06126000  1
  O  O42  1  0.52331600  0.16903100  0.40119000  1
  O  O43  1  0.49506600  0.99264200  0.99991600  1
  O  O44  1  0.25466400  0.15185900  0.34678000  1
  O  O45  1  0.25905400  0.62174500  0.61486600  1
