# generated using pymatgen
data_Ba2SrI6
_symmetry_space_group_name_H-M   'P 1'
_cell_length_a   13.82553734
_cell_length_b   13.82553734
_cell_length_c   9.10261256
_cell_angle_alpha   79.29118606
_cell_angle_beta   79.29118606
_cell_angle_gamma   33.88716321
_symmetry_Int_Tables_number   1
_chemical_formula_structural   Ba2SrI6
_chemical_formula_sum   'Ba4 Sr2 I12'
_cell_volume   951.63156522
_cell_formula_units_Z   2
loop_
 _symmetry_equiv_pos_site_id
 _symmetry_equiv_pos_as_xyz
  1  'x, y, z'
loop_
 _atom_site_type_symbol
 _atom_site_label
 _atom_site_symmetry_multiplicity
 _atom_site_fract_x
 _atom_site_fract_y
 _atom_site_fract_z
 _atom_site_occupancy
  Ba  Ba0  1  0.05784000  0.61106200  0.64133900  1
  Ba  Ba1  1  0.61106200  0.05784000  0.14133900  1
  Ba  Ba2  1  0.38893800  0.94216000  0.85866100  1
  Ba  Ba3  1  0.94216000  0.38893800  0.35866100  1
  Sr  Sr4  1  0.66576600  0.33423400  0.75000000  1
  Sr  Sr5  1  0.33423400  0.66576600  0.25000000  1
  I  I6  1  0.45968300  0.38528800  0.52123300  1
  I  I7  1  0.38528800  0.45968300  0.02123300  1
  I  I8  1  0.87592900  0.94502400  0.82622400  1
  I  I9  1  0.94502400  0.87592900  0.32622400  1
  I  I10  1  0.28601300  0.26234200  0.90687400  1
  I  I11  1  0.26234200  0.28601300  0.40687400  1
  I  I12  1  0.73765800  0.71398700  0.59312600  1
  I  I13  1  0.71398700  0.73765800  0.09312600  1
  I  I14  1  0.05497600  0.12407100  0.67377600  1
  I  I15  1  0.12407100  0.05497600  0.17377600  1
  I  I16  1  0.61471200  0.54031700  0.97876700  1
  I  I17  1  0.54031700  0.61471200  0.47876700  1
