# generated using pymatgen
data_Cs3DyO3
_symmetry_space_group_name_H-M   'P 1'
_cell_length_a   15.10839000
_cell_length_b   7.56464200
_cell_length_c   7.98314165
_cell_angle_alpha   63.33272640
_cell_angle_beta   90.00000000
_cell_angle_gamma   90.00000000
_symmetry_Int_Tables_number   1
_chemical_formula_structural   Cs3DyO3
_chemical_formula_sum   'Cs12 Dy4 O12'
_cell_volume   815.33693191
_cell_formula_units_Z   4
loop_
 _symmetry_equiv_pos_site_id
 _symmetry_equiv_pos_as_xyz
  1  'x, y, z'
loop_
 _atom_site_type_symbol
 _atom_site_label
 _atom_site_symmetry_multiplicity
 _atom_site_fract_x
 _atom_site_fract_y
 _atom_site_fract_z
 _atom_site_occupancy
  Cs  Cs0  1  0.95453100  0.48573000  0.27308500  1
  Cs  Cs1  1  0.68824500  0.40911700  0.46622100  1
  Cs  Cs2  1  0.19749900  0.63831400  0.08024200  1
  Cs  Cs3  1  0.54546900  0.98573000  0.27308500  1
  Cs  Cs4  1  0.81175500  0.90911700  0.46622100  1
  Cs  Cs5  1  0.30250100  0.13831400  0.08024200  1
  Cs  Cs6  1  0.80250100  0.36168600  0.91975800  1
  Cs  Cs7  1  0.31175500  0.59088300  0.53377900  1
  Cs  Cs8  1  0.04546900  0.51427000  0.72691500  1
  Cs  Cs9  1  0.69749900  0.86168600  0.91975800  1
  Cs  Cs10  1  0.18824500  0.09088300  0.53377900  1
  Cs  Cs11  1  0.45453100  0.01427000  0.72691500  1
  Dy  Dy12  1  0.44044400  0.51227200  0.16361700  1
  Dy  Dy13  1  0.05955600  0.01227200  0.16361700  1
  Dy  Dy14  1  0.55955600  0.48772800  0.83638300  1
  Dy  Dy15  1  0.94044400  0.98772800  0.83638300  1
  O  O16  1  0.58247700  0.46217400  0.11782900  1
  O  O17  1  0.86517500  0.23091900  0.63711400  1
  O  O18  1  0.91752300  0.96217400  0.11782900  1
  O  O19  1  0.63482500  0.73091900  0.63711400  1
  O  O20  1  0.59498600  0.22417500  0.81720700  1
  O  O21  1  0.90501400  0.72417500  0.81720700  1
  O  O22  1  0.40501400  0.77582500  0.18279300  1
  O  O23  1  0.09498600  0.27582500  0.18279300  1
  O  O24  1  0.13482500  0.76908100  0.36288600  1
  O  O25  1  0.41752300  0.53782600  0.88217100  1
  O  O26  1  0.36517500  0.26908100  0.36288600  1
  O  O27  1  0.08247700  0.03782600  0.88217100  1
