# generated using pymatgen
data_ZrNO6
_symmetry_space_group_name_H-M   'P 1'
_cell_length_a   6.16564773
_cell_length_b   6.16564773
_cell_length_c   8.64290752
_cell_angle_alpha   69.23081890
_cell_angle_beta   69.23081890
_cell_angle_gamma   70.13225469
_symmetry_Int_Tables_number   1
_chemical_formula_structural   ZrNO6
_chemical_formula_sum   'Zr2 N2 O12'
_cell_volume   278.50002600
_cell_formula_units_Z   2
loop_
 _symmetry_equiv_pos_site_id
 _symmetry_equiv_pos_as_xyz
  1  'x, y, z'
loop_
 _atom_site_type_symbol
 _atom_site_label
 _atom_site_symmetry_multiplicity
 _atom_site_fract_x
 _atom_site_fract_y
 _atom_site_fract_z
 _atom_site_occupancy
  Zr  Zr0  1  0.85042500  0.85042500  0.49847900  1
  Zr  Zr1  1  0.14957500  0.14957500  0.50152100  1
  N  N2  1  0.74558800  0.74558800  0.22288100  1
  N  N3  1  0.25441200  0.25441200  0.77711900  1
  O  O4  1  0.06890900  0.06890900  0.33322700  1
  O  O5  1  0.93109100  0.93109100  0.66677300  1
  O  O6  1  0.90629000  0.45873100  0.58274800  1
  O  O7  1  0.45873100  0.90629000  0.58274800  1
  O  O8  1  0.09371000  0.54126900  0.41725200  1
  O  O9  1  0.54126900  0.09371000  0.41725200  1
  O  O10  1  0.61213300  0.61213300  0.27833000  1
  O  O11  1  0.38786700  0.38786700  0.72167000  1
  O  O12  1  0.84647900  0.84647900  0.08023500  1
  O  O13  1  0.15352100  0.15352100  0.91976500  1
  O  O14  1  0.55860700  0.55860700  0.93437700  1
  O  O15  1  0.44139300  0.44139300  0.06562300  1
