# generated using pymatgen
data_YbPrSe3
_symmetry_space_group_name_H-M   'P 1'
_cell_length_a   7.55711038
_cell_length_b   7.55711038
_cell_length_c   9.30085500
_cell_angle_alpha   90.00000000
_cell_angle_beta   90.00000000
_cell_angle_gamma   148.16264800
_symmetry_Int_Tables_number   1
_chemical_formula_structural   YbPrSe3
_chemical_formula_sum   'Yb2 Pr2 Se6'
_cell_volume   280.19790824
_cell_formula_units_Z   2
loop_
 _symmetry_equiv_pos_site_id
 _symmetry_equiv_pos_as_xyz
  1  'x, y, z'
loop_
 _atom_site_type_symbol
 _atom_site_label
 _atom_site_symmetry_multiplicity
 _atom_site_fract_x
 _atom_site_fract_y
 _atom_site_fract_z
 _atom_site_occupancy
  Yb  Yb0  1  0.00000000  0.00000000  0.00000000  1
  Yb  Yb1  1  0.00000000  0.00000000  0.50000000  1
  Pr  Pr2  1  0.24893200  0.75106800  0.75000000  1
  Pr  Pr3  1  0.75106800  0.24893200  0.25000000  1
  Se  Se4  1  0.10886100  0.89113900  0.25000000  1
  Se  Se5  1  0.89113900  0.10886100  0.75000000  1
  Se  Se6  1  0.64064200  0.35935800  0.57497100  1
  Se  Se7  1  0.35935800  0.64064200  0.42502900  1
  Se  Se8  1  0.64064200  0.35935800  0.92502900  1
  Se  Se9  1  0.35935800  0.64064200  0.07497100  1
