# generated using pymatgen
data_AlFeO3
_symmetry_space_group_name_H-M   'P 1'
_cell_length_a   4.96358685
_cell_length_b   4.96334870
_cell_length_c   9.49449421
_cell_angle_alpha   105.15160027
_cell_angle_beta   90.00137238
_cell_angle_gamma   119.99849084
_symmetry_Int_Tables_number   1
_chemical_formula_structural   AlFeO3
_chemical_formula_sum   'Al4 Fe4 O12'
_cell_volume   193.12520974
_cell_formula_units_Z   4
loop_
 _symmetry_equiv_pos_site_id
 _symmetry_equiv_pos_as_xyz
  1  'x, y, z'
loop_
 _atom_site_type_symbol
 _atom_site_label
 _atom_site_symmetry_multiplicity
 _atom_site_fract_x
 _atom_site_fract_y
 _atom_site_fract_z
 _atom_site_occupancy
  Al  Al0  1  0.07576500  0.15154300  0.22732700  1
  Al  Al1  1  0.57576500  0.15154300  0.72732700  1
  Al  Al2  1  0.42423500  0.84845700  0.27267300  1
  Al  Al3  1  0.92423500  0.84845700  0.77267300  1
  Fe  Fe4  1  0.32114800  0.64233600  0.96349800  1
  Fe  Fe5  1  0.67885200  0.35766400  0.03650200  1
  Fe  Fe6  1  0.82114800  0.64233600  0.46349800  1
  Fe  Fe7  1  0.17885200  0.35766400  0.53650200  1
  O  O8  1  0.36246400  0.05175700  0.13108800  1
  O  O9  1  0.86246400  0.05175700  0.63108800  1
  O  O10  1  0.42062400  0.55821000  0.36893100  1
  O  O11  1  0.92062400  0.55821000  0.86893100  1
  O  O12  1  0.81069500  0.23134800  0.36893000  1
  O  O13  1  0.31069500  0.23134800  0.86893000  1
  O  O14  1  0.68930400  0.76865200  0.13106900  1
  O  O15  1  0.18930400  0.76865200  0.63106900  1
  O  O16  1  0.07937600  0.44179000  0.13106900  1
  O  O17  1  0.57937600  0.44179000  0.63106900  1
  O  O18  1  0.13753600  0.94824300  0.36891300  1
  O  O19  1  0.63753600  0.94824300  0.86891300  1
