# generated using pymatgen
data_ZnS2(NO2)4
_symmetry_space_group_name_H-M   'P 1'
_cell_length_a   8.41099441
_cell_length_b   5.26050984
_cell_length_c   6.33898778
_cell_angle_alpha   93.66799121
_cell_angle_beta   96.65772790
_cell_angle_gamma   105.46931205
_symmetry_Int_Tables_number   1
_chemical_formula_structural   ZnS2(NO2)4
_chemical_formula_sum   'Zn1 S2 N4 O8'
_cell_volume   267.16950650
_cell_formula_units_Z   1
loop_
 _symmetry_equiv_pos_site_id
 _symmetry_equiv_pos_as_xyz
  1  'x, y, z'
loop_
 _atom_site_type_symbol
 _atom_site_label
 _atom_site_symmetry_multiplicity
 _atom_site_fract_x
 _atom_site_fract_y
 _atom_site_fract_z
 _atom_site_occupancy
  Zn  Zn0  1  0.00000000  0.00000000  0.00000000  1
  S  S1  1  0.79850300  0.37466100  0.77519100  1
  S  S2  1  0.20149700  0.62533900  0.22480900  1
  N  N3  1  0.77155900  0.89385100  0.19665400  1
  N  N4  1  0.22844100  0.10614900  0.80334600  1
  N  N5  1  0.68730000  0.81296900  0.31347000  1
  N  N6  1  0.31270000  0.18703100  0.68653000  1
  O  O7  1  0.91837500  0.64247400  0.80699800  1
  O  O8  1  0.08162500  0.35752600  0.19300200  1
  O  O9  1  0.89245900  0.17125300  0.76977100  1
  O  O10  1  0.10754100  0.82874700  0.23022900  1
  O  O11  1  0.68531300  0.34388400  0.57187000  1
  O  O12  1  0.31468700  0.65611600  0.42813000  1
  O  O13  1  0.68338700  0.33388800  0.93794500  1
  O  O14  1  0.31661300  0.66611200  0.06205500  1
