# generated using pymatgen
data_ZrNF5
_symmetry_space_group_name_H-M   'P 1'
_cell_length_a   8.51733200
_cell_length_b   8.09152400
_cell_length_c   8.52662757
_cell_angle_alpha   59.50545582
_cell_angle_beta   90.00000000
_cell_angle_gamma   90.00000000
_symmetry_Int_Tables_number   1
_chemical_formula_structural   ZrNF5
_chemical_formula_sum   'Zr4 N4 F20'
_cell_volume   506.35597857
_cell_formula_units_Z   4
loop_
 _symmetry_equiv_pos_site_id
 _symmetry_equiv_pos_as_xyz
  1  'x, y, z'
loop_
 _atom_site_type_symbol
 _atom_site_label
 _atom_site_symmetry_multiplicity
 _atom_site_fract_x
 _atom_site_fract_y
 _atom_site_fract_z
 _atom_site_occupancy
  Zr  Zr0  1  0.76026600  0.49939300  0.74642300  1
  Zr  Zr1  1  0.26026600  0.50060700  0.75357700  1
  Zr  Zr2  1  0.23973400  0.50060700  0.25357700  1
  Zr  Zr3  1  0.73973400  0.49939300  0.24642300  1
  N  N4  1  0.50896200  0.01332200  0.24069100  1
  N  N5  1  0.00896200  0.98667800  0.25930900  1
  N  N6  1  0.49103800  0.98667800  0.75930900  1
  N  N7  1  0.99103800  0.01332200  0.74069100  1
  F  F8  1  0.73612300  0.77407200  0.64573500  1
  F  F9  1  0.23612300  0.22592800  0.85426500  1
  F  F10  1  0.26387700  0.22592800  0.35426500  1
  F  F11  1  0.76387700  0.77407200  0.14573500  1
  F  F12  1  0.73523900  0.22484800  0.91000100  1
  F  F13  1  0.23523900  0.77515200  0.58999900  1
  F  F14  1  0.26476100  0.77515200  0.08999900  1
  F  F15  1  0.76476100  0.22484800  0.41000100  1
  F  F16  1  0.74769800  0.49942600  0.00469300  1
  F  F17  1  0.24769800  0.50057400  0.49530700  1
  F  F18  1  0.25230200  0.50057400  0.99530700  1
  F  F19  1  0.75230200  0.49942600  0.50469300  1
  F  F20  1  0.49609200  0.49876300  0.24910400  1
  F  F21  1  0.99609200  0.50123700  0.25089600  1
  F  F22  1  0.50390800  0.50123700  0.75089600  1
  F  F23  1  0.00390800  0.49876300  0.74910400  1
  F  F24  1  0.50006800  0.82101700  0.34564000  1
  F  F25  1  0.00006800  0.17898300  0.15436000  1
  F  F26  1  0.49993200  0.17898300  0.65436000  1
  F  F27  1  0.99993200  0.82101700  0.84564000  1
