# generated using pymatgen
data_Zr(NF3)2
_symmetry_space_group_name_H-M   'P 1'
_cell_length_a   6.58774100
_cell_length_b   12.90906600
_cell_length_c   17.82582000
_cell_angle_alpha   90.00000000
_cell_angle_beta   90.00000000
_cell_angle_gamma   90.00000000
_symmetry_Int_Tables_number   1
_chemical_formula_structural   Zr(NF3)2
_chemical_formula_sum   'Zr8 N16 F48'
_cell_volume   1515.93595749
_cell_formula_units_Z   8
loop_
 _symmetry_equiv_pos_site_id
 _symmetry_equiv_pos_as_xyz
  1  'x, y, z'
loop_
 _atom_site_type_symbol
 _atom_site_label
 _atom_site_symmetry_multiplicity
 _atom_site_fract_x
 _atom_site_fract_y
 _atom_site_fract_z
 _atom_site_occupancy
  Zr  Zr0  1  0.52416900  0.00604000  0.67039200  1
  Zr  Zr1  1  0.47583100  0.50604000  0.32960800  1
  Zr  Zr2  1  0.52416900  0.50604000  0.82960800  1
  Zr  Zr3  1  0.47583100  0.00604000  0.17039200  1
  Zr  Zr4  1  0.95033000  0.99602000  0.58222400  1
  Zr  Zr5  1  0.04967000  0.49602000  0.41777600  1
  Zr  Zr6  1  0.95033000  0.49602000  0.91777600  1
  Zr  Zr7  1  0.04967000  0.99602000  0.08222400  1
  N  N8  1  0.12544700  0.65525500  0.66300800  1
  N  N9  1  0.87455300  0.15525500  0.33699200  1
  N  N10  1  0.12544700  0.15525500  0.83699200  1
  N  N11  1  0.87455300  0.65525500  0.16300800  1
  N  N12  1  0.69190100  0.35729800  0.55146700  1
  N  N13  1  0.30809900  0.85729800  0.44853300  1
  N  N14  1  0.69190100  0.85729800  0.94853300  1
  N  N15  1  0.30809900  0.35729800  0.05146700  1
  N  N16  1  0.24185900  0.31021300  0.66381200  1
  N  N17  1  0.75814100  0.81021300  0.33618800  1
  N  N18  1  0.24185900  0.81021300  0.83618800  1
  N  N19  1  0.75814100  0.31021300  0.16381200  1
  N  N20  1  0.64402900  0.67786100  0.57660600  1
  N  N21  1  0.35597100  0.17786100  0.42339400  1
  N  N22  1  0.64402900  0.17786100  0.92339400  1
  N  N23  1  0.35597100  0.67786100  0.07660600  1
  F  F24  1  0.23487900  0.04890100  0.62471900  1
  F  F25  1  0.76512100  0.54890100  0.37528100  1
  F  F26  1  0.23487900  0.54890100  0.87528100  1
  F  F27  1  0.76512100  0.04890100  0.12471900  1
  F  F28  1  0.46674400  0.13653400  0.47931900  1
  F  F29  1  0.53325600  0.63653400  0.52068100  1
  F  F30  1  0.46674400  0.63653400  0.02068100  1
  F  F31  1  0.53325600  0.13653400  0.97931900  1
  F  F32  1  0.49546300  0.08419400  0.76115800  1
  F  F33  1  0.50453700  0.58419400  0.23884200  1
  F  F34  1  0.49546300  0.58419400  0.73884200  1
  F  F35  1  0.50453700  0.08419400  0.26115800  1
  F  F36  1  0.41279900  0.87187900  0.69126100  1
  F  F37  1  0.58720100  0.37187900  0.30873900  1
  F  F38  1  0.41279900  0.37187900  0.80873900  1
  F  F39  1  0.58720100  0.87187900  0.19126100  1
  F  F40  1  0.34453200  0.89668000  0.85296000  1
  F  F41  1  0.65546800  0.39668000  0.14704000  1
  F  F42  1  0.34453200  0.39668000  0.64704000  1
  F  F43  1  0.65546800  0.89668000  0.35296000  1
  F  F44  1  0.64609800  0.95230700  0.56210400  1
  F  F45  1  0.35390200  0.45230700  0.43789600  1
  F  F46  1  0.64609800  0.45230700  0.93789600  1
  F  F47  1  0.35390200  0.95230700  0.06210400  1
  F  F48  1  0.75012200  0.11544600  0.62517000  1
  F  F49  1  0.24987800  0.61544600  0.37483000  1
  F  F50  1  0.75012200  0.61544600  0.87483000  1
  F  F51  1  0.24987800  0.11544600  0.12517000  1
  F  F52  1  0.81521000  0.94941700  0.69258100  1
  F  F53  1  0.18479000  0.44941700  0.30741900  1
  F  F54  1  0.81521000  0.44941700  0.80741900  1
  F  F55  1  0.18479000  0.94941700  0.19258100  1
  F  F56  1  0.14808900  0.84559900  0.40288900  1
  F  F57  1  0.85191100  0.34559900  0.59711100  1
  F  F58  1  0.14808900  0.34559900  0.09711100  1
  F  F59  1  0.85191100  0.84559900  0.90288900  1
  F  F60  1  0.99268600  0.05054500  0.48316000  1
  F  F61  1  0.00731400  0.55054500  0.51684000  1
  F  F62  1  0.99268600  0.55054500  0.01684000  1
  F  F63  1  0.00731400  0.05054500  0.98316000  1
  F  F64  1  0.03908800  0.85499300  0.57529500  1
  F  F65  1  0.96091200  0.35499300  0.42470500  1
  F  F66  1  0.03908800  0.35499300  0.92470500  1
  F  F67  1  0.96091200  0.85499300  0.07529500  1
  F  F68  1  0.01248200  0.09440200  0.79183800  1
  F  F69  1  0.98751800  0.59440200  0.20816200  1
  F  F70  1  0.01248200  0.59440200  0.70816200  1
  F  F71  1  0.98751800  0.09440200  0.29183800  1
