# generated using pymatgen
data_ZrN2O9
_symmetry_space_group_name_H-M   'P 1'
_cell_length_a   8.16449600
_cell_length_b   9.31090190
_cell_length_c   10.74343403
_cell_angle_alpha   80.40462216
_cell_angle_beta   74.90060212
_cell_angle_gamma   86.93363838
_symmetry_Int_Tables_number   1
_chemical_formula_structural   ZrN2O9
_chemical_formula_sum   'Zr4 N8 O36'
_cell_volume   777.43169331
_cell_formula_units_Z   4
loop_
 _symmetry_equiv_pos_site_id
 _symmetry_equiv_pos_as_xyz
  1  'x, y, z'
loop_
 _atom_site_type_symbol
 _atom_site_label
 _atom_site_symmetry_multiplicity
 _atom_site_fract_x
 _atom_site_fract_y
 _atom_site_fract_z
 _atom_site_occupancy
  Zr  Zr0  1  0.02095800  0.95027000  0.13609800  1
  Zr  Zr1  1  0.97904200  0.04973000  0.86390200  1
  Zr  Zr2  1  0.59944900  0.13074700  0.41107400  1
  Zr  Zr3  1  0.40055100  0.86925300  0.58892600  1
  N  N4  1  0.34037100  0.86014400  0.12475500  1
  N  N5  1  0.65962900  0.13985600  0.87524500  1
  N  N6  1  0.85164400  0.65862500  0.34022000  1
  N  N7  1  0.14835600  0.34137500  0.65978000  1
  N  N8  1  0.59268100  0.33933100  0.18983500  1
  N  N9  1  0.40731900  0.66066900  0.81016500  1
  N  N10  1  0.60551300  0.33316900  0.56874500  1
  N  N11  1  0.39448700  0.66683100  0.43125500  1
  O  O12  1  0.81438500  0.64487200  0.87092600  1
  O  O13  1  0.18561500  0.35512800  0.12907400  1
  O  O14  1  0.86252800  0.76576300  0.67058000  1
  O  O15  1  0.13747200  0.23423700  0.32942000  1
  O  O16  1  0.93139700  0.88065300  0.99460800  1
  O  O17  1  0.06860300  0.11934700  0.00539200  1
  O  O18  1  0.87343100  0.05278500  0.30747400  1
  O  O19  1  0.12656900  0.94721500  0.69252600  1
  O  O20  1  0.76071200  0.99722600  0.24924300  1
  O  O21  1  0.23928800  0.00277400  0.75075700  1
  O  O22  1  0.62677400  0.96317600  0.54644400  1
  O  O23  1  0.37322600  0.03682400  0.45355600  1
  O  O24  1  0.26078200  0.94917700  0.20307900  1
  O  O25  1  0.73921800  0.05082300  0.79692100  1
  O  O26  1  0.23724700  0.79739300  0.07437400  1
  O  O27  1  0.76275300  0.20260700  0.92562600  1
  O  O28  1  0.49208400  0.83986100  0.09892100  1
  O  O29  1  0.50791600  0.16013900  0.90107900  1
  O  O30  1  0.92656600  0.73390200  0.38947300  1
  O  O31  1  0.07343400  0.26609800  0.61052700  1
  O  O32  1  0.83602800  0.66720100  0.23059300  1
  O  O33  1  0.16397200  0.33279900  0.76940700  1
  O  O34  1  0.15169600  0.35723200  0.25207800  1
  O  O35  1  0.84830400  0.64276800  0.74792200  1
  O  O36  1  0.70766400  0.33771200  0.25404700  1
  O  O37  1  0.29233600  0.66228800  0.74595300  1
  O  O38  1  0.49666200  0.22538900  0.22588600  1
  O  O39  1  0.50333800  0.77461100  0.77411400  1
  O  O40  1  0.57423000  0.43937700  0.10555300  1
  O  O41  1  0.42577000  0.56062300  0.89444700  1
  O  O42  1  0.74496900  0.28135200  0.50412300  1
  O  O43  1  0.25503100  0.71864800  0.49587700  1
  O  O44  1  0.46892900  0.27927800  0.54971100  1
  O  O45  1  0.53107100  0.72072200  0.45028900  1
  O  O46  1  0.59613800  0.42208400  0.64099800  1
  O  O47  1  0.40386200  0.57791600  0.35900200  1
