# generated using pymatgen
data_ZnSeO5
_symmetry_space_group_name_H-M   'P 1'
_cell_length_a   9.50448000
_cell_length_b   5.21962800
_cell_length_c   9.84721575
_cell_angle_alpha   69.43930831
_cell_angle_beta   90.00000000
_cell_angle_gamma   90.00000000
_symmetry_Int_Tables_number   1
_chemical_formula_structural   ZnSeO5
_chemical_formula_sum   'Zn4 Se4 O20'
_cell_volume   457.40058394
_cell_formula_units_Z   4
loop_
 _symmetry_equiv_pos_site_id
 _symmetry_equiv_pos_as_xyz
  1  'x, y, z'
loop_
 _atom_site_type_symbol
 _atom_site_label
 _atom_site_symmetry_multiplicity
 _atom_site_fract_x
 _atom_site_fract_y
 _atom_site_fract_z
 _atom_site_occupancy
  Zn  Zn0  1  0.36518600  0.93231400  0.42699200  1
  Zn  Zn1  1  0.13481400  0.93231400  0.92699200  1
  Zn  Zn2  1  0.63481400  0.06768600  0.57300800  1
  Zn  Zn3  1  0.86518600  0.06768600  0.07300800  1
  Se  Se4  1  0.83518000  0.67126100  0.85621400  1
  Se  Se5  1  0.66482000  0.67126100  0.35621400  1
  Se  Se6  1  0.16482000  0.32873900  0.14378600  1
  Se  Se7  1  0.33518000  0.32873900  0.64378600  1
  O  O8  1  0.69368700  0.83444600  0.76534800  1
  O  O9  1  0.80631300  0.83444600  0.26534800  1
  O  O10  1  0.30631300  0.16555400  0.23465200  1
  O  O11  1  0.19368700  0.16555400  0.73465200  1
  O  O12  1  0.41778100  0.09459300  0.57976200  1
  O  O13  1  0.08221900  0.09459300  0.07976200  1
  O  O14  1  0.58221900  0.90540700  0.42023800  1
  O  O15  1  0.91778100  0.90540700  0.92023800  1
  O  O16  1  0.77032200  0.42405100  0.00461300  1
  O  O17  1  0.72967800  0.42405100  0.50461300  1
  O  O18  1  0.22967800  0.57594900  0.99538700  1
  O  O19  1  0.27032200  0.57594900  0.49538700  1
  O  O20  1  0.45244300  0.43967900  0.73038300  1
  O  O21  1  0.04755700  0.43967900  0.23038300  1
  O  O22  1  0.54755700  0.56032100  0.26961700  1
  O  O23  1  0.95244300  0.56032100  0.76961700  1
  O  O24  1  0.06177200  0.98963700  0.51941800  1
  O  O25  1  0.43822800  0.98963700  0.01941800  1
  O  O26  1  0.93822800  0.01036300  0.48058200  1
  O  O27  1  0.56177200  0.01036300  0.98058200  1
