# generated using pymatgen
data_Zr6BH42C12I13O12
_symmetry_space_group_name_H-M   'P 1'
_cell_length_a   11.69019128
_cell_length_b   11.69019128
_cell_length_c   11.69019168
_cell_angle_alpha   103.39318978
_cell_angle_beta   103.39318978
_cell_angle_gamma   103.39318539
_symmetry_Int_Tables_number   1
_chemical_formula_structural   Zr6BH42C12I13O12
_chemical_formula_sum   'Zr6 B1 H42 C12 I13 O12'
_cell_volume   1441.53794632
_cell_formula_units_Z   1
loop_
 _symmetry_equiv_pos_site_id
 _symmetry_equiv_pos_as_xyz
  1  'x, y, z'
loop_
 _atom_site_type_symbol
 _atom_site_label
 _atom_site_symmetry_multiplicity
 _atom_site_fract_x
 _atom_site_fract_y
 _atom_site_fract_z
 _atom_site_occupancy
  Zr  Zr0  1  0.01808200  0.78186200  0.88180100  1
  Zr  Zr1  1  0.78186200  0.88180100  0.01808200  1
  Zr  Zr2  1  0.88180100  0.01808200  0.78186200  1
  Zr  Zr3  1  0.98191800  0.21813800  0.11819900  1
  Zr  Zr4  1  0.21813800  0.11819900  0.98191800  1
  Zr  Zr5  1  0.11819900  0.98191800  0.21813800  1
  B  B6  1  0.00000000  0.00000000  0.00000000  1
  H  H7  1  0.73296600  0.45939200  0.59461500  1
  H  H8  1  0.45939200  0.59461500  0.73296600  1
  H  H9  1  0.59461500  0.73296600  0.45939200  1
  H  H10  1  0.26703400  0.54060800  0.40538500  1
  H  H11  1  0.54060800  0.40538500  0.26703400  1
  H  H12  1  0.40538500  0.26703400  0.54060800  1
  H  H13  1  0.20593300  0.57795700  0.82499300  1
  H  H14  1  0.57795700  0.82499300  0.20593300  1
  H  H15  1  0.82499300  0.20593300  0.57795700  1
  H  H16  1  0.79406700  0.42204300  0.17500700  1
  H  H17  1  0.42204300  0.17500700  0.79406700  1
  H  H18  1  0.17500700  0.79406700  0.42204300  1
  H  H19  1  0.06630200  0.46567400  0.71830500  1
  H  H20  1  0.46567400  0.71830500  0.06630200  1
  H  H21  1  0.71830500  0.06630200  0.46567400  1
  H  H22  1  0.93369800  0.53432600  0.28169500  1
  H  H23  1  0.53432600  0.28169500  0.93369800  1
  H  H24  1  0.28169500  0.93369800  0.53432600  1
  H  H25  1  0.09429100  0.49162500  0.88089300  1
  H  H26  1  0.49162500  0.88089300  0.09429100  1
  H  H27  1  0.88089300  0.09429100  0.49162500  1
  H  H28  1  0.90570900  0.50837500  0.11910700  1
  H  H29  1  0.50837500  0.11910700  0.90570900  1
  H  H30  1  0.11910700  0.90570900  0.50837500  1
  H  H31  1  0.82599400  0.48691000  0.44019500  1
  H  H32  1  0.48691000  0.44019500  0.82599400  1
  H  H33  1  0.44019500  0.82599400  0.48691000  1
  H  H34  1  0.17400600  0.51309000  0.55980500  1
  H  H35  1  0.51309000  0.55980500  0.17400600  1
  H  H36  1  0.55980500  0.17400600  0.51309000  1
  H  H37  1  0.72271900  0.33505100  0.40236700  1
  H  H38  1  0.33505100  0.40236700  0.72271900  1
  H  H39  1  0.40236700  0.72271900  0.33505100  1
  H  H40  1  0.27728100  0.66494900  0.59763300  1
  H  H41  1  0.66494900  0.59763300  0.27728100  1
  H  H42  1  0.59763300  0.27728100  0.66494900  1
  H  H43  1  0.88534900  0.36404900  0.46500800  1
  H  H44  1  0.36404900  0.46500800  0.88534900  1
  H  H45  1  0.46500800  0.88534900  0.36404900  1
  H  H46  1  0.11465100  0.63595100  0.53499200  1
  H  H47  1  0.63595100  0.53499200  0.11465100  1
  H  H48  1  0.53499200  0.11465100  0.63595100  1
  C  C49  1  0.10654200  0.53620900  0.80918100  1
  C  C50  1  0.53620900  0.80918100  0.10654200  1
  C  C51  1  0.80918100  0.10654200  0.53620900  1
  C  C52  1  0.89345800  0.46379100  0.19081900  1
  C  C53  1  0.46379100  0.19081900  0.89345800  1
  C  C54  1  0.19081900  0.89345800  0.46379100  1
  C  C55  1  0.80866000  0.40252400  0.46892600  1
  C  C56  1  0.40252400  0.46892600  0.80866000  1
  C  C57  1  0.46892600  0.80866000  0.40252400  1
  C  C58  1  0.19134000  0.59747600  0.53107400  1
  C  C59  1  0.59747600  0.53107400  0.19134000  1
  C  C60  1  0.53107400  0.19134000  0.59747600  1
  I  I61  1  0.14392100  0.74210800  0.11184900  1
  I  I62  1  0.74210800  0.11184900  0.14392100  1
  I  I63  1  0.11184900  0.14392100  0.74210800  1
  I  I64  1  0.85607900  0.25789200  0.88815100  1
  I  I65  1  0.25789200  0.88815100  0.85607900  1
  I  I66  1  0.88815100  0.85607900  0.25789200  1
  I  I67  1  0.78126100  0.63504800  0.89316500  1
  I  I68  1  0.63504800  0.89316500  0.78126100  1
  I  I69  1  0.89316500  0.78126100  0.63504800  1
  I  I70  1  0.21873900  0.36495200  0.10683500  1
  I  I71  1  0.36495200  0.10683500  0.21873900  1
  I  I72  1  0.10683500  0.21873900  0.36495200  1
  I  I73  1  0.50000000  0.50000000  0.50000000  1
  O  O74  1  0.04712700  0.62823700  0.81446600  1
  O  O75  1  0.62823700  0.81446600  0.04712700  1
  O  O76  1  0.81446600  0.04712700  0.62823700  1
  O  O77  1  0.95287300  0.37176300  0.18553400  1
  O  O78  1  0.37176300  0.18553400  0.95287300  1
  O  O79  1  0.18553400  0.95287300  0.37176300  1
  O  O80  1  0.80306200  0.42763800  0.59276500  1
  O  O81  1  0.42763800  0.59276500  0.80306200  1
  O  O82  1  0.59276500  0.80306200  0.42763800  1
  O  O83  1  0.19693800  0.57236200  0.40723600  1
  O  O84  1  0.57236200  0.40723500  0.19693800  1
  O  O85  1  0.40723500  0.19693800  0.57236200  1
