# generated using pymatgen
data_Zn3BPO7
_symmetry_space_group_name_H-M   'P 1'
_cell_length_a   8.54459583
_cell_length_b   8.54459583
_cell_length_c   13.20134500
_cell_angle_alpha   90.00000000
_cell_angle_beta   90.00000000
_cell_angle_gamma   119.99999865
_symmetry_Int_Tables_number   1
_chemical_formula_structural   Zn3BPO7
_chemical_formula_sum   'Zn18 B6 P6 O42'
_cell_volume   834.70279522
_cell_formula_units_Z   6
loop_
 _symmetry_equiv_pos_site_id
 _symmetry_equiv_pos_as_xyz
  1  'x, y, z'
loop_
 _atom_site_type_symbol
 _atom_site_label
 _atom_site_symmetry_multiplicity
 _atom_site_fract_x
 _atom_site_fract_y
 _atom_site_fract_z
 _atom_site_occupancy
  Zn  Zn0  1  0.98429900  0.66238800  0.11472500  1
  Zn  Zn1  1  0.67808900  0.01570100  0.11472500  1
  Zn  Zn2  1  0.33761200  0.32191100  0.11472500  1
  Zn  Zn3  1  0.98429900  0.66238800  0.88527500  1
  Zn  Zn4  1  0.67808900  0.01570100  0.88527500  1
  Zn  Zn5  1  0.33761200  0.32191100  0.88527500  1
  Zn  Zn6  1  0.67252500  0.66881800  0.25483700  1
  Zn  Zn7  1  0.99629400  0.32747500  0.25483700  1
  Zn  Zn8  1  0.33118200  0.00370600  0.25483700  1
  Zn  Zn9  1  0.67252500  0.66881800  0.74516300  1
  Zn  Zn10  1  0.99629400  0.32747500  0.74516300  1
  Zn  Zn11  1  0.33118200  0.00370600  0.74516300  1
  Zn  Zn12  1  0.31271100  0.34026100  0.61775700  1
  Zn  Zn13  1  0.02755100  0.68728900  0.61775700  1
  Zn  Zn14  1  0.65973900  0.97244900  0.61775700  1
  Zn  Zn15  1  0.31271100  0.34026100  0.38224300  1
  Zn  Zn16  1  0.02755100  0.68728900  0.38224300  1
  Zn  Zn17  1  0.65973900  0.97244900  0.38224300  1
  B  B18  1  0.66666700  0.33333300  0.19500500  1
  B  B19  1  0.66666700  0.33333300  0.80499500  1
  B  B20  1  0.33333300  0.66666700  0.71653800  1
  B  B21  1  0.33333300  0.66666700  0.28346200  1
  B  B22  1  0.00000000  0.00000000  0.72486100  1
  B  B23  1  0.00000000  0.00000000  0.27513900  1
  P  P24  1  0.65601100  0.68666800  0.00000000  1
  P  P25  1  0.03065700  0.34398900  0.00000000  1
  P  P26  1  0.31333200  0.96934300  0.00000000  1
  P  P27  1  0.68115200  0.64484800  0.50000000  1
  P  P28  1  0.96369600  0.31884800  0.50000000  1
  P  P29  1  0.35515200  0.03630400  0.50000000  1
  O  O30  1  0.85639300  0.73146800  0.00000000  1
  O  O31  1  0.87507500  0.14360700  0.00000000  1
  O  O32  1  0.26853200  0.12492500  0.00000000  1
  O  O33  1  0.62056400  0.76563000  0.09815900  1
  O  O34  1  0.14506600  0.37943600  0.09815900  1
  O  O35  1  0.23437000  0.85493400  0.09815900  1
  O  O36  1  0.62056400  0.76563000  0.90184100  1
  O  O37  1  0.14506600  0.37943600  0.90184100  1
  O  O38  1  0.23437000  0.85493400  0.90184100  1
  O  O39  1  0.51961700  0.48015800  0.00000000  1
  O  O40  1  0.96054100  0.48038300  0.00000000  1
  O  O41  1  0.51984200  0.03945900  0.00000000  1
  O  O42  1  0.76606800  0.61860600  0.40165400  1
  O  O43  1  0.85253900  0.23393200  0.40165400  1
  O  O44  1  0.38139400  0.14746100  0.40165400  1
  O  O45  1  0.76606800  0.61860600  0.59834600  1
  O  O46  1  0.85253900  0.23393200  0.59834600  1
  O  O47  1  0.38139400  0.14746100  0.59834600  1
  O  O48  1  0.47755300  0.50384200  0.50000000  1
  O  O49  1  0.02628900  0.52244700  0.50000000  1
  O  O50  1  0.49615800  0.97371100  0.50000000  1
  O  O51  1  0.71123600  0.84070500  0.50000000  1
  O  O52  1  0.12946900  0.28876400  0.50000000  1
  O  O53  1  0.15929500  0.87053100  0.50000000  1
  O  O54  1  0.76856300  0.51997400  0.19614600  1
  O  O55  1  0.75141100  0.23143700  0.19614600  1
  O  O56  1  0.48002600  0.24858900  0.19614600  1
  O  O57  1  0.76856300  0.51997400  0.80385400  1
  O  O58  1  0.75141100  0.23143700  0.80385400  1
  O  O59  1  0.48002600  0.24858900  0.80385400  1
  O  O60  1  0.41055500  0.55650500  0.71551200  1
  O  O61  1  0.14595000  0.58944500  0.71551200  1
  O  O62  1  0.44349500  0.85405000  0.71551200  1
  O  O63  1  0.41055500  0.55650500  0.28448800  1
  O  O64  1  0.14595000  0.58944500  0.28448800  1
  O  O65  1  0.44349500  0.85405000  0.28448800  1
  O  O66  1  0.11898300  0.18493700  0.72749200  1
  O  O67  1  0.06595400  0.88101700  0.72749200  1
  O  O68  1  0.81506300  0.93404600  0.72749200  1
  O  O69  1  0.11898300  0.18493700  0.27250800  1
  O  O70  1  0.06595400  0.88101700  0.27250800  1
  O  O71  1  0.81506300  0.93404600  0.27250800  1
