# generated using pymatgen
data_VIr
_symmetry_space_group_name_H-M   'P 1'
_cell_length_a   8.66676428
_cell_length_b   8.66676428
_cell_length_c   8.66676428
_cell_angle_alpha   131.00358287
_cell_angle_beta   100.12750414
_cell_angle_gamma   99.67472126
_symmetry_Int_Tables_number   1
_chemical_formula_structural   VIr
_chemical_formula_sum   'V16 Ir16'
_cell_volume   447.04527174
_cell_formula_units_Z   16
loop_
 _symmetry_equiv_pos_site_id
 _symmetry_equiv_pos_as_xyz
  1  'x, y, z'
loop_
 _atom_site_type_symbol
 _atom_site_label
 _atom_site_symmetry_multiplicity
 _atom_site_fract_x
 _atom_site_fract_y
 _atom_site_fract_z
 _atom_site_occupancy
  V  V0  1  0.09601800  0.22720100  0.86881700  1
  V  V1  1  0.35838400  0.22720100  0.13118300  1
  V  V2  1  0.84895600  0.23011300  0.61884200  1
  V  V3  1  0.61127100  0.23011300  0.38115800  1
  V  V4  1  0.36797000  0.50000000  0.86797000  1
  V  V5  1  0.63203000  0.50000000  0.13203000  1
  V  V6  1  0.11614400  0.50000000  0.61614400  1
  V  V7  1  0.88385600  0.50000000  0.38385600  1
  V  V8  1  0.86981300  0.00000000  0.86981300  1
  V  V9  1  0.13018700  0.00000000  0.13018700  1
  V  V10  1  0.62025800  0.00000000  0.62025800  1
  V  V11  1  0.37974200  0.00000000  0.37974200  1
  V  V12  1  0.64161600  0.77279900  0.86881700  1
  V  V13  1  0.90398200  0.77279900  0.13118300  1
  V  V14  1  0.38872900  0.76988700  0.61884200  1
  V  V15  1  0.15104400  0.76988700  0.38115800  1
  Ir  Ir16  1  0.12694300  0.38379200  0.25685000  1
  Ir  Ir17  1  0.12694300  0.87009300  0.74315000  1
  Ir  Ir18  1  0.87732900  0.39511500  0.01856700  1
  Ir  Ir19  1  0.37654800  0.85876200  0.98143300  1
  Ir  Ir20  1  0.87732900  0.85876200  0.48221300  1
  Ir  Ir21  1  0.37654800  0.39511500  0.51778700  1
  Ir  Ir22  1  0.62702700  0.84998400  0.22295700  1
  Ir  Ir23  1  0.62702700  0.40407100  0.77704300  1
  Ir  Ir24  1  0.87305700  0.12990700  0.25685000  1
  Ir  Ir25  1  0.87305700  0.61620800  0.74315000  1
  Ir  Ir26  1  0.62345200  0.14123800  0.01856700  1
  Ir  Ir27  1  0.12267100  0.60488500  0.98143300  1
  Ir  Ir28  1  0.62345200  0.60488500  0.48221300  1
  Ir  Ir29  1  0.12267100  0.14123800  0.51778700  1
  Ir  Ir30  1  0.37297300  0.59592900  0.22295700  1
  Ir  Ir31  1  0.37297300  0.15001600  0.77704300  1
