# generated using pymatgen
data_V2ZnO6
_symmetry_space_group_name_H-M   'P 1'
_cell_length_a   5.02756476
_cell_length_b   5.02756476
_cell_length_c   6.66013174
_cell_angle_alpha   70.24623132
_cell_angle_beta   70.24623132
_cell_angle_gamma   41.70351210
_symmetry_Int_Tables_number   1
_chemical_formula_structural   V2ZnO6
_chemical_formula_sum   'V2 Zn1 O6'
_cell_volume   104.41415184
_cell_formula_units_Z   1
loop_
 _symmetry_equiv_pos_site_id
 _symmetry_equiv_pos_as_xyz
  1  'x, y, z'
loop_
 _atom_site_type_symbol
 _atom_site_label
 _atom_site_symmetry_multiplicity
 _atom_site_fract_x
 _atom_site_fract_y
 _atom_site_fract_z
 _atom_site_occupancy
  V  V0  1  0.16700400  0.21579900  0.34771700  1
  V  V1  1  0.78420100  0.83299600  0.65228300  1
  Zn  Zn2  1  0.99183200  0.00816800  0.00000000  1
  O  O3  1  0.28113200  0.33006900  0.56649300  1
  O  O4  1  0.31557500  0.37087800  0.11258300  1
  O  O5  1  0.66993100  0.71886800  0.43350700  1
  O  O6  1  0.62912200  0.68442500  0.88741700  1
  O  O7  1  0.94430400  0.99110000  0.72150600  1
  O  O8  1  0.00890000  0.05569600  0.27849400  1
