# generated using pymatgen
data_La2MnCoO6
_symmetry_space_group_name_H-M   'P 1'
_cell_length_a   5.52096000
_cell_length_b   5.53008873
_cell_length_c   5.57063790
_cell_angle_alpha   60.68928010
_cell_angle_beta   60.29456295
_cell_angle_gamma   60.05459099
_symmetry_Int_Tables_number   1
_chemical_formula_structural   La2MnCoO6
_chemical_formula_sum   'La2 Mn1 Co1 O6'
_cell_volume   121.19850459
_cell_formula_units_Z   1
loop_
 _symmetry_equiv_pos_site_id
 _symmetry_equiv_pos_as_xyz
  1  'x, y, z'
loop_
 _atom_site_type_symbol
 _atom_site_label
 _atom_site_symmetry_multiplicity
 _atom_site_fract_x
 _atom_site_fract_y
 _atom_site_fract_z
 _atom_site_occupancy
  La  La0  1  0.74908100  0.24334100  0.25849800  1
  La  La1  1  0.25091900  0.75665900  0.74150200  1
  Mn  Mn2  1  0.00000000  0.50000000  0.50000000  1
  Co  Co3  1  0.50000000  0.00000000  0.00000000  1
  O  O4  1  0.20058500  0.78634600  0.30244400  1
  O  O5  1  0.71062600  0.78634600  0.30244400  1
  O  O6  1  0.79941500  0.21365400  0.69755600  1
  O  O7  1  0.28937400  0.21365400  0.69755600  1
  O  O8  1  0.75783800  0.66264500  0.82167900  1
  O  O9  1  0.24216200  0.33735500  0.17832100  1
