# generated using pymatgen
data_TmO3
_symmetry_space_group_name_H-M   'P 1'
_cell_length_a   6.39350770
_cell_length_b   6.39350770
_cell_length_c   3.36029200
_cell_angle_alpha   90.00000000
_cell_angle_beta   90.00000000
_cell_angle_gamma   119.99999689
_symmetry_Int_Tables_number   1
_chemical_formula_structural   TmO3
_chemical_formula_sum   'Tm2 O6'
_cell_volume   118.95591676
_cell_formula_units_Z   2
loop_
 _symmetry_equiv_pos_site_id
 _symmetry_equiv_pos_as_xyz
  1  'x, y, z'
loop_
 _atom_site_type_symbol
 _atom_site_label
 _atom_site_symmetry_multiplicity
 _atom_site_fract_x
 _atom_site_fract_y
 _atom_site_fract_z
 _atom_site_occupancy
  Tm  Tm0  1  0.33333300  0.66666700  0.25000000  1
  Tm  Tm1  1  0.66666700  0.33333300  0.75000000  1
  O  O2  1  0.94244400  0.57800000  0.25000000  1
  O  O3  1  0.63555600  0.05755600  0.25000000  1
  O  O4  1  0.42200000  0.36444400  0.25000000  1
  O  O5  1  0.05755600  0.42200000  0.75000000  1
  O  O6  1  0.36444400  0.94244400  0.75000000  1
  O  O7  1  0.57800000  0.63555600  0.75000000  1
