# generated using pymatgen
data_Ti4(SiO8)3
_symmetry_space_group_name_H-M   'P 1'
_cell_length_a   7.90687500
_cell_length_b   7.90687500
_cell_length_c   7.90687500
_cell_angle_alpha   90.00000000
_cell_angle_beta   90.00000000
_cell_angle_gamma   90.00000000
_symmetry_Int_Tables_number   1
_chemical_formula_structural   Ti4(SiO8)3
_chemical_formula_sum   'Ti4 Si3 O24'
_cell_volume   494.32732677
_cell_formula_units_Z   1
loop_
 _symmetry_equiv_pos_site_id
 _symmetry_equiv_pos_as_xyz
  1  'x, y, z'
loop_
 _atom_site_type_symbol
 _atom_site_label
 _atom_site_symmetry_multiplicity
 _atom_site_fract_x
 _atom_site_fract_y
 _atom_site_fract_z
 _atom_site_occupancy
  Ti  Ti0  1  0.34675100  0.34675100  0.65324900  1
  Ti  Ti1  1  0.34675100  0.65324900  0.34675100  1
  Ti  Ti2  1  0.65324900  0.34675100  0.34675100  1
  Ti  Ti3  1  0.65324900  0.65324900  0.65324900  1
  Si  Si4  1  0.50000000  0.50000000  0.00000000  1
  Si  Si5  1  0.50000000  0.00000000  0.50000000  1
  Si  Si6  1  0.00000000  0.50000000  0.50000000  1
  O  O7  1  0.37889000  0.37889000  0.88190900  1
  O  O8  1  0.37889000  0.11809100  0.62111000  1
  O  O9  1  0.11809100  0.37889000  0.62111000  1
  O  O10  1  0.37889000  0.62111000  0.11809100  1
  O  O11  1  0.37889000  0.88190900  0.37889000  1
  O  O12  1  0.11809100  0.62111000  0.37889000  1
  O  O13  1  0.62111000  0.37889000  0.11809100  1
  O  O14  1  0.62111000  0.11809100  0.37889000  1
  O  O15  1  0.88190900  0.37889000  0.37889000  1
  O  O16  1  0.62111000  0.62111000  0.88190900  1
  O  O17  1  0.62111000  0.88190900  0.62111000  1
  O  O18  1  0.88190900  0.62111000  0.62111000  1
  O  O19  1  0.60833500  0.39166500  0.60833500  1
  O  O20  1  0.39166500  0.39166500  0.39166500  1
  O  O21  1  0.39166500  0.60833500  0.60833500  1
  O  O22  1  0.60833500  0.60833500  0.39166500  1
  O  O23  1  0.16110800  0.83889200  0.83889200  1
  O  O24  1  0.83889200  0.16110800  0.83889200  1
  O  O25  1  0.16110800  0.16110800  0.16110800  1
  O  O26  1  0.83889200  0.83889200  0.16110800  1
  O  O27  1  0.00000000  0.00000000  0.50000000  1
  O  O28  1  0.00000000  0.50000000  0.00000000  1
  O  O29  1  0.50000000  0.00000000  0.00000000  1
  O  O30  1  0.00000000  0.00000000  0.00000000  1
