# generated using pymatgen
data_Ta2O5
_symmetry_space_group_name_H-M   'P 1'
_cell_length_a   5.53096427
_cell_length_b   5.53096427
_cell_length_c   6.10960794
_cell_angle_alpha   56.90443861
_cell_angle_beta   56.90443861
_cell_angle_gamma   73.95187508
_symmetry_Int_Tables_number   1
_chemical_formula_structural   Ta2O5
_chemical_formula_sum   'Ta2 O5'
_cell_volume   131.11350791
_cell_formula_units_Z   1
loop_
 _symmetry_equiv_pos_site_id
 _symmetry_equiv_pos_as_xyz
  1  'x, y, z'
loop_
 _atom_site_type_symbol
 _atom_site_label
 _atom_site_symmetry_multiplicity
 _atom_site_fract_x
 _atom_site_fract_y
 _atom_site_fract_z
 _atom_site_occupancy
  Ta  Ta0  1  0.20526600  0.23193300  0.88091200  1
  Ta  Ta1  1  0.76806700  0.79473400  0.11908800  1
  O  O2  1  0.45686000  0.54314000  0.50000000  1
  O  O3  1  0.98316300  0.49721700  0.03111100  1
  O  O4  1  0.89278600  0.91792300  0.27368900  1
  O  O5  1  0.08207700  0.10721400  0.72631100  1
  O  O6  1  0.50278300  0.01683700  0.96888900  1
