# generated using pymatgen
data_Ti3(BiO3)4
_symmetry_space_group_name_H-M   'P 1'
_cell_length_a   3.86469438
_cell_length_b   3.86469438
_cell_length_c   16.97887473
_cell_angle_alpha   84.22256089
_cell_angle_beta   84.22256089
_cell_angle_gamma   88.83345503
_symmetry_Int_Tables_number   1
_chemical_formula_structural   Ti3(BiO3)4
_chemical_formula_sum   'Ti3 Bi4 O12'
_cell_volume   251.01098852
_cell_formula_units_Z   1
loop_
 _symmetry_equiv_pos_site_id
 _symmetry_equiv_pos_as_xyz
  1  'x, y, z'
loop_
 _atom_site_type_symbol
 _atom_site_label
 _atom_site_symmetry_multiplicity
 _atom_site_fract_x
 _atom_site_fract_y
 _atom_site_fract_z
 _atom_site_occupancy
  Ti  Ti0  1  0.36472200  0.36472200  0.25703500  1
  Ti  Ti1  1  0.63527800  0.63527800  0.74296500  1
  Ti  Ti2  1  0.50000000  0.50000000  0.00000000  1
  Bi  Bi3  1  0.86044400  0.86044400  0.13246100  1
  Bi  Bi4  1  0.22224400  0.22224400  0.57650600  1
  Bi  Bi5  1  0.77775600  0.77775600  0.42349400  1
  Bi  Bi6  1  0.13955600  0.13955600  0.86753900  1
  O  O7  1  0.46500800  0.46500800  0.11847700  1
  O  O8  1  0.53499200  0.53499200  0.88152300  1
  O  O9  1  0.58914100  0.10669100  0.76737900  1
  O  O10  1  0.24973300  0.75026700  0.50000000  1
  O  O11  1  0.41085900  0.89330900  0.23262100  1
  O  O12  1  0.75026700  0.24973300  0.50000000  1
  O  O13  1  0.10669100  0.58914100  0.76737900  1
  O  O14  1  0.00000000  0.50000000  0.00000000  1
  O  O15  1  0.67707500  0.67707500  0.63673200  1
  O  O16  1  0.32292500  0.32292500  0.36326800  1
  O  O17  1  0.89330900  0.41085900  0.23262100  1
  O  O18  1  0.50000000  0.00000000  0.00000000  1
