# generated using pymatgen
data_TiOF5
_symmetry_space_group_name_H-M   'P 1'
_cell_length_a   7.34677137
_cell_length_b   7.34677137
_cell_length_c   12.66807005
_cell_angle_alpha   70.97264059
_cell_angle_beta   70.97264059
_cell_angle_gamma   39.87173922
_symmetry_Int_Tables_number   1
_chemical_formula_structural   TiOF5
_chemical_formula_sum   'Ti4 O4 F20'
_cell_volume   411.13465192
_cell_formula_units_Z   4
loop_
 _symmetry_equiv_pos_site_id
 _symmetry_equiv_pos_as_xyz
  1  'x, y, z'
loop_
 _atom_site_type_symbol
 _atom_site_label
 _atom_site_symmetry_multiplicity
 _atom_site_fract_x
 _atom_site_fract_y
 _atom_site_fract_z
 _atom_site_occupancy
  Ti  Ti0  1  0.86521600  0.86094600  0.18711700  1
  Ti  Ti1  1  0.13905400  0.13478400  0.31288300  1
  Ti  Ti2  1  0.13478400  0.13905400  0.81288300  1
  Ti  Ti3  1  0.86094600  0.86521600  0.68711700  1
  O  O4  1  0.47259500  0.72151100  0.05035900  1
  O  O5  1  0.27848900  0.52740500  0.44964100  1
  O  O6  1  0.52740500  0.27848900  0.94964100  1
  O  O7  1  0.72151100  0.47259500  0.55035900  1
  F  F8  1  0.00040400  0.48202300  0.21337500  1
  F  F9  1  0.51797700  0.99959600  0.28662500  1
  F  F10  1  0.99959600  0.51797700  0.78662500  1
  F  F11  1  0.48202400  0.00040400  0.71337500  1
  F  F12  1  0.04194200  0.72875200  0.30739100  1
  F  F13  1  0.27124800  0.95805800  0.19260900  1
  F  F14  1  0.95805800  0.27124800  0.69260900  1
  F  F15  1  0.72875200  0.04194200  0.80739100  1
  F  F16  1  0.68441900  0.94577200  0.06768400  1
  F  F17  1  0.05422800  0.31558100  0.43231600  1
  F  F18  1  0.31558100  0.05422800  0.93231600  1
  F  F19  1  0.94577200  0.68441900  0.56768400  1
  F  F20  1  0.71788800  0.20377300  0.15965400  1
  F  F21  1  0.79622700  0.28211200  0.34034600  1
  F  F22  1  0.28211200  0.79622700  0.84034600  1
  F  F23  1  0.20377300  0.71788800  0.65965400  1
  F  F24  1  0.19149400  0.69392800  0.08110400  1
  F  F25  1  0.30607200  0.80850600  0.41889600  1
  F  F26  1  0.80850600  0.30607200  0.91889600  1
  F  F27  1  0.69392800  0.19149400  0.58110400  1
