# generated using pymatgen
data_TeS3N2
_symmetry_space_group_name_H-M   'P 1'
_cell_length_a   7.76857700
_cell_length_b   8.87945700
_cell_length_c   8.97655700
_cell_angle_alpha   90.00000000
_cell_angle_beta   90.00000000
_cell_angle_gamma   90.00000000
_symmetry_Int_Tables_number   1
_chemical_formula_structural   TeS3N2
_chemical_formula_sum   'Te4 S12 N8'
_cell_volume   619.20959319
_cell_formula_units_Z   4
loop_
 _symmetry_equiv_pos_site_id
 _symmetry_equiv_pos_as_xyz
  1  'x, y, z'
loop_
 _atom_site_type_symbol
 _atom_site_label
 _atom_site_symmetry_multiplicity
 _atom_site_fract_x
 _atom_site_fract_y
 _atom_site_fract_z
 _atom_site_occupancy
  Te  Te0  1  0.73797700  0.25000000  0.21653100  1
  Te  Te1  1  0.23797700  0.25000000  0.28346900  1
  Te  Te2  1  0.26202300  0.75000000  0.78346900  1
  Te  Te3  1  0.76202300  0.75000000  0.71653100  1
  S  S4  1  0.99193700  0.25000000  0.76873500  1
  S  S5  1  0.49193700  0.25000000  0.73126500  1
  S  S6  1  0.00806300  0.75000000  0.23126500  1
  S  S7  1  0.50806300  0.75000000  0.26873500  1
  S  S8  1  0.50388600  0.04494900  0.29950800  1
  S  S9  1  0.00388600  0.45505100  0.20049200  1
  S  S10  1  0.49611400  0.54494900  0.70049200  1
  S  S11  1  0.99611400  0.95505100  0.79950800  1
  S  S12  1  0.49611400  0.95505100  0.70049200  1
  S  S13  1  0.99611400  0.54494900  0.79950800  1
  S  S14  1  0.50388600  0.45505100  0.29950800  1
  S  S15  1  0.00388600  0.04494900  0.20049200  1
  N  N16  1  0.56634900  0.10368200  0.81021800  1
  N  N17  1  0.06634900  0.39631800  0.68978200  1
  N  N18  1  0.43365100  0.60368200  0.18978200  1
  N  N19  1  0.93365100  0.89631800  0.31021800  1
  N  N20  1  0.43365100  0.89631800  0.18978200  1
  N  N21  1  0.93365100  0.60368200  0.31021800  1
  N  N22  1  0.56634900  0.39631800  0.81021800  1
  N  N23  1  0.06634900  0.10368200  0.68978200  1
