# generated using pymatgen
data_ScO2
_symmetry_space_group_name_H-M   'P 1'
_cell_length_a   3.24683700
_cell_length_b   5.28227700
_cell_length_c   10.29427700
_cell_angle_alpha   90.00000000
_cell_angle_beta   90.00000000
_cell_angle_gamma   90.00000000
_symmetry_Int_Tables_number   1
_chemical_formula_structural   ScO2
_chemical_formula_sum   'Sc4 O8'
_cell_volume   176.55397839
_cell_formula_units_Z   4
loop_
 _symmetry_equiv_pos_site_id
 _symmetry_equiv_pos_as_xyz
  1  'x, y, z'
loop_
 _atom_site_type_symbol
 _atom_site_label
 _atom_site_symmetry_multiplicity
 _atom_site_fract_x
 _atom_site_fract_y
 _atom_site_fract_z
 _atom_site_occupancy
  Sc  Sc0  1  0.25000000  0.39473500  0.34012900  1
  Sc  Sc1  1  0.25000000  0.10526500  0.84012900  1
  Sc  Sc2  1  0.75000000  0.60526500  0.65987100  1
  Sc  Sc3  1  0.75000000  0.89473500  0.15987100  1
  O  O4  1  0.25000000  0.80949500  0.71545600  1
  O  O5  1  0.25000000  0.69050500  0.21545600  1
  O  O6  1  0.75000000  0.19050500  0.28454400  1
  O  O7  1  0.75000000  0.30949500  0.78454400  1
  O  O8  1  0.25000000  0.38253500  0.54702700  1
  O  O9  1  0.25000000  0.11746500  0.04702700  1
  O  O10  1  0.75000000  0.61746500  0.45297300  1
  O  O11  1  0.75000000  0.88253500  0.95297300  1
