# generated using pymatgen
data_SrVSi2O7
_symmetry_space_group_name_H-M   'P 1'
_cell_length_a   5.37518271
_cell_length_b   7.12275800
_cell_length_c   7.88698303
_cell_angle_alpha   90.00000000
_cell_angle_beta   109.92335466
_cell_angle_gamma   90.00000000
_symmetry_Int_Tables_number   1
_chemical_formula_structural   SrVSi2O7
_chemical_formula_sum   'Sr2 V2 Si4 O14'
_cell_volume   283.88938636
_cell_formula_units_Z   2
loop_
 _symmetry_equiv_pos_site_id
 _symmetry_equiv_pos_as_xyz
  1  'x, y, z'
loop_
 _atom_site_type_symbol
 _atom_site_label
 _atom_site_symmetry_multiplicity
 _atom_site_fract_x
 _atom_site_fract_y
 _atom_site_fract_z
 _atom_site_occupancy
  Sr  Sr0  1  0.22167400  0.25000000  0.41093900  1
  Sr  Sr1  1  0.81073400  0.75000000  0.58906100  1
  V  V2  1  0.90364700  0.25000000  0.78384500  1
  V  V3  1  0.11980200  0.75000000  0.21615500  1
  Si  Si4  1  0.40624400  0.52416800  0.78415000  1
  Si  Si5  1  0.40624400  0.97583200  0.78415000  1
  Si  Si6  1  0.62209400  0.02416800  0.21585000  1
  Si  Si7  1  0.62209400  0.47583200  0.21585000  1
  O  O8  1  0.91885000  0.56060300  0.30923000  1
  O  O9  1  0.60962000  0.43939700  0.69077000  1
  O  O10  1  0.41361800  0.93897900  0.30442000  1
  O  O11  1  0.10919800  0.06102100  0.69558000  1
  O  O12  1  0.37622000  0.75000000  0.72645400  1
  O  O13  1  0.00659100  0.25000000  0.00609500  1
  O  O14  1  0.60962000  0.06060300  0.69077000  1
  O  O15  1  0.41361800  0.56102100  0.30442000  1
  O  O16  1  0.00049600  0.75000000  0.99390500  1
  O  O17  1  0.64976700  0.25000000  0.27354600  1
  O  O18  1  0.51571100  0.00000000  0.00000000  1
  O  O19  1  0.10919800  0.43897900  0.69558000  1
  O  O20  1  0.91885000  0.93939700  0.30923000  1
  O  O21  1  0.51571100  0.50000000  0.00000000  1
