# generated using pymatgen
data_CaFe5As3
_symmetry_space_group_name_H-M   'P 1'
_cell_length_a   3.81437000
_cell_length_b   7.27195400
_cell_length_c   9.46797695
_cell_angle_alpha   78.86853812
_cell_angle_beta   90.00000000
_cell_angle_gamma   90.00000000
_symmetry_Int_Tables_number   1
_chemical_formula_structural   CaFe5As3
_chemical_formula_sum   'Ca2 Fe10 As6'
_cell_volume   257.68125660
_cell_formula_units_Z   2
loop_
 _symmetry_equiv_pos_site_id
 _symmetry_equiv_pos_as_xyz
  1  'x, y, z'
loop_
 _atom_site_type_symbol
 _atom_site_label
 _atom_site_symmetry_multiplicity
 _atom_site_fract_x
 _atom_site_fract_y
 _atom_site_fract_z
 _atom_site_occupancy
  Ca  Ca0  1  0.25000000  0.30412100  0.28136300  1
  Ca  Ca1  1  0.75000000  0.69587900  0.71863700  1
  Fe  Fe2  1  0.25000000  0.61776800  0.99872100  1
  Fe  Fe3  1  0.75000000  0.38223200  0.00127900  1
  Fe  Fe4  1  0.75000000  0.87733000  0.99509900  1
  Fe  Fe5  1  0.25000000  0.12267000  0.00490100  1
  Fe  Fe6  1  0.25000000  0.81564600  0.20562300  1
  Fe  Fe7  1  0.75000000  0.18435400  0.79437700  1
  Fe  Fe8  1  0.75000000  0.57672600  0.41875300  1
  Fe  Fe9  1  0.25000000  0.42327400  0.58124700  1
  Fe  Fe10  1  0.75000000  0.96585800  0.42017900  1
  Fe  Fe11  1  0.25000000  0.03414200  0.57982100  1
  As  As12  1  0.75000000  0.60094900  0.16169800  1
  As  As13  1  0.25000000  0.39905100  0.83830200  1
  As  As14  1  0.75000000  0.07242800  0.15811100  1
  As  As15  1  0.25000000  0.92757200  0.84188900  1
  As  As16  1  0.25000000  0.75559800  0.47270500  1
  As  As17  1  0.75000000  0.24440200  0.52729500  1
