# generated using pymatgen
data_U3O10
_symmetry_space_group_name_H-M   'P 1'
_cell_length_a   20.44511400
_cell_length_b   5.88132700
_cell_length_c   7.99873712
_cell_angle_alpha   62.64545598
_cell_angle_beta   90.00000000
_cell_angle_gamma   90.00000000
_symmetry_Int_Tables_number   1
_chemical_formula_structural   U3O10
_chemical_formula_sum   'U12 O40'
_cell_volume   854.25470281
_cell_formula_units_Z   4
loop_
 _symmetry_equiv_pos_site_id
 _symmetry_equiv_pos_as_xyz
  1  'x, y, z'
loop_
 _atom_site_type_symbol
 _atom_site_label
 _atom_site_symmetry_multiplicity
 _atom_site_fract_x
 _atom_site_fract_y
 _atom_site_fract_z
 _atom_site_occupancy
  U  U0  1  0.74244200  0.73634700  0.74556400  1
  U  U1  1  0.24244200  0.26365300  0.75443600  1
  U  U2  1  0.25755800  0.26365300  0.25443600  1
  U  U3  1  0.75755800  0.73634700  0.24556400  1
  U  U4  1  0.94721300  0.80878300  0.69737500  1
  U  U5  1  0.44721300  0.19121700  0.80262500  1
  U  U6  1  0.05278700  0.19121700  0.30262500  1
  U  U7  1  0.55278700  0.80878300  0.19737500  1
  U  U8  1  0.14892100  0.77733300  0.75138600  1
  U  U9  1  0.64892100  0.22266700  0.74861400  1
  U  U10  1  0.85107900  0.22266700  0.24861400  1
  U  U11  1  0.35107900  0.77733300  0.25138600  1
  O  O12  1  0.72037600  0.51494200  0.57250100  1
  O  O13  1  0.22037600  0.48505800  0.92749900  1
  O  O14  1  0.27962400  0.48505800  0.42749900  1
  O  O15  1  0.77962400  0.51494200  0.07250100  1
  O  O16  1  0.72698700  0.99290400  0.88302900  1
  O  O17  1  0.22698700  0.00709600  0.61697100  1
  O  O18  1  0.27301300  0.00709600  0.11697100  1
  O  O19  1  0.77301300  0.99290400  0.38302900  1
  O  O20  1  0.89867400  0.88938000  0.44688700  1
  O  O21  1  0.39867400  0.11062000  0.05311300  1
  O  O22  1  0.10132600  0.11062000  0.55311300  1
  O  O23  1  0.60132600  0.88938000  0.94688700  1
  O  O24  1  0.94626000  0.84890500  0.92011100  1
  O  O25  1  0.44626000  0.15109500  0.57988900  1
  O  O26  1  0.05374000  0.15109500  0.07988900  1
  O  O27  1  0.55374000  0.84890500  0.42011100  1
  O  O28  1  0.17145000  0.50610200  0.63153000  1
  O  O29  1  0.67145000  0.49389800  0.86847000  1
  O  O30  1  0.82855000  0.49389800  0.36847000  1
  O  O31  1  0.32855000  0.50610200  0.13153000  1
  O  O32  1  0.17028000  0.98770600  0.89700800  1
  O  O33  1  0.67028000  0.01229400  0.60299200  1
  O  O34  1  0.82972000  0.01229400  0.10299200  1
  O  O35  1  0.32972000  0.98770600  0.39700800  1
  O  O36  1  0.82781600  0.86989000  0.71799400  1
  O  O37  1  0.32781600  0.13011000  0.78200600  1
  O  O38  1  0.17218400  0.13011000  0.28200600  1
  O  O39  1  0.67218400  0.86989000  0.21799400  1
  O  O40  1  0.06152300  0.64701200  0.81675400  1
  O  O41  1  0.56152300  0.35298800  0.68324600  1
  O  O42  1  0.93847700  0.35298800  0.18324600  1
  O  O43  1  0.43847700  0.64701200  0.31675400  1
  O  O44  1  0.42275600  0.52794900  0.71826800  1
  O  O45  1  0.92275600  0.47205100  0.78173200  1
  O  O46  1  0.57724400  0.47205100  0.28173200  1
  O  O47  1  0.07724400  0.52794900  0.21826800  1
  O  O48  1  0.47466600  0.84633100  0.93037500  1
  O  O49  1  0.97466600  0.15366900  0.56962500  1
  O  O50  1  0.52533400  0.15366900  0.06962500  1
  O  O51  1  0.02533400  0.84633100  0.43037500  1
