# generated using pymatgen
data_SrBrO5
_symmetry_space_group_name_H-M   'P 1'
_cell_length_a   4.68812100
_cell_length_b   7.66242320
_cell_length_c   7.81657457
_cell_angle_alpha   117.39872059
_cell_angle_beta   103.82030810
_cell_angle_gamma   93.79414219
_symmetry_Int_Tables_number   1
_chemical_formula_structural   SrBrO5
_chemical_formula_sum   'Sr2 Br2 O10'
_cell_volume   236.97151119
_cell_formula_units_Z   2
loop_
 _symmetry_equiv_pos_site_id
 _symmetry_equiv_pos_as_xyz
  1  'x, y, z'
loop_
 _atom_site_type_symbol
 _atom_site_label
 _atom_site_symmetry_multiplicity
 _atom_site_fract_x
 _atom_site_fract_y
 _atom_site_fract_z
 _atom_site_occupancy
  Sr  Sr0  1  0.18033500  0.08713900  0.35069200  1
  Sr  Sr1  1  0.81966500  0.91286100  0.64930800  1
  Br  Br2  1  0.18581900  0.55257700  0.31676900  1
  Br  Br3  1  0.81418100  0.44742300  0.68323100  1
  O  O4  1  0.55016900  0.22402500  0.87237400  1
  O  O5  1  0.44983100  0.77597500  0.12762600  1
  O  O6  1  0.28302200  0.20815700  0.76831500  1
  O  O7  1  0.71697800  0.79184300  0.23168500  1
  O  O8  1  0.25309900  0.82629800  0.50639400  1
  O  O9  1  0.74690100  0.17370200  0.49360600  1
  O  O10  1  0.78968200  0.82361300  0.95147000  1
  O  O11  1  0.21031800  0.17638700  0.04853000  1
  O  O12  1  0.49937600  0.20100000  0.08155700  1
  O  O13  1  0.50062400  0.79900000  0.91844300  1
