# generated using pymatgen
data_Sr2CaMoO6
_symmetry_space_group_name_H-M   'P 1'
_cell_length_a   5.89186300
_cell_length_b   5.95305900
_cell_length_c   8.35322900
_cell_angle_alpha   90.00000000
_cell_angle_beta   90.00000000
_cell_angle_gamma   90.00000000
_symmetry_Int_Tables_number   1
_chemical_formula_structural   Sr2CaMoO6
_chemical_formula_sum   'Sr4 Ca2 Mo2 O12'
_cell_volume   292.98623320
_cell_formula_units_Z   2
loop_
 _symmetry_equiv_pos_site_id
 _symmetry_equiv_pos_as_xyz
  1  'x, y, z'
loop_
 _atom_site_type_symbol
 _atom_site_label
 _atom_site_symmetry_multiplicity
 _atom_site_fract_x
 _atom_site_fract_y
 _atom_site_fract_z
 _atom_site_occupancy
  Sr  Sr0  1  0.00000000  0.51932300  0.25435600  1
  Sr  Sr1  1  0.50000000  0.98986900  0.24858800  1
  Sr  Sr2  1  0.00000000  0.51932300  0.74564400  1
  Sr  Sr3  1  0.50000000  0.98986900  0.75141200  1
  Ca  Ca4  1  0.50000000  0.47327900  0.00000000  1
  Ca  Ca5  1  0.00000000  0.99748300  0.50000000  1
  Mo  Mo6  1  0.00000000  0.97068900  0.00000000  1
  Mo  Mo7  1  0.50000000  0.49044300  0.50000000  1
  O  O8  1  0.50000000  0.48205600  0.73183200  1
  O  O9  1  0.26462100  0.26372300  0.50000000  1
  O  O10  1  0.00000000  0.95887200  0.23232100  1
  O  O11  1  0.00000000  0.95887200  0.76767900  1
  O  O12  1  0.73537900  0.26372300  0.50000000  1
  O  O13  1  0.22187500  0.72329200  0.00000000  1
  O  O14  1  0.73030800  0.72561300  0.50000000  1
  O  O15  1  0.77812500  0.72329200  0.00000000  1
  O  O16  1  0.75451300  0.18130400  0.00000000  1
  O  O17  1  0.26969200  0.72561300  0.50000000  1
  O  O18  1  0.50000000  0.48205600  0.26816800  1
  O  O19  1  0.24548700  0.18130400  0.00000000  1
