# generated using pymatgen
data_Y2SiO5
_symmetry_space_group_name_H-M   'P 1'
_cell_length_a   6.77619147
_cell_length_b   6.88669000
_cell_length_c   10.35870928
_cell_angle_alpha   90.00000000
_cell_angle_beta   119.32485071
_cell_angle_gamma   90.00000000
_symmetry_Int_Tables_number   1
_chemical_formula_structural   Y2SiO5
_chemical_formula_sum   'Y8 Si4 O20'
_cell_volume   421.45098460
_cell_formula_units_Z   4
loop_
 _symmetry_equiv_pos_site_id
 _symmetry_equiv_pos_as_xyz
  1  'x, y, z'
loop_
 _atom_site_type_symbol
 _atom_site_label
 _atom_site_symmetry_multiplicity
 _atom_site_fract_x
 _atom_site_fract_y
 _atom_site_fract_z
 _atom_site_occupancy
  Y  Y0  1  0.35555900  0.22204400  0.51031200  1
  Y  Y1  1  0.14444100  0.72204400  0.48968800  1
  Y  Y2  1  0.64444100  0.77795600  0.48968800  1
  Y  Y3  1  0.85555900  0.27795600  0.51031200  1
  Y  Y4  1  0.24103700  0.54625300  0.83310500  1
  Y  Y5  1  0.25896300  0.04625300  0.16689500  1
  Y  Y6  1  0.75896300  0.45374700  0.16689500  1
  Y  Y7  1  0.74103700  0.95374700  0.83310500  1
  Si  Si8  1  0.68270600  0.47877900  0.78403500  1
  Si  Si9  1  0.81729400  0.97877900  0.21596500  1
  Si  Si10  1  0.31729400  0.52122100  0.21596500  1
  Si  Si11  1  0.18270600  0.02122100  0.78403500  1
  O  O12  1  0.46927000  0.91486300  0.60214000  1
  O  O13  1  0.03073000  0.41486300  0.39786000  1
  O  O14  1  0.53073000  0.08513700  0.39786000  1
  O  O15  1  0.96927000  0.58513700  0.60214000  1
  O  O16  1  0.12635700  0.03017700  0.92142200  1
  O  O17  1  0.37364200  0.53017700  0.07857800  1
  O  O18  1  0.87364300  0.96982300  0.07857800  1
  O  O19  1  0.62635700  0.46982300  0.92142200  1
  O  O20  1  0.24011500  0.23310000  0.73325800  1
  O  O21  1  0.25988500  0.73310000  0.26674200  1
  O  O22  1  0.75988500  0.76690000  0.26674200  1
  O  O23  1  0.74011500  0.26690000  0.73325800  1
  O  O24  1  0.44540500  0.52971000  0.62877200  1
  O  O25  1  0.05459500  0.02971000  0.37122800  1
  O  O26  1  0.55459500  0.47029000  0.37122800  1
  O  O27  1  0.94540500  0.97029000  0.62877200  1
  O  O28  1  0.62774800  0.15011500  0.17707300  1
  O  O29  1  0.87225200  0.65011500  0.82292700  1
  O  O30  1  0.37225200  0.84988500  0.82292700  1
  O  O31  1  0.12774800  0.34988500  0.17707300  1
