# generated using pymatgen
data_Ti3V2O9
_symmetry_space_group_name_H-M   'P 1'
_cell_length_a   9.67557432
_cell_length_b   9.67557432
_cell_length_c   6.91387421
_cell_angle_alpha   80.03771784
_cell_angle_beta   80.03771784
_cell_angle_gamma   32.53535198
_symmetry_Int_Tables_number   1
_chemical_formula_structural   Ti3V2O9
_chemical_formula_sum   'Ti6 V4 O18'
_cell_volume   342.40680188
_cell_formula_units_Z   2
loop_
 _symmetry_equiv_pos_site_id
 _symmetry_equiv_pos_as_xyz
  1  'x, y, z'
loop_
 _atom_site_type_symbol
 _atom_site_label
 _atom_site_symmetry_multiplicity
 _atom_site_fract_x
 _atom_site_fract_y
 _atom_site_fract_z
 _atom_site_occupancy
  Ti  Ti0  1  0.00000000  0.00000000  0.50000000  1
  Ti  Ti1  1  0.00000000  0.00000000  0.00000000  1
  Ti  Ti2  1  0.11793800  0.27898800  0.46454700  1
  Ti  Ti3  1  0.72101200  0.88206200  0.03545300  1
  Ti  Ti4  1  0.88206200  0.72101200  0.53545300  1
  Ti  Ti5  1  0.27898800  0.11793800  0.96454700  1
  V  V6  1  0.61076700  0.53522500  0.61088100  1
  V  V7  1  0.46477500  0.38923300  0.88911900  1
  V  V8  1  0.38923300  0.46477500  0.38911900  1
  V  V9  1  0.53522500  0.61076700  0.11088100  1
  O  O10  1  0.95965600  0.22357300  0.51250200  1
  O  O11  1  0.77642700  0.04034400  0.98749800  1
  O  O12  1  0.04034400  0.77642700  0.48749800  1
  O  O13  1  0.22357300  0.95965600  0.01250200  1
  O  O14  1  0.79377000  0.59166100  0.56424100  1
  O  O15  1  0.40833900  0.20623000  0.93575900  1
  O  O16  1  0.20623000  0.40833900  0.43575900  1
  O  O17  1  0.59166100  0.79377000  0.06424100  1
  O  O18  1  0.61346200  0.30062400  0.61276200  1
  O  O19  1  0.69937600  0.38653800  0.88723800  1
  O  O20  1  0.38653800  0.69937600  0.38723800  1
  O  O21  1  0.30062400  0.61346200  0.11276200  1
  O  O22  1  0.90659900  0.70212900  0.80834400  1
  O  O23  1  0.29787100  0.09340100  0.69165600  1
  O  O24  1  0.09340100  0.29787100  0.19165600  1
  O  O25  1  0.70212900  0.90659900  0.30834400  1
  O  O26  1  0.18538300  0.81461700  0.75000000  1
  O  O27  1  0.81461700  0.18538300  0.25000000  1
