# generated using pymatgen
data_Sr(NO5)2
_symmetry_space_group_name_H-M   'P 1'
_cell_length_a   8.72868384
_cell_length_b   8.72868384
_cell_length_c   6.79974424
_cell_angle_alpha   71.86376004
_cell_angle_beta   71.86376004
_cell_angle_gamma   108.58719185
_symmetry_Int_Tables_number   1
_chemical_formula_structural   Sr(NO5)2
_chemical_formula_sum   'Sr2 N4 O20'
_cell_volume   415.37723048
_cell_formula_units_Z   2
loop_
 _symmetry_equiv_pos_site_id
 _symmetry_equiv_pos_as_xyz
  1  'x, y, z'
loop_
 _atom_site_type_symbol
 _atom_site_label
 _atom_site_symmetry_multiplicity
 _atom_site_fract_x
 _atom_site_fract_y
 _atom_site_fract_z
 _atom_site_occupancy
  Sr  Sr0  1  0.20598600  0.79401400  0.25000000  1
  Sr  Sr1  1  0.79401400  0.20598600  0.75000000  1
  N  N2  1  0.82575400  0.65418400  0.65398200  1
  N  N3  1  0.34581600  0.17424600  0.84601800  1
  N  N4  1  0.17424600  0.34581600  0.34601800  1
  N  N5  1  0.65418400  0.82575400  0.15398200  1
  O  O6  1  0.92035300  0.81375800  0.48667800  1
  O  O7  1  0.18624200  0.07964700  0.01332200  1
  O  O8  1  0.07964700  0.18624200  0.51332200  1
  O  O9  1  0.81375800  0.92035300  0.98667800  1
  O  O10  1  0.89927500  0.54387000  0.64694500  1
  O  O11  1  0.45613000  0.10072500  0.85305500  1
  O  O12  1  0.10072500  0.45613000  0.35305500  1
  O  O13  1  0.54387000  0.89927500  0.14694500  1
  O  O14  1  0.67771600  0.60251600  0.81343900  1
  O  O15  1  0.39748400  0.32228400  0.68656100  1
  O  O16  1  0.32228400  0.39748400  0.18656100  1
  O  O17  1  0.60251600  0.67771600  0.31343900  1
  O  O18  1  0.29237900  0.61257200  0.72044100  1
  O  O19  1  0.38742800  0.70762100  0.77955900  1
  O  O20  1  0.70762100  0.38742800  0.27955900  1
  O  O21  1  0.61257200  0.29237900  0.22044100  1
  O  O22  1  0.09053300  0.80762800  0.85448800  1
  O  O23  1  0.19237200  0.90946700  0.64551200  1
  O  O24  1  0.90946700  0.19237200  0.14551200  1
  O  O25  1  0.80762800  0.09053300  0.35448800  1
