# generated using pymatgen
data_SnH4
_symmetry_space_group_name_H-M   'P 1'
_cell_length_a   4.80866100
_cell_length_b   5.25497434
_cell_length_c   8.43809201
_cell_angle_alpha   81.40892870
_cell_angle_beta   73.44487201
_cell_angle_gamma   62.77188558
_symmetry_Int_Tables_number   1
_chemical_formula_structural   SnH4
_chemical_formula_sum   'Sn2 H8'
_cell_volume   181.69352297
_cell_formula_units_Z   2
loop_
 _symmetry_equiv_pos_site_id
 _symmetry_equiv_pos_as_xyz
  1  'x, y, z'
loop_
 _atom_site_type_symbol
 _atom_site_label
 _atom_site_symmetry_multiplicity
 _atom_site_fract_x
 _atom_site_fract_y
 _atom_site_fract_z
 _atom_site_occupancy
  Sn  Sn0  1  0.92876700  0.25000000  0.75000000  1
  Sn  Sn1  1  0.07123300  0.75000000  0.25000000  1
  H  H2  1  0.96751000  0.53449500  0.80111800  1
  H  H3  1  0.30312300  0.96550500  0.69888200  1
  H  H4  1  0.03249000  0.46550500  0.19888200  1
  H  H5  1  0.69687700  0.03449500  0.30111800  1
  H  H6  1  0.75718400  0.34818000  0.58441100  1
  H  H7  1  0.68977500  0.15182000  0.91558900  1
  H  H8  1  0.24281600  0.65182000  0.41558900  1
  H  H9  1  0.31022500  0.84818000  0.08441100  1
