# generated using pymatgen
data_Sr(ClO3)2
_symmetry_space_group_name_H-M   'P 1'
_cell_length_a   7.61739410
_cell_length_b   7.61739410
_cell_length_c   3.40126940
_cell_angle_alpha   77.41320128
_cell_angle_beta   77.41320128
_cell_angle_gamma   66.20301944
_symmetry_Int_Tables_number   1
_chemical_formula_structural   Sr(ClO3)2
_chemical_formula_sum   'Sr1 Cl2 O6'
_cell_volume   174.36141805
_cell_formula_units_Z   1
loop_
 _symmetry_equiv_pos_site_id
 _symmetry_equiv_pos_as_xyz
  1  'x, y, z'
loop_
 _atom_site_type_symbol
 _atom_site_label
 _atom_site_symmetry_multiplicity
 _atom_site_fract_x
 _atom_site_fract_y
 _atom_site_fract_z
 _atom_site_occupancy
  Sr  Sr0  1  0.98476800  0.01523200  0.00000000  1
  Cl  Cl1  1  0.60294200  0.74570500  0.26741800  1
  Cl  Cl2  1  0.25429500  0.39705800  0.73258200  1
  O  O3  1  0.05828400  0.59097500  0.49982900  1
  O  O4  1  0.40902500  0.94171600  0.50017100  1
  O  O5  1  0.68965400  0.31034600  0.00000000  1
  O  O6  1  0.00146000  0.75989400  0.63881200  1
  O  O7  1  0.24010600  0.99854000  0.36118800  1
  O  O8  1  0.75936600  0.24063400  0.50000000  1
