# generated using pymatgen
data_Rb8(GaH3)5
_symmetry_space_group_name_H-M   'P 1'
_cell_length_a   11.91052642
_cell_length_b   11.91052642
_cell_length_c   11.91052642
_cell_angle_alpha   60.00000000
_cell_angle_beta   60.00000000
_cell_angle_gamma   60.00000000
_symmetry_Int_Tables_number   1
_chemical_formula_structural   Rb8(GaH3)5
_chemical_formula_sum   'Rb16 Ga10 H30'
_cell_volume   1194.75229303
_cell_formula_units_Z   2
loop_
 _symmetry_equiv_pos_site_id
 _symmetry_equiv_pos_as_xyz
  1  'x, y, z'
loop_
 _atom_site_type_symbol
 _atom_site_label
 _atom_site_symmetry_multiplicity
 _atom_site_fract_x
 _atom_site_fract_y
 _atom_site_fract_z
 _atom_site_occupancy
  Rb  Rb0  1  0.62500000  0.12500000  0.12500000  1
  Rb  Rb1  1  0.12500000  0.12500000  0.62500000  1
  Rb  Rb2  1  0.12500000  0.12500000  0.12500000  1
  Rb  Rb3  1  0.12500000  0.62500000  0.12500000  1
  Rb  Rb4  1  0.57783300  0.92216700  0.57783300  1
  Rb  Rb5  1  0.92216700  0.57783300  0.92216700  1
  Rb  Rb6  1  0.57783300  0.92216700  0.92216700  1
  Rb  Rb7  1  0.92216700  0.57783300  0.57783300  1
  Rb  Rb8  1  0.92216700  0.92216700  0.57783300  1
  Rb  Rb9  1  0.57783300  0.57783300  0.92216700  1
  Rb  Rb10  1  0.67216700  0.32783300  0.67216700  1
  Rb  Rb11  1  0.32783300  0.67216700  0.32783300  1
  Rb  Rb12  1  0.67216700  0.32783300  0.32783300  1
  Rb  Rb13  1  0.32783300  0.67216700  0.67216700  1
  Rb  Rb14  1  0.32783300  0.32783300  0.67216700  1
  Rb  Rb15  1  0.67216700  0.67216700  0.32783300  1
  Ga  Ga16  1  0.99523200  0.33492300  0.33492300  1
  Ga  Ga17  1  0.33492300  0.33492300  0.99523200  1
  Ga  Ga18  1  0.33492300  0.33492300  0.33492300  1
  Ga  Ga19  1  0.33492300  0.99523200  0.33492300  1
  Ga  Ga20  1  0.25476800  0.91507700  0.91507700  1
  Ga  Ga21  1  0.91507700  0.91507700  0.25476800  1
  Ga  Ga22  1  0.91507700  0.91507700  0.91507700  1
  Ga  Ga23  1  0.91507700  0.25476800  0.91507700  1
  Ga  Ga24  1  0.25000000  0.25000000  0.25000000  1
  Ga  Ga25  1  0.00000000  0.00000000  0.00000000  1
  H  H26  1  0.45634500  0.22034100  0.40370600  1
  H  H27  1  0.40370600  0.91960800  0.45634500  1
  H  H28  1  0.91960800  0.40370600  0.22034100  1
  H  H29  1  0.22034100  0.45634500  0.91960800  1
  H  H30  1  0.40370600  0.22034100  0.91960800  1
  H  H31  1  0.45634500  0.91960800  0.22034100  1
  H  H32  1  0.22034100  0.40370600  0.45634500  1
  H  H33  1  0.91960800  0.45634500  0.40370600  1
  H  H34  1  0.91960800  0.22034100  0.45634500  1
  H  H35  1  0.22034100  0.91960800  0.40370600  1
  H  H36  1  0.45634500  0.40370600  0.91960800  1
  H  H37  1  0.40370600  0.45634500  0.22034100  1
  H  H38  1  0.79365500  0.02965900  0.84629400  1
  H  H39  1  0.84629400  0.33039200  0.79365500  1
  H  H40  1  0.33039200  0.84629400  0.02965900  1
  H  H41  1  0.02965900  0.79365500  0.33039200  1
  H  H42  1  0.84629400  0.02965900  0.33039200  1
  H  H43  1  0.79365500  0.33039200  0.02965900  1
  H  H44  1  0.02965900  0.84629400  0.79365500  1
  H  H45  1  0.33039200  0.79365500  0.84629400  1
  H  H46  1  0.33039200  0.02965900  0.79365500  1
  H  H47  1  0.02965900  0.33039200  0.84629400  1
  H  H48  1  0.79365500  0.84629400  0.33039200  1
  H  H49  1  0.84629400  0.79365500  0.02965900  1
  H  H50  1  0.12500000  0.62500000  0.62500000  1
  H  H51  1  0.62500000  0.62500000  0.12500000  1
  H  H52  1  0.62500000  0.62500000  0.62500000  1
  H  H53  1  0.62500000  0.12500000  0.62500000  1
  H  H54  1  0.75000000  0.75000000  0.75000000  1
  H  H55  1  0.50000000  0.50000000  0.50000000  1
