# generated using pymatgen
data_Sr(H8O5)2
_symmetry_space_group_name_H-M   'P 1'
_cell_length_a   6.36531202
_cell_length_b   6.36531202
_cell_length_c   6.79386681
_cell_angle_alpha   89.15342306
_cell_angle_beta   89.15342306
_cell_angle_gamma   91.59737362
_symmetry_Int_Tables_number   1
_chemical_formula_structural   Sr(H8O5)2
_chemical_formula_sum   'Sr1 H16 O10'
_cell_volume   275.09967245
_cell_formula_units_Z   1
loop_
 _symmetry_equiv_pos_site_id
 _symmetry_equiv_pos_as_xyz
  1  'x, y, z'
loop_
 _atom_site_type_symbol
 _atom_site_label
 _atom_site_symmetry_multiplicity
 _atom_site_fract_x
 _atom_site_fract_y
 _atom_site_fract_z
 _atom_site_occupancy
  Sr  Sr0  1  0.99001100  0.00998900  0.00000000  1
  H  H1  1  0.66911900  0.66454800  0.19958700  1
  H  H2  1  0.72720000  0.85070500  0.34873300  1
  H  H3  1  0.33532400  0.32545800  0.19431300  1
  H  H4  1  0.28646800  0.09481500  0.29217700  1
  H  H5  1  0.10234800  0.71372600  0.29247500  1
  H  H6  1  0.32425100  0.67146100  0.18423800  1
  H  H7  1  0.67640800  0.34064300  0.19621400  1
  H  H8  1  0.89354500  0.30170700  0.30597300  1
  H  H9  1  0.33545200  0.33088100  0.80041300  1
  H  H10  1  0.14929500  0.27280000  0.65126700  1
  H  H11  1  0.67454200  0.66467600  0.80568700  1
  H  H12  1  0.90518500  0.71353200  0.70782300  1
  H  H13  1  0.65935700  0.32359200  0.80378600  1
  H  H14  1  0.69829300  0.10645500  0.69402700  1
  H  H15  1  0.32853900  0.67574900  0.81576200  1
  H  H16  1  0.28627400  0.89765200  0.70752500  1
  O  O17  1  0.49592300  0.50380200  0.10993200  1
  O  O18  1  0.49619800  0.50407700  0.89006800  1
  O  O19  1  0.78903300  0.75562200  0.25381200  1
  O  O20  1  0.22024300  0.22442100  0.24859900  1
  O  O21  1  0.22791300  0.78434400  0.23529300  1
  O  O22  1  0.77497900  0.22973800  0.24426100  1
  O  O23  1  0.24437800  0.21096700  0.74618800  1
  O  O24  1  0.77557900  0.77975700  0.75140100  1
  O  O25  1  0.77026200  0.22502100  0.75573900  1
  O  O26  1  0.21565600  0.77208700  0.76470700  1
