# generated using pymatgen
data_Sr(H8O5)2
_symmetry_space_group_name_H-M   'P 1'
_cell_length_a   6.20223500
_cell_length_b   6.33471617
_cell_length_c   11.59202222
_cell_angle_alpha   88.89984510
_cell_angle_beta   85.52946257
_cell_angle_gamma   89.73615533
_symmetry_Int_Tables_number   1
_chemical_formula_structural   Sr(H8O5)2
_chemical_formula_sum   'Sr2 H32 O20'
_cell_volume   453.97200443
_cell_formula_units_Z   2
loop_
 _symmetry_equiv_pos_site_id
 _symmetry_equiv_pos_as_xyz
  1  'x, y, z'
loop_
 _atom_site_type_symbol
 _atom_site_label
 _atom_site_symmetry_multiplicity
 _atom_site_fract_x
 _atom_site_fract_y
 _atom_site_fract_z
 _atom_site_occupancy
  Sr  Sr0  1  0.03714800  0.97234100  0.50291600  1
  Sr  Sr1  1  0.98493800  0.03436100  0.00252600  1
  H  H2  1  0.97470000  0.67649800  0.28898500  1
  H  H3  1  0.78968400  0.59217500  0.38985800  1
  H  H4  1  0.09328700  0.41857900  0.37730700  1
  H  H5  1  0.33419000  0.36067000  0.39830800  1
  H  H6  1  0.33686500  0.81918300  0.28928700  1
  H  H7  1  0.44457900  0.69772700  0.39245300  1
  H  H8  1  0.60922300  0.01850900  0.35773700  1
  H  H9  1  0.65822000  0.25478000  0.39449500  1
  H  H10  1  0.01890300  0.65626300  0.82696600  1
  H  H11  1  0.24852400  0.66798000  0.87943200  1
  H  H12  1  0.81301800  0.31776800  0.80184600  1
  H  H13  1  0.69399900  0.43065700  0.90717300  1
  H  H14  1  0.58986700  0.77599700  0.88879900  1
  H  H15  1  0.70245200  0.90882800  0.78149300  1
  H  H16  1  0.43342400  0.09159300  0.86215700  1
  H  H17  1  0.36059500  0.32895400  0.89096700  1
  H  H18  1  0.20884300  0.24431800  0.72296500  1
  H  H19  1  0.30542100  0.35685700  0.60778000  1
  H  H20  1  0.75568800  0.58100700  0.60590500  1
  H  H21  1  0.99133700  0.52278700  0.63970600  1
  H  H22  1  0.64148500  0.24651000  0.60239500  1
  H  H23  1  0.56781500  0.00913400  0.62575000  1
  H  H24  1  0.28015600  0.80739100  0.70465500  1
  H  H25  1  0.42061500  0.69070500  0.60051900  1
  H  H26  1  0.80656600  0.22904600  0.22977700  1
  H  H27  1  0.93509700  0.41890500  0.16075700  1
  H  H28  1  0.23765700  0.60641100  0.07924100  1
  H  H29  1  0.89966100  0.70608800  0.13262600  1
  H  H30  1  0.26224000  0.18976200  0.22591000  1
  H  H31  1  0.36728200  0.29052100  0.11097700  1
  H  H32  1  0.55308000  0.73765100  0.09556100  1
  H  H33  1  0.53141200  0.97669700  0.13255700  1
  O  O34  1  0.55052500  0.48276000  0.43230100  1
  O  O35  1  0.44434000  0.55269700  0.93114700  1
  O  O36  1  0.53368600  0.47711300  0.56166100  1
  O  O37  1  0.39649000  0.54332100  0.05829200  1
  O  O38  1  0.94099700  0.65086300  0.37488500  1
  O  O39  1  0.19403900  0.29457900  0.37638500  1
  O  O40  1  0.38088700  0.84051100  0.36722900  1
  O  O41  1  0.72945000  0.12034900  0.36359500  1
  O  O42  1  0.13200900  0.75669300  0.84337700  1
  O  O43  1  0.83588900  0.36456100  0.87978700  1
  O  O44  1  0.66040200  0.91457700  0.86457800  1
  O  O45  1  0.30501000  0.18690600  0.86659000  1
  O  O46  1  0.16857600  0.28766600  0.64454800  1
  O  O47  1  0.88944300  0.64371500  0.63639900  1
  O  O48  1  0.69593300  0.10376200  0.62847400  1
  O  O49  1  0.35213200  0.83232400  0.62587300  1
  O  O50  1  0.84533800  0.29279100  0.15122500  1
  O  O51  1  0.05358200  0.69856000  0.14551300  1
  O  O52  1  0.31458400  0.15197200  0.14568300  1
  O  O53  1  0.64040100  0.86311400  0.11491900  1
