# generated using pymatgen
data_Tc4Br7O
_symmetry_space_group_name_H-M   'P 1'
_cell_length_a   9.50265200
_cell_length_b   10.05250800
_cell_length_c   21.15592021
_cell_angle_alpha   71.60325899
_cell_angle_beta   90.00000000
_cell_angle_gamma   90.00000000
_symmetry_Int_Tables_number   1
_chemical_formula_structural   Tc4Br7O
_chemical_formula_sum   'Tc16 Br28 O4'
_cell_volume   1917.64784691
_cell_formula_units_Z   4
loop_
 _symmetry_equiv_pos_site_id
 _symmetry_equiv_pos_as_xyz
  1  'x, y, z'
loop_
 _atom_site_type_symbol
 _atom_site_label
 _atom_site_symmetry_multiplicity
 _atom_site_fract_x
 _atom_site_fract_y
 _atom_site_fract_z
 _atom_site_occupancy
  Tc  Tc0  1  0.49386900  0.36222600  0.46978700  1
  Tc  Tc1  1  0.99386900  0.63777400  0.03021300  1
  Tc  Tc2  1  0.50613100  0.63777400  0.53021300  1
  Tc  Tc3  1  0.00613100  0.36222600  0.96978700  1
  Tc  Tc4  1  0.98027700  0.26851100  0.10394500  1
  Tc  Tc5  1  0.48027700  0.73148900  0.39605500  1
  Tc  Tc6  1  0.01972300  0.73148900  0.89605500  1
  Tc  Tc7  1  0.51972300  0.26851100  0.60394500  1
  Tc  Tc8  1  0.14224200  0.42011500  0.11079300  1
  Tc  Tc9  1  0.64224200  0.57988500  0.38920700  1
  Tc  Tc10  1  0.85775800  0.57988500  0.88920700  1
  Tc  Tc11  1  0.35775800  0.42011500  0.61079300  1
  Tc  Tc12  1  0.33173600  0.51301200  0.47689500  1
  Tc  Tc13  1  0.83173600  0.48698800  0.02310500  1
  Tc  Tc14  1  0.66826400  0.48698800  0.52310500  1
  Tc  Tc15  1  0.16826400  0.51301200  0.97689500  1
  Br  Br16  1  0.01838200  0.59547900  0.15492200  1
  Br  Br17  1  0.51838200  0.40452100  0.34507800  1
  Br  Br18  1  0.98161800  0.40452100  0.84507800  1
  Br  Br19  1  0.48161800  0.59547900  0.65492200  1
  Br  Br20  1  0.10194700  0.12185500  0.04222500  1
  Br  Br21  1  0.60194700  0.87814500  0.45777500  1
  Br  Br22  1  0.89805300  0.87814500  0.95777500  1
  Br  Br23  1  0.39805300  0.12185500  0.54222500  1
  Br  Br24  1  0.35673900  0.36761100  0.05198300  1
  Br  Br25  1  0.85673900  0.63238900  0.44801700  1
  Br  Br26  1  0.64326100  0.63238900  0.94801700  1
  Br  Br27  1  0.14326100  0.36761100  0.55198300  1
  Br  Br28  1  0.25882200  0.64168300  0.35677200  1
  Br  Br29  1  0.75882200  0.35831700  0.14322800  1
  Br  Br30  1  0.74117800  0.35831700  0.64322800  1
  Br  Br31  1  0.24117800  0.64168300  0.85677200  1
  Br  Br32  1  0.25903300  0.76479600  0.00383700  1
  Br  Br33  1  0.75903300  0.23520400  0.49616300  1
  Br  Br34  1  0.74096700  0.23520400  0.99616300  1
  Br  Br35  1  0.24096700  0.76479600  0.50383700  1
  Br  Br36  1  0.50927500  0.93501100  0.28636800  1
  Br  Br37  1  0.00927500  0.06498900  0.21363200  1
  Br  Br38  1  0.49072500  0.06498900  0.71363200  1
  Br  Br39  1  0.99072500  0.93501100  0.78636800  1
  Br  Br40  1  0.27599900  0.33116200  0.21812400  1
  Br  Br41  1  0.77599900  0.66883800  0.28187600  1
  Br  Br42  1  0.72400100  0.66883800  0.78187600  1
  Br  Br43  1  0.22400100  0.33116200  0.71812400  1
  O  O44  1  0.00985900  0.14471200  0.27569300  1
  O  O45  1  0.50985900  0.85528800  0.22430700  1
  O  O46  1  0.99014100  0.85528800  0.72430700  1
  O  O47  1  0.49014100  0.14471200  0.77569300  1
