# generated using pymatgen
data_Si2H2O3
_symmetry_space_group_name_H-M   'P 1'
_cell_length_a   8.50009100
_cell_length_b   10.36392179
_cell_length_c   12.53395471
_cell_angle_alpha   88.30971127
_cell_angle_beta   104.76812279
_cell_angle_gamma   108.10654207
_symmetry_Int_Tables_number   1
_chemical_formula_structural   Si2H2O3
_chemical_formula_sum   'Si20 H20 O30'
_cell_volume   1013.33558995
_cell_formula_units_Z   10
loop_
 _symmetry_equiv_pos_site_id
 _symmetry_equiv_pos_as_xyz
  1  'x, y, z'
loop_
 _atom_site_type_symbol
 _atom_site_label
 _atom_site_symmetry_multiplicity
 _atom_site_fract_x
 _atom_site_fract_y
 _atom_site_fract_z
 _atom_site_occupancy
  Si  Si0  1  0.89956700  0.13779700  0.12239700  1
  Si  Si1  1  0.09186700  0.36996100  0.39905100  1
  Si  Si2  1  0.18454900  0.87730100  0.92336400  1
  Si  Si3  1  0.86510600  0.58586900  0.52128000  1
  Si  Si4  1  0.03732400  0.91157700  0.25522300  1
  Si  Si5  1  0.28916700  0.58490700  0.25800200  1
  Si  Si6  1  0.94917300  0.08185100  0.75562700  1
  Si  Si7  1  0.66331700  0.41045100  0.71580600  1
  Si  Si8  1  0.43913400  0.98208300  0.19009000  1
  Si  Si9  1  0.68087300  0.49403400  0.33402200  1
  Si  Si10  1  0.56003000  0.00677000  0.80611500  1
  Si  Si11  1  0.31097200  0.48980800  0.70384700  1
  Si  Si12  1  0.61079900  0.19596200  0.44766600  1
  Si  Si13  1  0.46006300  0.23520100  0.05573600  1
  Si  Si14  1  0.37764000  0.78778900  0.55201100  1
  Si  Si15  1  0.51192900  0.70274100  0.95458100  1
  Si  Si16  1  0.22471400  0.06994700  0.49597800  1
  Si  Si17  1  0.19653600  0.41632500  0.02184000  1
  Si  Si18  1  0.77787500  0.86680500  0.53843900  1
  Si  Si19  1  0.86234800  0.63295700  0.94933300  1
  H  H20  1  0.96353300  0.97241800  0.92897200  1
  H  H21  1  0.57703100  0.54208100  0.55974400  1
  H  H22  1  0.25286700  0.80439700  0.25526000  1
  H  H23  1  0.59612300  0.66679600  0.23703300  1
  H  H24  1  0.19211300  0.10786400  0.16252300  1
  H  H25  1  0.41178000  0.32963000  0.30973900  1
  H  H26  1  0.68319500  0.82786400  0.83956700  1
  H  H27  1  0.54938400  0.68350400  0.68533900  1
  H  H28  1  0.95090600  0.21870900  0.95409100  1
  H  H29  1  0.32594800  0.30215100  0.47258900  1
  H  H30  1  0.85675600  0.29558800  0.22637500  1
  H  H31  1  0.20090200  0.80008200  0.75285100  1
  H  H32  1  0.83608500  0.98490300  0.47382200  1
  H  H33  1  0.89708200  0.52279400  0.01893300  1
  H  H34  1  0.98123100  0.85874700  0.70860500  1
  H  H35  1  0.93559800  0.64022500  0.78780500  1
  H  H36  1  0.69521800  0.06675400  0.33877500  1
  H  H37  1  0.81535000  0.52299800  0.19255400  1
  H  H38  1  0.33323400  0.96638400  0.63584900  1
  H  H39  1  0.26496200  0.52638100  0.87982000  1
  O  O40  1  0.07392800  0.07204700  0.17831000  1
  O  O41  1  0.26195100  0.46567900  0.35498000  1
  O  O42  1  0.04369700  0.99866500  0.88199200  1
  O  O43  1  0.67201500  0.50422300  0.58572700  1
  O  O44  1  0.25083100  0.90151900  0.24330700  1
  O  O45  1  0.54356500  0.58692500  0.27521200  1
  O  O46  1  0.75598200  0.04750000  0.78039100  1
  O  O47  1  0.48988800  0.44013400  0.73095600  1
  O  O48  1  0.37240200  0.12028700  0.14312500  1
  O  O49  1  0.53294700  0.34177600  0.34658800  1
  O  O50  1  0.58385600  0.83798000  0.85991300  1
  O  O51  1  0.42834800  0.65417900  0.64452600  1
  O  O52  1  0.41931400  0.12984900  0.46776700  1
  O  O53  1  0.35432300  0.34336500  0.05659500  1
  O  O54  1  0.57953600  0.84328800  0.53575100  1
  O  O55  1  0.68659300  0.65222400  0.96206800  1
  O  O56  1  0.01075600  0.25436300  0.02986300  1
  O  O57  1  0.20405700  0.25433700  0.46493700  1
  O  O58  1  0.02616100  0.77118600  0.97553500  1
  O  O59  1  0.81505300  0.73499700  0.49958400  1
  O  O60  1  0.94809900  0.25346900  0.23633900  1
  O  O61  1  0.10645200  0.79742800  0.78549200  1
  O  O62  1  0.09010600  0.98993200  0.37929300  1
  O  O63  1  0.20801600  0.48891100  0.14194100  1
  O  O64  1  0.89034200  0.90587500  0.67324400  1
  O  O65  1  0.83077100  0.59098500  0.81259800  1
  O  O66  1  0.58573300  0.08419400  0.32936700  1
  O  O67  1  0.75125500  0.45038400  0.23108300  1
  O  O68  1  0.41139900  0.90978700  0.67166700  1
  O  O69  1  0.35432400  0.58190400  0.83894600  1
