# generated using pymatgen
data_TiNF5
_symmetry_space_group_name_H-M   'P 1'
_cell_length_a   7.45917500
_cell_length_b   14.86404900
_cell_length_c   20.18353708
_cell_angle_alpha   70.27988618
_cell_angle_beta   90.00000000
_cell_angle_gamma   90.00000000
_symmetry_Int_Tables_number   1
_chemical_formula_structural   TiNF5
_chemical_formula_sum   'Ti16 N16 F80'
_cell_volume   2106.57691056
_cell_formula_units_Z   16
loop_
 _symmetry_equiv_pos_site_id
 _symmetry_equiv_pos_as_xyz
  1  'x, y, z'
loop_
 _atom_site_type_symbol
 _atom_site_label
 _atom_site_symmetry_multiplicity
 _atom_site_fract_x
 _atom_site_fract_y
 _atom_site_fract_z
 _atom_site_occupancy
  Ti  Ti0  1  0.77587200  0.35830900  0.29015700  1
  Ti  Ti1  1  0.72412800  0.35830900  0.79015700  1
  Ti  Ti2  1  0.22412800  0.64169100  0.70984300  1
  Ti  Ti3  1  0.27587200  0.64169100  0.20984300  1
  Ti  Ti4  1  0.68815900  0.14718000  0.46263500  1
  Ti  Ti5  1  0.81184100  0.14718000  0.96263500  1
  Ti  Ti6  1  0.31184100  0.85282000  0.53736500  1
  Ti  Ti7  1  0.18815900  0.85282000  0.03736500  1
  Ti  Ti8  1  0.70287600  0.35914300  0.53700600  1
  Ti  Ti9  1  0.79712400  0.35914300  0.03700600  1
  Ti  Ti10  1  0.29712400  0.64085700  0.46299400  1
  Ti  Ti11  1  0.20287600  0.64085700  0.96299400  1
  Ti  Ti12  1  0.76638200  0.14544100  0.71306600  1
  Ti  Ti13  1  0.73361800  0.14544100  0.21306600  1
  Ti  Ti14  1  0.23361800  0.85455900  0.28693400  1
  Ti  Ti15  1  0.26638200  0.85455900  0.78693400  1
  N  N16  1  0.21035400  0.13376800  0.57162300  1
  N  N17  1  0.28964600  0.13376800  0.07162300  1
  N  N18  1  0.78964600  0.86623200  0.42837700  1
  N  N19  1  0.71035400  0.86623200  0.92837700  1
  N  N20  1  0.32557700  0.16218600  0.83266300  1
  N  N21  1  0.17442300  0.16218600  0.33266300  1
  N  N22  1  0.67442300  0.83781400  0.16733700  1
  N  N23  1  0.82557700  0.83781400  0.66733700  1
  N  N24  1  0.17909100  0.33235400  0.66816200  1
  N  N25  1  0.32090900  0.33235400  0.16816200  1
  N  N26  1  0.82090900  0.66764600  0.33183800  1
  N  N27  1  0.67909100  0.66764600  0.83183800  1
  N  N28  1  0.21266200  0.35687400  0.43507800  1
  N  N29  1  0.28733800  0.35687400  0.93507800  1
  N  N30  1  0.78733800  0.64312600  0.56492200  1
  N  N31  1  0.71266200  0.64312600  0.06492200  1
  F  F32  1  0.84325300  0.41424100  0.20114700  1
  F  F33  1  0.65674700  0.41424100  0.70114700  1
  F  F34  1  0.15674700  0.58575900  0.79885300  1
  F  F35  1  0.34325300  0.58575900  0.29885300  1
  F  F36  1  0.91781400  0.42890100  0.32323900  1
  F  F37  1  0.58218600  0.42890100  0.82323900  1
  F  F38  1  0.08218600  0.57109900  0.67676100  1
  F  F39  1  0.41781400  0.57109900  0.17676100  1
  F  F40  1  0.15425100  0.25816400  0.31213600  1
  F  F41  1  0.34574900  0.25816400  0.81213600  1
  F  F42  1  0.84574900  0.74183600  0.68786400  1
  F  F43  1  0.65425100  0.74183600  0.18786400  1
  F  F44  1  0.55223100  0.39125800  0.29628300  1
  F  F45  1  0.94776900  0.39125800  0.79628300  1
  F  F46  1  0.44776900  0.60874200  0.70371700  1
  F  F47  1  0.05223100  0.60874200  0.20371700  1
  F  F48  1  0.74152300  0.24218200  0.26185000  1
  F  F49  1  0.75847700  0.24218200  0.76185000  1
  F  F50  1  0.25847700  0.75781800  0.73815000  1
  F  F51  1  0.24152300  0.75781800  0.23815000  1
  F  F52  1  0.79604800  0.25689100  0.38352000  1
  F  F53  1  0.70395200  0.25689100  0.88352000  1
  F  F54  1  0.20395200  0.74310900  0.61648000  1
  F  F55  1  0.29604800  0.74310900  0.11648000  1
  F  F56  1  0.81612800  0.07297500  0.42822800  1
  F  F57  1  0.68387200  0.07297500  0.92822800  1
  F  F58  1  0.18387200  0.92702500  0.57177200  1
  F  F59  1  0.31612800  0.92702500  0.07177200  1
  F  F60  1  0.47077700  0.16677400  0.42689700  1
  F  F61  1  0.02922300  0.16677400  0.92689700  1
  F  F62  1  0.52922300  0.83322600  0.57310300  1
  F  F63  1  0.97077700  0.83322600  0.07310300  1
  F  F64  1  0.09700100  0.12918800  0.52102000  1
  F  F65  1  0.40299900  0.12918800  0.02102000  1
  F  F66  1  0.90299900  0.87081200  0.47898000  1
  F  F67  1  0.59700100  0.87081200  0.97898000  1
  F  F68  1  0.64981100  0.05853500  0.54588900  1
  F  F69  1  0.85018900  0.05853500  0.04588900  1
  F  F70  1  0.35018900  0.94146500  0.45411100  1
  F  F71  1  0.14981100  0.94146500  0.95411100  1
  F  F72  1  0.72762600  0.23985700  0.51196700  1
  F  F73  1  0.77237400  0.23985700  0.01196700  1
  F  F74  1  0.27237400  0.76014300  0.48803300  1
  F  F75  1  0.22762600  0.76014300  0.98803300  1
  F  F76  1  0.69193400  0.42110300  0.44504200  1
  F  F77  1  0.80806600  0.42110300  0.94504200  1
  F  F78  1  0.30806600  0.57889700  0.55495800  1
  F  F79  1  0.19193400  0.57889700  0.05495800  1
  F  F80  1  0.83681800  0.44439200  0.55707800  1
  F  F81  1  0.66318200  0.44439200  0.05707800  1
  F  F82  1  0.16318200  0.55560800  0.44292200  1
  F  F83  1  0.33681800  0.55560800  0.94292200  1
  F  F84  1  0.09716400  0.34247700  0.48907500  1
  F  F85  1  0.40283600  0.34247700  0.98907500  1
  F  F86  1  0.90283600  0.65752300  0.51092500  1
  F  F87  1  0.59716400  0.65752300  0.01092500  1
  F  F88  1  0.47882500  0.36609200  0.56201400  1
  F  F89  1  0.02117500  0.36609200  0.06201400  1
  F  F90  1  0.52117500  0.63390800  0.43798600  1
  F  F91  1  0.97882500  0.63390800  0.93798600  1
  F  F92  1  0.78220300  0.26442100  0.62927000  1
  F  F93  1  0.71779700  0.26442100  0.12927000  1
  F  F94  1  0.21779700  0.73557900  0.37073000  1
  F  F95  1  0.28220300  0.73557900  0.87073000  1
  F  F96  1  0.15409300  0.23666800  0.68939300  1
  F  F97  1  0.34590700  0.23666800  0.18939300  1
  F  F98  1  0.84590700  0.76333200  0.31060700  1
  F  F99  1  0.65409300  0.76333200  0.81060700  1
  F  F100  1  0.53615600  0.12159000  0.71159200  1
  F  F101  1  0.96384400  0.12159000  0.21159200  1
  F  F102  1  0.46384400  0.87841000  0.28840800  1
  F  F103  1  0.03615600  0.87841000  0.78840800  1
  F  F104  1  0.87384800  0.08715300  0.66021400  1
  F  F105  1  0.62615200  0.08715300  0.16021400  1
  F  F106  1  0.12615200  0.91284700  0.33978600  1
  F  F107  1  0.37384800  0.91284700  0.83978600  1
  F  F108  1  0.85742000  0.06764100  0.79302500  1
  F  F109  1  0.64258000  0.06764100  0.29302500  1
  F  F110  1  0.14258000  0.93235900  0.20697500  1
  F  F111  1  0.35742000  0.93235900  0.70697500  1
