# generated using pymatgen
data_SiO2
_symmetry_space_group_name_H-M   'P 1'
_cell_length_a   10.30366410
_cell_length_b   10.30366410
_cell_length_c   10.30366410
_cell_angle_alpha   139.27451057
_cell_angle_beta   139.27451057
_cell_angle_gamma   58.95652575
_symmetry_Int_Tables_number   1
_chemical_formula_structural   SiO2
_chemical_formula_sum   'Si8 O16'
_cell_volume   461.20071799
_cell_formula_units_Z   8
loop_
 _symmetry_equiv_pos_site_id
 _symmetry_equiv_pos_as_xyz
  1  'x, y, z'
loop_
 _atom_site_type_symbol
 _atom_site_label
 _atom_site_symmetry_multiplicity
 _atom_site_fract_x
 _atom_site_fract_y
 _atom_site_fract_z
 _atom_site_occupancy
  Si  Si0  1  0.43421600  0.21433200  0.21988400  1
  Si  Si1  1  0.96433200  0.24444700  0.28011600  1
  Si  Si2  1  0.96433200  0.68421600  0.71988400  1
  Si  Si3  1  0.31578400  0.03566800  0.28011600  1
  Si  Si4  1  0.75555300  0.03566800  0.71988400  1
  Si  Si5  1  0.99444700  0.21433200  0.78011600  1
  Si  Si6  1  0.78566800  0.00555300  0.21988400  1
  Si  Si7  1  0.78566800  0.56578400  0.78011600  1
  O  O8  1  0.23405800  0.23405800  0.00000000  1
  O  O9  1  0.98405800  0.48405800  0.50000000  1
  O  O10  1  0.51594200  0.01594200  0.50000000  1
  O  O11  1  0.76594200  0.76594200  0.00000000  1
  O  O12  1  0.56288500  0.06288500  0.12577100  1
  O  O13  1  0.81288500  0.18711500  0.00000000  1
  O  O14  1  0.18711500  0.81288500  0.00000000  1
  O  O15  1  0.93711500  0.43711500  0.87422900  1
  O  O16  1  0.18711500  0.18711500  0.37422900  1
  O  O17  1  0.93711500  0.06288500  0.50000000  1
  O  O18  1  0.56288500  0.43711500  0.50000000  1
  O  O19  1  0.81288500  0.81288500  0.62577100  1
  O  O20  1  0.37500000  0.12500000  0.25000000  1
  O  O21  1  0.87500000  0.12500000  0.25000000  1
  O  O22  1  0.87500000  0.62500000  0.75000000  1
  O  O23  1  0.87500000  0.12500000  0.75000000  1
