# generated using pymatgen
data_SnC8(S3N)2
_symmetry_space_group_name_H-M   'P 1'
_cell_length_a   13.33752492
_cell_length_b   13.33752492
_cell_length_c   8.25377204
_cell_angle_alpha   73.34135601
_cell_angle_beta   73.34135601
_cell_angle_gamma   67.17246526
_symmetry_Int_Tables_number   1
_chemical_formula_structural   SnC8(S3N)2
_chemical_formula_sum   'Sn4 C32 S24 N8'
_cell_volume   1270.61256257
_cell_formula_units_Z   4
loop_
 _symmetry_equiv_pos_site_id
 _symmetry_equiv_pos_as_xyz
  1  'x, y, z'
loop_
 _atom_site_type_symbol
 _atom_site_label
 _atom_site_symmetry_multiplicity
 _atom_site_fract_x
 _atom_site_fract_y
 _atom_site_fract_z
 _atom_site_occupancy
  Sn  Sn0  1  0.00000000  0.00000000  0.00000000  1
  Sn  Sn1  1  0.50000000  0.50000000  0.00000000  1
  Sn  Sn2  1  0.50000000  0.00000000  0.00000000  1
  Sn  Sn3  1  0.00000000  0.50000000  0.00000000  1
  C  C4  1  0.83488500  0.95109400  0.68408700  1
  C  C5  1  0.95109400  0.83488500  0.68408700  1
  C  C6  1  0.16511500  0.04890600  0.31591300  1
  C  C7  1  0.04890600  0.16511500  0.31591300  1
  C  C8  1  0.89484300  0.89484300  0.53553200  1
  C  C9  1  0.10515700  0.10515700  0.46446800  1
  C  C10  1  0.91996000  0.91996000  0.79463600  1
  C  C11  1  0.08004000  0.08004000  0.20536400  1
  C  C12  1  0.66660700  0.52051900  0.25672100  1
  C  C13  1  0.52051900  0.66660700  0.25672100  1
  C  C14  1  0.33339300  0.47948100  0.74327900  1
  C  C15  1  0.47948100  0.33339300  0.74327900  1
  C  C16  1  0.63974500  0.63974500  0.17330800  1
  C  C17  1  0.36025500  0.36025500  0.82669200  1
  C  C18  1  0.70909900  0.70909900  0.15629100  1
  C  C19  1  0.29090100  0.29090100  0.84370900  1
  C  C20  1  0.44488500  0.85093200  0.78236800  1
  C  C21  1  0.85093200  0.44488500  0.78236800  1
  C  C22  1  0.55511500  0.14906800  0.21763200  1
  C  C23  1  0.14906800  0.55511500  0.21763200  1
  C  C24  1  0.31184900  0.81753500  0.79884500  1
  C  C25  1  0.81753500  0.31184900  0.79884500  1
  C  C26  1  0.68815100  0.18246500  0.20115500  1
  C  C27  1  0.18246500  0.68815100  0.20115500  1
  C  C28  1  0.33884900  0.79811200  0.11260200  1
  C  C29  1  0.79811200  0.33884900  0.11260200  1
  C  C30  1  0.66115100  0.20188800  0.88739800  1
  C  C31  1  0.20188800  0.66115100  0.88739800  1
  C  C32  1  0.36290800  0.81744900  0.93628600  1
  C  C33  1  0.81744900  0.36290800  0.93628600  1
  C  C34  1  0.63709200  0.18255100  0.06371400  1
  C  C35  1  0.18255100  0.63709200  0.06371400  1
  S  S36  1  0.19802500  0.80603000  0.22531300  1
  S  S37  1  0.80603000  0.19802500  0.22531300  1
  S  S38  1  0.80197500  0.19397000  0.77468700  1
  S  S39  1  0.19397000  0.80197500  0.77468700  1
  S  S40  1  0.88973600  0.88973600  0.34405700  1
  S  S41  1  0.11026400  0.11026400  0.65594300  1
  S  S42  1  0.59404300  0.42882000  0.27411000  1
  S  S43  1  0.42882000  0.59404300  0.27411000  1
  S  S44  1  0.40595700  0.57118000  0.72589000  1
  S  S45  1  0.57118000  0.40595700  0.72589000  1
  S  S46  1  0.60831900  0.60831900  0.83320900  1
  S  S47  1  0.39168100  0.39168100  0.16679100  1
  S  S48  1  0.57704500  0.18635100  0.76554900  1
  S  S49  1  0.18635100  0.57704500  0.76554900  1
  S  S50  1  0.42295500  0.81364900  0.23445100  1
  S  S51  1  0.81364900  0.42295500  0.23445100  1
  S  S52  1  0.34624900  0.15681200  0.82031000  1
  S  S53  1  0.15681200  0.34624900  0.82031000  1
  S  S54  1  0.65375100  0.84318800  0.17969000  1
  S  S55  1  0.84318800  0.65375100  0.17969000  1
  S  S56  1  0.44732300  0.10694600  0.26945300  1
  S  S57  1  0.10694600  0.44732300  0.26945300  1
  S  S58  1  0.55267700  0.89305400  0.73054700  1
  S  S59  1  0.89305400  0.55267700  0.73054700  1
  N  N60  1  0.84791600  0.84791600  0.82286200  1
  N  N61  1  0.15208400  0.15208400  0.17713800  1
  N  N62  1  0.60476000  0.60476000  0.37606800  1
  N  N63  1  0.39524000  0.39524000  0.62393200  1
  N  N64  1  0.38598900  0.84972100  0.66429600  1
  N  N65  1  0.84972100  0.38598900  0.66429600  1
  N  N66  1  0.61401100  0.15027900  0.33570400  1
  N  N67  1  0.15027900  0.61401100  0.33570400  1
