# generated using pymatgen
data_Se2NO6
_symmetry_space_group_name_H-M   'P 1'
_cell_length_a   5.16158900
_cell_length_b   6.84790000
_cell_length_c   20.11896500
_cell_angle_alpha   90.00000000
_cell_angle_beta   90.00000000
_cell_angle_gamma   90.00000000
_symmetry_Int_Tables_number   1
_chemical_formula_structural   Se2NO6
_chemical_formula_sum   'Se8 N4 O24'
_cell_volume   711.12584854
_cell_formula_units_Z   4
loop_
 _symmetry_equiv_pos_site_id
 _symmetry_equiv_pos_as_xyz
  1  'x, y, z'
loop_
 _atom_site_type_symbol
 _atom_site_label
 _atom_site_symmetry_multiplicity
 _atom_site_fract_x
 _atom_site_fract_y
 _atom_site_fract_z
 _atom_site_occupancy
  Se  Se0  1  0.35980300  0.82304600  0.12901500  1
  Se  Se1  1  0.85980300  0.67695400  0.87098500  1
  Se  Se2  1  0.14019700  0.17695400  0.62901500  1
  Se  Se3  1  0.64019700  0.32304600  0.37098500  1
  Se  Se4  1  0.33440100  0.78948000  0.77717100  1
  Se  Se5  1  0.83440100  0.71052000  0.22282900  1
  Se  Se6  1  0.16559900  0.21052000  0.27717100  1
  Se  Se7  1  0.66559900  0.28948000  0.72282900  1
  N  N8  1  0.81489800  0.40541900  0.07098800  1
  N  N9  1  0.31489800  0.09458100  0.92901200  1
  N  N10  1  0.68510200  0.59458100  0.57098800  1
  N  N11  1  0.18510200  0.90541900  0.42901200  1
  O  O12  1  0.38799200  0.95705700  0.95949400  1
  O  O13  1  0.88799200  0.54294300  0.04050600  1
  O  O14  1  0.11200800  0.04294300  0.45949400  1
  O  O15  1  0.61200800  0.45705700  0.54050600  1
  O  O16  1  0.90661200  0.74293400  0.06187400  1
  O  O17  1  0.40661200  0.75706600  0.93812600  1
  O  O18  1  0.59338800  0.25706600  0.56187400  1
  O  O19  1  0.09338800  0.24293400  0.43812600  1
  O  O20  1  0.41235400  0.58989400  0.11555600  1
  O  O21  1  0.91235400  0.91010600  0.88444400  1
  O  O22  1  0.08764600  0.41010600  0.61555600  1
  O  O23  1  0.58764600  0.08989400  0.38444400  1
  O  O24  1  0.31528400  0.71769800  0.70013900  1
  O  O25  1  0.81528400  0.78230200  0.29986100  1
  O  O26  1  0.18471600  0.28230200  0.20013900  1
  O  O27  1  0.68471600  0.21769800  0.79986100  1
  O  O28  1  0.14218100  0.83147200  0.20383800  1
  O  O29  1  0.64218100  0.66852800  0.79616200  1
  O  O30  1  0.35781900  0.16852800  0.70383800  1
  O  O31  1  0.85781900  0.33147200  0.29616200  1
  O  O32  1  0.12725900  0.59442100  0.81951500  1
  O  O33  1  0.62725900  0.90557900  0.18048500  1
  O  O34  1  0.37274100  0.40557900  0.31951500  1
  O  O35  1  0.87274100  0.09442100  0.68048500  1
