# generated using pymatgen
data_TaSbO4
_symmetry_space_group_name_H-M   'P 1'
_cell_length_a   11.02573200
_cell_length_b   6.96822200
_cell_length_c   6.09381300
_cell_angle_alpha   90.00000000
_cell_angle_beta   90.00000000
_cell_angle_gamma   90.00000000
_symmetry_Int_Tables_number   1
_chemical_formula_structural   TaSbO4
_chemical_formula_sum   'Ta4 Sb4 O16'
_cell_volume   468.18611891
_cell_formula_units_Z   4
loop_
 _symmetry_equiv_pos_site_id
 _symmetry_equiv_pos_as_xyz
  1  'x, y, z'
loop_
 _atom_site_type_symbol
 _atom_site_label
 _atom_site_symmetry_multiplicity
 _atom_site_fract_x
 _atom_site_fract_y
 _atom_site_fract_z
 _atom_site_occupancy
  Ta  Ta0  1  0.00000000  0.49983500  0.25000000  1
  Ta  Ta1  1  0.00000000  0.50016500  0.75000000  1
  Ta  Ta2  1  0.50000000  0.99983500  0.75000000  1
  Ta  Ta3  1  0.50000000  0.00016500  0.25000000  1
  Sb  Sb4  1  0.00421300  0.00000000  0.00000000  1
  Sb  Sb5  1  0.99578700  0.00000000  0.50000000  1
  Sb  Sb6  1  0.49578700  0.50000000  0.50000000  1
  Sb  Sb7  1  0.50421300  0.50000000  0.00000000  1
  O  O8  1  0.49228300  0.18526500  0.50047000  1
  O  O9  1  0.50771700  0.81473500  0.00047000  1
  O  O10  1  0.00771700  0.68526500  0.00047000  1
  O  O11  1  0.99228300  0.31473500  0.50047000  1
  O  O12  1  0.38152000  0.49950600  0.24394600  1
  O  O13  1  0.61848000  0.50049400  0.74394600  1
  O  O14  1  0.11848000  0.99950600  0.74394600  1
  O  O15  1  0.88152000  0.00049400  0.24394600  1
  O  O16  1  0.00771700  0.31473500  0.99953000  1
  O  O17  1  0.99228300  0.68526500  0.49953000  1
  O  O18  1  0.49228300  0.81473500  0.49953000  1
  O  O19  1  0.50771700  0.18526500  0.99953000  1
  O  O20  1  0.11848000  0.00049400  0.25605400  1
  O  O21  1  0.88152000  0.99950600  0.75605400  1
  O  O22  1  0.38152000  0.50049400  0.75605400  1
  O  O23  1  0.61848000  0.49950600  0.25605400  1
