# generated using pymatgen
data_Tl2S2O15
_symmetry_space_group_name_H-M   'P 1'
_cell_length_a   7.38099800
_cell_length_b   11.54691100
_cell_length_c   14.26227800
_cell_angle_alpha   90.00000000
_cell_angle_beta   90.00000000
_cell_angle_gamma   90.00000000
_symmetry_Int_Tables_number   1
_chemical_formula_structural   Tl2S2O15
_chemical_formula_sum   'Tl8 S8 O60'
_cell_volume   1215.54153574
_cell_formula_units_Z   4
loop_
 _symmetry_equiv_pos_site_id
 _symmetry_equiv_pos_as_xyz
  1  'x, y, z'
loop_
 _atom_site_type_symbol
 _atom_site_label
 _atom_site_symmetry_multiplicity
 _atom_site_fract_x
 _atom_site_fract_y
 _atom_site_fract_z
 _atom_site_occupancy
  Tl  Tl0  1  0.99335100  0.29278100  0.57725700  1
  Tl  Tl1  1  0.50664900  0.20721900  0.07725700  1
  Tl  Tl2  1  0.49335100  0.70721900  0.42274300  1
  Tl  Tl3  1  0.00664900  0.79278100  0.92274300  1
  Tl  Tl4  1  0.00664900  0.70721900  0.42274300  1
  Tl  Tl5  1  0.49335100  0.79278100  0.92274300  1
  Tl  Tl6  1  0.50664900  0.29278100  0.57725700  1
  Tl  Tl7  1  0.99335100  0.20721900  0.07725700  1
  S  S8  1  0.25000000  0.12993300  0.73720800  1
  S  S9  1  0.25000000  0.37006700  0.23720800  1
  S  S10  1  0.75000000  0.87006700  0.26279200  1
  S  S11  1  0.75000000  0.62993300  0.76279200  1
  S  S12  1  0.75000000  0.11182100  0.87291300  1
  S  S13  1  0.75000000  0.38817900  0.37291300  1
  S  S14  1  0.25000000  0.88817900  0.12708700  1
  S  S15  1  0.25000000  0.61182100  0.62708700  1
  O  O16  1  0.08499000  0.12789100  0.67722500  1
  O  O17  1  0.41501000  0.37210900  0.17722500  1
  O  O18  1  0.58499000  0.87210900  0.32277500  1
  O  O19  1  0.91501000  0.62789100  0.82277500  1
  O  O20  1  0.91501000  0.87210900  0.32277500  1
  O  O21  1  0.58499000  0.62789100  0.82277500  1
  O  O22  1  0.41501000  0.12789100  0.67722500  1
  O  O23  1  0.08499000  0.37210900  0.17722500  1
  O  O24  1  0.25000000  0.02247000  0.79987000  1
  O  O25  1  0.25000000  0.47753000  0.29987000  1
  O  O26  1  0.75000000  0.97753000  0.20013000  1
  O  O27  1  0.75000000  0.52247000  0.70013000  1
  O  O28  1  0.25000000  0.23273800  0.79873700  1
  O  O29  1  0.25000000  0.26726200  0.29873700  1
  O  O30  1  0.75000000  0.76726200  0.20126300  1
  O  O31  1  0.75000000  0.73273800  0.70126300  1
  O  O32  1  0.58314500  0.10522300  0.93043600  1
  O  O33  1  0.91685500  0.39477700  0.43043600  1
  O  O34  1  0.08314500  0.89477700  0.06956400  1
  O  O35  1  0.41685500  0.60522300  0.56956400  1
  O  O36  1  0.41685500  0.89477700  0.06956400  1
  O  O37  1  0.08314500  0.60522300  0.56956400  1
  O  O38  1  0.91685500  0.10522300  0.93043600  1
  O  O39  1  0.58314500  0.39477700  0.43043600  1
  O  O40  1  0.75000000  0.21257500  0.80982900  1
  O  O41  1  0.75000000  0.28742500  0.30982900  1
  O  O42  1  0.25000000  0.78742500  0.19017100  1
  O  O43  1  0.25000000  0.71257500  0.69017100  1
  O  O44  1  0.75000000  0.00607100  0.80740700  1
  O  O45  1  0.75000000  0.49392900  0.30740700  1
  O  O46  1  0.25000000  0.99392900  0.19259300  1
  O  O47  1  0.25000000  0.50607100  0.69259300  1
  O  O48  1  0.25000000  0.36597800  0.56060600  1
  O  O49  1  0.25000000  0.13402200  0.06060600  1
  O  O50  1  0.75000000  0.63402200  0.43939400  1
  O  O51  1  0.75000000  0.86597800  0.93939400  1
  O  O52  1  0.75000000  0.20647100  0.56802700  1
  O  O53  1  0.75000000  0.29352900  0.06802700  1
  O  O54  1  0.25000000  0.79352900  0.43197300  1
  O  O55  1  0.25000000  0.70647100  0.93197300  1
  O  O56  1  0.96872900  0.39855000  0.72038100  1
  O  O57  1  0.53127100  0.10145000  0.22038100  1
  O  O58  1  0.46872900  0.60145000  0.27961900  1
  O  O59  1  0.03127100  0.89855000  0.77961900  1
  O  O60  1  0.03127100  0.60145000  0.27961900  1
  O  O61  1  0.46872900  0.89855000  0.77961900  1
  O  O62  1  0.53127100  0.39855000  0.72038100  1
  O  O63  1  0.96872900  0.10145000  0.22038100  1
  O  O64  1  0.10047700  0.40242200  0.94872900  1
  O  O65  1  0.39952300  0.09757800  0.44872900  1
  O  O66  1  0.60047700  0.59757800  0.05127100  1
  O  O67  1  0.89952300  0.90242200  0.55127100  1
  O  O68  1  0.89952300  0.59757800  0.05127100  1
  O  O69  1  0.60047700  0.90242200  0.55127100  1
  O  O70  1  0.39952300  0.40242200  0.94872900  1
  O  O71  1  0.10047700  0.09757800  0.44872900  1
  O  O72  1  0.25000000  0.44584900  0.91920600  1
  O  O73  1  0.25000000  0.05415100  0.41920600  1
  O  O74  1  0.75000000  0.55415100  0.08079400  1
  O  O75  1  0.75000000  0.94584900  0.58079400  1
