# generated using pymatgen
data_Sn7(SO10)2
_symmetry_space_group_name_H-M   'P 1'
_cell_length_a   13.03608500
_cell_length_b   13.06644300
_cell_length_c   13.23751500
_cell_angle_alpha   90.00000000
_cell_angle_beta   90.00000000
_cell_angle_gamma   90.00000000
_symmetry_Int_Tables_number   1
_chemical_formula_structural   Sn7(SO10)2
_chemical_formula_sum   'Sn28 S8 O80'
_cell_volume   2254.81558040
_cell_formula_units_Z   4
loop_
 _symmetry_equiv_pos_site_id
 _symmetry_equiv_pos_as_xyz
  1  'x, y, z'
loop_
 _atom_site_type_symbol
 _atom_site_label
 _atom_site_symmetry_multiplicity
 _atom_site_fract_x
 _atom_site_fract_y
 _atom_site_fract_z
 _atom_site_occupancy
  Sn  Sn0  1  0.74654700  0.43100000  0.41141700  1
  Sn  Sn1  1  0.24654700  0.06900000  0.58858300  1
  Sn  Sn2  1  0.25345300  0.93100000  0.08858300  1
  Sn  Sn3  1  0.75345300  0.56900000  0.91141700  1
  Sn  Sn4  1  0.25345300  0.56900000  0.58858300  1
  Sn  Sn5  1  0.75345300  0.93100000  0.41141700  1
  Sn  Sn6  1  0.74654700  0.06900000  0.91141700  1
  Sn  Sn7  1  0.24654700  0.43100000  0.08858300  1
  Sn  Sn8  1  0.56807800  0.08880500  0.24782200  1
  Sn  Sn9  1  0.06807800  0.41119500  0.75217800  1
  Sn  Sn10  1  0.43192200  0.58880500  0.25217800  1
  Sn  Sn11  1  0.93192200  0.91119500  0.74782200  1
  Sn  Sn12  1  0.43192200  0.91119500  0.75217800  1
  Sn  Sn13  1  0.93192200  0.58880500  0.24782200  1
  Sn  Sn14  1  0.56807800  0.41119500  0.74782200  1
  Sn  Sn15  1  0.06807800  0.08880500  0.25217800  1
  Sn  Sn16  1  0.41078000  0.25389600  0.43180500  1
  Sn  Sn17  1  0.91078000  0.24610400  0.56819500  1
  Sn  Sn18  1  0.58922000  0.75389600  0.06819500  1
  Sn  Sn19  1  0.08922000  0.74610400  0.93180500  1
  Sn  Sn20  1  0.58922000  0.74610400  0.56819500  1
  Sn  Sn21  1  0.08922000  0.75389600  0.43180500  1
  Sn  Sn22  1  0.41078000  0.24610400  0.93180500  1
  Sn  Sn23  1  0.91078000  0.25389600  0.06819500  1
  Sn  Sn24  1  0.50000000  0.00000000  0.00000000  1
  Sn  Sn25  1  0.00000000  0.50000000  0.00000000  1
  Sn  Sn26  1  0.50000000  0.50000000  0.50000000  1
  Sn  Sn27  1  0.00000000  0.00000000  0.50000000  1
  S  S28  1  0.69268500  0.30839400  0.19277000  1
  S  S29  1  0.19268500  0.19160600  0.80723000  1
  S  S30  1  0.30731500  0.80839400  0.30723000  1
  S  S31  1  0.80731500  0.69160600  0.69277000  1
  S  S32  1  0.30731500  0.69160600  0.80723000  1
  S  S33  1  0.80731500  0.80839400  0.19277000  1
  S  S34  1  0.69268500  0.19160600  0.69277000  1
  S  S35  1  0.19268500  0.30839400  0.30723000  1
  O  O36  1  0.62995100  0.37064100  0.12909500  1
  O  O37  1  0.12995100  0.12935900  0.87090500  1
  O  O38  1  0.37004900  0.87064100  0.37090500  1
  O  O39  1  0.87004900  0.62935900  0.62909500  1
  O  O40  1  0.37004900  0.62935900  0.87090500  1
  O  O41  1  0.87004900  0.87064100  0.12909500  1
  O  O42  1  0.62995100  0.12935900  0.62909500  1
  O  O43  1  0.12995100  0.37064100  0.37090500  1
  O  O44  1  0.80654500  0.31843000  0.17037300  1
  O  O45  1  0.30654500  0.18157000  0.82962700  1
  O  O46  1  0.19345500  0.81843000  0.32962700  1
  O  O47  1  0.69345500  0.68157000  0.67037300  1
  O  O48  1  0.19345500  0.68157000  0.82962700  1
  O  O49  1  0.69345500  0.81843000  0.17037300  1
  O  O50  1  0.80654500  0.18157000  0.67037300  1
  O  O51  1  0.30654500  0.31843000  0.32962700  1
  O  O52  1  0.66909500  0.19469300  0.18350100  1
  O  O53  1  0.16909500  0.30530700  0.81649900  1
  O  O54  1  0.33090500  0.69469300  0.31649900  1
  O  O55  1  0.83090500  0.80530700  0.68350100  1
  O  O56  1  0.33090500  0.80530700  0.81649900  1
  O  O57  1  0.83090500  0.69469300  0.18350100  1
  O  O58  1  0.66909500  0.30530700  0.68350100  1
  O  O59  1  0.16909500  0.19469300  0.31649900  1
  O  O60  1  0.68062300  0.33316800  0.30417500  1
  O  O61  1  0.18062300  0.16683200  0.69582500  1
  O  O62  1  0.31937700  0.83316800  0.19582500  1
  O  O63  1  0.81937700  0.66683200  0.80417500  1
  O  O64  1  0.31937700  0.66683200  0.69582500  1
  O  O65  1  0.81937700  0.83316800  0.30417500  1
  O  O66  1  0.68062300  0.16683200  0.80417500  1
  O  O67  1  0.18062300  0.33316800  0.19582500  1
  O  O68  1  0.65899700  0.50915500  0.49862400  1
  O  O69  1  0.15899700  0.99084500  0.50137600  1
  O  O70  1  0.34100300  0.00915500  0.00137600  1
  O  O71  1  0.84100300  0.49084500  0.99862400  1
  O  O72  1  0.34100300  0.49084500  0.50137600  1
  O  O73  1  0.84100300  0.00915500  0.49862400  1
  O  O74  1  0.65899700  0.99084500  0.99862400  1
  O  O75  1  0.15899700  0.50915500  0.00137600  1
  O  O76  1  0.48692000  0.17276300  0.33571500  1
  O  O77  1  0.98692000  0.32723700  0.66428500  1
  O  O78  1  0.51308000  0.67276300  0.16428500  1
  O  O79  1  0.01308000  0.82723700  0.83571500  1
  O  O80  1  0.51308000  0.82723700  0.66428500  1
  O  O81  1  0.01308000  0.67276300  0.33571500  1
  O  O82  1  0.48692000  0.32723700  0.83571500  1
  O  O83  1  0.98692000  0.17276300  0.16428500  1
  O  O84  1  0.83835000  0.50485100  0.32455100  1
  O  O85  1  0.33835000  0.99514900  0.67545000  1
  O  O86  1  0.16165000  0.00485100  0.17544900  1
  O  O87  1  0.66165000  0.49514900  0.82455000  1
  O  O88  1  0.16165000  0.49514900  0.67545000  1
  O  O89  1  0.66165000  0.00485100  0.32455100  1
  O  O90  1  0.83835000  0.99514900  0.82455000  1
  O  O91  1  0.33835000  0.50485100  0.17544900  1
  O  O92  1  0.00675600  0.34182300  0.00099300  1
  O  O93  1  0.50675600  0.15817700  0.99900700  1
  O  O94  1  0.99324400  0.84182300  0.49900700  1
  O  O95  1  0.49324400  0.65817700  0.50099300  1
  O  O96  1  0.99324400  0.65817700  0.99900700  1
  O  O97  1  0.49324400  0.84182300  0.00099300  1
  O  O98  1  0.00675600  0.15817700  0.50099300  1
  O  O99  1  0.50675600  0.34182300  0.49900700  1
  O  O100  1  0.81813700  0.17283900  0.98825800  1
  O  O101  1  0.31813700  0.32716100  0.01174200  1
  O  O102  1  0.18186300  0.67283900  0.51174200  1
  O  O103  1  0.68186300  0.82716100  0.48825800  1
  O  O104  1  0.18186300  0.82716100  0.01174200  1
  O  O105  1  0.68186300  0.67283900  0.98825800  1
  O  O106  1  0.81813700  0.32716100  0.48825800  1
  O  O107  1  0.31813700  0.17283900  0.51174200  1
  O  O108  1  0.49598400  0.00118600  0.15633800  1
  O  O109  1  0.99598400  0.49881400  0.84366200  1
  O  O110  1  0.50401600  0.50118600  0.34366200  1
  O  O111  1  0.00401600  0.99881400  0.65633800  1
  O  O112  1  0.50401600  0.99881400  0.84366200  1
  O  O113  1  0.00401600  0.50118600  0.15633800  1
  O  O114  1  0.49598400  0.49881400  0.65633800  1
  O  O115  1  0.99598400  0.00118600  0.34366200  1
