# generated using pymatgen
data_TeP3(N2O9)2
_symmetry_space_group_name_H-M   'P 1'
_cell_length_a   5.87747900
_cell_length_b   10.70059400
_cell_length_c   16.15444549
_cell_angle_alpha   63.98692496
_cell_angle_beta   90.00000000
_cell_angle_gamma   90.00000000
_symmetry_Int_Tables_number   1
_chemical_formula_structural   TeP3(N2O9)2
_chemical_formula_sum   'Te2 P6 N8 O36'
_cell_volume   913.06745430
_cell_formula_units_Z   2
loop_
 _symmetry_equiv_pos_site_id
 _symmetry_equiv_pos_as_xyz
  1  'x, y, z'
loop_
 _atom_site_type_symbol
 _atom_site_label
 _atom_site_symmetry_multiplicity
 _atom_site_fract_x
 _atom_site_fract_y
 _atom_site_fract_z
 _atom_site_occupancy
  Te  Te0  1  0.92973300  0.02438500  0.46297200  1
  Te  Te1  1  0.07026700  0.02438500  0.96297200  1
  P  P2  1  0.57332900  0.72487200  0.37409000  1
  P  P3  1  0.42667100  0.72487200  0.87409000  1
  P  P4  1  0.94897400  0.33599100  0.85871300  1
  P  P5  1  0.05102600  0.33599100  0.35871300  1
  P  P6  1  0.60080300  0.27616700  0.10850700  1
  P  P7  1  0.39919700  0.27616700  0.60850700  1
  N  N8  1  0.16101600  0.99020500  0.18282400  1
  N  N9  1  0.83898400  0.99020500  0.68282400  1
  N  N10  1  0.77001300  0.23186500  0.80783000  1
  N  N11  1  0.22998700  0.23186500  0.30783000  1
  N  N12  1  0.53171600  0.71282300  0.69502600  1
  N  N13  1  0.46828400  0.71282300  0.19502600  1
  N  N14  1  0.96378600  0.46726400  0.05326000  1
  N  N15  1  0.03621400  0.46726400  0.55326000  1
  O  O16  1  0.98958600  0.56671200  0.55727100  1
  O  O17  1  0.01041400  0.56671200  0.05727100  1
  O  O18  1  0.17413500  0.75608400  0.84743200  1
  O  O19  1  0.82586500  0.75608400  0.34743200  1
  O  O20  1  0.02037800  0.95883000  0.70267200  1
  O  O21  1  0.97962200  0.95883000  0.20267200  1
  O  O22  1  0.72998400  0.03129700  0.37638800  1
  O  O23  1  0.27001600  0.03129700  0.87638800  1
  O  O24  1  0.39456700  0.25437800  0.06383600  1
  O  O25  1  0.60543300  0.25437800  0.56383600  1
  O  O26  1  0.48354000  0.77103400  0.44529700  1
  O  O27  1  0.51646000  0.77103400  0.94529700  1
  O  O28  1  0.75038300  0.97412100  0.57193300  1
  O  O29  1  0.24961700  0.97412100  0.07193300  1
  O  O30  1  0.58461800  0.77653900  0.78762000  1
  O  O31  1  0.41538200  0.77653900  0.28762000  1
  O  O32  1  0.95606100  0.20245800  0.95977800  1
  O  O33  1  0.04393900  0.20245800  0.45977800  1
  O  O34  1  0.66148700  0.42868800  0.08617900  1
  O  O35  1  0.33851300  0.42868800  0.58617900  1
  O  O36  1  0.16043200  0.35361600  0.80482500  1
  O  O37  1  0.83956800  0.35361600  0.30482500  1
  O  O38  1  0.21491000  0.09859800  0.34754900  1
  O  O39  1  0.78509000  0.09859800  0.84754900  1
  O  O40  1  0.33447700  0.29200900  0.23563100  1
  O  O41  1  0.66552300  0.29200900  0.73563100  1
  O  O42  1  0.11175300  0.87321900  0.53249000  1
  O  O43  1  0.88824700  0.87321900  0.03249000  1
  O  O44  1  0.41223300  0.56332700  0.92445200  1
  O  O45  1  0.58776700  0.56332700  0.42445200  1
  O  O46  1  0.80341700  0.44714200  0.86129700  1
  O  O47  1  0.19658300  0.44714200  0.36129700  1
  O  O48  1  0.35010600  0.68459500  0.68851400  1
  O  O49  1  0.64989400  0.68459500  0.18851400  1
  O  O50  1  0.76621300  0.17047800  0.16681400  1
  O  O51  1  0.23378700  0.17047800  0.66681400  1
