# generated using pymatgen
data_U2Zn17
_symmetry_space_group_name_H-M   'P 1'
_cell_length_a   18.60407170
_cell_length_b   18.60407170
_cell_length_c   12.68515960
_cell_angle_alpha   81.15595505
_cell_angle_beta   81.15595505
_cell_angle_gamma   120.29033407
_symmetry_Int_Tables_number   1
_chemical_formula_structural   U2Zn17
_chemical_formula_sum   'U2 Zn17'
_cell_volume   3605.75367390
_cell_formula_units_Z   1
loop_
 _symmetry_equiv_pos_site_id
 _symmetry_equiv_pos_as_xyz
  1  'x, y, z'
loop_
 _atom_site_type_symbol
 _atom_site_label
 _atom_site_symmetry_multiplicity
 _atom_site_fract_x
 _atom_site_fract_y
 _atom_site_fract_z
 _atom_site_occupancy
  U  U0  1  0.65510800  0.65510800  0.35332200  1
  U  U1  1  0.34489200  0.34489200  0.64667800  1
  Zn  Zn2  1  0.19808200  0.19808200  0.09430000  1
  Zn  Zn3  1  0.80191800  0.80191800  0.90570000  1
  Zn  Zn4  1  0.50000000  0.00000000  0.50000000  1
  Zn  Zn5  1  0.00000000  0.50000000  0.50000000  1
  Zn  Zn6  1  0.50000000  0.50000000  0.50000000  1
  Zn  Zn7  1  0.29686800  0.70313200  0.00000000  1
  Zn  Zn8  1  0.70313200  0.29686800  0.00000000  1
  Zn  Zn9  1  0.99874700  0.29841800  0.41306800  1
  Zn  Zn10  1  0.00125300  0.70158200  0.58693200  1
  Zn  Zn11  1  0.70158200  0.00125300  0.58693200  1
  Zn  Zn12  1  0.29841800  0.99874700  0.41306800  1
  Zn  Zn13  1  0.79459800  0.79459800  0.13423800  1
  Zn  Zn14  1  0.28654400  0.80450400  0.16055200  1
  Zn  Zn15  1  0.80450400  0.28654400  0.16055200  1
  Zn  Zn16  1  0.20540200  0.20540200  0.86576200  1
  Zn  Zn17  1  0.71345600  0.19549600  0.83944800  1
  Zn  Zn18  1  0.19549600  0.71345600  0.83944800  1
