# generated using pymatgen
data_UC2O7
_symmetry_space_group_name_H-M   'P 1'
_cell_length_a   3.78601700
_cell_length_b   4.82989564
_cell_length_c   17.33957705
_cell_angle_alpha   88.75264112
_cell_angle_beta   95.77493624
_cell_angle_gamma   103.64222231
_symmetry_Int_Tables_number   1
_chemical_formula_structural   UC2O7
_chemical_formula_sum   'U2 C4 O14'
_cell_volume   306.56280794
_cell_formula_units_Z   2
loop_
 _symmetry_equiv_pos_site_id
 _symmetry_equiv_pos_as_xyz
  1  'x, y, z'
loop_
 _atom_site_type_symbol
 _atom_site_label
 _atom_site_symmetry_multiplicity
 _atom_site_fract_x
 _atom_site_fract_y
 _atom_site_fract_z
 _atom_site_occupancy
  U  U0  1  0.44832200  0.73910900  0.51008200  1
  U  U1  1  0.19147000  0.23780600  0.99079000  1
  C  C2  1  0.39932800  0.22551300  0.37252500  1
  C  C3  1  0.83515400  0.26940500  0.62769300  1
  C  C4  1  0.45072300  0.77159900  0.87139000  1
  C  C5  1  0.28616400  0.72870700  0.12768400  1
  O  O6  1  0.36184800  0.40818100  0.43535900  1
  O  O7  1  0.88648100  0.45869000  0.56909900  1
  O  O8  1  0.57974500  0.95689500  0.93051100  1
  O  O9  1  0.18122500  0.90579900  0.06505800  1
  O  O10  1  0.45783000  0.98607400  0.39918000  1
  O  O11  1  0.58814100  0.02057400  0.60498600  1
  O  O12  1  0.24180400  0.51821700  0.89614700  1
  O  O13  1  0.30015600  0.48182900  0.10197500  1
  O  O14  1  0.34973000  0.82598500  0.19229000  1
  O  O15  1  0.50014500  0.81747500  0.80429800  1
  O  O16  1  0.98304700  0.30890900  0.69280300  1
  O  O17  1  0.37790700  0.31452700  0.30733700  1
  O  O18  1  0.98362500  0.90418700  0.49672000  1
  O  O19  1  0.73817800  0.40255900  0.00407300  1
