# generated using pymatgen
data_Sm2Mo8O45
_symmetry_space_group_name_H-M   'P 1'
_cell_length_a   9.31850300
_cell_length_b   10.38761636
_cell_length_c   10.79776373
_cell_angle_alpha   94.12743634
_cell_angle_beta   111.46181903
_cell_angle_gamma   89.89832211
_symmetry_Int_Tables_number   1
_chemical_formula_structural   Sm2Mo8O45
_chemical_formula_sum   'Sm2 Mo8 O45'
_cell_volume   969.85713120
_cell_formula_units_Z   1
loop_
 _symmetry_equiv_pos_site_id
 _symmetry_equiv_pos_as_xyz
  1  'x, y, z'
loop_
 _atom_site_type_symbol
 _atom_site_label
 _atom_site_symmetry_multiplicity
 _atom_site_fract_x
 _atom_site_fract_y
 _atom_site_fract_z
 _atom_site_occupancy
  Sm  Sm0  1  0.63792100  0.19836800  0.79099700  1
  Sm  Sm1  1  0.36207900  0.80163200  0.20900300  1
  Mo  Mo2  1  0.18803900  0.25569100  0.66490400  1
  Mo  Mo3  1  0.81196100  0.74430900  0.33509600  1
  Mo  Mo4  1  0.36530400  0.34213500  0.46443100  1
  Mo  Mo5  1  0.63469600  0.65786500  0.53556900  1
  Mo  Mo6  1  0.95162500  0.44559100  0.75229300  1
  Mo  Mo7  1  0.04837500  0.55440900  0.24770700  1
  Mo  Mo8  1  0.18000200  0.58457100  0.59430400  1
  Mo  Mo9  1  0.81999800  0.41542900  0.40569600  1
  O  O10  1  0.45285200  0.98038200  0.59173400  1
  O  O11  1  0.54714800  0.01961800  0.40826600  1
  O  O12  1  0.77141300  0.00664700  0.84582000  1
  O  O13  1  0.22858700  0.99335300  0.15418000  1
  O  O14  1  0.64064100  0.01888500  0.52316800  1
  O  O15  1  0.35935900  0.98111500  0.47683200  1
  O  O16  1  0.63643200  0.12174900  0.02957900  1
  O  O17  1  0.36356800  0.87825100  0.97042100  1
  O  O18  1  0.69810700  0.39295800  0.94331400  1
  O  O19  1  0.30189300  0.60704200  0.05668600  1
  O  O20  1  0.59359200  0.48587500  0.92615200  1
  O  O21  1  0.40640800  0.51412500  0.07384800  1
  O  O22  1  0.37990300  0.20330300  0.76255400  1
  O  O23  1  0.62009700  0.79669700  0.23744600  1
  O  O24  1  0.52481000  0.26154100  0.58309400  1
  O  O25  1  0.47519000  0.73845900  0.41690600  1
  O  O26  1  0.83322800  0.31085600  0.76450500  1
  O  O27  1  0.16677200  0.68914400  0.23549500  1
  O  O28  1  0.07040300  0.12254700  0.64288700  1
  O  O29  1  0.92959700  0.87745300  0.35711300  1
  O  O30  1  0.14432700  0.35727100  0.80882700  1
  O  O31  1  0.85567300  0.64272900  0.19117300  1
  O  O32  1  0.21094700  0.23937200  0.49123300  1
  O  O33  1  0.78905300  0.76062800  0.50876700  1
  O  O34  1  0.31150800  0.44776900  0.65473800  1
  O  O35  1  0.68849200  0.55223100  0.34526200  1
  O  O36  1  0.35547100  0.27760300  0.31102200  1
  O  O37  1  0.64452900  0.72239700  0.68897800  1
  O  O38  1  0.50000000  0.50000000  0.50000000  1
  O  O39  1  0.94893400  0.55158200  0.87979200  1
  O  O40  1  0.05106600  0.44841800  0.12020800  1
  O  O41  1  0.00338200  0.38320200  0.56476700  1
  O  O42  1  0.99661800  0.61679800  0.43523300  1
  O  O43  1  0.09233100  0.60419000  0.71791800  1
  O  O44  1  0.90766900  0.39581000  0.28208200  1
  O  O45  1  0.21230700  0.49223600  0.40716500  1
  O  O46  1  0.78769300  0.50776400  0.59283500  1
  O  O47  1  0.29506700  0.72117100  0.62408500  1
  O  O48  1  0.70493300  0.27882900  0.37591500  1
  O  O49  1  0.64751300  0.59968800  0.95212400  1
  O  O50  1  0.35248700  0.40031200  0.04787600  1
  O  O51  1  0.11074200  0.86702800  0.86439300  1
  O  O52  1  0.88925800  0.13297200  0.13560700  1
  O  O53  1  0.24204000  0.89738300  0.86333600  1
  O  O54  1  0.75796000  0.10261700  0.13666400  1
