# generated using pymatgen
data_Sb2H10(CF2)3
_symmetry_space_group_name_H-M   'P 1'
_cell_length_a   11.68612900
_cell_length_b   7.45442600
_cell_length_c   27.36941844
_cell_angle_alpha   75.76792733
_cell_angle_beta   90.00000000
_cell_angle_gamma   90.00000000
_symmetry_Int_Tables_number   1
_chemical_formula_structural   Sb2H10(CF2)3
_chemical_formula_sum   'Sb16 H80 C24 F48'
_cell_volume   2311.06519590
_cell_formula_units_Z   8
loop_
 _symmetry_equiv_pos_site_id
 _symmetry_equiv_pos_as_xyz
  1  'x, y, z'
loop_
 _atom_site_type_symbol
 _atom_site_label
 _atom_site_symmetry_multiplicity
 _atom_site_fract_x
 _atom_site_fract_y
 _atom_site_fract_z
 _atom_site_occupancy
  Sb  Sb0  1  0.65517800  0.17765200  0.57606600  1
  Sb  Sb1  1  0.84482200  0.17765200  0.07606600  1
  Sb  Sb2  1  0.34482200  0.82234800  0.42393400  1
  Sb  Sb3  1  0.15517800  0.82234800  0.92393400  1
  Sb  Sb4  1  0.36601400  0.51207300  0.16988000  1
  Sb  Sb5  1  0.13398600  0.51207300  0.66988000  1
  Sb  Sb6  1  0.63398600  0.48792700  0.83012000  1
  Sb  Sb7  1  0.86601400  0.48792700  0.33012000  1
  Sb  Sb8  1  0.86417100  0.01315900  0.73385400  1
  Sb  Sb9  1  0.63582900  0.01315900  0.23385400  1
  Sb  Sb10  1  0.13582900  0.98684100  0.26614600  1
  Sb  Sb11  1  0.36417100  0.98684100  0.76614600  1
  Sb  Sb12  1  0.23752800  0.21891600  0.53711100  1
  Sb  Sb13  1  0.26247200  0.21891600  0.03711100  1
  Sb  Sb14  1  0.76247200  0.78108400  0.46288900  1
  Sb  Sb15  1  0.73752800  0.78108400  0.96288900  1
  H  H16  1  0.59016300  0.27139400  0.52057000  1
  H  H17  1  0.90983700  0.27139400  0.02057000  1
  H  H18  1  0.40983700  0.72860600  0.47943000  1
  H  H19  1  0.09016300  0.72860600  0.97943000  1
  H  H20  1  0.36497900  0.29066700  0.16503600  1
  H  H21  1  0.13502100  0.29066700  0.66503600  1
  H  H22  1  0.63502100  0.70933300  0.83496400  1
  H  H23  1  0.86497900  0.70933300  0.33496400  1
  H  H24  1  0.52336000  0.89419300  0.57101100  1
  H  H25  1  0.97664000  0.89419300  0.07101100  1
  H  H26  1  0.47664000  0.10580700  0.42898900  1
  H  H27  1  0.02336000  0.10580700  0.92898900  1
  H  H28  1  0.54917600  0.89041500  0.63644200  1
  H  H29  1  0.95082400  0.89041500  0.13644200  1
  H  H30  1  0.45082400  0.10958500  0.36355800  1
  H  H31  1  0.04917600  0.10958500  0.86355800  1
  H  H32  1  0.65742000  0.80778300  0.59983600  1
  H  H33  1  0.84258000  0.80778300  0.09983600  1
  H  H34  1  0.34258000  0.19221700  0.40016400  1
  H  H35  1  0.15742000  0.19221700  0.90016400  1
  H  H36  1  0.55292100  0.45407000  0.60465600  1
  H  H37  1  0.94707900  0.45407000  0.10465600  1
  H  H38  1  0.44707900  0.54593000  0.39534400  1
  H  H39  1  0.05292100  0.54593000  0.89534400  1
  H  H40  1  0.68564400  0.39675100  0.63882600  1
  H  H41  1  0.81435600  0.39675100  0.13882600  1
  H  H42  1  0.31435600  0.60324900  0.36117400  1
  H  H43  1  0.18564400  0.60324900  0.86117400  1
  H  H44  1  0.56107400  0.25284300  0.65730300  1
  H  H45  1  0.93892600  0.25284300  0.15730300  1
  H  H46  1  0.43892600  0.74715700  0.34269700  1
  H  H47  1  0.06107400  0.74715700  0.84269700  1
  H  H48  1  0.87377400  0.16548900  0.60292200  1
  H  H49  1  0.62622600  0.16548900  0.10292200  1
  H  H50  1  0.12622600  0.83451100  0.39707800  1
  H  H51  1  0.37377400  0.83451100  0.89707800  1
  H  H52  1  0.86034000  0.30508800  0.53895700  1
  H  H53  1  0.63966000  0.30508800  0.03895700  1
  H  H54  1  0.13966000  0.69491200  0.46104300  1
  H  H55  1  0.36034000  0.69491200  0.96104300  1
  H  H56  1  0.85720700  0.05660700  0.55128800  1
  H  H57  1  0.64279300  0.05660700  0.05128800  1
  H  H58  1  0.14279300  0.94339300  0.44871200  1
  H  H59  1  0.35720700  0.94339300  0.94871200  1
  H  H60  1  0.42513800  0.65727800  0.24530000  1
  H  H61  1  0.07486200  0.65727800  0.74530000  1
  H  H62  1  0.57486200  0.34272200  0.75470000  1
  H  H63  1  0.92513800  0.34272200  0.25470000  1
  H  H64  1  0.31687000  0.48308600  0.26695800  1
  H  H65  1  0.18313000  0.48308600  0.76695800  1
  H  H66  1  0.68313000  0.51691400  0.73304200  1
  H  H67  1  0.81687000  0.51691400  0.23304200  1
  H  H68  1  0.46326000  0.41393600  0.26069700  1
  H  H69  1  0.03674000  0.41393600  0.76069700  1
  H  H70  1  0.53674000  0.58606400  0.73930300  1
  H  H71  1  0.96326000  0.58606400  0.23930300  1
  H  H72  1  0.20787600  0.77692100  0.14978300  1
  H  H73  1  0.29212400  0.77692100  0.64978300  1
  H  H74  1  0.79212400  0.22307900  0.85021700  1
  H  H75  1  0.70787600  0.22307900  0.35021700  1
  H  H76  1  0.19757400  0.63454200  0.10513900  1
  H  H77  1  0.30242600  0.63454200  0.60513900  1
  H  H78  1  0.80242600  0.36545800  0.89486100  1
  H  H79  1  0.69757400  0.36545800  0.39486100  1
  H  H80  1  0.14005400  0.55145900  0.16799200  1
  H  H81  1  0.35994600  0.55145900  0.66799200  1
  H  H82  1  0.85994600  0.44854100  0.83200800  1
  H  H83  1  0.64005400  0.44854100  0.33200800  1
  H  H84  1  0.57930300  0.57771600  0.13923700  1
  H  H85  1  0.92069700  0.57771600  0.63923700  1
  H  H86  1  0.42069700  0.42228400  0.86076300  1
  H  H87  1  0.07930300  0.42228400  0.36076300  1
  H  H88  1  0.48573700  0.63038300  0.08516100  1
  H  H89  1  0.01426300  0.63038300  0.58516100  1
  H  H90  1  0.51426300  0.36961700  0.91483900  1
  H  H91  1  0.98573700  0.36961700  0.41483900  1
  H  H92  1  0.50009000  0.79310500  0.12415200  1
  H  H93  1  0.99991000  0.79310500  0.62415200  1
  H  H94  1  0.49991000  0.20689500  0.87584800  1
  H  H95  1  0.00009000  0.20689500  0.37584800  1
  C  C96  1  0.58732700  0.90594800  0.59910200  1
  C  C97  1  0.91267300  0.90594800  0.09910200  1
  C  C98  1  0.41267300  0.09405200  0.40089800  1
  C  C99  1  0.08732700  0.09405200  0.90089800  1
  C  C100  1  0.60743500  0.34274900  0.62585900  1
  C  C101  1  0.89256500  0.34274900  0.12585900  1
  C  C102  1  0.39256500  0.65725100  0.37414100  1
  C  C103  1  0.10743500  0.65725100  0.87414100  1
  C  C104  1  0.83536900  0.17664400  0.56583300  1
  C  C105  1  0.66463100  0.17664400  0.06583300  1
  C  C106  1  0.16463100  0.82335600  0.43416700  1
  C  C107  1  0.33536900  0.82335600  0.93416700  1
  C  C108  1  0.39686900  0.51684200  0.24601000  1
  C  C109  1  0.10313100  0.51684200  0.74601000  1
  C  C110  1  0.60313100  0.48315800  0.75399000  1
  C  C111  1  0.89686900  0.48315800  0.25399000  1
  C  C112  1  0.20622200  0.63578700  0.14492600  1
  C  C113  1  0.29377800  0.63578700  0.64492600  1
  C  C114  1  0.79377800  0.36421300  0.85507400  1
  C  C115  1  0.70622200  0.36421300  0.35507400  1
  C  C116  1  0.50041900  0.64731800  0.12318700  1
  C  C117  1  0.99958100  0.64731800  0.62318700  1
  C  C118  1  0.49958100  0.35268200  0.87681300  1
  C  C119  1  0.00041900  0.35268200  0.37681300  1
  F  F120  1  0.84435600  0.75598500  0.76803900  1
  F  F121  1  0.65564400  0.75598500  0.26803900  1
  F  F122  1  0.15564400  0.24401500  0.23196100  1
  F  F123  1  0.34435600  0.24401500  0.73196100  1
  F  F124  1  0.75839600  0.98374600  0.68214400  1
  F  F125  1  0.74160400  0.98374600  0.18214400  1
  F  F126  1  0.24160400  0.01625400  0.31785600  1
  F  F127  1  0.25839600  0.01625400  0.81785600  1
  F  F128  1  0.97082000  0.04451300  0.78454000  1
  F  F129  1  0.52918000  0.04451300  0.28454000  1
  F  F130  1  0.02918000  0.95548700  0.21546000  1
  F  F131  1  0.47082000  0.95548700  0.71546000  1
  F  F132  1  0.88419600  0.27003300  0.69851200  1
  F  F133  1  0.61580400  0.27003300  0.19851200  1
  F  F134  1  0.11580400  0.72996700  0.30148800  1
  F  F135  1  0.38419600  0.72996700  0.80148800  1
  F  F136  1  0.74119500  0.08163800  0.77157100  1
  F  F137  1  0.75880500  0.08163800  0.27157100  1
  F  F138  1  0.25880500  0.91836200  0.22842900  1
  F  F139  1  0.24119500  0.91836200  0.72842900  1
  F  F140  1  0.98616800  0.94722100  0.69502300  1
  F  F141  1  0.51383200  0.94722100  0.19502300  1
  F  F142  1  0.01383200  0.05277900  0.30497700  1
  F  F143  1  0.48616800  0.05277900  0.80497700  1
  F  F144  1  0.30849900  0.00845700  0.51994600  1
  F  F145  1  0.19150100  0.00845700  0.01994600  1
  F  F146  1  0.69150100  0.99154300  0.48005400  1
  F  F147  1  0.80849900  0.99154300  0.98005400  1
  F  F148  1  0.17115700  0.43323000  0.55378800  1
  F  F149  1  0.32884300  0.43323000  0.05378800  1
  F  F150  1  0.82884300  0.56677000  0.44621200  1
  F  F151  1  0.67115700  0.56677000  0.94621200  1
  F  F152  1  0.16714700  0.06049800  0.59510400  1
  F  F153  1  0.33285300  0.06049800  0.09510400  1
  F  F154  1  0.83285300  0.93950200  0.40489600  1
  F  F155  1  0.66714700  0.93950200  0.90489600  1
  F  F156  1  0.10756500  0.19458700  0.49660600  1
  F  F157  1  0.39243500  0.19458700  0.99660600  1
  F  F158  1  0.89243500  0.80541300  0.50339400  1
  F  F159  1  0.60756500  0.80541300  0.00339400  1
  F  F160  1  0.30785700  0.38001700  0.47873800  1
  F  F161  1  0.19214300  0.38001700  0.97873800  1
  F  F162  1  0.69214300  0.61998300  0.52126200  1
  F  F163  1  0.80785700  0.61998300  0.02126200  1
  F  F164  1  0.37070500  0.24395200  0.57639300  1
  F  F165  1  0.12929500  0.24395200  0.07639300  1
  F  F166  1  0.62929500  0.75604800  0.42360700  1
  F  F167  1  0.87070500  0.75604800  0.92360700  1
