# generated using pymatgen
data_SbH12C4NF4
_symmetry_space_group_name_H-M   'P 1'
_cell_length_a   9.65010600
_cell_length_b   5.39923500
_cell_length_c   19.62346507
_cell_angle_alpha   88.33641195
_cell_angle_beta   90.00000000
_cell_angle_gamma   90.00000000
_symmetry_Int_Tables_number   1
_chemical_formula_structural   SbH12C4NF4
_chemical_formula_sum   'Sb4 H48 C16 N4 F16'
_cell_volume   1022.01418122
_cell_formula_units_Z   4
loop_
 _symmetry_equiv_pos_site_id
 _symmetry_equiv_pos_as_xyz
  1  'x, y, z'
loop_
 _atom_site_type_symbol
 _atom_site_label
 _atom_site_symmetry_multiplicity
 _atom_site_fract_x
 _atom_site_fract_y
 _atom_site_fract_z
 _atom_site_occupancy
  Sb  Sb0  1  0.59377700  0.55679400  0.91982200  1
  Sb  Sb1  1  0.90622300  0.55679400  0.41982200  1
  Sb  Sb2  1  0.09377700  0.44320600  0.58017800  1
  Sb  Sb3  1  0.40622300  0.44320600  0.08017800  1
  H  H4  1  0.35464400  0.17174700  0.42907800  1
  H  H5  1  0.75789600  0.69942300  0.22208200  1
  H  H6  1  0.87934700  0.92065400  0.70986500  1
  H  H7  1  0.00648600  0.76687300  0.93638700  1
  H  H8  1  0.62065300  0.92065400  0.20986500  1
  H  H9  1  0.59822400  0.03641400  0.44138600  1
  H  H10  1  0.66701000  0.72066200  0.14225900  1
  H  H11  1  0.57836400  0.00446700  0.75162900  1
  H  H12  1  0.90177600  0.03641400  0.94138600  1
  H  H13  1  0.05920800  0.71423700  0.79902800  1
  H  H14  1  0.09447300  0.12641400  0.13452000  1
  H  H15  1  0.25535200  0.85321500  0.86646600  1
  H  H16  1  0.40177600  0.96358600  0.55861400  1
  H  H17  1  0.78569200  0.22895700  0.24854000  1
  H  H18  1  0.33299000  0.27933800  0.85774100  1
  H  H19  1  0.95275300  0.73642000  0.14394900  1
  H  H20  1  0.54724700  0.73642000  0.64394900  1
  H  H21  1  0.37934700  0.07934600  0.79013500  1
  H  H22  1  0.99351400  0.23312700  0.06361300  1
  H  H23  1  0.50648600  0.23312700  0.56361300  1
  H  H24  1  0.49351400  0.76687300  0.43638700  1
  H  H25  1  0.07836400  0.99553300  0.74837100  1
  H  H26  1  0.12065300  0.07934600  0.29013500  1
  H  H27  1  0.04724700  0.26358000  0.85605100  1
  H  H28  1  0.42163600  0.99553300  0.24837100  1
  H  H29  1  0.44079200  0.71423700  0.29902800  1
  H  H30  1  0.74464800  0.14678500  0.13353400  1
  H  H31  1  0.85464400  0.82825300  0.07092200  1
  H  H32  1  0.14535600  0.17174700  0.92907800  1
  H  H33  1  0.25789600  0.30057700  0.27791800  1
  H  H34  1  0.94079200  0.28576300  0.20097200  1
  H  H35  1  0.28569200  0.77104300  0.25146000  1
  H  H36  1  0.59447300  0.87358600  0.36548000  1
  H  H37  1  0.83299000  0.72066200  0.64225900  1
  H  H38  1  0.92163600  0.00446700  0.25162900  1
  H  H39  1  0.90552700  0.87358600  0.86548000  1
  H  H40  1  0.74210400  0.69942300  0.72208200  1
  H  H41  1  0.21430800  0.77104300  0.75146000  1
  H  H42  1  0.75535200  0.14678500  0.63353400  1
  H  H43  1  0.16701000  0.27933800  0.35774100  1
  H  H44  1  0.71430800  0.22895700  0.74854000  1
  H  H45  1  0.40552700  0.12641400  0.63452000  1
  H  H46  1  0.45275300  0.26358000  0.35605100  1
  H  H47  1  0.09822400  0.96358600  0.05861400  1
  H  H48  1  0.64535600  0.82825300  0.57092200  1
  H  H49  1  0.24210400  0.30057700  0.77791800  1
  H  H50  1  0.24464800  0.85321500  0.36646600  1
  H  H51  1  0.55920800  0.28576300  0.70097200  1
  C  C52  1  0.58739900  0.89779900  0.61459000  1
  C  C53  1  0.47034000  0.06743800  0.59206200  1
  C  C54  1  0.86827900  0.14314600  0.21928600  1
  C  C55  1  0.97034000  0.93256200  0.90793800  1
  C  C56  1  0.63172100  0.14314600  0.71928600  1
  C  C57  1  0.70557300  0.82410800  0.18535700  1
  C  C58  1  0.13172100  0.85685400  0.78071400  1
  C  C59  1  0.20557300  0.17589200  0.31464300  1
  C  C60  1  0.08739900  0.10220100  0.88541000  1
  C  C61  1  0.29442700  0.17589200  0.81464300  1
  C  C62  1  0.36827900  0.85685400  0.28071400  1
  C  C63  1  0.41260100  0.10220100  0.38541000  1
  C  C64  1  0.02966000  0.06743800  0.09206200  1
  C  C65  1  0.52966000  0.93256200  0.40793800  1
  C  C66  1  0.91260100  0.89779900  0.11459000  1
  C  C67  1  0.79442700  0.82410800  0.68535700  1
  N  N68  1  0.19376600  0.98456800  0.83974000  1
  N  N69  1  0.69376600  0.01543200  0.66026000  1
  N  N70  1  0.30623400  0.98456800  0.33974000  1
  N  N71  1  0.80623400  0.01543200  0.16026000  1
  F  F72  1  0.59049800  0.31815000  0.13367600  1
  F  F73  1  0.68163100  0.56448100  0.82926900  1
  F  F74  1  0.90950200  0.31815000  0.63367600  1
  F  F75  1  0.78418200  0.51117400  0.96081400  1
  F  F76  1  0.88124300  0.91054400  0.43286400  1
  F  F77  1  0.18163100  0.43551900  0.67073100  1
  F  F78  1  0.71581800  0.51117400  0.46081400  1
  F  F79  1  0.21581800  0.48882600  0.03918600  1
  F  F80  1  0.11875700  0.08945600  0.56713600  1
  F  F81  1  0.28418200  0.48882600  0.53918600  1
  F  F82  1  0.61875700  0.91054400  0.93286400  1
  F  F83  1  0.81836900  0.56448100  0.32926900  1
  F  F84  1  0.40950200  0.68185000  0.86632400  1
  F  F85  1  0.31836900  0.43551900  0.17073100  1
  F  F86  1  0.38124300  0.08945600  0.06713600  1
  F  F87  1  0.09049800  0.68185000  0.36632400  1
