# generated using pymatgen
data_Ca2CrOsO6
_symmetry_space_group_name_H-M   'P 1'
_cell_length_a   4.87850867
_cell_length_b   5.41154900
_cell_length_c   13.35806212
_cell_angle_alpha   90.00000000
_cell_angle_beta   47.14374065
_cell_angle_gamma   90.00000000
_symmetry_Int_Tables_number   1
_chemical_formula_structural   Ca2CrOsO6
_chemical_formula_sum   'Ca4 Cr2 Os2 O12'
_cell_volume   258.51935039
_cell_formula_units_Z   2
loop_
 _symmetry_equiv_pos_site_id
 _symmetry_equiv_pos_as_xyz
  1  'x, y, z'
loop_
 _atom_site_type_symbol
 _atom_site_label
 _atom_site_symmetry_multiplicity
 _atom_site_fract_x
 _atom_site_fract_y
 _atom_site_fract_z
 _atom_site_occupancy
  Ca  Ca0  1  0.46409800  0.55419100  0.25732900  1
  Ca  Ca1  1  0.96409800  0.94580900  0.75732900  1
  Ca  Ca2  1  0.53590200  0.44580900  0.74267100  1
  Ca  Ca3  1  0.03590200  0.05419100  0.24267100  1
  Cr  Cr4  1  0.50000000  0.50000000  0.00000000  1
  Cr  Cr5  1  0.00000000  0.00000000  0.50000000  1
  Os  Os6  1  0.50000000  0.50000000  0.50000000  1
  Os  Os7  1  0.00000000  0.00000000  0.00000000  1
  O  O8  1  0.08359300  0.71156900  0.57757900  1
  O  O9  1  0.58359300  0.78843100  0.07757900  1
  O  O10  1  0.91640700  0.28843100  0.42242100  1
  O  O11  1  0.41640700  0.21156900  0.92242100  1
  O  O12  1  0.31735600  0.72682600  0.93452800  1
  O  O13  1  0.81735600  0.77317400  0.43452800  1
  O  O14  1  0.68264400  0.27317400  0.06547200  1
  O  O15  1  0.18264400  0.22682600  0.56547200  1
  O  O16  1  0.04115000  0.45459900  0.17393000  1
  O  O17  1  0.54115000  0.04540100  0.67393000  1
  O  O18  1  0.95885000  0.54540100  0.82607000  1
  O  O19  1  0.45885000  0.95459900  0.32607000  1
