# generated using pymatgen
data_SrBiBr5O8
_symmetry_space_group_name_H-M   'P 1'
_cell_length_a   9.44846900
_cell_length_b   12.83358400
_cell_length_c   16.03507900
_cell_angle_alpha   90.00000000
_cell_angle_beta   90.00000000
_cell_angle_gamma   90.00000000
_symmetry_Int_Tables_number   1
_chemical_formula_structural   SrBiBr5O8
_chemical_formula_sum   'Sr4 Bi4 Br20 O32'
_cell_volume   1944.37712891
_cell_formula_units_Z   4
loop_
 _symmetry_equiv_pos_site_id
 _symmetry_equiv_pos_as_xyz
  1  'x, y, z'
loop_
 _atom_site_type_symbol
 _atom_site_label
 _atom_site_symmetry_multiplicity
 _atom_site_fract_x
 _atom_site_fract_y
 _atom_site_fract_z
 _atom_site_occupancy
  Sr  Sr0  1  0.50000000  0.12682900  0.88025100  1
  Sr  Sr1  1  0.50000000  0.87317100  0.11974900  1
  Sr  Sr2  1  0.50000000  0.37317100  0.38025100  1
  Sr  Sr3  1  0.50000000  0.62682900  0.61974900  1
  Bi  Bi4  1  0.00000000  0.18571900  0.48779500  1
  Bi  Bi5  1  0.00000000  0.81428100  0.51220500  1
  Bi  Bi6  1  0.00000000  0.31428100  0.98779500  1
  Bi  Bi7  1  0.00000000  0.68571900  0.01220500  1
  Br  Br8  1  0.00000000  0.99691500  0.61913500  1
  Br  Br9  1  0.00000000  0.00308500  0.38086500  1
  Br  Br10  1  0.00000000  0.50308500  0.11913500  1
  Br  Br11  1  0.00000000  0.49691500  0.88086500  1
  Br  Br12  1  0.69799300  0.21968600  0.50549600  1
  Br  Br13  1  0.69799300  0.78031400  0.49450400  1
  Br  Br14  1  0.30200700  0.28031400  0.00549600  1
  Br  Br15  1  0.30200700  0.71968600  0.99450400  1
  Br  Br16  1  0.30200700  0.78031400  0.49450400  1
  Br  Br17  1  0.30200700  0.21968600  0.50549600  1
  Br  Br18  1  0.69799300  0.71968600  0.99450400  1
  Br  Br19  1  0.69799300  0.28031400  0.00549600  1
  Br  Br20  1  0.00000000  0.30612700  0.63257500  1
  Br  Br21  1  0.00000000  0.69387300  0.36742500  1
  Br  Br22  1  0.00000000  0.19387300  0.13257500  1
  Br  Br23  1  0.00000000  0.80612700  0.86742500  1
  Br  Br24  1  0.00000000  0.34304800  0.37602200  1
  Br  Br25  1  0.00000000  0.65695200  0.62397800  1
  Br  Br26  1  0.00000000  0.15695200  0.87602200  1
  Br  Br27  1  0.00000000  0.84304800  0.12397800  1
  O  O28  1  0.64562900  0.99556400  0.95986800  1
  O  O29  1  0.64562900  0.00443600  0.04013200  1
  O  O30  1  0.35437100  0.50443600  0.45986800  1
  O  O31  1  0.35437100  0.49556400  0.54013200  1
  O  O32  1  0.35437100  0.00443600  0.04013200  1
  O  O33  1  0.35437100  0.99556400  0.95986800  1
  O  O34  1  0.64562900  0.49556400  0.54013200  1
  O  O35  1  0.64562900  0.50443600  0.45986800  1
  O  O36  1  0.50000000  0.28829200  0.95145000  1
  O  O37  1  0.50000000  0.71170800  0.04855000  1
  O  O38  1  0.50000000  0.21170800  0.45145000  1
  O  O39  1  0.50000000  0.78829200  0.54855000  1
  O  O40  1  0.50000000  0.00801100  0.53790300  1
  O  O41  1  0.50000000  0.99198900  0.46209700  1
  O  O42  1  0.50000000  0.49198900  0.03790300  1
  O  O43  1  0.50000000  0.50801100  0.96209700  1
  O  O44  1  0.67472400  0.16951100  0.74925200  1
  O  O45  1  0.67472400  0.83048900  0.25074800  1
  O  O46  1  0.32527600  0.33048900  0.24925200  1
  O  O47  1  0.32527600  0.66951100  0.75074800  1
  O  O48  1  0.32527600  0.83048900  0.25074800  1
  O  O49  1  0.32527600  0.16951100  0.74925200  1
  O  O50  1  0.67472400  0.66951100  0.75074800  1
  O  O51  1  0.67472400  0.33048900  0.24925200  1
  O  O52  1  0.71472900  0.75930100  0.76847500  1
  O  O53  1  0.71472900  0.24069900  0.23152500  1
  O  O54  1  0.28527100  0.74069900  0.26847500  1
  O  O55  1  0.28527100  0.25930100  0.73152500  1
  O  O56  1  0.28527100  0.24069900  0.23152500  1
  O  O57  1  0.28527100  0.75930100  0.76847500  1
  O  O58  1  0.71472900  0.25930100  0.73152500  1
  O  O59  1  0.71472900  0.74069900  0.26847500  1
