# generated using pymatgen
data_RbF3
_symmetry_space_group_name_H-M   'P 1'
_cell_length_a   4.54617800
_cell_length_b   6.75043400
_cell_length_c   9.95042700
_cell_angle_alpha   90.00000000
_cell_angle_beta   90.00000000
_cell_angle_gamma   90.00000000
_symmetry_Int_Tables_number   1
_chemical_formula_structural   RbF3
_chemical_formula_sum   'Rb4 F12'
_cell_volume   305.36541575
_cell_formula_units_Z   4
loop_
 _symmetry_equiv_pos_site_id
 _symmetry_equiv_pos_as_xyz
  1  'x, y, z'
loop_
 _atom_site_type_symbol
 _atom_site_label
 _atom_site_symmetry_multiplicity
 _atom_site_fract_x
 _atom_site_fract_y
 _atom_site_fract_z
 _atom_site_occupancy
  Rb  Rb0  1  0.42311000  0.52875400  0.63282600  1
  Rb  Rb1  1  0.07689000  0.47124600  0.13282600  1
  Rb  Rb2  1  0.57689000  0.02875400  0.86717400  1
  Rb  Rb3  1  0.92311000  0.97124600  0.36717400  1
  F  F4  1  0.44588700  0.69724500  0.32081300  1
  F  F5  1  0.05411300  0.30275500  0.82081300  1
  F  F6  1  0.55411300  0.19724500  0.17918700  1
  F  F7  1  0.94588700  0.80275500  0.67918700  1
  F  F8  1  0.49944500  0.11469400  0.56126200  1
  F  F9  1  0.00055500  0.88530600  0.06126200  1
  F  F10  1  0.50055500  0.61469400  0.93873800  1
  F  F11  1  0.99944500  0.38530600  0.43873800  1
  F  F12  1  0.72464900  0.53928200  0.37938800  1
  F  F13  1  0.77535100  0.46071800  0.87938800  1
  F  F14  1  0.27535100  0.03928200  0.12061200  1
  F  F15  1  0.22464900  0.96071800  0.62061200  1
