# generated using pymatgen
data_RbPbF3
_symmetry_space_group_name_H-M   'P 1'
_cell_length_a   4.74170341
_cell_length_b   4.76457509
_cell_length_c   20.67693634
_cell_angle_alpha   89.19034702
_cell_angle_beta   104.76992977
_cell_angle_gamma   90.08098369
_symmetry_Int_Tables_number   1
_chemical_formula_structural   RbPbF3
_chemical_formula_sum   'Rb4 Pb4 F12'
_cell_volume   451.65578967
_cell_formula_units_Z   4
loop_
 _symmetry_equiv_pos_site_id
 _symmetry_equiv_pos_as_xyz
  1  'x, y, z'
loop_
 _atom_site_type_symbol
 _atom_site_label
 _atom_site_symmetry_multiplicity
 _atom_site_fract_x
 _atom_site_fract_y
 _atom_site_fract_z
 _atom_site_occupancy
  Rb  Rb0  1  0.11865600  0.80575900  0.32444600  1
  Rb  Rb1  1  0.38440500  0.32046200  0.17967200  1
  Rb  Rb2  1  0.88210000  0.19380700  0.67518300  1
  Rb  Rb3  1  0.61473900  0.67879400  0.82064600  1
  Pb  Pb4  1  0.24231900  0.18130200  0.92442800  1
  Pb  Pb5  1  0.74737900  0.29361500  0.42864500  1
  Pb  Pb6  1  0.25591800  0.70649300  0.57089500  1
  Pb  Pb7  1  0.75409900  0.81878400  0.07588800  1
  F  F8  1  0.85726900  0.80939400  0.18790300  1
  F  F9  1  0.13649500  0.19153800  0.81242400  1
  F  F10  1  0.77766100  0.31890000  0.09494900  1
  F  F11  1  0.26887100  0.82856100  0.09730600  1
  F  F12  1  0.36438400  0.70002900  0.68338700  1
  F  F13  1  0.64205300  0.30055100  0.31639300  1
  F  F14  1  0.72725600  0.79668100  0.40958000  1
  F  F15  1  0.77324700  0.69746800  0.59266500  1
  F  F16  1  0.22084100  0.68152300  0.90552800  1
  F  F17  1  0.23115800  0.30216000  0.40678200  1
  F  F18  1  0.72676000  0.17062400  0.90322700  1
  F  F19  1  0.27439000  0.20355500  0.59005400  1
