# generated using pymatgen
data_RhC8N4Cl7
_symmetry_space_group_name_H-M   'P 1'
_cell_length_a   8.24247500
_cell_length_b   8.96662200
_cell_length_c   13.71143900
_cell_angle_alpha   90.00000000
_cell_angle_beta   90.00000000
_cell_angle_gamma   90.00000000
_symmetry_Int_Tables_number   1
_chemical_formula_structural   RhC8N4Cl7
_chemical_formula_sum   'Rh2 C16 N8 Cl14'
_cell_volume   1013.37348405
_cell_formula_units_Z   2
loop_
 _symmetry_equiv_pos_site_id
 _symmetry_equiv_pos_as_xyz
  1  'x, y, z'
loop_
 _atom_site_type_symbol
 _atom_site_label
 _atom_site_symmetry_multiplicity
 _atom_site_fract_x
 _atom_site_fract_y
 _atom_site_fract_z
 _atom_site_occupancy
  Rh  Rh0  1  0.12312300  0.50000000  0.50000000  1
  Rh  Rh1  1  0.87687700  0.00000000  0.00000000  1
  C  C2  1  0.56955400  0.20935900  0.45326900  1
  C  C3  1  0.56955400  0.79064100  0.54673100  1
  C  C4  1  0.43044600  0.29064100  0.95326900  1
  C  C5  1  0.43044600  0.70935900  0.04673100  1
  C  C6  1  0.35321800  0.25459000  0.32980800  1
  C  C7  1  0.35321800  0.74541000  0.67019200  1
  C  C8  1  0.64678200  0.24541000  0.82980800  1
  C  C9  1  0.64678200  0.75459000  0.17019200  1
  C  C10  1  0.84164300  0.44769700  0.16338900  1
  C  C11  1  0.84164300  0.55230300  0.83661100  1
  C  C12  1  0.15835700  0.05230300  0.66338900  1
  C  C13  1  0.15835700  0.94769700  0.33661100  1
  C  C14  1  0.09453900  0.29621000  0.14325300  1
  C  C15  1  0.09453900  0.70379000  0.85674700  1
  C  C16  1  0.90546100  0.20379000  0.64325300  1
  C  C17  1  0.90546100  0.79621000  0.35674700  1
  N  N18  1  0.44850300  0.22350300  0.39912900  1
  N  N19  1  0.44850300  0.77649700  0.60087100  1
  N  N20  1  0.55149700  0.27649700  0.89912900  1
  N  N21  1  0.55149700  0.72350300  0.10087100  1
  N  N22  1  0.95255500  0.36450300  0.14393900  1
  N  N23  1  0.95255500  0.63549700  0.85606100  1
  N  N24  1  0.04744500  0.13549700  0.64393900  1
  N  N25  1  0.04744500  0.86450300  0.35606100  1
  Cl  Cl26  1  0.90552100  0.38011300  0.59342100  1
  Cl  Cl27  1  0.90552100  0.61988700  0.40657900  1
  Cl  Cl28  1  0.09447900  0.11988700  0.09342100  1
  Cl  Cl29  1  0.09447900  0.88011300  0.90657900  1
  Cl  Cl30  1  0.12473400  0.29139600  0.39487200  1
  Cl  Cl31  1  0.12473400  0.70860400  0.60512800  1
  Cl  Cl32  1  0.87526600  0.20860400  0.89487200  1
  Cl  Cl33  1  0.87526600  0.79139600  0.10512800  1
  Cl  Cl34  1  0.31659900  0.39774600  0.60165400  1
  Cl  Cl35  1  0.31659900  0.60225400  0.39834600  1
  Cl  Cl36  1  0.68340100  0.10225400  0.10165400  1
  Cl  Cl37  1  0.68340100  0.89774600  0.89834600  1
  Cl  Cl38  1  0.61049800  0.00000000  0.50000000  1
  Cl  Cl39  1  0.38950200  0.50000000  0.00000000  1
