# generated using pymatgen
data_Sr2(PPd)3
_symmetry_space_group_name_H-M   'P 1'
_cell_length_a   17.56783261
_cell_length_b   17.56783261
_cell_length_c   17.56783261
_cell_angle_alpha   166.18620782
_cell_angle_beta   166.07034985
_cell_angle_gamma   19.66626351
_symmetry_Int_Tables_number   1
_chemical_formula_structural   Sr2(PPd)3
_chemical_formula_sum   'Sr4 P6 Pd6'
_cell_volume   311.61083313
_cell_formula_units_Z   2
loop_
 _symmetry_equiv_pos_site_id
 _symmetry_equiv_pos_as_xyz
  1  'x, y, z'
loop_
 _atom_site_type_symbol
 _atom_site_label
 _atom_site_symmetry_multiplicity
 _atom_site_fract_x
 _atom_site_fract_y
 _atom_site_fract_z
 _atom_site_occupancy
  Sr  Sr0  1  0.57277000  0.57277000  0.00000000  1
  Sr  Sr1  1  0.42723000  0.42723000  0.00000000  1
  Sr  Sr2  1  0.67766000  0.17766000  0.50000000  1
  Sr  Sr3  1  0.32234000  0.82234000  0.50000000  1
  P  P4  1  0.14599900  0.64599900  0.50000000  1
  P  P5  1  0.85400100  0.35400100  0.50000000  1
  P  P6  1  0.78869000  0.28869000  0.50000000  1
  P  P7  1  0.21131000  0.71131000  0.50000000  1
  P  P8  1  0.04031900  0.04031900  0.00000000  1
  P  P9  1  0.95968100  0.95968100  0.00000000  1
  Pd  Pd10  1  0.00000000  0.50000000  0.50000000  1
  Pd  Pd11  1  0.75061100  0.75061100  0.00000000  1
  Pd  Pd12  1  0.24938900  0.24938900  0.00000000  1
  Pd  Pd13  1  0.11016000  0.11016000  0.00000000  1
  Pd  Pd14  1  0.88984000  0.88984000  0.00000000  1
  Pd  Pd15  1  0.50000000  0.00000000  0.50000000  1
