# generated using pymatgen
data_RbSb3S5O
_symmetry_space_group_name_H-M   'P 1'
_cell_length_a   9.54132397
_cell_length_b   9.13007254
_cell_length_c   7.76657008
_cell_angle_alpha   93.02460687
_cell_angle_beta   96.21079570
_cell_angle_gamma   98.86242905
_symmetry_Int_Tables_number   1
_chemical_formula_structural   RbSb3S5O
_chemical_formula_sum   'Rb2 Sb6 S10 O2'
_cell_volume   662.90557978
_cell_formula_units_Z   2
loop_
 _symmetry_equiv_pos_site_id
 _symmetry_equiv_pos_as_xyz
  1  'x, y, z'
loop_
 _atom_site_type_symbol
 _atom_site_label
 _atom_site_symmetry_multiplicity
 _atom_site_fract_x
 _atom_site_fract_y
 _atom_site_fract_z
 _atom_site_occupancy
  Rb  Rb0  1  0.84287600  0.88481200  0.84616200  1
  Rb  Rb1  1  0.15712400  0.11518800  0.15383800  1
  Sb  Sb2  1  0.59891800  0.34216900  0.64800400  1
  Sb  Sb3  1  0.40108200  0.65783100  0.35199600  1
  Sb  Sb4  1  0.84020800  0.50988800  0.32959500  1
  Sb  Sb5  1  0.15979200  0.49011200  0.67040500  1
  Sb  Sb6  1  0.62557500  0.08740800  0.27205100  1
  Sb  Sb7  1  0.37442500  0.91259200  0.72794900  1
  S  S8  1  0.69081700  0.10690800  0.59448900  1
  S  S9  1  0.30918300  0.89309200  0.40551100  1
  S  S10  1  0.83816200  0.51331600  0.65183600  1
  S  S11  1  0.16183800  0.48668400  0.34816400  1
  S  S12  1  0.54388100  0.36298000  0.33269100  1
  S  S13  1  0.45611900  0.63702000  0.66730900  1
  S  S14  1  0.83339400  0.17947200  0.16038100  1
  S  S15  1  0.16660600  0.82052800  0.83961900  1
  S  S16  1  0.86400800  0.78526700  0.35177500  1
  S  S17  1  0.13599200  0.21473300  0.64822500  1
  O  O18  1  0.05884600  0.16083400  0.80391100  1
  O  O19  1  0.94115400  0.83916600  0.19608900  1
