# generated using pymatgen
data_Rb2V3O8
_symmetry_space_group_name_H-M   'P 1'
_cell_length_a   9.07730000
_cell_length_b   9.07730000
_cell_length_c   5.70252100
_cell_angle_alpha   90.00000000
_cell_angle_beta   90.00000000
_cell_angle_gamma   90.00000000
_symmetry_Int_Tables_number   1
_chemical_formula_structural   Rb2V3O8
_chemical_formula_sum   'Rb4 V6 O16'
_cell_volume   469.87276294
_cell_formula_units_Z   2
loop_
 _symmetry_equiv_pos_site_id
 _symmetry_equiv_pos_as_xyz
  1  'x, y, z'
loop_
 _atom_site_type_symbol
 _atom_site_label
 _atom_site_symmetry_multiplicity
 _atom_site_fract_x
 _atom_site_fract_y
 _atom_site_fract_z
 _atom_site_occupancy
  Rb  Rb0  1  0.16728600  0.66728600  0.01365700  1
  Rb  Rb1  1  0.66728600  0.83271400  0.01365700  1
  Rb  Rb2  1  0.33271400  0.16728600  0.01365700  1
  Rb  Rb3  1  0.83271400  0.33271400  0.01365700  1
  V  V4  1  0.36568000  0.86568000  0.52862100  1
  V  V5  1  0.86568000  0.63432000  0.52862100  1
  V  V6  1  0.13432000  0.36568000  0.52862100  1
  V  V7  1  0.63432000  0.13432000  0.52862100  1
  V  V8  1  0.50000000  0.50000000  0.72145000  1
  V  V9  1  0.00000000  0.00000000  0.72145000  1
  O  O10  1  0.50000000  0.50000000  0.01077700  1
  O  O11  1  0.00000000  0.00000000  0.01077700  1
  O  O12  1  0.80548800  0.08304900  0.63941200  1
  O  O13  1  0.19451200  0.91695100  0.63941200  1
  O  O14  1  0.91695100  0.80548800  0.63941200  1
  O  O15  1  0.08304900  0.19451200  0.63941200  1
  O  O16  1  0.41695100  0.69451200  0.63941200  1
  O  O17  1  0.69451200  0.58304900  0.63941200  1
  O  O18  1  0.30548800  0.41695100  0.63941200  1
  O  O19  1  0.58304900  0.30548800  0.63941200  1
  O  O20  1  0.50000000  0.00000000  0.63676200  1
  O  O21  1  0.00000000  0.50000000  0.63676200  1
  O  O22  1  0.63199600  0.13199600  0.23555400  1
  O  O23  1  0.36800400  0.86800400  0.23555400  1
  O  O24  1  0.86800400  0.63199600  0.23555400  1
  O  O25  1  0.13199600  0.36800400  0.23555400  1
