# generated using pymatgen
data_RbCd6C12ClO26
_symmetry_space_group_name_H-M   'P 1'
_cell_length_a   9.80290379
_cell_length_b   9.80290379
_cell_length_c   9.80290427
_cell_angle_alpha   58.37704440
_cell_angle_beta   58.37704440
_cell_angle_gamma   58.37704460
_symmetry_Int_Tables_number   1
_chemical_formula_structural   RbCd6C12ClO26
_chemical_formula_sum   'Rb1 Cd6 C12 Cl1 O26'
_cell_volume   641.36753795
_cell_formula_units_Z   1
loop_
 _symmetry_equiv_pos_site_id
 _symmetry_equiv_pos_as_xyz
  1  'x, y, z'
loop_
 _atom_site_type_symbol
 _atom_site_label
 _atom_site_symmetry_multiplicity
 _atom_site_fract_x
 _atom_site_fract_y
 _atom_site_fract_z
 _atom_site_occupancy
  Rb  Rb0  1  0.00000000  0.00000000  0.00000000  1
  Cd  Cd1  1  0.71049700  0.35414000  0.22503100  1
  Cd  Cd2  1  0.35414000  0.22503100  0.71049700  1
  Cd  Cd3  1  0.22503100  0.71049700  0.35414000  1
  Cd  Cd4  1  0.28950300  0.64586000  0.77496900  1
  Cd  Cd5  1  0.64586000  0.77496900  0.28950300  1
  Cd  Cd6  1  0.77496900  0.28950300  0.64586000  1
  C  C7  1  0.56710300  0.04433700  0.42872500  1
  C  C8  1  0.04433700  0.42872500  0.56710300  1
  C  C9  1  0.42872500  0.56710300  0.04433700  1
  C  C10  1  0.43289700  0.95566300  0.57127500  1
  C  C11  1  0.95566300  0.57127500  0.43289700  1
  C  C12  1  0.57127500  0.43289700  0.95566300  1
  C  C13  1  0.05378100  0.42422300  0.96553900  1
  C  C14  1  0.42422300  0.96553900  0.05378100  1
  C  C15  1  0.96553900  0.05378100  0.42422300  1
  C  C16  1  0.94621900  0.57577700  0.03446100  1
  C  C17  1  0.57577700  0.03446100  0.94621900  1
  C  C18  1  0.03446100  0.94621900  0.57577700  1
  Cl  Cl19  1  0.50000000  0.50000000  0.50000000  1
  O  O20  1  0.55733700  0.16995200  0.44674500  1
  O  O21  1  0.16995200  0.44674500  0.55733700  1
  O  O22  1  0.44674500  0.55733700  0.16995200  1
  O  O23  1  0.44266300  0.83004800  0.55325500  1
  O  O24  1  0.83004800  0.55325500  0.44266300  1
  O  O25  1  0.55325500  0.44266300  0.83004800  1
  O  O26  1  0.67437800  0.98870000  0.30849500  1
  O  O27  1  0.98870000  0.30849500  0.67437800  1
  O  O28  1  0.30849500  0.67437800  0.98870000  1
  O  O29  1  0.32562200  0.01130000  0.69150500  1
  O  O30  1  0.01130000  0.69150500  0.32562200  1
  O  O31  1  0.69150500  0.32562200  0.01130000  1
  O  O32  1  0.98454200  0.32484300  0.00687400  1
  O  O33  1  0.32484300  0.00687400  0.98454200  1
  O  O34  1  0.00687400  0.98454200  0.32484300  1
  O  O35  1  0.01545800  0.67515700  0.99312600  1
  O  O36  1  0.67515700  0.99312600  0.01545800  1
  O  O37  1  0.99312600  0.01545800  0.67515700  1
  O  O38  1  0.20900600  0.41244100  0.86854500  1
  O  O39  1  0.41244100  0.86854500  0.20900600  1
  O  O40  1  0.86854500  0.20900600  0.41244100  1
  O  O41  1  0.79099400  0.58755900  0.13145500  1
  O  O42  1  0.58755900  0.13145500  0.79099400  1
  O  O43  1  0.13145500  0.79099400  0.58755900  1
  O  O44  1  0.74288100  0.74288100  0.74288100  1
  O  O45  1  0.25711900  0.25711900  0.25711900  1
