# generated using pymatgen
data_Pt(I3N2)2
_symmetry_space_group_name_H-M   'P 1'
_cell_length_a   7.95462400
_cell_length_b   8.49238100
_cell_length_c   10.81884700
_cell_angle_alpha   90.00000000
_cell_angle_beta   90.00000000
_cell_angle_gamma   90.00000000
_symmetry_Int_Tables_number   1
_chemical_formula_structural   Pt(I3N2)2
_chemical_formula_sum   'Pt2 I12 N8'
_cell_volume   730.85311991
_cell_formula_units_Z   2
loop_
 _symmetry_equiv_pos_site_id
 _symmetry_equiv_pos_as_xyz
  1  'x, y, z'
loop_
 _atom_site_type_symbol
 _atom_site_label
 _atom_site_symmetry_multiplicity
 _atom_site_fract_x
 _atom_site_fract_y
 _atom_site_fract_z
 _atom_site_occupancy
  Pt  Pt0  1  0.50000000  0.50000000  0.50000000  1
  Pt  Pt1  1  0.00000000  0.00000000  0.00000000  1
  I  I2  1  0.50000000  0.50000000  0.73452500  1
  I  I3  1  0.00000000  0.00000000  0.76547500  1
  I  I4  1  0.50000000  0.50000000  0.26547500  1
  I  I5  1  0.00000000  0.00000000  0.23452500  1
  I  I6  1  0.23791600  0.72447200  0.50000000  1
  I  I7  1  0.76208400  0.27552800  0.50000000  1
  I  I8  1  0.26208400  0.22447200  0.00000000  1
  I  I9  1  0.73791600  0.77552800  0.00000000  1
  I  I10  1  0.26622000  0.26315800  0.50000000  1
  I  I11  1  0.73378000  0.73684200  0.50000000  1
  I  I12  1  0.23378000  0.76315800  0.00000000  1
  I  I13  1  0.76622000  0.23684200  0.00000000  1
  N  N14  1  0.78193200  0.81982300  0.82229600  1
  N  N15  1  0.21806800  0.18017700  0.82229600  1
  N  N16  1  0.71806800  0.31982300  0.67770400  1
  N  N17  1  0.28193200  0.68017700  0.67770400  1
  N  N18  1  0.21806800  0.18017700  0.17770400  1
  N  N19  1  0.78193200  0.81982300  0.17770400  1
  N  N20  1  0.28193200  0.68017700  0.32229600  1
  N  N21  1  0.71806800  0.31982300  0.32229600  1
