# generated using pymatgen
data_Pt(NO3)2
_symmetry_space_group_name_H-M   'P 1'
_cell_length_a   3.12383900
_cell_length_b   6.39484170
_cell_length_c   6.76246812
_cell_angle_alpha   107.37775121
_cell_angle_beta   96.63229394
_cell_angle_gamma   99.05137808
_symmetry_Int_Tables_number   1
_chemical_formula_structural   Pt(NO3)2
_chemical_formula_sum   'Pt1 N2 O6'
_cell_volume   125.41235796
_cell_formula_units_Z   1
loop_
 _symmetry_equiv_pos_site_id
 _symmetry_equiv_pos_as_xyz
  1  'x, y, z'
loop_
 _atom_site_type_symbol
 _atom_site_label
 _atom_site_symmetry_multiplicity
 _atom_site_fract_x
 _atom_site_fract_y
 _atom_site_fract_z
 _atom_site_occupancy
  Pt  Pt0  1  0.00000000  0.00000000  0.00000000  1
  N  N1  1  0.11858600  0.03560800  0.59025900  1
  N  N2  1  0.88141400  0.96439200  0.40974100  1
  O  O3  1  0.06498300  0.88022800  0.25028900  1
  O  O4  1  0.43778900  0.58459900  0.49453600  1
  O  O5  1  0.40874900  0.79831700  0.88884200  1
  O  O6  1  0.93501700  0.11977200  0.74971100  1
  O  O7  1  0.56221100  0.41540100  0.50546400  1
  O  O8  1  0.59125100  0.20168300  0.11115800  1
