# generated using pymatgen
data_PrSe4O11
_symmetry_space_group_name_H-M   'P 1'
_cell_length_a   7.27184000
_cell_length_b   11.07740700
_cell_length_c   13.48440180
_cell_angle_alpha   89.39336579
_cell_angle_beta   90.00000000
_cell_angle_gamma   90.00000000
_symmetry_Int_Tables_number   1
_chemical_formula_structural   PrSe4O11
_chemical_formula_sum   'Pr4 Se16 O44'
_cell_volume   1086.14990690
_cell_formula_units_Z   4
loop_
 _symmetry_equiv_pos_site_id
 _symmetry_equiv_pos_as_xyz
  1  'x, y, z'
loop_
 _atom_site_type_symbol
 _atom_site_label
 _atom_site_symmetry_multiplicity
 _atom_site_fract_x
 _atom_site_fract_y
 _atom_site_fract_z
 _atom_site_occupancy
  Pr  Pr0  1  0.44959000  0.05035900  0.33998000  1
  Pr  Pr1  1  0.94959000  0.44964100  0.66002000  1
  Pr  Pr2  1  0.55041000  0.94964100  0.66002000  1
  Pr  Pr3  1  0.05041000  0.55035900  0.33998000  1
  Se  Se4  1  0.50944100  0.29003100  0.75353300  1
  Se  Se5  1  0.00944100  0.20996900  0.24646700  1
  Se  Se6  1  0.49055900  0.70996900  0.24646700  1
  Se  Se7  1  0.99055900  0.79003100  0.75353300  1
  Se  Se8  1  0.65914100  0.17329700  0.09235700  1
  Se  Se9  1  0.15914100  0.32670300  0.90764300  1
  Se  Se10  1  0.34085900  0.82670300  0.90764300  1
  Se  Se11  1  0.84085900  0.67329700  0.09235700  1
  Se  Se12  1  0.06240800  0.10437200  0.70420000  1
  Se  Se13  1  0.56240800  0.39562800  0.29580000  1
  Se  Se14  1  0.93759200  0.89562800  0.29580000  1
  Se  Se15  1  0.43759200  0.60437200  0.70420000  1
  Se  Se16  1  0.29435500  0.32390200  0.48660600  1
  Se  Se17  1  0.79435500  0.17609800  0.51339400  1
  Se  Se18  1  0.70564500  0.67609800  0.51339400  1
  Se  Se19  1  0.20564500  0.82390200  0.48660600  1
  O  O20  1  0.57137600  0.14506200  0.75189700  1
  O  O21  1  0.07137600  0.35493800  0.24810300  1
  O  O22  1  0.42862400  0.85493800  0.24810300  1
  O  O23  1  0.92862400  0.64506200  0.75189700  1
  O  O24  1  0.40497100  0.30757300  0.87765800  1
  O  O25  1  0.90497100  0.19242700  0.12234200  1
  O  O26  1  0.59502900  0.69242700  0.12234200  1
  O  O27  1  0.09502900  0.80757300  0.87765800  1
  O  O28  1  0.19480000  0.12246200  0.22675200  1
  O  O29  1  0.69480000  0.37753800  0.77324800  1
  O  O30  1  0.80520000  0.87753800  0.77324800  1
  O  O31  1  0.30520000  0.62246200  0.22675200  1
  O  O32  1  0.17932700  0.37869100  0.02062200  1
  O  O33  1  0.67932700  0.12130900  0.97937800  1
  O  O34  1  0.82067300  0.62130900  0.97937800  1
  O  O35  1  0.32067300  0.87869100  0.02062200  1
  O  O36  1  0.58561200  0.06951800  0.17286800  1
  O  O37  1  0.08561200  0.43048200  0.82713200  1
  O  O38  1  0.41438800  0.93048200  0.82713200  1
  O  O39  1  0.91438800  0.56951800  0.17286800  1
  O  O40  1  0.56238300  0.30597700  0.10508400  1
  O  O41  1  0.06238300  0.19402300  0.89491600  1
  O  O42  1  0.43761700  0.69402300  0.89491600  1
  O  O43  1  0.93761700  0.80597700  0.10508400  1
  O  O44  1  0.72612200  0.48299200  0.34754900  1
  O  O45  1  0.22612200  0.01700800  0.65245100  1
  O  O46  1  0.27387800  0.51700800  0.65245100  1
  O  O47  1  0.77387800  0.98299200  0.34754900  1
  O  O48  1  0.11912300  0.24705400  0.66683300  1
  O  O49  1  0.61912300  0.25294600  0.33316700  1
  O  O50  1  0.88087700  0.75294600  0.33316700  1
  O  O51  1  0.38087700  0.74705400  0.66683300  1
  O  O52  1  0.37140500  0.43020600  0.38461900  1
  O  O53  1  0.87140500  0.06979400  0.61538100  1
  O  O54  1  0.62859500  0.56979400  0.61538100  1
  O  O55  1  0.12859500  0.93020600  0.38461900  1
  O  O56  1  0.24405700  0.19726100  0.42433900  1
  O  O57  1  0.74405700  0.30273900  0.57566100  1
  O  O58  1  0.75594300  0.80273900  0.57566100  1
  O  O59  1  0.25594300  0.69726100  0.42433900  1
  O  O60  1  0.08745700  0.39752200  0.48940100  1
  O  O61  1  0.58745700  0.10247800  0.51059900  1
  O  O62  1  0.91254300  0.60247800  0.51059900  1
  O  O63  1  0.41254300  0.89752200  0.48940100  1
