# generated using pymatgen
data_PdS(NO)3
_symmetry_space_group_name_H-M   'P 1'
_cell_length_a   7.25973300
_cell_length_b   8.44902600
_cell_length_c   14.84303791
_cell_angle_alpha   60.67415233
_cell_angle_beta   90.00000000
_cell_angle_gamma   90.00000000
_symmetry_Int_Tables_number   1
_chemical_formula_structural   PdS(NO)3
_chemical_formula_sum   'Pd4 S4 N12 O12'
_cell_volume   793.76340275
_cell_formula_units_Z   4
loop_
 _symmetry_equiv_pos_site_id
 _symmetry_equiv_pos_as_xyz
  1  'x, y, z'
loop_
 _atom_site_type_symbol
 _atom_site_label
 _atom_site_symmetry_multiplicity
 _atom_site_fract_x
 _atom_site_fract_y
 _atom_site_fract_z
 _atom_site_occupancy
  Pd  Pd0  1  0.18174600  0.03902200  0.00709700  1
  Pd  Pd1  1  0.31825400  0.03902200  0.50709700  1
  Pd  Pd2  1  0.81825400  0.96097800  0.99290300  1
  Pd  Pd3  1  0.68174600  0.96097800  0.49290300  1
  S  S4  1  0.20031800  0.34356300  0.67935900  1
  S  S5  1  0.29968200  0.34356300  0.17935900  1
  S  S6  1  0.79968200  0.65643700  0.32064100  1
  S  S7  1  0.70031800  0.65643700  0.82064100  1
  N  N8  1  0.28376300  0.92277200  0.13045400  1
  N  N9  1  0.21623700  0.92277200  0.63045400  1
  N  N10  1  0.71623700  0.07722800  0.86954600  1
  N  N11  1  0.78376300  0.07722800  0.36954600  1
  N  N12  1  0.21348900  0.27614900  0.91239200  1
  N  N13  1  0.28651100  0.27614900  0.41239200  1
  N  N14  1  0.78651100  0.72385100  0.08760800  1
  N  N15  1  0.71348900  0.72385100  0.58760800  1
  N  N16  1  0.22446400  0.93106000  0.92194800  1
  N  N17  1  0.27553600  0.93106000  0.42194800  1
  N  N18  1  0.77553600  0.06894000  0.07805200  1
  N  N19  1  0.72446400  0.06894000  0.57805200  1
  O  O20  1  0.15476800  0.52004300  0.66467700  1
  O  O21  1  0.34523200  0.52004300  0.16467700  1
  O  O22  1  0.84523200  0.47995700  0.33532300  1
  O  O23  1  0.65476800  0.47995700  0.83532300  1
  O  O24  1  0.05810600  0.21183700  0.69999300  1
  O  O25  1  0.44189400  0.21183700  0.19999300  1
  O  O26  1  0.94189400  0.78816300  0.30000700  1
  O  O27  1  0.55810600  0.78816300  0.80000700  1
  O  O28  1  0.38838600  0.29970700  0.67036500  1
  O  O29  1  0.11161400  0.29970700  0.17036500  1
  O  O30  1  0.61161400  0.70029300  0.32963500  1
  O  O31  1  0.88838600  0.70029300  0.82963500  1
