# generated using pymatgen
data_Pb2O3
_symmetry_space_group_name_H-M   'P 1'
_cell_length_a   8.29417600
_cell_length_b   3.41134100
_cell_length_c   5.84791174
_cell_angle_alpha   77.58917804
_cell_angle_beta   90.00000000
_cell_angle_gamma   90.00000000
_symmetry_Int_Tables_number   1
_chemical_formula_structural   Pb2O3
_chemical_formula_sum   'Pb4 O6'
_cell_volume   161.59577733
_cell_formula_units_Z   2
loop_
 _symmetry_equiv_pos_site_id
 _symmetry_equiv_pos_as_xyz
  1  'x, y, z'
loop_
 _atom_site_type_symbol
 _atom_site_label
 _atom_site_symmetry_multiplicity
 _atom_site_fract_x
 _atom_site_fract_y
 _atom_site_fract_z
 _atom_site_occupancy
  Pb  Pb0  1  0.50000000  0.00000000  0.00000000  1
  Pb  Pb1  1  0.00000000  0.00000000  0.00000000  1
  Pb  Pb2  1  0.75000000  0.63937400  0.54892300  1
  Pb  Pb3  1  0.25000000  0.36062600  0.45107700  1
  O  O4  1  0.75000000  0.05868600  0.84719300  1
  O  O5  1  0.25000000  0.94131400  0.15280700  1
  O  O6  1  0.53617600  0.40704700  0.24887600  1
  O  O7  1  0.03617600  0.59295300  0.75112400  1
  O  O8  1  0.46382400  0.59295300  0.75112400  1
  O  O9  1  0.96382400  0.40704700  0.24887600  1
