# generated using pymatgen
data_NaHO
_symmetry_space_group_name_H-M   'P 1'
_cell_length_a   5.62414926
_cell_length_b   5.62416846
_cell_length_c   5.62420174
_cell_angle_alpha   111.39222596
_cell_angle_beta   111.39510160
_cell_angle_gamma   105.69407712
_symmetry_Int_Tables_number   1
_chemical_formula_structural   NaHO
_chemical_formula_sum   'Na4 H4 O4'
_cell_volume   136.49973493
_cell_formula_units_Z   4
loop_
 _symmetry_equiv_pos_site_id
 _symmetry_equiv_pos_as_xyz
  1  'x, y, z'
loop_
 _atom_site_type_symbol
 _atom_site_label
 _atom_site_symmetry_multiplicity
 _atom_site_fract_x
 _atom_site_fract_y
 _atom_site_fract_z
 _atom_site_occupancy
  Na  Na0  1  0.00001000  0.99995600  0.00000500  1
  Na  Na1  1  0.49993900  0.49999400  0.99997000  1
  Na  Na2  1  0.49994200  0.99995800  0.49995800  1
  Na  Na3  1  0.00001500  0.49999700  0.50006800  1
  H  H4  1  0.00215900  0.00215700  0.49994000  1
  H  H5  1  0.99802500  0.49803000  0.00006000  1
  H  H6  1  0.49787500  0.99787800  0.00006300  1
  H  H7  1  0.50205300  0.50204900  0.49994100  1
  O  O8  1  0.85885600  0.85885600  0.49999100  1
  O  O9  1  0.14122200  0.64122200  0.00000400  1
  O  O10  1  0.64108900  0.14108600  0.00000700  1
  O  O11  1  0.35881500  0.35881600  0.49999200  1
