# generated using pymatgen
data_PdC4S4(IN4)2
_symmetry_space_group_name_H-M   'P 1'
_cell_length_a   8.47762463
_cell_length_b   8.47762463
_cell_length_c   11.65951481
_cell_angle_alpha   89.15109477
_cell_angle_beta   89.15109477
_cell_angle_gamma   76.87273955
_symmetry_Int_Tables_number   1
_chemical_formula_structural   PdC4S4(IN4)2
_chemical_formula_sum   'Pd2 C8 S8 I4 N16'
_cell_volume   815.92689759
_cell_formula_units_Z   2
loop_
 _symmetry_equiv_pos_site_id
 _symmetry_equiv_pos_as_xyz
  1  'x, y, z'
loop_
 _atom_site_type_symbol
 _atom_site_label
 _atom_site_symmetry_multiplicity
 _atom_site_fract_x
 _atom_site_fract_y
 _atom_site_fract_z
 _atom_site_occupancy
  Pd  Pd0  1  0.00000000  0.50000000  0.50000000  1
  Pd  Pd1  1  0.50000000  0.00000000  0.00000000  1
  C  C2  1  0.65987900  0.49416300  0.58651600  1
  C  C3  1  0.50583700  0.34012100  0.91348400  1
  C  C4  1  0.34012100  0.50583700  0.41348400  1
  C  C5  1  0.49416300  0.65987900  0.08651600  1
  C  C6  1  0.96557900  0.42367400  0.27612900  1
  C  C7  1  0.57632600  0.03442100  0.22387100  1
  C  C8  1  0.03442100  0.57632600  0.72387100  1
  C  C9  1  0.42367400  0.96557900  0.77612900  1
  S  S10  1  0.72528400  0.64157700  0.52770100  1
  S  S11  1  0.35842300  0.27471600  0.97229900  1
  S  S12  1  0.27471600  0.35842300  0.47229900  1
  S  S13  1  0.64157700  0.72528400  0.02770100  1
  S  S14  1  0.00256300  0.61797400  0.31048700  1
  S  S15  1  0.38202600  0.99743700  0.18951300  1
  S  S16  1  0.99743700  0.38202600  0.68951300  1
  S  S17  1  0.61797400  0.00256300  0.81048700  1
  I  I18  1  0.79133700  0.15417800  0.38088100  1
  I  I19  1  0.84582200  0.20866300  0.11911900  1
  I  I20  1  0.20866300  0.84582200  0.61911900  1
  I  I21  1  0.15417800  0.79133700  0.88088100  1
  N  N22  1  0.69177100  0.33254600  0.61478000  1
  N  N23  1  0.66745400  0.30822900  0.88522000  1
  N  N24  1  0.30822900  0.66745400  0.38522000  1
  N  N25  1  0.33254600  0.69177100  0.11478000  1
  N  N26  1  0.54447800  0.43008600  0.64184400  1
  N  N27  1  0.56991400  0.45552200  0.85815600  1
  N  N28  1  0.45552200  0.56991400  0.35815600  1
  N  N29  1  0.43008600  0.54447800  0.14184400  1
  N  N30  1  0.95774500  0.33719400  0.37238100  1
  N  N31  1  0.66280600  0.04225500  0.12761900  1
  N  N32  1  0.04225500  0.66280600  0.62761900  1
  N  N33  1  0.33719400  0.95774500  0.87238100  1
  N  N34  1  0.94492500  0.39774100  0.16669000  1
  N  N35  1  0.60225900  0.05507500  0.33331000  1
  N  N36  1  0.05507500  0.60225900  0.83331000  1
  N  N37  1  0.39774100  0.94492500  0.66669000  1
