# generated using pymatgen
data_P
_symmetry_space_group_name_H-M   'P 1'
_cell_length_a   8.20231085
_cell_length_b   8.20231085
_cell_length_c   5.34659530
_cell_angle_alpha   78.48193973
_cell_angle_beta   78.48193973
_cell_angle_gamma   83.87999953
_symmetry_Int_Tables_number   1
_chemical_formula_structural   P
_chemical_formula_sum   P2
_cell_volume   344.53048064
_cell_formula_units_Z   2
loop_
 _symmetry_equiv_pos_site_id
 _symmetry_equiv_pos_as_xyz
  1  'x, y, z'
loop_
 _atom_site_type_symbol
 _atom_site_label
 _atom_site_symmetry_multiplicity
 _atom_site_fract_x
 _atom_site_fract_y
 _atom_site_fract_z
 _atom_site_occupancy
  P  P0  1  0.45508500  0.45508500  0.87967600  1
  P  P1  1  0.54491500  0.54491500  0.12032400  1
