# generated using pymatgen
data_PdRhN5Cl5O
_symmetry_space_group_name_H-M   'P 1'
_cell_length_a   11.70393100
_cell_length_b   8.02989900
_cell_length_c   14.53901631
_cell_angle_alpha   87.90281753
_cell_angle_beta   90.00000000
_cell_angle_gamma   90.00000000
_symmetry_Int_Tables_number   1
_chemical_formula_structural   PdRhN5Cl5O
_chemical_formula_sum   'Pd4 Rh4 N20 Cl20 O4'
_cell_volume   1365.48165253
_cell_formula_units_Z   4
loop_
 _symmetry_equiv_pos_site_id
 _symmetry_equiv_pos_as_xyz
  1  'x, y, z'
loop_
 _atom_site_type_symbol
 _atom_site_label
 _atom_site_symmetry_multiplicity
 _atom_site_fract_x
 _atom_site_fract_y
 _atom_site_fract_z
 _atom_site_occupancy
  Pd  Pd0  1  0.50000000  0.00000000  0.50000000  1
  Pd  Pd1  1  0.00000000  0.00000000  0.00000000  1
  Pd  Pd2  1  0.00000000  0.00000000  0.50000000  1
  Pd  Pd3  1  0.50000000  0.00000000  0.00000000  1
  Rh  Rh4  1  0.21642000  0.56610500  0.28975600  1
  Rh  Rh5  1  0.71642000  0.43389500  0.21024400  1
  Rh  Rh6  1  0.78358000  0.43389500  0.71024400  1
  Rh  Rh7  1  0.28358000  0.56610500  0.78975600  1
  N  N8  1  0.25618400  0.59076500  0.44228900  1
  N  N9  1  0.75618400  0.40923500  0.05771100  1
  N  N10  1  0.74381600  0.40923500  0.55771100  1
  N  N11  1  0.24381600  0.59076500  0.94228900  1
  N  N12  1  0.26590200  0.52495200  0.16723100  1
  N  N13  1  0.76590200  0.47504800  0.33276900  1
  N  N14  1  0.73409800  0.47504800  0.83276900  1
  N  N15  1  0.23409800  0.52495200  0.66723100  1
  N  N16  1  0.23632500  0.33260600  0.27189700  1
  N  N17  1  0.73632500  0.66739400  0.22810300  1
  N  N18  1  0.76367500  0.66739400  0.72810300  1
  N  N19  1  0.26367500  0.33260600  0.77189700  1
  N  N20  1  0.27427800  0.83610500  0.32267900  1
  N  N21  1  0.77427800  0.16389500  0.17732100  1
  N  N22  1  0.72572200  0.16389500  0.67732100  1
  N  N23  1  0.22572200  0.83610500  0.82267900  1
  N  N24  1  0.06297700  0.58531400  0.27276900  1
  N  N25  1  0.56297700  0.41468600  0.22723100  1
  N  N26  1  0.93702300  0.41468600  0.72723100  1
  N  N27  1  0.43702300  0.58531400  0.77276900  1
  Cl  Cl28  1  0.58228900  0.05331100  0.36501400  1
  Cl  Cl29  1  0.08228900  0.94668900  0.13498600  1
  Cl  Cl30  1  0.41771100  0.94668900  0.63498600  1
  Cl  Cl31  1  0.91771100  0.05331100  0.86501400  1
  Cl  Cl32  1  0.71851700  0.22374700  0.57665200  1
  Cl  Cl33  1  0.21851700  0.77625300  0.92334800  1
  Cl  Cl34  1  0.28148300  0.77625300  0.42334800  1
  Cl  Cl35  1  0.78148300  0.22374700  0.07665200  1
  Cl  Cl36  1  0.97395200  0.72224500  0.51625300  1
  Cl  Cl37  1  0.47395200  0.27775500  0.98374700  1
  Cl  Cl38  1  0.02604800  0.27775500  0.48374700  1
  Cl  Cl39  1  0.52604800  0.72224500  0.01625300  1
  Cl  Cl40  1  0.05261800  0.00444800  0.65044200  1
  Cl  Cl41  1  0.55261800  0.99555200  0.84955800  1
  Cl  Cl42  1  0.94738200  0.99555200  0.34955800  1
  Cl  Cl43  1  0.44738200  0.00444800  0.15044200  1
  Cl  Cl44  1  0.49518800  0.52895700  0.30297500  1
  Cl  Cl45  1  0.99518800  0.47104300  0.19702500  1
  Cl  Cl46  1  0.50481200  0.47104300  0.69702500  1
  Cl  Cl47  1  0.00481200  0.52895700  0.80297500  1
  O  O48  1  0.27695300  0.35723600  0.18450400  1
  O  O49  1  0.77695300  0.64276400  0.31549600  1
  O  O50  1  0.72304700  0.64276400  0.81549600  1
  O  O51  1  0.22304700  0.35723600  0.68450400  1
