# generated using pymatgen
data_P2PbO9
_symmetry_space_group_name_H-M   'P 1'
_cell_length_a   5.10796300
_cell_length_b   9.00840900
_cell_length_c   16.40883210
_cell_angle_alpha   67.89271790
_cell_angle_beta   90.00000000
_cell_angle_gamma   90.00000000
_symmetry_Int_Tables_number   1
_chemical_formula_structural   P2PbO9
_chemical_formula_sum   'P8 Pb4 O36'
_cell_volume   699.53578597
_cell_formula_units_Z   4
loop_
 _symmetry_equiv_pos_site_id
 _symmetry_equiv_pos_as_xyz
  1  'x, y, z'
loop_
 _atom_site_type_symbol
 _atom_site_label
 _atom_site_symmetry_multiplicity
 _atom_site_fract_x
 _atom_site_fract_y
 _atom_site_fract_z
 _atom_site_occupancy
  P  P0  1  0.26003000  0.00113400  0.11664900  1
  P  P1  1  0.23997000  0.00113400  0.61664900  1
  P  P2  1  0.73997000  0.99886600  0.88335100  1
  P  P3  1  0.76003000  0.99886600  0.38335100  1
  P  P4  1  0.73432100  0.51951500  0.11137000  1
  P  P5  1  0.76567900  0.51951500  0.61137000  1
  P  P6  1  0.26567900  0.48048500  0.88863000  1
  P  P7  1  0.23432100  0.48048500  0.38863000  1
  Pb  Pb8  1  0.76717600  0.24774200  0.01007200  1
  Pb  Pb9  1  0.73282400  0.24774200  0.51007200  1
  Pb  Pb10  1  0.23282400  0.75225800  0.98992800  1
  Pb  Pb11  1  0.26717600  0.75225800  0.48992800  1
  O  O12  1  0.36737700  0.89063400  0.07117700  1
  O  O13  1  0.13262300  0.89063400  0.57117700  1
  O  O14  1  0.63262300  0.10936600  0.92882300  1
  O  O15  1  0.86737700  0.10936600  0.42882300  1
  O  O16  1  0.96151900  0.03659000  0.10015400  1
  O  O17  1  0.53848100  0.03659000  0.60015400  1
  O  O18  1  0.03848100  0.96341000  0.89984600  1
  O  O19  1  0.46151900  0.96341000  0.39984600  1
  O  O20  1  0.40991400  0.16217600  0.08767800  1
  O  O21  1  0.09008600  0.16217600  0.58767800  1
  O  O22  1  0.59008600  0.83782400  0.91232200  1
  O  O23  1  0.90991400  0.83782400  0.41232200  1
  O  O24  1  0.30398200  0.89684000  0.21497100  1
  O  O25  1  0.19601800  0.89684000  0.71497100  1
  O  O26  1  0.69601800  0.10316000  0.78502900  1
  O  O27  1  0.80398200  0.10316000  0.28502900  1
  O  O28  1  0.89145300  0.67857300  0.07712900  1
  O  O29  1  0.60854700  0.67857300  0.57712900  1
  O  O30  1  0.10854700  0.32142700  0.92287100  1
  O  O31  1  0.39145300  0.32142700  0.42287100  1
  O  O32  1  0.44423700  0.54573900  0.08017100  1
  O  O33  1  0.05576300  0.54573900  0.58017100  1
  O  O34  1  0.55576300  0.45426100  0.91982900  1
  O  O35  1  0.94423700  0.45426100  0.41982900  1
  O  O36  1  0.87113100  0.38903800  0.08673300  1
  O  O37  1  0.62886900  0.38903800  0.58673300  1
  O  O38  1  0.12886900  0.61096200  0.91326700  1
  O  O39  1  0.37113100  0.61096200  0.41326700  1
  O  O40  1  0.73438500  0.45153200  0.21579200  1
  O  O41  1  0.76561500  0.45153200  0.71579200  1
  O  O42  1  0.26561500  0.54846800  0.78420800  1
  O  O43  1  0.23438500  0.54846800  0.28420800  1
  O  O44  1  0.33736500  0.36196500  0.24085700  1
  O  O45  1  0.16263500  0.36196500  0.74085700  1
  O  O46  1  0.66263500  0.63803500  0.75914300  1
  O  O47  1  0.83736500  0.63803500  0.25914300  1
