# generated using pymatgen
data_NaCr(SO10)2
_symmetry_space_group_name_H-M   'P 1'
_cell_length_a   11.48702000
_cell_length_b   11.48702000
_cell_length_c   11.48702000
_cell_angle_alpha   90.00000000
_cell_angle_beta   90.00000000
_cell_angle_gamma   90.00000000
_symmetry_Int_Tables_number   1
_chemical_formula_structural   NaCr(SO10)2
_chemical_formula_sum   'Na4 Cr4 S8 O80'
_cell_volume   1515.73099539
_cell_formula_units_Z   4
loop_
 _symmetry_equiv_pos_site_id
 _symmetry_equiv_pos_as_xyz
  1  'x, y, z'
loop_
 _atom_site_type_symbol
 _atom_site_label
 _atom_site_symmetry_multiplicity
 _atom_site_fract_x
 _atom_site_fract_y
 _atom_site_fract_z
 _atom_site_occupancy
  Na  Na0  1  0.50000000  0.00000000  0.00000000  1
  Na  Na1  1  0.50000000  0.50000000  0.50000000  1
  Na  Na2  1  0.00000000  0.00000000  0.50000000  1
  Na  Na3  1  0.00000000  0.50000000  0.00000000  1
  Cr  Cr4  1  0.50000000  0.50000000  0.00000000  1
  Cr  Cr5  1  0.50000000  0.00000000  0.50000000  1
  Cr  Cr6  1  0.00000000  0.50000000  0.50000000  1
  Cr  Cr7  1  0.00000000  0.00000000  0.00000000  1
  S  S8  1  0.19157100  0.80842900  0.30842900  1
  S  S9  1  0.80842900  0.30842900  0.19157100  1
  S  S10  1  0.30842900  0.19157100  0.80842900  1
  S  S11  1  0.69157100  0.69157100  0.69157100  1
  S  S12  1  0.80842900  0.19157100  0.69157100  1
  S  S13  1  0.19157100  0.69157100  0.80842900  1
  S  S14  1  0.69157100  0.80842900  0.19157100  1
  S  S15  1  0.30842900  0.30842900  0.30842900  1
  O  O16  1  0.26441700  0.73558300  0.23558300  1
  O  O17  1  0.73558300  0.23558300  0.26441700  1
  O  O18  1  0.23558300  0.26441700  0.73558300  1
  O  O19  1  0.76441700  0.76441700  0.76441700  1
  O  O20  1  0.73558300  0.26441700  0.76441700  1
  O  O21  1  0.26441700  0.76441700  0.73558300  1
  O  O22  1  0.76441700  0.73558300  0.26441700  1
  O  O23  1  0.23558300  0.23558300  0.23558300  1
  O  O24  1  0.57026900  0.82374500  0.23802000  1
  O  O25  1  0.42973100  0.32374500  0.26198000  1
  O  O26  1  0.92973100  0.17625500  0.73802000  1
  O  O27  1  0.07026900  0.67625500  0.76198000  1
  O  O28  1  0.23802000  0.57026900  0.82374500  1
  O  O29  1  0.26198000  0.42973100  0.32374500  1
  O  O30  1  0.73802000  0.92973100  0.17625500  1
  O  O31  1  0.76198000  0.07026900  0.67625500  1
  O  O32  1  0.82374500  0.23802000  0.57026900  1
  O  O33  1  0.32374500  0.26198000  0.42973100  1
  O  O34  1  0.17625500  0.73802000  0.92973100  1
  O  O35  1  0.67625500  0.76198000  0.07026900  1
  O  O36  1  0.42973100  0.17625500  0.76198000  1
  O  O37  1  0.57026900  0.67625500  0.73802000  1
  O  O38  1  0.07026900  0.82374500  0.26198000  1
  O  O39  1  0.92973100  0.32374500  0.23802000  1
  O  O40  1  0.76198000  0.42973100  0.17625500  1
  O  O41  1  0.73802000  0.57026900  0.67625500  1
  O  O42  1  0.26198000  0.07026900  0.82374500  1
  O  O43  1  0.23802000  0.92973100  0.32374500  1
  O  O44  1  0.17625500  0.76198000  0.42973100  1
  O  O45  1  0.67625500  0.73802000  0.57026900  1
  O  O46  1  0.82374500  0.26198000  0.07026900  1
  O  O47  1  0.32374500  0.23802000  0.92973100  1
  O  O48  1  0.47608600  0.68119800  0.97470500  1
  O  O49  1  0.52391400  0.18119800  0.52529500  1
  O  O50  1  0.02391400  0.31880200  0.47470500  1
  O  O51  1  0.97608600  0.81880200  0.02529500  1
  O  O52  1  0.97470500  0.47608600  0.68119800  1
  O  O53  1  0.52529500  0.52391400  0.18119800  1
  O  O54  1  0.47470500  0.02391400  0.31880200  1
  O  O55  1  0.02529500  0.97608600  0.81880200  1
  O  O56  1  0.68119800  0.97470500  0.47608600  1
  O  O57  1  0.18119800  0.52529500  0.52391400  1
  O  O58  1  0.31880200  0.47470500  0.02391400  1
  O  O59  1  0.81880200  0.02529500  0.97608600  1
  O  O60  1  0.52391400  0.31880200  0.02529500  1
  O  O61  1  0.47608600  0.81880200  0.47470500  1
  O  O62  1  0.97608600  0.68119800  0.52529500  1
  O  O63  1  0.02391400  0.18119800  0.97470500  1
  O  O64  1  0.02529500  0.52391400  0.31880200  1
  O  O65  1  0.47470500  0.47608600  0.81880200  1
  O  O66  1  0.52529500  0.97608600  0.68119800  1
  O  O67  1  0.97470500  0.02391400  0.18119800  1
  O  O68  1  0.31880200  0.02529500  0.52391400  1
  O  O69  1  0.81880200  0.47470500  0.47608600  1
  O  O70  1  0.68119800  0.52529500  0.97608600  1
  O  O71  1  0.18119800  0.97470500  0.02391400  1
  O  O72  1  0.24400700  0.52305600  0.08615200  1
  O  O73  1  0.75599300  0.02305600  0.41384800  1
  O  O74  1  0.25599300  0.47694400  0.58615200  1
  O  O75  1  0.74400700  0.97694400  0.91384800  1
  O  O76  1  0.08615200  0.24400700  0.52305600  1
  O  O77  1  0.41384800  0.75599300  0.02305600  1
  O  O78  1  0.58615200  0.25599300  0.47694400  1
  O  O79  1  0.91384800  0.74400700  0.97694400  1
  O  O80  1  0.52305600  0.08615200  0.24400700  1
  O  O81  1  0.02305600  0.41384800  0.75599300  1
  O  O82  1  0.47694400  0.58615200  0.25599300  1
  O  O83  1  0.97694400  0.91384800  0.74400700  1
  O  O84  1  0.75599300  0.47694400  0.91384800  1
  O  O85  1  0.24400700  0.97694400  0.58615200  1
  O  O86  1  0.74400700  0.52305600  0.41384800  1
  O  O87  1  0.25599300  0.02305600  0.08615200  1
  O  O88  1  0.91384800  0.75599300  0.47694400  1
  O  O89  1  0.58615200  0.24400700  0.97694400  1
  O  O90  1  0.41384800  0.74400700  0.52305600  1
  O  O91  1  0.08615200  0.25599300  0.02305600  1
  O  O92  1  0.47694400  0.91384800  0.75599300  1
  O  O93  1  0.97694400  0.58615200  0.24400700  1
  O  O94  1  0.52305600  0.41384800  0.74400700  1
  O  O95  1  0.02305600  0.08615200  0.25599300  1
