# generated using pymatgen
data_NaZrCu3Se4
_symmetry_space_group_name_H-M   'P 1'
_cell_length_a   6.03513600
_cell_length_b   6.03513600
_cell_length_c   6.03513600
_cell_angle_alpha   90.00000000
_cell_angle_beta   90.00000000
_cell_angle_gamma   90.00000000
_symmetry_Int_Tables_number   1
_chemical_formula_structural   NaZrCu3Se4
_chemical_formula_sum   'Na1 Zr1 Cu3 Se4'
_cell_volume   219.81695307
_cell_formula_units_Z   1
loop_
 _symmetry_equiv_pos_site_id
 _symmetry_equiv_pos_as_xyz
  1  'x, y, z'
loop_
 _atom_site_type_symbol
 _atom_site_label
 _atom_site_symmetry_multiplicity
 _atom_site_fract_x
 _atom_site_fract_y
 _atom_site_fract_z
 _atom_site_occupancy
  Na  Na0  1  0.50000000  0.50000000  0.50000000  1
  Zr  Zr1  1  0.00000000  0.00000000  0.00000000  1
  Cu  Cu2  1  0.00000000  0.50000000  0.00000000  1
  Cu  Cu3  1  0.00000000  0.00000000  0.50000000  1
  Cu  Cu4  1  0.50000000  0.00000000  0.00000000  1
  Se  Se5  1  0.23967500  0.23967500  0.23967500  1
  Se  Se6  1  0.76032500  0.76032500  0.23967500  1
  Se  Se7  1  0.23967500  0.76032500  0.76032500  1
  Se  Se8  1  0.76032500  0.23967500  0.76032500  1
