# generated using pymatgen
data_MnC4Br3N
_symmetry_space_group_name_H-M   'P 1'
_cell_length_a   6.23920500
_cell_length_b   8.40656800
_cell_length_c   8.69173099
_cell_angle_alpha   65.55301029
_cell_angle_beta   90.00000000
_cell_angle_gamma   90.00000000
_symmetry_Int_Tables_number   1
_chemical_formula_structural   MnC4Br3N
_chemical_formula_sum   'Mn2 C8 Br6 N2'
_cell_volume   415.01143393
_cell_formula_units_Z   2
loop_
 _symmetry_equiv_pos_site_id
 _symmetry_equiv_pos_as_xyz
  1  'x, y, z'
loop_
 _atom_site_type_symbol
 _atom_site_label
 _atom_site_symmetry_multiplicity
 _atom_site_fract_x
 _atom_site_fract_y
 _atom_site_fract_z
 _atom_site_occupancy
  Mn  Mn0  1  0.00319500  0.00025700  0.99988600  1
  Mn  Mn1  1  0.50319500  0.99974300  0.00011400  1
  C  C2  1  0.75890000  0.18571300  0.39519700  1
  C  C3  1  0.78489600  0.44966200  0.16802500  1
  C  C4  1  0.76926500  0.33820400  0.46149200  1
  C  C5  1  0.25890000  0.81428700  0.60480300  1
  C  C6  1  0.28489600  0.55033800  0.83197500  1
  C  C7  1  0.26926500  0.66179600  0.53850800  1
  C  C8  1  0.90286500  0.34564800  0.31639100  1
  C  C9  1  0.40286500  0.65435200  0.68360900  1
  Br  Br10  1  0.25378700  0.16447300  0.75275400  1
  Br  Br11  1  0.25333200  0.09906700  0.17064900  1
  Br  Br12  1  0.25367300  0.73454700  0.06905100  1
  Br  Br13  1  0.75378700  0.83552700  0.24724600  1
  Br  Br14  1  0.75333200  0.90093300  0.82935100  1
  Br  Br15  1  0.75367300  0.26545300  0.93094900  1
  N  N16  1  0.63588800  0.35940800  0.30156200  1
  N  N17  1  0.13588800  0.64059200  0.69843800  1
