# generated using pymatgen
data_NaV3(SO7)2
_symmetry_space_group_name_H-M   'P 1'
_cell_length_a   7.17039171
_cell_length_b   7.17039171
_cell_length_c   7.17039187
_cell_angle_alpha   58.97683947
_cell_angle_beta   58.97683947
_cell_angle_gamma   58.97683227
_symmetry_Int_Tables_number   1
_chemical_formula_structural   NaV3(SO7)2
_chemical_formula_sum   'Na1 V3 S2 O14'
_cell_volume   254.59869674
_cell_formula_units_Z   1
loop_
 _symmetry_equiv_pos_site_id
 _symmetry_equiv_pos_as_xyz
  1  'x, y, z'
loop_
 _atom_site_type_symbol
 _atom_site_label
 _atom_site_symmetry_multiplicity
 _atom_site_fract_x
 _atom_site_fract_y
 _atom_site_fract_z
 _atom_site_occupancy
  Na  Na0  1  0.00000000  0.00000000  0.00000000  1
  V  V1  1  0.50000000  0.95836100  0.04163900  1
  V  V2  1  0.04163900  0.50000000  0.95836100  1
  V  V3  1  0.95836100  0.04163900  0.50000000  1
  S  S4  1  0.69557300  0.69557300  0.69557300  1
  S  S5  1  0.30442700  0.30442700  0.30442700  1
  O  O6  1  0.61501100  0.61501100  0.61501100  1
  O  O7  1  0.38498900  0.38498900  0.38498900  1
  O  O8  1  0.49510400  0.84022500  0.84527400  1
  O  O9  1  0.84527400  0.49510400  0.84022500  1
  O  O10  1  0.84022500  0.84527400  0.49510400  1
  O  O11  1  0.50489600  0.15472600  0.15977500  1
  O  O12  1  0.15977500  0.50489600  0.15472600  1
  O  O13  1  0.15472600  0.15977500  0.50489600  1
  O  O14  1  0.73320200  0.73084900  0.10528100  1
  O  O15  1  0.10528100  0.73320200  0.73084900  1
  O  O16  1  0.73084900  0.10528100  0.73320200  1
  O  O17  1  0.26915100  0.26679800  0.89471900  1
  O  O18  1  0.89471900  0.26915100  0.26679800  1
  O  O19  1  0.26679800  0.89471900  0.26915100  1
