# generated using pymatgen
data_NiB20H24(C4N)2
_symmetry_space_group_name_H-M   'P 1'
_cell_length_a   11.94356600
_cell_length_b   7.18750700
_cell_length_c   15.83171905
_cell_angle_alpha   85.90008872
_cell_angle_beta   90.00000000
_cell_angle_gamma   90.00000000
_symmetry_Int_Tables_number   1
_chemical_formula_structural   NiB20H24(C4N)2
_chemical_formula_sum   'Ni2 B40 H48 C16 N4'
_cell_volume   1355.58744693
_cell_formula_units_Z   2
loop_
 _symmetry_equiv_pos_site_id
 _symmetry_equiv_pos_as_xyz
  1  'x, y, z'
loop_
 _atom_site_type_symbol
 _atom_site_label
 _atom_site_symmetry_multiplicity
 _atom_site_fract_x
 _atom_site_fract_y
 _atom_site_fract_z
 _atom_site_occupancy
  Ni  Ni0  1  0.50000000  0.00000000  0.50000000  1
  Ni  Ni1  1  0.00000000  0.00000000  0.00000000  1
  B  B2  1  0.25271200  0.96182300  0.60193400  1
  B  B3  1  0.75271200  0.03817700  0.89806600  1
  B  B4  1  0.74728800  0.03817700  0.39806600  1
  B  B5  1  0.24728800  0.96182300  0.10193400  1
  B  B6  1  0.28171900  0.20248800  0.59070000  1
  B  B7  1  0.78171900  0.79751200  0.90930000  1
  B  B8  1  0.71828100  0.79751200  0.40930000  1
  B  B9  1  0.21828100  0.20248800  0.09070000  1
  B  B10  1  0.19296400  0.10303100  0.51676800  1
  B  B11  1  0.69296400  0.89696900  0.98323200  1
  B  B12  1  0.80703600  0.89696900  0.48323200  1
  B  B13  1  0.30703600  0.10303100  0.01676800  1
  B  B14  1  0.22856900  0.86826100  0.50350700  1
  B  B15  1  0.72856900  0.13173900  0.99649300  1
  B  B16  1  0.77143100  0.13173900  0.49649300  1
  B  B17  1  0.27143100  0.86826100  0.00350700  1
  B  B18  1  0.39372500  0.03775400  0.60809300  1
  B  B19  1  0.89372500  0.96224600  0.89190700  1
  B  B20  1  0.60627500  0.96224600  0.39190700  1
  B  B21  1  0.10627500  0.03775400  0.10809300  1
  B  B22  1  0.36169500  0.83668500  0.55444200  1
  B  B23  1  0.86169500  0.16331500  0.94555800  1
  B  B24  1  0.63830500  0.16331500  0.44555800  1
  B  B25  1  0.13830500  0.83668500  0.05444200  1
  B  B26  1  0.41021300  0.25473300  0.54583600  1
  B  B27  1  0.91021300  0.74526700  0.95416400  1
  B  B28  1  0.58978700  0.74526700  0.45416400  1
  B  B29  1  0.08978700  0.25473300  0.04583600  1
  B  B30  1  0.28946900  0.27316000  0.47885000  1
  B  B31  1  0.78946900  0.72684000  0.02115000  1
  B  B32  1  0.71053100  0.72684000  0.52115000  1
  B  B33  1  0.21053100  0.27316000  0.97885000  1
  B  B34  1  0.25204400  0.05065600  0.42006000  1
  B  B35  1  0.75204400  0.94934400  0.07994000  1
  B  B36  1  0.74795600  0.94934400  0.57994000  1
  B  B37  1  0.24795600  0.05065600  0.92006000  1
  B  B38  1  0.34432200  0.85790400  0.43973200  1
  B  B39  1  0.84432200  0.14209600  0.06026800  1
  B  B40  1  0.65567800  0.14209600  0.56026800  1
  B  B41  1  0.15567800  0.85790400  0.93973200  1
  H  H42  1  0.20310200  0.89918400  0.66306500  1
  H  H43  1  0.70310200  0.10081600  0.83693500  1
  H  H44  1  0.79689800  0.10081600  0.33693500  1
  H  H45  1  0.29689800  0.89918400  0.16306500  1
  H  H46  1  0.24884100  0.30599300  0.64129400  1
  H  H47  1  0.74884100  0.69400700  0.85870600  1
  H  H48  1  0.75115900  0.69400700  0.35870600  1
  H  H49  1  0.25115900  0.30599300  0.14129400  1
  H  H50  1  0.09748800  0.15257300  0.50804700  1
  H  H51  1  0.59748800  0.84742700  0.99195300  1
  H  H52  1  0.90251200  0.84742700  0.49195300  1
  H  H53  1  0.40251200  0.15257300  0.00804700  1
  H  H54  1  0.16131000  0.74609700  0.49697700  1
  H  H55  1  0.66131000  0.25390300  0.00302300  1
  H  H56  1  0.83869000  0.25390300  0.50302300  1
  H  H57  1  0.33869000  0.74609700  0.99697700  1
  H  H58  1  0.44989500  0.02427600  0.67136200  1
  H  H59  1  0.94989500  0.97572400  0.82863800  1
  H  H60  1  0.55010500  0.97572400  0.32863800  1
  H  H61  1  0.05010500  0.02427600  0.17136200  1
  H  H62  1  0.47337200  0.37630300  0.56104500  1
  H  H63  1  0.97337200  0.62369700  0.93895500  1
  H  H64  1  0.52662800  0.62369700  0.43895500  1
  H  H65  1  0.02662800  0.37630300  0.06104500  1
  H  H66  1  0.26375600  0.41684700  0.44115100  1
  H  H67  1  0.76375600  0.58315300  0.05884900  1
  H  H68  1  0.73624400  0.58315300  0.55884900  1
  H  H69  1  0.23624400  0.41684700  0.94115100  1
  H  H70  1  0.20554800  0.07885900  0.35348300  1
  H  H71  1  0.70554800  0.92114100  0.14651700  1
  H  H72  1  0.79445200  0.92114100  0.64651700  1
  H  H73  1  0.29445200  0.07885900  0.85348300  1
  H  H74  1  0.36936500  0.74475400  0.39177200  1
  H  H75  1  0.86936500  0.25524600  0.10822800  1
  H  H76  1  0.63063500  0.25524600  0.60822800  1
  H  H77  1  0.13063500  0.74475400  0.89177200  1
  H  H78  1  0.39805000  0.68750000  0.58117200  1
  H  H79  1  0.89805000  0.31250000  0.91882800  1
  H  H80  1  0.60195000  0.31250000  0.41882800  1
  H  H81  1  0.10195000  0.68750000  0.08117200  1
  H  H82  1  0.40032500  0.26978700  0.46206500  1
  H  H83  1  0.90032500  0.73021300  0.03793500  1
  H  H84  1  0.59967500  0.73021300  0.53793500  1
  H  H85  1  0.09967500  0.26978700  0.96206500  1
  H  H86  1  0.35765300  0.02128500  0.39553800  1
  H  H87  1  0.85765300  0.97871500  0.10446200  1
  H  H88  1  0.64234700  0.97871500  0.60446200  1
  H  H89  1  0.14234700  0.02128500  0.89553800  1
  C  C90  1  0.50348200  0.54123200  0.86142900  1
  C  C91  1  0.00348200  0.45876800  0.63857100  1
  C  C92  1  0.49651800  0.45876800  0.13857100  1
  C  C93  1  0.99651800  0.54123200  0.36142900  1
  C  C94  1  0.44346600  0.68751300  0.80646700  1
  C  C95  1  0.94346600  0.31248700  0.69353300  1
  C  C96  1  0.55653400  0.31248700  0.19353300  1
  C  C97  1  0.05653400  0.68751300  0.30646700  1
  C  C98  1  0.40241300  0.50816600  0.77532200  1
  C  C99  1  0.90241300  0.49183400  0.72467800  1
  C  C100  1  0.59758700  0.49183400  0.22467800  1
  C  C101  1  0.09758700  0.50816600  0.27532200  1
  C  C102  1  0.53694200  0.62499000  0.75194000  1
  C  C103  1  0.03694200  0.37501000  0.74806000  1
  C  C104  1  0.46305800  0.37501000  0.24806000  1
  C  C105  1  0.96305800  0.62499000  0.25194000  1
  N  N106  1  0.51716100  0.42946600  0.78685800  1
  N  N107  1  0.01716100  0.57053400  0.71314200  1
  N  N108  1  0.48283900  0.57053400  0.21314200  1
  N  N109  1  0.98283900  0.42946600  0.28685800  1
