# generated using pymatgen
data_MnSiO3
_symmetry_space_group_name_H-M   'P 1'
_cell_length_a   6.18976500
_cell_length_b   9.09393839
_cell_length_c   11.60193766
_cell_angle_alpha   69.90164721
_cell_angle_beta   86.38180366
_cell_angle_gamma   84.18780114
_symmetry_Int_Tables_number   1
_chemical_formula_structural   MnSiO3
_chemical_formula_sum   'Mn10 Si10 O30'
_cell_volume   609.86344749
_cell_formula_units_Z   10
loop_
 _symmetry_equiv_pos_site_id
 _symmetry_equiv_pos_as_xyz
  1  'x, y, z'
loop_
 _atom_site_type_symbol
 _atom_site_label
 _atom_site_symmetry_multiplicity
 _atom_site_fract_x
 _atom_site_fract_y
 _atom_site_fract_z
 _atom_site_occupancy
  Mn  Mn0  1  0.07999200  0.11708300  0.70226700  1
  Mn  Mn1  1  0.82576600  0.77876000  0.89762700  1
  Mn  Mn2  1  0.17423400  0.22124000  0.10237300  1
  Mn  Mn3  1  0.20390400  0.12678900  0.39757900  1
  Mn  Mn4  1  0.25455900  0.44395900  0.44326400  1
  Mn  Mn5  1  0.79609600  0.87321100  0.60242100  1
  Mn  Mn6  1  0.74544100  0.55604100  0.55673600  1
  Mn  Mn7  1  0.00000000  0.00000000  0.00000000  1
  Mn  Mn8  1  0.92000800  0.88291700  0.29773300  1
  Mn  Mn9  1  0.50000000  0.00000000  0.00000000  1
  Si  Si10  1  0.78297600  0.39699600  0.94088700  1
  Si  Si11  1  0.48091700  0.65042500  0.17879400  1
  Si  Si12  1  0.60988900  0.22477400  0.58069100  1
  Si  Si13  1  0.39011100  0.77522600  0.41930900  1
  Si  Si14  1  0.83618800  0.46760900  0.34585200  1
  Si  Si15  1  0.21702400  0.60300400  0.05911300  1
  Si  Si16  1  0.64627700  0.17062000  0.18015000  1
  Si  Si17  1  0.16381200  0.53239100  0.65414800  1
  Si  Si18  1  0.35372300  0.82938000  0.81985000  1
  Si  Si19  1  0.51908300  0.34957500  0.82120600  1
  O  O20  1  0.82800500  0.00309800  0.87131000  1
  O  O21  1  0.69550500  0.02586400  0.11818400  1
  O  O22  1  0.58862500  0.78526600  0.06463800  1
  O  O23  1  0.08297200  0.38042000  0.62724500  1
  O  O24  1  0.05099900  0.34697700  0.36186600  1
  O  O25  1  0.32041300  0.48953700  0.76968200  1
  O  O26  1  0.13793100  0.43006300  0.09903800  1
  O  O27  1  0.16161900  0.87522100  0.72195200  1
  O  O28  1  0.30449500  0.97413600  0.88181600  1
  O  O29  1  0.97961800  0.24982100  0.96400100  1
  O  O30  1  0.37905800  0.18100200  0.54577100  1
  O  O31  1  0.64717300  0.34638700  0.07443200  1
  O  O32  1  0.02038200  0.75017900  0.03599900  1
  O  O33  1  0.59442400  0.29746500  0.69617700  1
  O  O34  1  0.67958700  0.51046300  0.23031800  1
  O  O35  1  0.35282700  0.65361300  0.92556800  1
  O  O36  1  0.82224600  0.10352000  0.58841800  1
  O  O37  1  0.62094200  0.81899800  0.45422900  1
  O  O38  1  0.83838100  0.12477900  0.27804800  1
  O  O39  1  0.41137500  0.21473400  0.93536200  1
  O  O40  1  0.91702800  0.61958000  0.37275500  1
  O  O41  1  0.17199500  0.99690200  0.12869000  1
  O  O42  1  0.17775400  0.89648000  0.41158200  1
  O  O43  1  0.86206900  0.56993700  0.90096200  1
  O  O44  1  0.40557600  0.70253500  0.30382300  1
  O  O45  1  0.34443700  0.60537700  0.53496300  1
  O  O46  1  0.94900100  0.65302300  0.63813400  1
  O  O47  1  0.65556300  0.39462300  0.46503700  1
  O  O48  1  0.60696400  0.83488200  0.76526300  1
  O  O49  1  0.39303600  0.16511800  0.23473700  1
