# generated using pymatgen
data_Ni(SO6)2
_symmetry_space_group_name_H-M   'P 1'
_cell_length_a   6.28922300
_cell_length_b   6.99202226
_cell_length_c   7.91963541
_cell_angle_alpha   106.73957309
_cell_angle_beta   109.42015790
_cell_angle_gamma   88.75664860
_symmetry_Int_Tables_number   1
_chemical_formula_structural   Ni(SO6)2
_chemical_formula_sum   'Ni1 S2 O12'
_cell_volume   313.46923034
_cell_formula_units_Z   1
loop_
 _symmetry_equiv_pos_site_id
 _symmetry_equiv_pos_as_xyz
  1  'x, y, z'
loop_
 _atom_site_type_symbol
 _atom_site_label
 _atom_site_symmetry_multiplicity
 _atom_site_fract_x
 _atom_site_fract_y
 _atom_site_fract_z
 _atom_site_occupancy
  Ni  Ni0  1  0.00000000  0.00000000  0.00000000  1
  S  S1  1  0.48494000  0.42589400  0.69592200  1
  S  S2  1  0.51506000  0.57410600  0.30407800  1
  O  O3  1  0.30977700  0.26490400  0.59911500  1
  O  O4  1  0.69022300  0.73509600  0.40088500  1
  O  O5  1  0.43757500  0.61689800  0.79934900  1
  O  O6  1  0.56242500  0.38310200  0.20065100  1
  O  O7  1  0.70809600  0.39636600  0.68529000  1
  O  O8  1  0.29190400  0.60363400  0.31471000  1
  O  O9  1  0.02045500  0.93737600  0.22549100  1
  O  O10  1  0.97954500  0.06262400  0.77450900  1
  O  O11  1  0.94260800  0.24701700  0.08360900  1
  O  O12  1  0.05739200  0.75298300  0.91639100  1
  O  O13  1  0.80806700  0.93433900  0.12537400  1
  O  O14  1  0.19193300  0.06566100  0.87462600  1
