# generated using pymatgen
data_NaZnO3
_symmetry_space_group_name_H-M   'P 1'
_cell_length_a   12.78138500
_cell_length_b   12.78138500
_cell_length_c   3.59029000
_cell_angle_alpha   90.00000000
_cell_angle_beta   90.00000000
_cell_angle_gamma   90.00000000
_symmetry_Int_Tables_number   1
_chemical_formula_structural   NaZnO3
_chemical_formula_sum   'Na8 Zn8 O24'
_cell_volume   586.52342654
_cell_formula_units_Z   8
loop_
 _symmetry_equiv_pos_site_id
 _symmetry_equiv_pos_as_xyz
  1  'x, y, z'
loop_
 _atom_site_type_symbol
 _atom_site_label
 _atom_site_symmetry_multiplicity
 _atom_site_fract_x
 _atom_site_fract_y
 _atom_site_fract_z
 _atom_site_occupancy
  Na  Na0  1  0.14287800  0.13945000  0.50000000  1
  Na  Na1  1  0.86055000  0.14287800  0.00000000  1
  Na  Na2  1  0.64287800  0.36055000  0.50000000  1
  Na  Na3  1  0.63945000  0.64287800  0.00000000  1
  Na  Na4  1  0.85712200  0.86055000  0.50000000  1
  Na  Na5  1  0.13945000  0.85712200  0.00000000  1
  Na  Na6  1  0.35712200  0.63945000  0.50000000  1
  Na  Na7  1  0.36055000  0.35712200  0.00000000  1
  Zn  Zn8  1  0.47202300  0.17273600  0.50000000  1
  Zn  Zn9  1  0.82726400  0.47202300  0.00000000  1
  Zn  Zn10  1  0.97202300  0.32726400  0.50000000  1
  Zn  Zn11  1  0.67273600  0.97202300  0.00000000  1
  Zn  Zn12  1  0.52797700  0.82726400  0.50000000  1
  Zn  Zn13  1  0.17273600  0.52797700  0.00000000  1
  Zn  Zn14  1  0.02797700  0.67273600  0.50000000  1
  Zn  Zn15  1  0.32726400  0.02797700  0.00000000  1
  O  O16  1  0.34725400  0.06945100  0.50000000  1
  O  O17  1  0.93054900  0.34725400  0.00000000  1
  O  O18  1  0.84725400  0.43054900  0.50000000  1
  O  O19  1  0.56945100  0.84725400  0.00000000  1
  O  O20  1  0.65274600  0.93054900  0.50000000  1
  O  O21  1  0.06945100  0.65274600  0.00000000  1
  O  O22  1  0.15274600  0.56945100  0.50000000  1
  O  O23  1  0.43054900  0.15274600  0.00000000  1
  O  O24  1  0.46751300  0.32374100  0.50000000  1
  O  O25  1  0.67625900  0.46751300  0.00000000  1
  O  O26  1  0.96751300  0.17625900  0.50000000  1
  O  O27  1  0.82374100  0.96751300  0.00000000  1
  O  O28  1  0.53248700  0.67625900  0.50000000  1
  O  O29  1  0.32374100  0.53248700  0.00000000  1
  O  O30  1  0.03248700  0.82374100  0.50000000  1
  O  O31  1  0.17625900  0.03248700  0.00000000  1
  O  O32  1  0.13460900  0.33795000  0.50000000  1
  O  O33  1  0.66205000  0.13460900  0.00000000  1
  O  O34  1  0.63460900  0.16205000  0.50000000  1
  O  O35  1  0.83795000  0.63460900  0.00000000  1
  O  O36  1  0.86539100  0.66205000  0.50000000  1
  O  O37  1  0.33795000  0.86539100  0.00000000  1
  O  O38  1  0.36539100  0.83795000  0.50000000  1
  O  O39  1  0.16205000  0.36539100  0.00000000  1
