# generated using pymatgen
data_MnH4(CO3)2
_symmetry_space_group_name_H-M   'P 1'
_cell_length_a   6.23223024
_cell_length_b   6.23223024
_cell_length_c   9.30703829
_cell_angle_alpha   63.00109093
_cell_angle_beta   63.00109093
_cell_angle_gamma   54.75179134
_symmetry_Int_Tables_number   1
_chemical_formula_structural   MnH4(CO3)2
_chemical_formula_sum   'Mn2 H8 C4 O12'
_cell_volume   253.72204829
_cell_formula_units_Z   2
loop_
 _symmetry_equiv_pos_site_id
 _symmetry_equiv_pos_as_xyz
  1  'x, y, z'
loop_
 _atom_site_type_symbol
 _atom_site_label
 _atom_site_symmetry_multiplicity
 _atom_site_fract_x
 _atom_site_fract_y
 _atom_site_fract_z
 _atom_site_occupancy
  Mn  Mn0  1  0.18880300  0.81119700  0.75000000  1
  Mn  Mn1  1  0.81119700  0.18880300  0.25000000  1
  H  H2  1  0.30595200  0.05290800  0.86295700  1
  H  H3  1  0.94709200  0.69404800  0.63704300  1
  H  H4  1  0.69404800  0.94709200  0.13704300  1
  H  H5  1  0.05290800  0.30595200  0.36295700  1
  H  H6  1  0.33832600  0.19899000  0.66777500  1
  H  H7  1  0.80101000  0.66167400  0.83222500  1
  H  H8  1  0.66167400  0.80101000  0.33222500  1
  H  H9  1  0.19899000  0.33832600  0.16777500  1
  C  C10  1  0.63654700  0.26379600  0.84715400  1
  C  C11  1  0.73620400  0.36345300  0.65284600  1
  C  C12  1  0.36345300  0.73620400  0.15284600  1
  C  C13  1  0.26379600  0.63654700  0.34715400  1
  O  O14  1  0.40186100  0.42138200  0.91842400  1
  O  O15  1  0.57861800  0.59813900  0.58157600  1
  O  O16  1  0.59813900  0.57861800  0.08157600  1
  O  O17  1  0.42138200  0.40186100  0.41842400  1
  O  O18  1  0.79905200  0.03120200  0.91932700  1
  O  O19  1  0.96879800  0.20094800  0.58067300  1
  O  O20  1  0.20094800  0.96879800  0.08067300  1
  O  O21  1  0.03120200  0.79905200  0.41932700  1
  O  O22  1  0.97820600  0.62222600  0.74941200  1
  O  O23  1  0.37777400  0.02179400  0.75058800  1
  O  O24  1  0.02179400  0.37777400  0.25058800  1
  O  O25  1  0.62222600  0.97820600  0.24941200  1
