# generated using pymatgen
data_MnSiO3
_symmetry_space_group_name_H-M   'P 1'
_cell_length_a   6.56376527
_cell_length_b   8.63823849
_cell_length_c   13.38316868
_cell_angle_alpha   107.56873954
_cell_angle_beta   103.52906387
_cell_angle_gamma   99.01218768
_symmetry_Int_Tables_number   1
_chemical_formula_structural   MnSiO3
_chemical_formula_sum   'Mn10 Si10 O30'
_cell_volume   681.88045658
_cell_formula_units_Z   10
loop_
 _symmetry_equiv_pos_site_id
 _symmetry_equiv_pos_as_xyz
  1  'x, y, z'
loop_
 _atom_site_type_symbol
 _atom_site_label
 _atom_site_symmetry_multiplicity
 _atom_site_fract_x
 _atom_site_fract_y
 _atom_site_fract_z
 _atom_site_occupancy
  Mn  Mn0  1  0.17902000  0.14914700  0.26017900  1
  Mn  Mn1  1  0.89819000  0.32446800  0.11207200  1
  Mn  Mn2  1  0.10181000  0.67553200  0.88792800  1
  Mn  Mn3  1  0.18153100  0.42135200  0.56555600  1
  Mn  Mn4  1  0.38403200  0.16789400  0.64665400  1
  Mn  Mn5  1  0.81846900  0.57864800  0.43444400  1
  Mn  Mn6  1  0.61596800  0.83210600  0.35334600  1
  Mn  Mn7  1  0.00000000  0.00000000  0.00000000  1
  Mn  Mn8  1  0.82098000  0.85085300  0.73982100  1
  Mn  Mn9  1  0.50000000  0.00000000  0.00000000  1
  Si  Si10  1  0.80686400  0.65109700  0.05447100  1
  Si  Si11  1  0.50701300  0.30508700  0.89934500  1
  Si  Si12  1  0.62976500  0.26889300  0.50050500  1
  Si  Si13  1  0.37023500  0.73110700  0.49949500  1
  Si  Si14  1  0.85507100  0.14006500  0.60796800  1
  Si  Si15  1  0.19313600  0.34890300  0.94552900  1
  Si  Si16  1  0.61449200  0.62257300  0.81383200  1
  Si  Si17  1  0.14492900  0.85993500  0.39203200  1
  Si  Si18  1  0.38550800  0.37742700  0.18616800  1
  Si  Si19  1  0.49298700  0.69491300  0.10065500  1
  O  O20  1  0.85644600  0.09404800  0.10623200  1
  O  O21  1  0.63735200  0.82710800  0.86455600  1
  O  O22  1  0.61888600  0.26057600  0.00715000  1
  O  O23  1  0.12492600  0.97358600  0.32034500  1
  O  O24  1  0.09055700  0.22157600  0.60194900  1
  O  O25  1  0.48850900  0.83411700  0.20782600  1
  O  O26  1  0.06271900  0.45272500  0.88430100  1
  O  O27  1  0.16695700  0.37801500  0.22907800  1
  O  O28  1  0.36264800  0.17289200  0.13544400  1
  O  O29  1  0.96678600  0.78896600  0.02913600  1
  O  O30  1  0.39030500  0.29052700  0.45918200  1
  O  O31  1  0.64761100  0.51555000  0.91295600  1
  O  O32  1  0.03321400  0.21103400  0.97086400  1
  O  O33  1  0.69224300  0.07511500  0.47134100  1
  O  O34  1  0.51149100  0.16588400  0.79217400  1
  O  O35  1  0.35238900  0.48445000  0.08704400  1
  O  O36  1  0.83013100  0.38635000  0.48265300  1
  O  O37  1  0.60969500  0.70947300  0.54081800  1
  O  O38  1  0.83304300  0.62198500  0.77092200  1
  O  O39  1  0.38111400  0.73942400  0.99285000  1
  O  O40  1  0.87507400  0.02641400  0.67965500  1
  O  O41  1  0.14355400  0.90595200  0.89376800  1
  O  O42  1  0.16986900  0.61365000  0.51734700  1
  O  O43  1  0.93728100  0.54727500  0.11569900  1
  O  O44  1  0.30775700  0.92488500  0.52865900  1
  O  O45  1  0.29849300  0.71911800  0.36587200  1
  O  O46  1  0.90944300  0.77842400  0.39805100  1
  O  O47  1  0.70150700  0.28088200  0.63412800  1
  O  O48  1  0.60436600  0.48806900  0.28071900  1
  O  O49  1  0.39563400  0.51193100  0.71928100  1
