# generated using pymatgen
data_NaAsO6
_symmetry_space_group_name_H-M   'P 1'
_cell_length_a   4.61618600
_cell_length_b   6.61402700
_cell_length_c   8.72938431
_cell_angle_alpha   74.93181338
_cell_angle_beta   90.00000000
_cell_angle_gamma   90.00000000
_symmetry_Int_Tables_number   1
_chemical_formula_structural   NaAsO6
_chemical_formula_sum   'Na2 As2 O12'
_cell_volume   257.35809722
_cell_formula_units_Z   2
loop_
 _symmetry_equiv_pos_site_id
 _symmetry_equiv_pos_as_xyz
  1  'x, y, z'
loop_
 _atom_site_type_symbol
 _atom_site_label
 _atom_site_symmetry_multiplicity
 _atom_site_fract_x
 _atom_site_fract_y
 _atom_site_fract_z
 _atom_site_occupancy
  Na  Na0  1  0.95019100  0.25416500  0.98617100  1
  Na  Na1  1  0.45019100  0.74583500  0.01382900  1
  As  As2  1  0.60906600  0.12946600  0.56025900  1
  As  As3  1  0.10906600  0.87053400  0.43974100  1
  O  O4  1  0.59665300  0.97710000  0.77079300  1
  O  O5  1  0.09665300  0.02290000  0.22920700  1
  O  O6  1  0.73055500  0.92203400  0.46742100  1
  O  O7  1  0.23055500  0.07796600  0.53257900  1
  O  O8  1  0.95020200  0.76494800  0.94555900  1
  O  O9  1  0.45020200  0.23505200  0.05444100  1
  O  O10  1  0.92326000  0.95887000  0.85095200  1
  O  O11  1  0.42326000  0.04113000  0.14904800  1
  O  O12  1  0.06690400  0.48532700  0.26042400  1
  O  O13  1  0.56690400  0.51467300  0.73957600  1
  O  O14  1  0.83917100  0.51800200  0.73655200  1
  O  O15  1  0.33917100  0.48199800  0.26344800  1
