# generated using pymatgen
data_Na2SeO5
_symmetry_space_group_name_H-M   'P 1'
_cell_length_a   6.26598683
_cell_length_b   6.26598683
_cell_length_c   7.88361400
_cell_angle_alpha   90.00000000
_cell_angle_beta   90.00000000
_cell_angle_gamma   119.27082428
_symmetry_Int_Tables_number   1
_chemical_formula_structural   Na2SeO5
_chemical_formula_sum   'Na4 Se2 O10'
_cell_volume   270.00967145
_cell_formula_units_Z   2
loop_
 _symmetry_equiv_pos_site_id
 _symmetry_equiv_pos_as_xyz
  1  'x, y, z'
loop_
 _atom_site_type_symbol
 _atom_site_label
 _atom_site_symmetry_multiplicity
 _atom_site_fract_x
 _atom_site_fract_y
 _atom_site_fract_z
 _atom_site_occupancy
  Na  Na0  1  0.00000000  0.00000000  0.50000000  1
  Na  Na1  1  0.00000000  0.00000000  0.00000000  1
  Na  Na2  1  0.34795600  0.65204400  0.75000000  1
  Na  Na3  1  0.65204400  0.34795600  0.25000000  1
  Se  Se4  1  0.77744900  0.22255100  0.75000000  1
  Se  Se5  1  0.22255100  0.77744900  0.25000000  1
  O  O6  1  0.06782500  0.93217500  0.25000000  1
  O  O7  1  0.93217500  0.06782500  0.75000000  1
  O  O8  1  0.57524200  0.96823800  0.94523900  1
  O  O9  1  0.96823800  0.57524200  0.05476100  1
  O  O10  1  0.57524200  0.96823800  0.55476100  1
  O  O11  1  0.96823800  0.57524200  0.44523900  1
  O  O12  1  0.42475800  0.03176200  0.05476100  1
  O  O13  1  0.03176200  0.42475800  0.94523900  1
  O  O14  1  0.42475800  0.03176200  0.44523900  1
  O  O15  1  0.03176200  0.42475800  0.55476100  1
