# generated using pymatgen
data_Na2SnO6
_symmetry_space_group_name_H-M   'P 1'
_cell_length_a   5.85006487
_cell_length_b   5.85006487
_cell_length_c   7.45254275
_cell_angle_alpha   63.88326006
_cell_angle_beta   63.88326006
_cell_angle_gamma   30.77495906
_symmetry_Int_Tables_number   1
_chemical_formula_structural   Na2SnO6
_chemical_formula_sum   'Na2 Sn1 O6'
_cell_volume   116.10518111
_cell_formula_units_Z   1
loop_
 _symmetry_equiv_pos_site_id
 _symmetry_equiv_pos_as_xyz
  1  'x, y, z'
loop_
 _atom_site_type_symbol
 _atom_site_label
 _atom_site_symmetry_multiplicity
 _atom_site_fract_x
 _atom_site_fract_y
 _atom_site_fract_z
 _atom_site_occupancy
  Na  Na0  1  0.67498100  0.67498100  0.25715200  1
  Na  Na1  1  0.32501900  0.32501900  0.74284800  1
  Sn  Sn2  1  0.00000000  0.00000000  0.00000000  1
  O  O3  1  0.63635900  0.63635900  0.94468900  1
  O  O4  1  0.01824300  0.01824300  0.69021800  1
  O  O5  1  0.14294400  0.14294400  0.53706300  1
  O  O6  1  0.36364100  0.36364100  0.05531100  1
  O  O7  1  0.98175700  0.98175700  0.30978200  1
  O  O8  1  0.85705600  0.85705600  0.46293700  1
