# generated using pymatgen
data_MnZn2SiO6
_symmetry_space_group_name_H-M   'P 1'
_cell_length_a   5.21982400
_cell_length_b   8.00120800
_cell_length_c   11.52788266
_cell_angle_alpha   81.33501360
_cell_angle_beta   90.00000000
_cell_angle_gamma   90.00000000
_symmetry_Int_Tables_number   1
_chemical_formula_structural   MnZn2SiO6
_chemical_formula_sum   'Mn4 Zn8 Si4 O24'
_cell_volume   475.96551074
_cell_formula_units_Z   4
loop_
 _symmetry_equiv_pos_site_id
 _symmetry_equiv_pos_as_xyz
  1  'x, y, z'
loop_
 _atom_site_type_symbol
 _atom_site_label
 _atom_site_symmetry_multiplicity
 _atom_site_fract_x
 _atom_site_fract_y
 _atom_site_fract_z
 _atom_site_occupancy
  Mn  Mn0  1  0.24309900  0.06377700  0.95976700  1
  Mn  Mn1  1  0.74309900  0.43622300  0.04023300  1
  Mn  Mn2  1  0.75690100  0.93622300  0.04023300  1
  Mn  Mn3  1  0.25690100  0.56377700  0.95976700  1
  Zn  Zn4  1  0.91321000  0.36566700  0.77194600  1
  Zn  Zn5  1  0.41321000  0.13433300  0.22805400  1
  Zn  Zn6  1  0.08679000  0.63433300  0.22805400  1
  Zn  Zn7  1  0.58679000  0.86566700  0.77194600  1
  Zn  Zn8  1  0.57789900  0.22199600  0.58007100  1
  Zn  Zn9  1  0.07789900  0.27800400  0.41992900  1
  Zn  Zn10  1  0.42210100  0.77800400  0.41992900  1
  Zn  Zn11  1  0.92210100  0.72199600  0.58007100  1
  Si  Si12  1  0.09212300  0.05120300  0.68259300  1
  Si  Si13  1  0.59212300  0.44879700  0.31740700  1
  Si  Si14  1  0.90787700  0.94879700  0.31740700  1
  Si  Si15  1  0.40787700  0.55120300  0.68259300  1
  O  O16  1  0.09250700  0.14544800  0.80164200  1
  O  O17  1  0.59250700  0.35455200  0.19835800  1
  O  O18  1  0.90749300  0.85455200  0.19835800  1
  O  O19  1  0.40749300  0.64544800  0.80164200  1
  O  O20  1  0.38790200  0.01680100  0.64451200  1
  O  O21  1  0.88790200  0.48319900  0.35548800  1
  O  O22  1  0.61209800  0.98319900  0.35548800  1
  O  O23  1  0.11209800  0.51680100  0.64451200  1
  O  O24  1  0.56882900  0.37354300  0.70294800  1
  O  O25  1  0.06882900  0.12645700  0.29705200  1
  O  O26  1  0.43117100  0.62645700  0.29705200  1
  O  O27  1  0.93117100  0.87354300  0.70294800  1
  O  O28  1  0.95262700  0.18185700  0.57661600  1
  O  O29  1  0.45262700  0.31814300  0.42338400  1
  O  O30  1  0.04737300  0.81814300  0.42338400  1
  O  O31  1  0.54737300  0.68185700  0.57661600  1
  O  O32  1  0.56304700  0.99842200  0.89958600  1
  O  O33  1  0.06304700  0.50157800  0.10041400  1
  O  O34  1  0.43695300  0.00157800  0.10041400  1
  O  O35  1  0.93695300  0.49842200  0.89958600  1
  O  O36  1  0.43650500  0.35915600  0.96975400  1
  O  O37  1  0.93650500  0.14084400  0.03024600  1
  O  O38  1  0.56349500  0.64084400  0.03024600  1
  O  O39  1  0.06349500  0.85915600  0.96975400  1
