# generated using pymatgen
data_NaCdP2NO10
_symmetry_space_group_name_H-M   'P 1'
_cell_length_a   9.84531245
_cell_length_b   9.84531245
_cell_length_c   6.00440593
_cell_angle_alpha   82.43737103
_cell_angle_beta   82.43737103
_cell_angle_gamma   121.06302756
_symmetry_Int_Tables_number   1
_chemical_formula_structural   NaCdP2NO10
_chemical_formula_sum   'Na2 Cd2 P4 N2 O20'
_cell_volume   480.37601411
_cell_formula_units_Z   2
loop_
 _symmetry_equiv_pos_site_id
 _symmetry_equiv_pos_as_xyz
  1  'x, y, z'
loop_
 _atom_site_type_symbol
 _atom_site_label
 _atom_site_symmetry_multiplicity
 _atom_site_fract_x
 _atom_site_fract_y
 _atom_site_fract_z
 _atom_site_occupancy
  Na  Na0  1  0.46775100  0.60441000  0.73078000  1
  Na  Na1  1  0.60441000  0.46775100  0.23078000  1
  Cd  Cd2  1  0.23850700  0.79177400  0.50106000  1
  Cd  Cd3  1  0.79177400  0.23850700  0.00106000  1
  P  P4  1  0.41433700  0.98158700  0.92892300  1
  P  P5  1  0.98158700  0.41433700  0.42892300  1
  P  P6  1  0.81545500  0.56551900  0.63573500  1
  P  P7  1  0.56551900  0.81545500  0.13573500  1
  N  N8  1  0.06146800  0.98815200  0.02603300  1
  N  N9  1  0.98815200  0.06146800  0.52603300  1
  O  O10  1  0.84090100  0.45570600  0.47086800  1
  O  O11  1  0.45570600  0.84090100  0.97086800  1
  O  O12  1  0.97666500  0.32572600  0.66701000  1
  O  O13  1  0.32572600  0.97666500  0.16701000  1
  O  O14  1  0.30450800  0.93679900  0.76181200  1
  O  O15  1  0.93679900  0.30450800  0.26181200  1
  O  O16  1  0.14733800  0.57462700  0.32915200  1
  O  O17  1  0.57462700  0.14733800  0.82915200  1
  O  O18  1  0.78379300  0.48305300  0.89024400  1
  O  O19  1  0.48305300  0.78379300  0.39024400  1
  O  O20  1  0.97512900  0.73298200  0.57883900  1
  O  O21  1  0.73298200  0.97512900  0.07883900  1
  O  O22  1  0.56848800  0.67316400  0.07207800  1
  O  O23  1  0.67316400  0.56848800  0.57207800  1
  O  O24  1  0.13183200  0.12711600  0.50959900  1
  O  O25  1  0.12711600  0.13183200  0.00959900  1
  O  O26  1  0.25567300  0.29314700  0.43409500  1
  O  O27  1  0.29314700  0.25567300  0.93409500  1
  O  O28  1  0.19072400  0.55206900  0.71627000  1
  O  O29  1  0.55206900  0.19072400  0.21627000  1
