# generated using pymatgen
data_NaClO3
_symmetry_space_group_name_H-M   'P 1'
_cell_length_a   8.44676000
_cell_length_b   8.48323538
_cell_length_c   8.51575486
_cell_angle_alpha   70.41140627
_cell_angle_beta   70.12355986
_cell_angle_gamma   70.47163968
_symmetry_Int_Tables_number   1
_chemical_formula_structural   NaClO3
_chemical_formula_sum   'Na4 Cl4 O12'
_cell_volume   523.66358324
_cell_formula_units_Z   4
loop_
 _symmetry_equiv_pos_site_id
 _symmetry_equiv_pos_as_xyz
  1  'x, y, z'
loop_
 _atom_site_type_symbol
 _atom_site_label
 _atom_site_symmetry_multiplicity
 _atom_site_fract_x
 _atom_site_fract_y
 _atom_site_fract_z
 _atom_site_occupancy
  Na  Na0  1  0.56523900  0.95690500  0.39293000  1
  Na  Na1  1  0.89353500  0.56584000  0.45816900  1
  Na  Na2  1  0.44676600  0.43984000  0.94325900  1
  Na  Na3  1  0.96184900  0.89031300  0.06938700  1
  Cl  Cl4  1  0.65069100  0.12401900  0.05181000  1
  Cl  Cl5  1  0.55061700  0.64281000  0.62749900  1
  Cl  Cl6  1  0.12971300  0.54939600  0.14602300  1
  Cl  Cl7  1  0.89624500  0.89552800  0.39776600  1
  O  O8  1  0.12589600  0.75736400  0.69264700  1
  O  O9  1  0.37714700  0.85395100  0.00469900  1
  O  O10  1  0.18940900  0.13079300  0.25096500  1
  O  O11  1  0.09391800  0.88323700  0.75001200  1
  O  O12  1  0.85037200  0.50810500  0.87752500  1
  O  O13  1  0.61326400  0.45548700  0.31964800  1
  O  O14  1  0.87793100  0.24842500  0.59030100  1
  O  O15  1  0.50744200  0.37194700  0.34814900  1
  O  O16  1  0.81701200  0.61726500  0.95759500  1
  O  O17  1  0.74889900  0.19198000  0.63103000  1
  O  O18  1  0.24799900  0.09405200  0.37652300  1
  O  O19  1  0.45605700  0.82274100  0.11406300  1
