# generated using pymatgen
data_MgScCu3Se4
_symmetry_space_group_name_H-M   'P 1'
_cell_length_a   5.83712000
_cell_length_b   5.83719200
_cell_length_c   5.83688400
_cell_angle_alpha   90.00037301
_cell_angle_beta   89.99943067
_cell_angle_gamma   90.00062821
_symmetry_Int_Tables_number   1
_chemical_formula_structural   MgScCu3Se4
_chemical_formula_sum   'Mg1 Sc1 Cu3 Se4'
_cell_volume   198.87658899
_cell_formula_units_Z   1
loop_
 _symmetry_equiv_pos_site_id
 _symmetry_equiv_pos_as_xyz
  1  'x, y, z'
loop_
 _atom_site_type_symbol
 _atom_site_label
 _atom_site_symmetry_multiplicity
 _atom_site_fract_x
 _atom_site_fract_y
 _atom_site_fract_z
 _atom_site_occupancy
  Mg  Mg0  1  0.50000100  0.50000200  0.49999600  1
  Sc  Sc1  1  0.00000400  0.99999800  0.99999900  1
  Cu  Cu2  1  0.99999900  0.50000100  0.00000200  1
  Cu  Cu3  1  0.00000400  0.00000200  0.49999900  1
  Cu  Cu4  1  0.49999800  0.00000000  0.00000100  1
  Se  Se5  1  0.24809700  0.24809500  0.24809100  1
  Se  Se6  1  0.75190100  0.75190000  0.24809500  1
  Se  Se7  1  0.24809600  0.75190400  0.75191200  1
  Se  Se8  1  0.75190000  0.24809900  0.75190500  1
