# generated using pymatgen
data_Na3NpO6
_symmetry_space_group_name_H-M   'P 1'
_cell_length_a   10.86600424
_cell_length_b   11.73099262
_cell_length_c   5.99846950
_cell_angle_alpha   66.76512946
_cell_angle_beta   82.55727772
_cell_angle_gamma   30.46636676
_symmetry_Int_Tables_number   1
_chemical_formula_structural   Na3NpO6
_chemical_formula_sum   'Na6 Np2 O12'
_cell_volume   317.81239705
_cell_formula_units_Z   2
loop_
 _symmetry_equiv_pos_site_id
 _symmetry_equiv_pos_as_xyz
  1  'x, y, z'
loop_
 _atom_site_type_symbol
 _atom_site_label
 _atom_site_symmetry_multiplicity
 _atom_site_fract_x
 _atom_site_fract_y
 _atom_site_fract_z
 _atom_site_occupancy
  Na  Na0  1  0.58633200  0.91133500  0.90760000  1
  Na  Na1  1  0.34076800  0.65776700  0.66416700  1
  Na  Na2  1  0.83533000  0.48078400  0.63111300  1
  Na  Na3  1  0.04916100  0.63633900  0.47493400  1
  Na  Na4  1  0.61698900  0.19716900  0.41779200  1
  Na  Na5  1  0.77296300  0.40974800  0.20234000  1
  Np  Np6  1  0.26169200  0.23911100  0.23276400  1
  Np  Np7  1  0.01442100  0.98568800  0.98845700  1
  O  O8  1  0.47645200  0.91451500  0.56005400  1
  O  O9  1  0.04330700  0.56726100  0.90933000  1
  O  O10  1  0.68670900  0.20389500  0.77398300  1
  O  O11  1  0.33881300  0.77127700  0.20660000  1
  O  O12  1  0.19180500  0.20405500  0.00646700  1
  O  O13  1  0.59202600  0.01678300  0.19692100  1
  O  O14  1  0.23834600  0.65450100  0.06250700  1
  O  O15  1  0.05215700  0.05380600  0.65796300  1
  O  O16  1  0.92261200  0.46830600  0.26196600  1
  O  O17  1  0.34045200  0.26676400  0.46679700  1
  O  O18  1  0.98416000  0.90862700  0.32795700  1
  O  O19  1  0.78292700  0.32620600  0.90574200  1
