# generated using pymatgen
data_Mo(NO2)2
_symmetry_space_group_name_H-M   'P 1'
_cell_length_a   10.97286800
_cell_length_b   6.87534400
_cell_length_c   7.72858388
_cell_angle_alpha   73.02264477
_cell_angle_beta   90.00000000
_cell_angle_gamma   90.00000000
_symmetry_Int_Tables_number   1
_chemical_formula_structural   Mo(NO2)2
_chemical_formula_sum   'Mo4 N8 O16'
_cell_volume   557.65200415
_cell_formula_units_Z   4
loop_
 _symmetry_equiv_pos_site_id
 _symmetry_equiv_pos_as_xyz
  1  'x, y, z'
loop_
 _atom_site_type_symbol
 _atom_site_label
 _atom_site_symmetry_multiplicity
 _atom_site_fract_x
 _atom_site_fract_y
 _atom_site_fract_z
 _atom_site_occupancy
  Mo  Mo0  1  0.39702200  0.25442100  0.81444900  1
  Mo  Mo1  1  0.89702200  0.24557900  0.18555100  1
  Mo  Mo2  1  0.60297800  0.74557900  0.18555100  1
  Mo  Mo3  1  0.10297800  0.75442100  0.81444900  1
  N  N4  1  0.35363500  0.92341300  0.64648000  1
  N  N5  1  0.85363500  0.57658700  0.35352000  1
  N  N6  1  0.64636500  0.07658700  0.35352000  1
  N  N7  1  0.14636500  0.42341300  0.64648000  1
  N  N8  1  0.26801900  0.28304600  0.31530400  1
  N  N9  1  0.76801900  0.21695400  0.68469600  1
  N  N10  1  0.73198100  0.71695400  0.68469600  1
  N  N11  1  0.23198100  0.78304600  0.31530400  1
  O  O12  1  0.52336500  0.41077800  0.77913700  1
  O  O13  1  0.02336500  0.08922200  0.22086300  1
  O  O14  1  0.47663500  0.58922200  0.22086300  1
  O  O15  1  0.97663500  0.91077800  0.77913700  1
  O  O16  1  0.42952800  0.06100200  0.64719100  1
  O  O17  1  0.92952800  0.43899800  0.35280900  1
  O  O18  1  0.57047200  0.93899800  0.35280900  1
  O  O19  1  0.07047200  0.56100200  0.64719100  1
  O  O20  1  0.36819900  0.11062000  0.03566100  1
  O  O21  1  0.86819900  0.38938000  0.96433900  1
  O  O22  1  0.63180100  0.88938000  0.96433900  1
  O  O23  1  0.13180100  0.61062000  0.03566100  1
  O  O24  1  0.24789700  0.45148800  0.72516200  1
  O  O25  1  0.74789700  0.04851200  0.27483800  1
  O  O26  1  0.75210300  0.54851200  0.27483800  1
  O  O27  1  0.25210300  0.95148800  0.72516200  1
