# generated using pymatgen
data_Mg2OsS6
_symmetry_space_group_name_H-M   'P 1'
_cell_length_a   6.27117872
_cell_length_b   6.27117872
_cell_length_c   6.27117872
_cell_angle_alpha   60.00000000
_cell_angle_beta   60.00000000
_cell_angle_gamma   60.00000000
_symmetry_Int_Tables_number   1
_chemical_formula_structural   Mg2OsS6
_chemical_formula_sum   'Mg2 Os1 S6'
_cell_volume   174.39440024
_cell_formula_units_Z   1
loop_
 _symmetry_equiv_pos_site_id
 _symmetry_equiv_pos_as_xyz
  1  'x, y, z'
loop_
 _atom_site_type_symbol
 _atom_site_label
 _atom_site_symmetry_multiplicity
 _atom_site_fract_x
 _atom_site_fract_y
 _atom_site_fract_z
 _atom_site_occupancy
  Mg  Mg0  1  0.75000000  0.75000000  0.75000000  1
  Mg  Mg1  1  0.25000000  0.25000000  0.25000000  1
  Os  Os2  1  0.00000000  0.00000000  0.00000000  1
  S  S3  1  0.73790100  0.73790100  0.26209900  1
  S  S4  1  0.26209900  0.73790100  0.26209900  1
  S  S5  1  0.73790100  0.26209900  0.26209900  1
  S  S6  1  0.26209900  0.26209900  0.73790100  1
  S  S7  1  0.73790100  0.26209900  0.73790100  1
  S  S8  1  0.26209900  0.73790100  0.73790100  1
