# generated using pymatgen
data_MgSi(OF)6
_symmetry_space_group_name_H-M   'P 1'
_cell_length_a   9.63001600
_cell_length_b   6.65770500
_cell_length_c   6.92922612
_cell_angle_alpha   62.51489135
_cell_angle_beta   90.00000000
_cell_angle_gamma   90.00000000
_symmetry_Int_Tables_number   1
_chemical_formula_structural   MgSi(OF)6
_chemical_formula_sum   'Mg2 Si2 O12 F12'
_cell_volume   394.11589827
_cell_formula_units_Z   2
loop_
 _symmetry_equiv_pos_site_id
 _symmetry_equiv_pos_as_xyz
  1  'x, y, z'
loop_
 _atom_site_type_symbol
 _atom_site_label
 _atom_site_symmetry_multiplicity
 _atom_site_fract_x
 _atom_site_fract_y
 _atom_site_fract_z
 _atom_site_occupancy
  Mg  Mg0  1  0.50000000  0.00000000  0.50000000  1
  Mg  Mg1  1  0.00000000  0.00000000  0.00000000  1
  Si  Si2  1  0.00000000  0.50000000  0.50000000  1
  Si  Si3  1  0.50000000  0.50000000  0.00000000  1
  O  O4  1  0.30513600  0.94962700  0.32647900  1
  O  O5  1  0.80513600  0.05037300  0.17352100  1
  O  O6  1  0.69486400  0.05037300  0.67352100  1
  O  O7  1  0.19486400  0.94962700  0.82647900  1
  O  O8  1  0.77948400  0.89139200  0.68906100  1
  O  O9  1  0.27948400  0.10860800  0.81093900  1
  O  O10  1  0.22051600  0.10860800  0.31093900  1
  O  O11  1  0.72051600  0.89139200  0.18906100  1
  O  O12  1  0.39018300  0.13640300  0.70332400  1
  O  O13  1  0.89018300  0.86359700  0.79667600  1
  O  O14  1  0.60981700  0.86359700  0.29667600  1
  O  O15  1  0.10981700  0.13640300  0.20332400  1
  F  F16  1  0.66186300  0.57634400  0.02675700  1
  F  F17  1  0.16186300  0.42365600  0.47324300  1
  F  F18  1  0.33813700  0.42365600  0.97324300  1
  F  F19  1  0.83813700  0.57634400  0.52675700  1
  F  F20  1  0.43601700  0.70693400  0.04948200  1
  F  F21  1  0.93601700  0.29306600  0.45051800  1
  F  F22  1  0.56398300  0.29306600  0.95051800  1
  F  F23  1  0.06398300  0.70693400  0.54948200  1
  F  F24  1  0.50358800  0.69596800  0.71128700  1
  F  F25  1  0.00358800  0.30403200  0.78871300  1
  F  F26  1  0.49641200  0.30403200  0.28871300  1
  F  F27  1  0.99641200  0.69596800  0.21128700  1
