# generated using pymatgen
data_NaPO4
_symmetry_space_group_name_H-M   'P 1'
_cell_length_a   11.08361195
_cell_length_b   11.08361195
_cell_length_c   10.35770800
_cell_angle_alpha   90.00000000
_cell_angle_beta   90.00000000
_cell_angle_gamma   122.67370104
_symmetry_Int_Tables_number   1
_chemical_formula_structural   NaPO4
_chemical_formula_sum   'Na12 P12 O48'
_cell_volume   1071.06020638
_cell_formula_units_Z   12
loop_
 _symmetry_equiv_pos_site_id
 _symmetry_equiv_pos_as_xyz
  1  'x, y, z'
loop_
 _atom_site_type_symbol
 _atom_site_label
 _atom_site_symmetry_multiplicity
 _atom_site_fract_x
 _atom_site_fract_y
 _atom_site_fract_z
 _atom_site_occupancy
  Na  Na0  1  0.55773300  0.21314700  0.18170200  1
  Na  Na1  1  0.78685300  0.44226700  0.81829800  1
  Na  Na2  1  0.28685300  0.94226700  0.68170200  1
  Na  Na3  1  0.05773300  0.71314700  0.31829800  1
  Na  Na4  1  0.44226700  0.78685300  0.81829800  1
  Na  Na5  1  0.21314700  0.55773300  0.18170200  1
  Na  Na6  1  0.71314700  0.05773300  0.31829800  1
  Na  Na7  1  0.94226700  0.28685300  0.68170200  1
  Na  Na8  1  0.38867200  0.38867200  0.18221100  1
  Na  Na9  1  0.61132800  0.61132800  0.81778900  1
  Na  Na10  1  0.11132800  0.11132800  0.68221100  1
  Na  Na11  1  0.88867200  0.88867200  0.31778900  1
  P  P12  1  0.37894500  0.22891600  0.47359900  1
  P  P13  1  0.77108400  0.62105500  0.52640100  1
  P  P14  1  0.27108400  0.12105500  0.97359900  1
  P  P15  1  0.87894500  0.72891600  0.02640100  1
  P  P16  1  0.62105500  0.77108400  0.52640100  1
  P  P17  1  0.22891600  0.37894500  0.47359900  1
  P  P18  1  0.72891600  0.87894500  0.02640100  1
  P  P19  1  0.12105500  0.27108400  0.97359900  1
  P  P20  1  0.67892100  0.32107900  0.50000000  1
  P  P21  1  0.17892100  0.82107900  0.00000000  1
  P  P22  1  0.32107900  0.67892100  0.50000000  1
  P  P23  1  0.82107900  0.17892100  0.00000000  1
  O  O24  1  0.41328200  0.23999100  0.02928100  1
  O  O25  1  0.76000900  0.58671800  0.97071900  1
  O  O26  1  0.26000900  0.08671800  0.52928100  1
  O  O27  1  0.91328200  0.73999100  0.47071900  1
  O  O28  1  0.58671800  0.76000900  0.97071900  1
  O  O29  1  0.23999100  0.41328200  0.02928100  1
  O  O30  1  0.73999100  0.91328200  0.47071900  1
  O  O31  1  0.08671800  0.26000900  0.52928100  1
  O  O32  1  0.40667700  0.24332500  0.33177100  1
  O  O33  1  0.75667500  0.59332300  0.66822900  1
  O  O34  1  0.25667500  0.09332300  0.83177100  1
  O  O35  1  0.90667700  0.74332500  0.16822900  1
  O  O36  1  0.59332300  0.75667500  0.66822900  1
  O  O37  1  0.24332500  0.40667700  0.33177100  1
  O  O38  1  0.74332500  0.90667700  0.16822900  1
  O  O39  1  0.09332300  0.25667500  0.83177100  1
  O  O40  1  0.35246700  0.35246700  0.52514600  1
  O  O41  1  0.64753300  0.64753300  0.47485400  1
  O  O42  1  0.14753300  0.14753300  0.02514600  1
  O  O43  1  0.85246700  0.85246700  0.97485400  1
  O  O44  1  0.66473800  0.22874900  0.38805100  1
  O  O45  1  0.77125100  0.33526200  0.61194900  1
  O  O46  1  0.27125100  0.83526200  0.88805100  1
  O  O47  1  0.16473800  0.72874900  0.11194900  1
  O  O48  1  0.33526200  0.77125100  0.61194900  1
  O  O49  1  0.22874900  0.66473800  0.38805100  1
  O  O50  1  0.72874900  0.16473800  0.11194900  1
  O  O51  1  0.83526200  0.27125100  0.88805100  1
  O  O52  1  0.52038000  0.27106500  0.55650200  1
  O  O53  1  0.72893500  0.47962000  0.44349800  1
  O  O54  1  0.22893500  0.97962000  0.05650200  1
  O  O55  1  0.02038000  0.77106500  0.94349800  1
  O  O56  1  0.47962000  0.72893500  0.44349800  1
  O  O57  1  0.27106500  0.52038000  0.55650200  1
  O  O58  1  0.77106500  0.02038000  0.94349800  1
  O  O59  1  0.97962000  0.22893500  0.05650200  1
  O  O60  1  0.53196900  0.35351800  0.84900700  1
  O  O61  1  0.64648200  0.46803100  0.15099300  1
  O  O62  1  0.14648200  0.96803100  0.34900700  1
  O  O63  1  0.03196900  0.85351800  0.65099300  1
  O  O64  1  0.46803100  0.64648200  0.15099300  1
  O  O65  1  0.35351800  0.53196900  0.84900700  1
  O  O66  1  0.85351800  0.03196900  0.65099300  1
  O  O67  1  0.96803100  0.14648200  0.34900700  1
  O  O68  1  0.54111100  0.04111100  0.75000000  1
  O  O69  1  0.95888900  0.45888900  0.25000000  1
  O  O70  1  0.45888900  0.95888900  0.25000000  1
  O  O71  1  0.04111100  0.54111100  0.75000000  1
