# generated using pymatgen
data_NdFeO3
_symmetry_space_group_name_H-M   'P 1'
_cell_length_a   3.51333900
_cell_length_b   6.25310200
_cell_length_c   13.06249600
_cell_angle_alpha   90.00000000
_cell_angle_beta   90.00000000
_cell_angle_gamma   90.00000000
_symmetry_Int_Tables_number   1
_chemical_formula_structural   NdFeO3
_chemical_formula_sum   'Nd4 Fe4 O12'
_cell_volume   286.97346398
_cell_formula_units_Z   4
loop_
 _symmetry_equiv_pos_site_id
 _symmetry_equiv_pos_as_xyz
  1  'x, y, z'
loop_
 _atom_site_type_symbol
 _atom_site_label
 _atom_site_symmetry_multiplicity
 _atom_site_fract_x
 _atom_site_fract_y
 _atom_site_fract_z
 _atom_site_occupancy
  Nd  Nd0  1  0.76189000  0.73756900  0.25000000  1
  Nd  Nd1  1  0.73811000  0.23756900  0.25000000  1
  Nd  Nd2  1  0.26189000  0.76243100  0.75000000  1
  Nd  Nd3  1  0.23811000  0.26243100  0.75000000  1
  Fe  Fe4  1  0.50000000  0.50000000  0.50000000  1
  Fe  Fe5  1  0.00000000  0.00000000  0.00000000  1
  Fe  Fe6  1  0.50000000  0.50000000  0.00000000  1
  Fe  Fe7  1  0.00000000  0.00000000  0.50000000  1
  O  O8  1  0.32804000  0.18988800  0.57351000  1
  O  O9  1  0.17196000  0.68988800  0.57351000  1
  O  O10  1  0.82804000  0.31011200  0.07351000  1
  O  O11  1  0.25923900  0.50236300  0.25000000  1
  O  O12  1  0.75923900  0.99763700  0.75000000  1
  O  O13  1  0.67196000  0.81011200  0.42649000  1
  O  O14  1  0.24076100  0.00236300  0.25000000  1
  O  O15  1  0.82804000  0.31011200  0.42649000  1
  O  O16  1  0.67196000  0.81011200  0.07351000  1
  O  O17  1  0.17196000  0.68988800  0.92649000  1
  O  O18  1  0.74076100  0.49763700  0.75000000  1
  O  O19  1  0.32804000  0.18988800  0.92649000  1
