# generated using pymatgen
data_NaAgI2O3
_symmetry_space_group_name_H-M   'P 1'
_cell_length_a   7.57177700
_cell_length_b   9.71063500
_cell_length_c   20.53388800
_cell_angle_alpha   90.00000000
_cell_angle_beta   90.00000000
_cell_angle_gamma   90.00000000
_symmetry_Int_Tables_number   1
_chemical_formula_structural   NaAgI2O3
_chemical_formula_sum   'Na8 Ag8 I16 O24'
_cell_volume   1509.79031128
_cell_formula_units_Z   8
loop_
 _symmetry_equiv_pos_site_id
 _symmetry_equiv_pos_as_xyz
  1  'x, y, z'
loop_
 _atom_site_type_symbol
 _atom_site_label
 _atom_site_symmetry_multiplicity
 _atom_site_fract_x
 _atom_site_fract_y
 _atom_site_fract_z
 _atom_site_occupancy
  Na  Na0  1  0.66251200  0.17881700  0.61113500  1
  Na  Na1  1  0.16251200  0.82118300  0.88886500  1
  Na  Na2  1  0.33748800  0.32118300  0.11113500  1
  Na  Na3  1  0.83748800  0.67881700  0.38886500  1
  Na  Na4  1  0.33748800  0.82118300  0.38886500  1
  Na  Na5  1  0.83748800  0.17881700  0.11113500  1
  Na  Na6  1  0.66251200  0.67881700  0.88886500  1
  Na  Na7  1  0.16251200  0.32118300  0.61113500  1
  Ag  Ag8  1  0.47418800  0.13281700  0.75711800  1
  Ag  Ag9  1  0.97418800  0.86718300  0.74288200  1
  Ag  Ag10  1  0.52581200  0.36718300  0.25711800  1
  Ag  Ag11  1  0.02581200  0.63281700  0.24288200  1
  Ag  Ag12  1  0.52581200  0.86718300  0.24288200  1
  Ag  Ag13  1  0.02581200  0.13281700  0.25711800  1
  Ag  Ag14  1  0.47418800  0.63281700  0.74288200  1
  Ag  Ag15  1  0.97418800  0.36718300  0.75711800  1
  I  I16  1  0.61617000  0.39102800  0.80125300  1
  I  I17  1  0.11617000  0.60897200  0.69874700  1
  I  I18  1  0.38383000  0.10897200  0.30125300  1
  I  I19  1  0.88383000  0.89102800  0.19874700  1
  I  I20  1  0.38383000  0.60897200  0.19874700  1
  I  I21  1  0.88383000  0.39102800  0.30125300  1
  I  I22  1  0.61617000  0.89102800  0.69874700  1
  I  I23  1  0.11617000  0.10897200  0.80125300  1
  I  I24  1  0.60545500  0.00768100  0.87871100  1
  I  I25  1  0.10545500  0.99231900  0.62128900  1
  I  I26  1  0.39454500  0.49231900  0.37871100  1
  I  I27  1  0.89454500  0.50768100  0.12128900  1
  I  I28  1  0.39454500  0.99231900  0.12128900  1
  I  I29  1  0.89454500  0.00768100  0.37871100  1
  I  I30  1  0.60545500  0.50768100  0.62128900  1
  I  I31  1  0.10545500  0.49231900  0.87871100  1
  O  O32  1  0.92908000  0.31882700  0.48794200  1
  O  O33  1  0.42908000  0.68117300  0.01205800  1
  O  O34  1  0.07092000  0.18117300  0.98794200  1
  O  O35  1  0.57092000  0.81882700  0.51205800  1
  O  O36  1  0.07092000  0.68117300  0.51205800  1
  O  O37  1  0.57092000  0.31882700  0.98794200  1
  O  O38  1  0.92908000  0.81882700  0.01205800  1
  O  O39  1  0.42908000  0.18117300  0.48794200  1
  O  O40  1  0.63603500  0.91842800  0.54111800  1
  O  O41  1  0.13603500  0.08157200  0.95888200  1
  O  O42  1  0.36396500  0.58157200  0.04111800  1
  O  O43  1  0.86396500  0.41842800  0.45888200  1
  O  O44  1  0.36396500  0.08157200  0.45888200  1
  O  O45  1  0.86396500  0.91842800  0.04111800  1
  O  O46  1  0.63603500  0.41842800  0.95888200  1
  O  O47  1  0.13603500  0.58157200  0.54111800  1
  O  O48  1  0.89111300  0.29730000  0.66147500  1
  O  O49  1  0.39111300  0.70270000  0.83852500  1
  O  O50  1  0.10888700  0.20270000  0.16147500  1
  O  O51  1  0.60888700  0.79730000  0.33852500  1
  O  O52  1  0.10888700  0.70270000  0.33852500  1
  O  O53  1  0.60888700  0.29730000  0.16147500  1
  O  O54  1  0.89111300  0.79730000  0.83852500  1
  O  O55  1  0.39111300  0.20270000  0.66147500  1
