# generated using pymatgen
data_Na2B4O17
_symmetry_space_group_name_H-M   'P 1'
_cell_length_a   8.14360476
_cell_length_b   8.14360476
_cell_length_c   12.93591374
_cell_angle_alpha   81.10548976
_cell_angle_beta   81.10548976
_cell_angle_gamma   101.43064528
_symmetry_Int_Tables_number   1
_chemical_formula_structural   Na2B4O17
_chemical_formula_sum   'Na4 B8 O34'
_cell_volume   815.41615317
_cell_formula_units_Z   2
loop_
 _symmetry_equiv_pos_site_id
 _symmetry_equiv_pos_as_xyz
  1  'x, y, z'
loop_
 _atom_site_type_symbol
 _atom_site_label
 _atom_site_symmetry_multiplicity
 _atom_site_fract_x
 _atom_site_fract_y
 _atom_site_fract_z
 _atom_site_occupancy
  Na  Na0  1  0.50000000  0.00000000  0.50000000  1
  Na  Na1  1  0.00000000  0.50000000  0.00000000  1
  Na  Na2  1  0.50004500  0.49995500  0.75000000  1
  Na  Na3  1  0.49995500  0.50004500  0.25000000  1
  B  B4  1  0.96095100  0.23458300  0.72223700  1
  B  B5  1  0.76541700  0.03904900  0.77776300  1
  B  B6  1  0.03904900  0.76541700  0.27776300  1
  B  B7  1  0.23458300  0.96095100  0.22223700  1
  B  B8  1  0.82124800  0.22198200  0.89905500  1
  B  B9  1  0.77801800  0.17875200  0.60094500  1
  B  B10  1  0.17875200  0.77801800  0.10094500  1
  B  B11  1  0.22198200  0.82124800  0.39905500  1
  O  O12  1  0.94431100  0.05568900  0.75000000  1
  O  O13  1  0.05568900  0.94431100  0.25000000  1
  O  O14  1  0.95560100  0.31894600  0.80749500  1
  O  O15  1  0.68105400  0.04439900  0.69250500  1
  O  O16  1  0.04439900  0.68105400  0.19250500  1
  O  O17  1  0.31894600  0.95560100  0.30749500  1
  O  O18  1  0.92106000  0.29271200  0.62549500  1
  O  O19  1  0.70728800  0.07894000  0.87450500  1
  O  O20  1  0.07894000  0.70728800  0.37450500  1
  O  O21  1  0.29271200  0.92106000  0.12549500  1
  O  O22  1  0.30925400  0.24241200  0.69546000  1
  O  O23  1  0.75758800  0.69074600  0.80454000  1
  O  O24  1  0.69074600  0.75758800  0.30454000  1
  O  O25  1  0.24241200  0.30925400  0.19546000  1
  O  O26  1  0.80263800  0.27675300  0.98917400  1
  O  O27  1  0.72324700  0.19736200  0.51082600  1
  O  O28  1  0.19736200  0.72324700  0.01082600  1
  O  O29  1  0.27675300  0.80263800  0.48917400  1
  O  O30  1  0.46065800  0.53550200  0.96893100  1
  O  O31  1  0.46449800  0.53934200  0.53106900  1
  O  O32  1  0.53934200  0.46449800  0.03106900  1
  O  O33  1  0.53550200  0.46065800  0.46893100  1
  O  O34  1  0.34135500  0.10325200  0.68328700  1
  O  O35  1  0.89674800  0.65864500  0.81671300  1
  O  O36  1  0.65864500  0.89674800  0.31671300  1
  O  O37  1  0.10325200  0.34135500  0.18328700  1
  O  O38  1  0.84084400  0.80040800  0.01600200  1
  O  O39  1  0.19959200  0.15915600  0.48399800  1
  O  O40  1  0.15915600  0.19959200  0.98399800  1
  O  O41  1  0.80040800  0.84084400  0.51600200  1
  O  O42  1  0.77445000  0.70997400  0.58406900  1
  O  O43  1  0.29002600  0.22555000  0.91593100  1
  O  O44  1  0.22555000  0.29002600  0.41593100  1
  O  O45  1  0.70997400  0.77445000  0.08406900  1
