# generated using pymatgen
data_MnC8(Br2N)2
_symmetry_space_group_name_H-M   'P 1'
_cell_length_a   15.15657800
_cell_length_b   8.73486300
_cell_length_c   11.81185546
_cell_angle_alpha   86.53193067
_cell_angle_beta   90.00000000
_cell_angle_gamma   90.00000000
_symmetry_Int_Tables_number   1
_chemical_formula_structural   MnC8(Br2N)2
_chemical_formula_sum   'Mn4 C32 Br16 N8'
_cell_volume   1560.91521125
_cell_formula_units_Z   4
loop_
 _symmetry_equiv_pos_site_id
 _symmetry_equiv_pos_as_xyz
  1  'x, y, z'
loop_
 _atom_site_type_symbol
 _atom_site_label
 _atom_site_symmetry_multiplicity
 _atom_site_fract_x
 _atom_site_fract_y
 _atom_site_fract_z
 _atom_site_occupancy
  Mn  Mn0  1  0.09578400  0.27130200  0.75406200  1
  Mn  Mn1  1  0.59578400  0.72869800  0.74593800  1
  Mn  Mn2  1  0.90421600  0.72869800  0.24593800  1
  Mn  Mn3  1  0.40421600  0.27130200  0.25406200  1
  C  C4  1  0.39607300  0.32069100  0.72768400  1
  C  C5  1  0.89607300  0.67930900  0.77231600  1
  C  C6  1  0.60392700  0.67930900  0.27231600  1
  C  C7  1  0.10392700  0.32069100  0.22768400  1
  C  C8  1  0.46315500  0.31051500  0.61457300  1
  C  C9  1  0.96315500  0.68948500  0.88542700  1
  C  C10  1  0.53684500  0.68948500  0.38542700  1
  C  C11  1  0.03684500  0.31051500  0.11457300  1
  C  C12  1  0.36446200  0.29228500  0.60925000  1
  C  C13  1  0.86446200  0.70771500  0.89075000  1
  C  C14  1  0.63553800  0.70771500  0.39075000  1
  C  C15  1  0.13553800  0.29228500  0.10925000  1
  C  C16  1  0.35126800  0.12933300  0.62044300  1
  C  C17  1  0.85126800  0.87066700  0.87955700  1
  C  C18  1  0.64873200  0.87066700  0.37955700  1
  C  C19  1  0.14873200  0.12933300  0.12044300  1
  C  C20  1  0.73281200  0.30302100  0.96207700  1
  C  C21  1  0.23281200  0.69697900  0.53792300  1
  C  C22  1  0.26718800  0.69697900  0.03792300  1
  C  C23  1  0.76718800  0.30302100  0.46207700  1
  C  C24  1  0.61715800  0.26280800  0.93092600  1
  C  C25  1  0.11715800  0.73719200  0.56907400  1
  C  C26  1  0.38284200  0.73719200  0.06907400  1
  C  C27  1  0.88284200  0.26280800  0.43092600  1
  C  C28  1  0.65257000  0.35533000  0.02312500  1
  C  C29  1  0.15257000  0.64467000  0.47687500  1
  C  C30  1  0.34743000  0.64467000  0.97687500  1
  C  C31  1  0.84743000  0.35533000  0.52312500  1
  C  C32  1  0.66566400  0.19281000  0.06687200  1
  C  C33  1  0.16566400  0.80719000  0.43312800  1
  C  C34  1  0.33433600  0.80719000  0.93312800  1
  C  C35  1  0.83433600  0.19281000  0.56687200  1
  Br  Br36  1  0.09503600  0.22760900  0.56655500  1
  Br  Br37  1  0.59503600  0.77239100  0.93344500  1
  Br  Br38  1  0.90496400  0.77239100  0.43344500  1
  Br  Br39  1  0.40496400  0.22760900  0.06655500  1
  Br  Br40  1  0.95913100  0.31595900  0.81950600  1
  Br  Br41  1  0.45913100  0.68404100  0.68049400  1
  Br  Br42  1  0.04086900  0.68404100  0.18049400  1
  Br  Br43  1  0.54086900  0.31595900  0.31950600  1
  Br  Br44  1  0.16082600  0.05277000  0.82637400  1
  Br  Br45  1  0.66082600  0.94723000  0.67362600  1
  Br  Br46  1  0.83917400  0.94723000  0.17362600  1
  Br  Br47  1  0.33917400  0.05277000  0.32637400  1
  Br  Br48  1  0.16196700  0.49561900  0.79242400  1
  Br  Br49  1  0.66196700  0.50438100  0.70757600  1
  Br  Br50  1  0.83803300  0.50438100  0.20757600  1
  Br  Br51  1  0.33803300  0.49561900  0.29242400  1
  N  N52  1  0.42855800  0.16544800  0.68423400  1
  N  N53  1  0.92855800  0.83455200  0.81576600  1
  N  N54  1  0.57144200  0.83455200  0.31576600  1
  N  N55  1  0.07144200  0.16544800  0.18423400  1
  N  N56  1  0.68988500  0.15148000  0.95071200  1
  N  N57  1  0.18988500  0.84852000  0.54928800  1
  N  N58  1  0.31011500  0.84852000  0.04928800  1
  N  N59  1  0.81011500  0.15148000  0.45071200  1
