# generated using pymatgen
data_MgHg3(Cl4O3)2
_symmetry_space_group_name_H-M   'P 1'
_cell_length_a   6.35091700
_cell_length_b   8.25936860
_cell_length_c   8.98016341
_cell_angle_alpha   79.54659061
_cell_angle_beta   87.50006531
_cell_angle_gamma   80.96600384
_symmetry_Int_Tables_number   1
_chemical_formula_structural   MgHg3(Cl4O3)2
_chemical_formula_sum   'Mg1 Hg3 Cl8 O6'
_cell_volume   457.43067685
_cell_formula_units_Z   1
loop_
 _symmetry_equiv_pos_site_id
 _symmetry_equiv_pos_as_xyz
  1  'x, y, z'
loop_
 _atom_site_type_symbol
 _atom_site_label
 _atom_site_symmetry_multiplicity
 _atom_site_fract_x
 _atom_site_fract_y
 _atom_site_fract_z
 _atom_site_occupancy
  Mg  Mg0  1  0.50000000  0.00000000  0.50000000  1
  Hg  Hg1  1  0.00000000  0.00000000  0.00000000  1
  Hg  Hg2  1  0.74732300  0.56943700  0.85911400  1
  Hg  Hg3  1  0.25267700  0.43056300  0.14088600  1
  Cl  Cl4  1  0.31641500  0.81889000  0.01433600  1
  Cl  Cl5  1  0.68358500  0.18111000  0.98566400  1
  Cl  Cl6  1  0.20374500  0.37457700  0.89809300  1
  Cl  Cl7  1  0.79625500  0.62542300  0.10190700  1
  Cl  Cl8  1  0.98550600  0.13956600  0.33979500  1
  Cl  Cl9  1  0.01449400  0.86043400  0.66020500  1
  Cl  Cl10  1  0.31594900  0.47831000  0.38214900  1
  Cl  Cl11  1  0.68405100  0.52169000  0.61785100  1
  O  O12  1  0.74043900  0.79808600  0.46988300  1
  O  O13  1  0.25956100  0.20191400  0.53011700  1
  O  O14  1  0.28289700  0.08040400  0.32331300  1
  O  O15  1  0.71710300  0.91959600  0.67668700  1
  O  O16  1  0.26949700  0.86024200  0.62689900  1
  O  O17  1  0.73050300  0.13975800  0.37310100  1
