# generated using pymatgen
data_VZn2BiO6
_symmetry_space_group_name_H-M   'P 1'
_cell_length_a   5.79875500
_cell_length_b   6.93664743
_cell_length_c   7.03207864
_cell_angle_alpha   80.78058945
_cell_angle_beta   79.04789582
_cell_angle_gamma   80.80639631
_symmetry_Int_Tables_number   1
_chemical_formula_structural   VZn2BiO6
_chemical_formula_sum   'V2 Zn4 Bi2 O12'
_cell_volume   271.66646455
_cell_formula_units_Z   2
loop_
 _symmetry_equiv_pos_site_id
 _symmetry_equiv_pos_as_xyz
  1  'x, y, z'
loop_
 _atom_site_type_symbol
 _atom_site_label
 _atom_site_symmetry_multiplicity
 _atom_site_fract_x
 _atom_site_fract_y
 _atom_site_fract_z
 _atom_site_occupancy
  V  V0  1  0.77373400  0.19598700  0.38573000  1
  V  V1  1  0.22626600  0.80401300  0.61427000  1
  Zn  Zn2  1  0.72640200  0.09066000  0.90807500  1
  Zn  Zn3  1  0.27359800  0.90934000  0.09192500  1
  Zn  Zn4  1  0.28138000  0.38814500  0.17334500  1
  Zn  Zn5  1  0.71862000  0.61185500  0.82665500  1
  Bi  Bi6  1  0.78224400  0.70229900  0.28470700  1
  Bi  Bi7  1  0.21775600  0.29770100  0.71529300  1
  O  O8  1  0.86536000  0.34029600  0.87967700  1
  O  O9  1  0.13464000  0.65970400  0.12032300  1
  O  O10  1  0.86227700  0.01447000  0.22146800  1
  O  O11  1  0.13772300  0.98553000  0.77853200  1
  O  O12  1  0.35906500  0.19110000  0.99343100  1
  O  O13  1  0.64093500  0.80890000  0.00656900  1
  O  O14  1  0.33749500  0.90624600  0.38276900  1
  O  O15  1  0.66250500  0.09375400  0.61723100  1
  O  O16  1  0.01172500  0.31677600  0.39716300  1
  O  O17  1  0.98827500  0.68322400  0.60283700  1
  O  O18  1  0.44508400  0.61831000  0.69064500  1
  O  O19  1  0.55491600  0.38169000  0.30935500  1
