# generated using pymatgen
data_NaBO7
_symmetry_space_group_name_H-M   'P 1'
_cell_length_a   8.72090028
_cell_length_b   9.09112308
_cell_length_c   9.02645515
_cell_angle_alpha   93.12055531
_cell_angle_beta   119.15622151
_cell_angle_gamma   140.27778411
_symmetry_Int_Tables_number   1
_chemical_formula_structural   NaBO7
_chemical_formula_sum   'Na2 B2 O14'
_cell_volume   255.32260183
_cell_formula_units_Z   2
loop_
 _symmetry_equiv_pos_site_id
 _symmetry_equiv_pos_as_xyz
  1  'x, y, z'
loop_
 _atom_site_type_symbol
 _atom_site_label
 _atom_site_symmetry_multiplicity
 _atom_site_fract_x
 _atom_site_fract_y
 _atom_site_fract_z
 _atom_site_occupancy
  Na  Na0  1  0.00000000  0.00000000  0.00000000  1
  Na  Na1  1  0.00000000  0.50000000  0.00000000  1
  B  B2  1  0.95619100  0.24723800  0.32074200  1
  B  B3  1  0.04380900  0.75276200  0.67925800  1
  O  O4  1  0.84147600  0.98300200  0.58643500  1
  O  O5  1  0.15852400  0.01699800  0.41356500  1
  O  O6  1  0.67530800  0.51989100  0.44329500  1
  O  O7  1  0.32469200  0.48010900  0.55670500  1
  O  O8  1  0.43216100  0.22197100  0.66395500  1
  O  O9  1  0.56783900  0.77802900  0.33604500  1
  O  O10  1  0.73208800  0.96945200  0.65336300  1
  O  O11  1  0.26791200  0.03054800  0.34663700  1
  O  O12  1  0.70349500  0.29491100  0.15250100  1
  O  O13  1  0.29650500  0.70508900  0.84749900  1
  O  O14  1  0.74618100  0.00710600  0.09166300  1
  O  O15  1  0.25381900  0.99289400  0.90833700  1
  O  O16  1  0.73857300  0.20649400  0.27869100  1
  O  O17  1  0.26142700  0.79350600  0.72130900  1
