# generated using pymatgen
data_LuVO4
_symmetry_space_group_name_H-M   'P 1'
_cell_length_a   4.98111597
_cell_length_b   5.05946090
_cell_length_c   6.54803407
_cell_angle_alpha   112.34041318
_cell_angle_beta   111.96427551
_cell_angle_gamma   90.93786428
_symmetry_Int_Tables_number   1
_chemical_formula_structural   LuVO4
_chemical_formula_sum   'Lu2 V2 O8'
_cell_volume   139.11834518
_cell_formula_units_Z   2
loop_
 _symmetry_equiv_pos_site_id
 _symmetry_equiv_pos_as_xyz
  1  'x, y, z'
loop_
 _atom_site_type_symbol
 _atom_site_label
 _atom_site_symmetry_multiplicity
 _atom_site_fract_x
 _atom_site_fract_y
 _atom_site_fract_z
 _atom_site_occupancy
  Lu  Lu0  1  0.62416600  0.87416600  0.74833300  1
  Lu  Lu1  1  0.37583400  0.12583400  0.25166700  1
  V  V2  1  0.13008100  0.38008100  0.76016200  1
  V  V3  1  0.86991900  0.61991900  0.23983800  1
  O  O4  1  0.21353800  0.85319700  0.41067000  1
  O  O5  1  0.30286900  0.44252800  0.58933000  1
  O  O6  1  0.94925100  0.28171400  0.08441600  1
  O  O7  1  0.78646200  0.14680300  0.58933000  1
  O  O8  1  0.63516500  0.80270200  0.08441600  1
  O  O9  1  0.05074900  0.71828600  0.91558400  1
  O  O10  1  0.36483500  0.19729800  0.91558400  1
  O  O11  1  0.69713100  0.55747200  0.41067000  1
