# generated using pymatgen
data_Mn(CO3)2
_symmetry_space_group_name_H-M   'P 1'
_cell_length_a   5.68893400
_cell_length_b   5.84089400
_cell_length_c   16.44336200
_cell_angle_alpha   90.00000000
_cell_angle_beta   90.00000000
_cell_angle_gamma   90.00000000
_symmetry_Int_Tables_number   1
_chemical_formula_structural   Mn(CO3)2
_chemical_formula_sum   'Mn4 C8 O24'
_cell_volume   546.38760416
_cell_formula_units_Z   4
loop_
 _symmetry_equiv_pos_site_id
 _symmetry_equiv_pos_as_xyz
  1  'x, y, z'
loop_
 _atom_site_type_symbol
 _atom_site_label
 _atom_site_symmetry_multiplicity
 _atom_site_fract_x
 _atom_site_fract_y
 _atom_site_fract_z
 _atom_site_occupancy
  Mn  Mn0  1  0.41785500  0.83681100  0.89435400  1
  Mn  Mn1  1  0.91785500  0.66318900  0.10564600  1
  Mn  Mn2  1  0.58214500  0.33681100  0.60564600  1
  Mn  Mn3  1  0.08214500  0.16318900  0.39435400  1
  C  C4  1  0.94553300  0.86049000  0.84994700  1
  C  C5  1  0.44553300  0.63951000  0.15005300  1
  C  C6  1  0.05446700  0.36049000  0.65005300  1
  C  C7  1  0.55446700  0.13951000  0.34994700  1
  C  C8  1  0.09143100  0.88727700  0.77102100  1
  C  C9  1  0.59143100  0.61272300  0.22897900  1
  C  C10  1  0.90856900  0.38727700  0.72897900  1
  C  C11  1  0.40856900  0.11272300  0.27102100  1
  O  O12  1  0.06557600  0.83302300  0.91436900  1
  O  O13  1  0.56557600  0.66697700  0.08563100  1
  O  O14  1  0.93442400  0.33302300  0.58563100  1
  O  O15  1  0.43442400  0.16697700  0.41436900  1
  O  O16  1  0.31850500  0.90017700  0.78767900  1
  O  O17  1  0.81850500  0.59982300  0.21232100  1
  O  O18  1  0.68149500  0.40017700  0.71232100  1
  O  O19  1  0.18149500  0.09982300  0.28767900  1
  O  O20  1  0.00859700  0.89432900  0.70283400  1
  O  O21  1  0.50859700  0.60567100  0.29716600  1
  O  O22  1  0.99140300  0.39432900  0.79716600  1
  O  O23  1  0.49140300  0.10567100  0.20283400  1
  O  O24  1  0.72597300  0.87117100  0.84192200  1
  O  O25  1  0.22597300  0.62882900  0.15807800  1
  O  O26  1  0.27402700  0.37117100  0.65807800  1
  O  O27  1  0.77402700  0.12882900  0.34192200  1
  O  O28  1  0.44640500  0.57290300  0.91763300  1
  O  O29  1  0.94640500  0.92709700  0.08236700  1
  O  O30  1  0.55359500  0.07290300  0.58236700  1
  O  O31  1  0.05359500  0.42709700  0.41763300  1
  O  O32  1  0.45365000  0.02791500  0.96286100  1
  O  O33  1  0.95365000  0.47208500  0.03713900  1
  O  O34  1  0.54635000  0.52791500  0.53713900  1
  O  O35  1  0.04635000  0.97208500  0.46286100  1
