# generated using pymatgen
data_MgU2Si2O17
_symmetry_space_group_name_H-M   'P 1'
_cell_length_a   9.38590218
_cell_length_b   9.38590218
_cell_length_c   6.73052773
_cell_angle_alpha   78.07477752
_cell_angle_beta   78.07477752
_cell_angle_gamma   44.01697578
_symmetry_Int_Tables_number   1
_chemical_formula_structural   MgU2Si2O17
_chemical_formula_sum   'Mg1 U2 Si2 O17'
_cell_volume   401.64465130
_cell_formula_units_Z   1
loop_
 _symmetry_equiv_pos_site_id
 _symmetry_equiv_pos_as_xyz
  1  'x, y, z'
loop_
 _atom_site_type_symbol
 _atom_site_label
 _atom_site_symmetry_multiplicity
 _atom_site_fract_x
 _atom_site_fract_y
 _atom_site_fract_z
 _atom_site_occupancy
  Mg  Mg0  1  0.00000000  0.00000000  0.50000000  1
  U  U1  1  0.26074800  0.26074800  0.85130100  1
  U  U2  1  0.73925200  0.73925200  0.14869900  1
  Si  Si3  1  0.20862600  0.20862600  0.34747000  1
  Si  Si4  1  0.79137400  0.79137400  0.65253000  1
  O  O5  1  0.15421400  0.15421400  0.92194400  1
  O  O6  1  0.84578600  0.84578600  0.07805600  1
  O  O7  1  0.36697500  0.36697500  0.82131500  1
  O  O8  1  0.63302500  0.63302500  0.17868500  1
  O  O9  1  0.11501500  0.11501500  0.43702700  1
  O  O10  1  0.88498500  0.88498500  0.56297300  1
  O  O11  1  0.25347400  0.25347400  0.53698500  1
  O  O12  1  0.74652600  0.74652600  0.46301500  1
  O  O13  1  0.05949000  0.41819800  0.19071100  1
  O  O14  1  0.41819800  0.05949000  0.19071100  1
  O  O15  1  0.94051000  0.58180200  0.80928900  1
  O  O16  1  0.58180200  0.94051000  0.80928900  1
  O  O17  1  0.86502400  0.15016700  0.20829200  1
  O  O18  1  0.15016700  0.86502400  0.20829200  1
  O  O19  1  0.13497600  0.84983300  0.79170800  1
  O  O20  1  0.84983300  0.13497600  0.79170800  1
  O  O21  1  0.00000000  0.00000000  0.00000000  1
