# generated using pymatgen
data_NaCo4(CO5)3
_symmetry_space_group_name_H-M   'P 1'
_cell_length_a   6.20088700
_cell_length_b   10.02340600
_cell_length_c   10.04251448
_cell_angle_alpha   60.17152868
_cell_angle_beta   90.00000000
_cell_angle_gamma   90.00000000
_symmetry_Int_Tables_number   1
_chemical_formula_structural   NaCo4(CO5)3
_chemical_formula_sum   'Na2 Co8 C6 O30'
_cell_volume   541.48981952
_cell_formula_units_Z   2
loop_
 _symmetry_equiv_pos_site_id
 _symmetry_equiv_pos_as_xyz
  1  'x, y, z'
loop_
 _atom_site_type_symbol
 _atom_site_label
 _atom_site_symmetry_multiplicity
 _atom_site_fract_x
 _atom_site_fract_y
 _atom_site_fract_z
 _atom_site_occupancy
  Na  Na0  1  0.13440500  0.00154000  0.99940400  1
  Na  Na1  1  0.63440500  0.99846000  0.00059600  1
  Co  Co2  1  0.24454000  0.49460400  0.00099500  1
  Co  Co3  1  0.24467300  0.00073400  0.50443400  1
  Co  Co4  1  0.24396700  0.50434900  0.49478600  1
  Co  Co5  1  0.74454000  0.50539600  0.99900500  1
  Co  Co6  1  0.74467300  0.99926600  0.49556600  1
  Co  Co7  1  0.74396700  0.49565100  0.50521400  1
  Co  Co8  1  0.91308500  0.66616500  0.66794400  1
  Co  Co9  1  0.41308500  0.33383500  0.33205600  1
  C  C10  1  0.49020200  0.44228600  0.78872900  1
  C  C11  1  0.49078900  0.78886700  0.76866200  1
  C  C12  1  0.48937800  0.76925500  0.44129400  1
  C  C13  1  0.99020200  0.55771400  0.21127100  1
  C  C14  1  0.99078900  0.21113300  0.23133800  1
  C  C15  1  0.98937800  0.23074500  0.55870600  1
  O  O16  1  0.38492200  0.08805000  0.79474000  1
  O  O17  1  0.38216800  0.81779200  0.10515700  1
  O  O18  1  0.38547700  0.08922000  0.09520200  1
  O  O19  1  0.88492200  0.91195000  0.20526000  1
  O  O20  1  0.88216800  0.18220800  0.89484300  1
  O  O21  1  0.88547700  0.91078000  0.90479800  1
  O  O22  1  0.99593300  0.60114900  0.87470900  1
  O  O23  1  0.99595100  0.87436400  0.52328700  1
  O  O24  1  0.99544900  0.52484900  0.60110200  1
  O  O25  1  0.49593300  0.39885100  0.12529100  1
  O  O26  1  0.49595100  0.12563600  0.47671300  1
  O  O27  1  0.49544900  0.47515100  0.39889800  1
  O  O28  1  0.31184000  0.42938400  0.85855500  1
  O  O29  1  0.31295300  0.86078200  0.71243400  1
  O  O30  1  0.31125700  0.71208300  0.42855100  1
  O  O31  1  0.81184000  0.57061600  0.14144500  1
  O  O32  1  0.81295300  0.13921800  0.28756600  1
  O  O33  1  0.81125700  0.28791700  0.57144900  1
  O  O34  1  0.67408200  0.47937900  0.82505300  1
  O  O35  1  0.67395900  0.82458300  0.69449800  1
  O  O36  1  0.67347800  0.69598200  0.47801600  1
  O  O37  1  0.17408200  0.52062100  0.17494700  1
  O  O38  1  0.17395900  0.17541700  0.30550200  1
  O  O39  1  0.17347800  0.30401800  0.52198400  1
  O  O40  1  0.48794600  0.41948800  0.67342900  1
  O  O41  1  0.48815800  0.67322200  0.90557800  1
  O  O42  1  0.48738500  0.90700400  0.41964200  1
  O  O43  1  0.98794600  0.58051200  0.32657100  1
  O  O44  1  0.98815800  0.32677800  0.09442200  1
  O  O45  1  0.98738500  0.09299600  0.58035800  1
