# generated using pymatgen
data_Mg5(Si4O15)2
_symmetry_space_group_name_H-M   'P 1'
_cell_length_a   5.35703300
_cell_length_b   13.39151400
_cell_length_c   18.30437900
_cell_angle_alpha   90.00000000
_cell_angle_beta   90.00000000
_cell_angle_gamma   90.00000000
_symmetry_Int_Tables_number   1
_chemical_formula_structural   Mg5(Si4O15)2
_chemical_formula_sum   'Mg10 Si16 O60'
_cell_volume   1313.13386238
_cell_formula_units_Z   2
loop_
 _symmetry_equiv_pos_site_id
 _symmetry_equiv_pos_as_xyz
  1  'x, y, z'
loop_
 _atom_site_type_symbol
 _atom_site_label
 _atom_site_symmetry_multiplicity
 _atom_site_fract_x
 _atom_site_fract_y
 _atom_site_fract_z
 _atom_site_occupancy
  Mg  Mg0  1  0.00000000  0.50000000  0.50000000  1
  Mg  Mg1  1  0.00000000  0.00000000  0.00000000  1
  Mg  Mg2  1  0.50000000  0.50000000  0.59495000  1
  Mg  Mg3  1  0.50000000  0.00000000  0.90505000  1
  Mg  Mg4  1  0.50000000  0.50000000  0.40505000  1
  Mg  Mg5  1  0.50000000  0.00000000  0.09495000  1
  Mg  Mg6  1  0.00000000  0.50000000  0.66727700  1
  Mg  Mg7  1  0.00000000  0.00000000  0.83272300  1
  Mg  Mg8  1  0.00000000  0.50000000  0.33272300  1
  Mg  Mg9  1  0.00000000  0.00000000  0.16727700  1
  Si  Si10  1  0.82436400  0.29081200  0.58494700  1
  Si  Si11  1  0.17563600  0.70918800  0.58494700  1
  Si  Si12  1  0.82436400  0.20918800  0.91505300  1
  Si  Si13  1  0.17563600  0.79081200  0.91505300  1
  Si  Si14  1  0.17563600  0.70918800  0.41505300  1
  Si  Si15  1  0.82436400  0.29081200  0.41505300  1
  Si  Si16  1  0.17563600  0.79081200  0.08494700  1
  Si  Si17  1  0.82436400  0.20918800  0.08494700  1
  Si  Si18  1  0.31818800  0.29028300  0.66652700  1
  Si  Si19  1  0.68181200  0.70971700  0.66652700  1
  Si  Si20  1  0.31818800  0.20971700  0.83347300  1
  Si  Si21  1  0.68181200  0.79028300  0.83347300  1
  Si  Si22  1  0.68181200  0.70971700  0.33347300  1
  Si  Si23  1  0.31818800  0.29028300  0.33347300  1
  Si  Si24  1  0.68181200  0.79028300  0.16652700  1
  Si  Si25  1  0.31818800  0.20971700  0.16652700  1
  O  O26  1  0.35321800  0.44081700  0.50000000  1
  O  O27  1  0.64678200  0.55918300  0.50000000  1
  O  O28  1  0.35321800  0.05918300  0.00000000  1
  O  O29  1  0.64678200  0.94081700  0.00000000  1
  O  O30  1  0.83375100  0.41352000  0.58881100  1
  O  O31  1  0.16624900  0.58648000  0.58881100  1
  O  O32  1  0.83375100  0.08648000  0.91118900  1
  O  O33  1  0.16624900  0.91352000  0.91118900  1
  O  O34  1  0.16624900  0.58648000  0.41118900  1
  O  O35  1  0.83375100  0.41352000  0.41118900  1
  O  O36  1  0.16624900  0.91352000  0.08881100  1
  O  O37  1  0.83375100  0.08648000  0.08881100  1
  O  O38  1  0.30448300  0.41137500  0.66481100  1
  O  O39  1  0.69551700  0.58862500  0.66481100  1
  O  O40  1  0.30448300  0.08862500  0.83518900  1
  O  O41  1  0.69551700  0.91137500  0.83518900  1
  O  O42  1  0.69551700  0.58862500  0.33518900  1
  O  O43  1  0.30448300  0.41137500  0.33518900  1
  O  O44  1  0.69551700  0.91137500  0.16481100  1
  O  O45  1  0.30448300  0.08862500  0.16481100  1
  O  O46  1  0.81200500  0.46849500  0.78279300  1
  O  O47  1  0.18799500  0.53150500  0.78279300  1
  O  O48  1  0.81200500  0.03150500  0.71720700  1
  O  O49  1  0.18799500  0.96849500  0.71720700  1
  O  O50  1  0.18799500  0.53150500  0.21720700  1
  O  O51  1  0.81200500  0.46849500  0.21720700  1
  O  O52  1  0.18799500  0.96849500  0.28279300  1
  O  O53  1  0.81200500  0.03150500  0.28279300  1
  O  O54  1  0.82881400  0.25333300  0.50000000  1
  O  O55  1  0.17118600  0.74666700  0.50000000  1
  O  O56  1  0.82881400  0.24666700  0.00000000  1
  O  O57  1  0.17118600  0.75333300  0.00000000  1
  O  O58  1  0.32705200  0.25000000  0.75000000  1
  O  O59  1  0.67294800  0.75000000  0.75000000  1
  O  O60  1  0.67294800  0.75000000  0.25000000  1
  O  O61  1  0.32705200  0.25000000  0.25000000  1
  O  O62  1  0.56888300  0.25042300  0.62394500  1
  O  O63  1  0.43111700  0.74957700  0.62394500  1
  O  O64  1  0.56888300  0.24957700  0.87605500  1
  O  O65  1  0.43111700  0.75042300  0.87605500  1
  O  O66  1  0.43111700  0.74957700  0.37605500  1
  O  O67  1  0.56888300  0.25042300  0.37605500  1
  O  O68  1  0.43111700  0.75042300  0.12394500  1
  O  O69  1  0.56888300  0.24957700  0.12394500  1
  O  O70  1  0.06690600  0.24334400  0.62729100  1
  O  O71  1  0.93309400  0.75665600  0.62729100  1
  O  O72  1  0.06690600  0.25665600  0.87270900  1
  O  O73  1  0.93309400  0.74334400  0.87270900  1
  O  O74  1  0.93309400  0.75665600  0.37270900  1
  O  O75  1  0.06690600  0.24334400  0.37270900  1
  O  O76  1  0.93309400  0.74334400  0.12729100  1
  O  O77  1  0.06690600  0.25665600  0.12729100  1
  O  O78  1  0.50000000  0.50000000  0.85837500  1
  O  O79  1  0.50000000  0.00000000  0.64162500  1
  O  O80  1  0.50000000  0.50000000  0.14162500  1
  O  O81  1  0.50000000  0.00000000  0.35837500  1
  O  O82  1  0.00000000  0.50000000  0.82248100  1
  O  O83  1  0.00000000  0.00000000  0.67751900  1
  O  O84  1  0.00000000  0.50000000  0.17751900  1
  O  O85  1  0.00000000  0.00000000  0.32248100  1
