# generated using pymatgen
data_NaAlS2O19
_symmetry_space_group_name_H-M   'P 1'
_cell_length_a   11.55504909
_cell_length_b   11.55504909
_cell_length_c   8.29750683
_cell_angle_alpha   87.88790446
_cell_angle_beta   87.88790446
_cell_angle_gamma   44.45624019
_symmetry_Int_Tables_number   1
_chemical_formula_structural   NaAlS2O19
_chemical_formula_sum   'Na2 Al2 S4 O38'
_cell_volume   775.30170939
_cell_formula_units_Z   2
loop_
 _symmetry_equiv_pos_site_id
 _symmetry_equiv_pos_as_xyz
  1  'x, y, z'
loop_
 _atom_site_type_symbol
 _atom_site_label
 _atom_site_symmetry_multiplicity
 _atom_site_fract_x
 _atom_site_fract_y
 _atom_site_fract_z
 _atom_site_occupancy
  Na  Na0  1  0.00000000  0.00000000  0.00000000  1
  Na  Na1  1  0.00000000  0.00000000  0.50000000  1
  Al  Al2  1  0.00000000  0.50000000  0.00000000  1
  Al  Al3  1  0.50000000  0.00000000  0.50000000  1
  S  S4  1  0.11785300  0.62855700  0.52500600  1
  S  S5  1  0.37144300  0.88214700  0.97499400  1
  S  S6  1  0.88214700  0.37144300  0.47499400  1
  S  S7  1  0.62855700  0.11785300  0.02500600  1
  O  O8  1  0.26324700  0.46094600  0.59228000  1
  O  O9  1  0.53905400  0.73675300  0.90772000  1
  O  O10  1  0.73675300  0.53905400  0.40772000  1
  O  O11  1  0.46094600  0.26324700  0.09228000  1
  O  O12  1  0.09703600  0.75420200  0.60625300  1
  O  O13  1  0.24579800  0.90296400  0.89374700  1
  O  O14  1  0.90296400  0.24579800  0.39374700  1
  O  O15  1  0.75420200  0.09703600  0.10625300  1
  O  O16  1  0.97247800  0.65508000  0.55493300  1
  O  O17  1  0.34492000  0.02752200  0.94506700  1
  O  O18  1  0.02752200  0.34492000  0.44506700  1
  O  O19  1  0.65508000  0.97247800  0.05493300  1
  O  O20  1  0.13971000  0.63436400  0.34763400  1
  O  O21  1  0.36563600  0.86029000  0.15236600  1
  O  O22  1  0.86029000  0.36563600  0.65236600  1
  O  O23  1  0.63436400  0.13971000  0.84763400  1
  O  O24  1  0.08612600  0.45607100  0.19600000  1
  O  O25  1  0.54392900  0.91387400  0.30400000  1
  O  O26  1  0.91387400  0.54392900  0.80400000  1
  O  O27  1  0.45607100  0.08612600  0.69600000  1
  O  O28  1  0.00196000  0.71770000  0.96361000  1
  O  O29  1  0.28230000  0.99804000  0.53639000  1
  O  O30  1  0.99804000  0.28230000  0.03639000  1
  O  O31  1  0.71770000  0.00196000  0.46361000  1
  O  O32  1  0.20326800  0.37216400  0.91441300  1
  O  O33  1  0.62783600  0.79673200  0.58558700  1
  O  O34  1  0.79673200  0.62783600  0.08558700  1
  O  O35  1  0.37216400  0.20326800  0.41441300  1
  O  O36  1  0.14439200  0.85560800  0.25000000  1
  O  O37  1  0.85560800  0.14439200  0.75000000  1
  O  O38  1  0.11108500  0.71483800  0.96175100  1
  O  O39  1  0.28516200  0.88891500  0.53824900  1
  O  O40  1  0.88891500  0.28516200  0.03824900  1
  O  O41  1  0.71483800  0.11108500  0.46175100  1
  O  O42  1  0.44509200  0.52499300  0.04731700  1
  O  O43  1  0.47500700  0.55490800  0.45268300  1
  O  O44  1  0.55490800  0.47500700  0.95268300  1
  O  O45  1  0.52499300  0.44509200  0.54731700  1
