# generated using pymatgen
data_Na2ZrPCO10
_symmetry_space_group_name_H-M   'P 1'
_cell_length_a   7.13622129
_cell_length_b   7.13622129
_cell_length_c   11.55804227
_cell_angle_alpha   64.68322726
_cell_angle_beta   64.68322726
_cell_angle_gamma   55.95717573
_symmetry_Int_Tables_number   1
_chemical_formula_structural   Na2ZrPCO10
_chemical_formula_sum   'Na4 Zr2 P2 C2 O20'
_cell_volume   426.73513502
_cell_formula_units_Z   2
loop_
 _symmetry_equiv_pos_site_id
 _symmetry_equiv_pos_as_xyz
  1  'x, y, z'
loop_
 _atom_site_type_symbol
 _atom_site_label
 _atom_site_symmetry_multiplicity
 _atom_site_fract_x
 _atom_site_fract_y
 _atom_site_fract_z
 _atom_site_occupancy
  Na  Na0  1  0.27878100  0.78086500  0.67878400  1
  Na  Na1  1  0.21913500  0.72121900  0.32121600  1
  Na  Na2  1  0.72121900  0.21913500  0.32121600  1
  Na  Na3  1  0.78086500  0.27878100  0.67878400  1
  Zr  Zr4  1  0.17720000  0.17720000  0.86737000  1
  Zr  Zr5  1  0.82280000  0.82280000  0.13263000  1
  P  P6  1  0.75092700  0.75092700  0.87236300  1
  P  P7  1  0.24907300  0.24907300  0.12763700  1
  C  C8  1  0.29549300  0.29549300  0.60185500  1
  C  C9  1  0.70450700  0.70450700  0.39814500  1
  O  O10  1  0.87436700  0.49868400  0.85761100  1
  O  O11  1  0.50131600  0.12563300  0.14238900  1
  O  O12  1  0.12563300  0.50131600  0.14238900  1
  O  O13  1  0.49868400  0.87436700  0.85761100  1
  O  O14  1  0.26742200  0.26742200  0.98195200  1
  O  O15  1  0.73257800  0.73257800  0.01804800  1
  O  O16  1  0.88588300  0.88588300  0.77521300  1
  O  O17  1  0.11411700  0.11411700  0.22478700  1
  O  O18  1  0.65130100  0.65130100  0.52217300  1
  O  O19  1  0.34869900  0.34869900  0.47782700  1
  O  O20  1  0.35059800  0.35059800  0.67426600  1
  O  O21  1  0.64940200  0.64940200  0.32573400  1
  O  O22  1  0.17455000  0.17455000  0.67500600  1
  O  O23  1  0.82545000  0.82545000  0.32499400  1
  O  O24  1  0.01282700  0.01282700  0.05803300  1
  O  O25  1  0.98717300  0.98717300  0.94196700  1
  O  O26  1  0.46168700  0.46168700  0.83548400  1
  O  O27  1  0.53831300  0.53831300  0.16451600  1
  O  O28  1  0.05420900  0.05420900  0.48580300  1
  O  O29  1  0.94579100  0.94579100  0.51419700  1
