# generated using pymatgen
data_NaNdB6O13
_symmetry_space_group_name_H-M   'P 1'
_cell_length_a   6.78228386
_cell_length_b   7.41131752
_cell_length_c   11.82342059
_cell_angle_alpha   92.81852239
_cell_angle_beta   108.37844566
_cell_angle_gamma   89.95091439
_symmetry_Int_Tables_number   1
_chemical_formula_structural   NaNdB6O13
_chemical_formula_sum   'Na2 Nd2 B12 O26'
_cell_volume   563.24942394
_cell_formula_units_Z   2
loop_
 _symmetry_equiv_pos_site_id
 _symmetry_equiv_pos_as_xyz
  1  'x, y, z'
loop_
 _atom_site_type_symbol
 _atom_site_label
 _atom_site_symmetry_multiplicity
 _atom_site_fract_x
 _atom_site_fract_y
 _atom_site_fract_z
 _atom_site_occupancy
  Na  Na0  1  0.81113900  0.52420400  0.60910100  1
  Na  Na1  1  0.18886100  0.47579600  0.39089900  1
  Nd  Nd2  1  0.72722900  0.76382500  0.92615300  1
  Nd  Nd3  1  0.27277100  0.23617500  0.07384700  1
  B  B4  1  0.23584700  0.73414300  0.95851900  1
  B  B5  1  0.76415300  0.26585700  0.04148100  1
  B  B6  1  0.45854200  0.60413900  0.15564000  1
  B  B7  1  0.54145800  0.39586100  0.84436000  1
  B  B8  1  0.12749800  0.88009700  0.12726700  1
  B  B9  1  0.87250200  0.11990300  0.87273300  1
  B  B10  1  0.77970500  0.72435100  0.28163600  1
  B  B11  1  0.22029500  0.27564900  0.71836400  1
  B  B12  1  0.81250400  0.97051000  0.66250300  1
  B  B13  1  0.18749600  0.02949000  0.33749700  1
  B  B14  1  0.36088700  0.53606700  0.65456100  1
  B  B15  1  0.63911300  0.46393300  0.34543900  1
  O  O16  1  0.78806000  0.99081800  0.77522500  1
  O  O17  1  0.21194000  0.00918200  0.22477500  1
  O  O18  1  0.22593000  0.90247400  0.04077700  1
  O  O19  1  0.77407000  0.09752600  0.95922300  1
  O  O20  1  0.81731700  0.57356100  0.34711900  1
  O  O21  1  0.18268300  0.42643900  0.65288100  1
  O  O22  1  0.31325700  0.57841600  0.04701000  1
  O  O23  1  0.68674300  0.42158400  0.95299000  1
  O  O24  1  0.97089500  0.76497900  0.11252400  1
  O  O25  1  0.02910500  0.23502100  0.88747600  1
  O  O26  1  0.03444700  0.68352100  0.87913500  1
  O  O27  1  0.96555300  0.31647900  0.12086500  1
  O  O28  1  0.10565400  0.87398400  0.38245900  1
  O  O29  1  0.89434600  0.12601600  0.61754100  1
  O  O30  1  0.60608700  0.74072000  0.18321900  1
  O  O31  1  0.39391300  0.25928000  0.81678100  1
  O  O32  1  0.54245700  0.51770400  0.75794500  1
  O  O33  1  0.45754300  0.48229600  0.24205500  1
  O  O34  1  0.89323700  0.88624300  0.30803400  1
  O  O35  1  0.10676300  0.11375700  0.69196600  1
  O  O36  1  0.37520700  0.76608400  0.89496800  1
  O  O37  1  0.62479300  0.23391600  0.10503200  1
  O  O38  1  0.36595300  0.63102400  0.56653500  1
  O  O39  1  0.63404700  0.36897600  0.43346500  1
  O  O40  1  0.76749200  0.82608900  0.58977700  1
  O  O41  1  0.23250800  0.17391100  0.41022300  1
