# generated using pymatgen
data_NaSeNO6
_symmetry_space_group_name_H-M   'P 1'
_cell_length_a   7.30938600
_cell_length_b   9.13794266
_cell_length_c   13.51598079
_cell_angle_alpha   88.29911700
_cell_angle_beta   88.71267210
_cell_angle_gamma   75.58648252
_symmetry_Int_Tables_number   1
_chemical_formula_structural   NaSeNO6
_chemical_formula_sum   'Na4 Se4 N4 O24'
_cell_volume   873.86312606
_cell_formula_units_Z   4
loop_
 _symmetry_equiv_pos_site_id
 _symmetry_equiv_pos_as_xyz
  1  'x, y, z'
loop_
 _atom_site_type_symbol
 _atom_site_label
 _atom_site_symmetry_multiplicity
 _atom_site_fract_x
 _atom_site_fract_y
 _atom_site_fract_z
 _atom_site_occupancy
  Na  Na0  1  0.73018600  0.49315100  0.52692500  1
  Na  Na1  1  0.26981400  0.50684900  0.47307500  1
  Na  Na2  1  0.28021900  0.96671300  0.99427700  1
  Na  Na3  1  0.71978100  0.03328700  0.00572300  1
  Se  Se4  1  0.42278600  0.31033100  0.86934400  1
  Se  Se5  1  0.57721400  0.68966900  0.13065600  1
  Se  Se6  1  0.62840400  0.84838900  0.64918800  1
  Se  Se7  1  0.37159600  0.15161100  0.35081200  1
  N  N8  1  0.15515100  0.10390100  0.69310900  1
  N  N9  1  0.84484900  0.89609900  0.30689100  1
  N  N10  1  0.47029500  0.29630800  0.17625000  1
  N  N11  1  0.52970500  0.70369200  0.82375000  1
  O  O12  1  0.63926100  0.30798000  0.83210400  1
  O  O13  1  0.36073900  0.69202000  0.16789600  1
  O  O14  1  0.15303200  0.22883400  0.70510100  1
  O  O15  1  0.84696800  0.77116600  0.29489900  1
  O  O16  1  0.43017900  0.14730700  0.93324400  1
  O  O17  1  0.56982100  0.85269300  0.06675600  1
  O  O18  1  0.41049000  0.66653700  0.87529500  1
  O  O19  1  0.58951000  0.33346300  0.12470500  1
  O  O20  1  0.82928100  0.81906500  0.70622200  1
  O  O21  1  0.17071900  0.18093500  0.29377800  1
  O  O22  1  0.44991300  0.77215600  0.73610000  1
  O  O23  1  0.55008700  0.22784400  0.26390000  1
  O  O24  1  0.63330000  0.73793700  0.55373100  1
  O  O25  1  0.36670000  0.26206300  0.44626900  1
  O  O26  1  0.50233600  0.02269200  0.63491700  1
  O  O27  1  0.49766400  0.97730800  0.36508300  1
  O  O28  1  0.62936300  0.55073500  0.36102800  1
  O  O29  1  0.37063700  0.44926500  0.63897200  1
  O  O30  1  0.97042700  0.00960500  0.87913600  1
  O  O31  1  0.02957300  0.99039500  0.12086400  1
  O  O32  1  0.97120400  0.12513100  0.08475500  1
  O  O33  1  0.02879600  0.87486900  0.91524500  1
  O  O34  1  0.54333200  0.37857600  0.62359400  1
  O  O35  1  0.45666800  0.62142400  0.37640600  1
