# generated using pymatgen
data_Na3AsH16(SO2)4
_symmetry_space_group_name_H-M   'P 1'
_cell_length_a   13.06966500
_cell_length_b   8.72972100
_cell_length_c   13.75981842
_cell_angle_alpha   76.52643248
_cell_angle_beta   90.00000000
_cell_angle_gamma   90.00000000
_symmetry_Int_Tables_number   1
_chemical_formula_structural   Na3AsH16(SO2)4
_chemical_formula_sum   'Na12 As4 H64 S16 O32'
_cell_volume   1526.71189951
_cell_formula_units_Z   4
loop_
 _symmetry_equiv_pos_site_id
 _symmetry_equiv_pos_as_xyz
  1  'x, y, z'
loop_
 _atom_site_type_symbol
 _atom_site_label
 _atom_site_symmetry_multiplicity
 _atom_site_fract_x
 _atom_site_fract_y
 _atom_site_fract_z
 _atom_site_occupancy
  Na  Na0  1  0.50000000  0.00000000  0.50000000  1
  Na  Na1  1  0.00000000  0.00000000  0.00000000  1
  Na  Na2  1  0.00000000  0.50000000  0.50000000  1
  Na  Na3  1  0.50000000  0.50000000  0.00000000  1
  Na  Na4  1  0.04981200  0.66392600  0.90963600  1
  Na  Na5  1  0.54981200  0.33607400  0.59036400  1
  Na  Na6  1  0.95018800  0.33607400  0.09036400  1
  Na  Na7  1  0.45018800  0.66392600  0.40963600  1
  Na  Na8  1  0.55875100  0.16931200  0.91672200  1
  Na  Na9  1  0.05875100  0.83068800  0.58327800  1
  Na  Na10  1  0.44124900  0.83068800  0.08327800  1
  Na  Na11  1  0.94124900  0.16931200  0.41672200  1
  As  As12  1  0.17184000  0.28526200  0.75144500  1
  As  As13  1  0.67184000  0.71473800  0.74855500  1
  As  As14  1  0.82816000  0.71473800  0.24855500  1
  As  As15  1  0.32816000  0.28526200  0.25144500  1
  H  H16  1  0.65384000  0.81458100  0.40604700  1
  H  H17  1  0.15384000  0.18541900  0.09395300  1
  H  H18  1  0.34616000  0.18541900  0.59395300  1
  H  H19  1  0.84616000  0.81458100  0.90604700  1
  H  H20  1  0.63709600  0.73020300  0.51660700  1
  H  H21  1  0.13709600  0.26979700  0.98339300  1
  H  H22  1  0.36290400  0.26979700  0.48339300  1
  H  H23  1  0.86290400  0.73020300  0.01660700  1
  H  H24  1  0.30875400  0.92864100  0.41634900  1
  H  H25  1  0.80875400  0.07135900  0.08365100  1
  H  H26  1  0.69124600  0.07135900  0.58365100  1
  H  H27  1  0.19124600  0.92864100  0.91634900  1
  H  H28  1  0.30863900  0.82860900  0.52904300  1
  H  H29  1  0.80863900  0.17139100  0.97095700  1
  H  H30  1  0.69136100  0.17139100  0.47095700  1
  H  H31  1  0.19136100  0.82860900  0.02904300  1
  H  H32  1  0.93469700  0.23053800  0.63389100  1
  H  H33  1  0.43469700  0.76946200  0.86610900  1
  H  H34  1  0.06530300  0.76946200  0.36610900  1
  H  H35  1  0.56530300  0.23053800  0.13389100  1
  H  H36  1  0.83330100  0.28737900  0.57587600  1
  H  H37  1  0.33330100  0.71262100  0.92412400  1
  H  H38  1  0.16669900  0.71262100  0.42412400  1
  H  H39  1  0.66669900  0.28737900  0.07587600  1
  H  H40  1  0.98166800  0.49818300  0.69727000  1
  H  H41  1  0.48166800  0.50181700  0.80273000  1
  H  H42  1  0.01833200  0.50181700  0.30273000  1
  H  H43  1  0.51833200  0.49818300  0.19727000  1
  H  H44  1  0.88397600  0.59050700  0.65233800  1
  H  H45  1  0.38397600  0.40949300  0.84766200  1
  H  H46  1  0.11602400  0.40949300  0.34766200  1
  H  H47  1  0.61602400  0.59050700  0.15233800  1
  H  H48  1  0.94143700  0.39068300  0.87121000  1
  H  H49  1  0.44143700  0.60931700  0.62879000  1
  H  H50  1  0.05856300  0.60931700  0.12879000  1
  H  H51  1  0.55856300  0.39068300  0.37121000  1
  H  H52  1  0.85487300  0.50251100  0.89856900  1
  H  H53  1  0.35487300  0.49748900  0.60143100  1
  H  H54  1  0.14512700  0.49748900  0.10143100  1
  H  H55  1  0.64512700  0.50251100  0.39856900  1
  H  H56  1  0.02972000  0.96285500  0.76169700  1
  H  H57  1  0.52972000  0.03714500  0.73830300  1
  H  H58  1  0.97028000  0.03714500  0.23830300  1
  H  H59  1  0.47028000  0.96285500  0.26169700  1
  H  H60  1  0.94282900  0.85248000  0.74370200  1
  H  H61  1  0.44282900  0.14752000  0.75629800  1
  H  H62  1  0.05717100  0.14752000  0.25629800  1
  H  H63  1  0.55717100  0.85248000  0.24370200  1
  H  H64  1  0.73333000  0.31289700  0.80102000  1
  H  H65  1  0.23333000  0.68710300  0.69898000  1
  H  H66  1  0.26667000  0.68710300  0.19898000  1
  H  H67  1  0.76667000  0.31289700  0.30102000  1
  H  H68  1  0.74342600  0.13031700  0.81248800  1
  H  H69  1  0.24342600  0.86968300  0.68751200  1
  H  H70  1  0.25657400  0.86968300  0.18751200  1
  H  H71  1  0.75657400  0.13031700  0.31248800  1
  H  H72  1  0.63749200  0.82583600  0.96905500  1
  H  H73  1  0.13749200  0.17416400  0.53094500  1
  H  H74  1  0.36250800  0.17416400  0.03094500  1
  H  H75  1  0.86250800  0.82583600  0.46905500  1
  H  H76  1  0.65476000  0.90388200  0.05986500  1
  H  H77  1  0.15476000  0.09611800  0.44013500  1
  H  H78  1  0.34524000  0.09611800  0.94013500  1
  H  H79  1  0.84524000  0.90388200  0.55986500  1
  S  S80  1  0.01086600  0.21439200  0.78457900  1
  S  S81  1  0.51086600  0.78560800  0.71542100  1
  S  S82  1  0.98913400  0.78560800  0.21542100  1
  S  S83  1  0.48913400  0.21439200  0.28457900  1
  S  S84  1  0.19183800  0.38821700  0.59338800  1
  S  S85  1  0.69183800  0.61178300  0.90661200  1
  S  S86  1  0.80816200  0.61178300  0.40661200  1
  S  S87  1  0.30816200  0.38821700  0.09338800  1
  S  S88  1  0.21347800  0.45240000  0.84146700  1
  S  S89  1  0.71347800  0.54760000  0.65853300  1
  S  S90  1  0.78652200  0.54760000  0.15853300  1
  S  S91  1  0.28652200  0.45240000  0.34146700  1
  S  S92  1  0.27234100  0.07651800  0.78852500  1
  S  S93  1  0.77234100  0.92348200  0.71147500  1
  S  S94  1  0.72765900  0.92348200  0.21147500  1
  S  S95  1  0.22765900  0.07651800  0.28852500  1
  O  O96  1  0.60320000  0.80255100  0.45998300  1
  O  O97  1  0.10320000  0.19744900  0.04001700  1
  O  O98  1  0.39680000  0.19744900  0.54001700  1
  O  O99  1  0.89680000  0.80255100  0.95998300  1
  O  O100  1  0.34872700  0.85127600  0.46641000  1
  O  O101  1  0.84872700  0.14872400  0.03359000  1
  O  O102  1  0.65127300  0.14872400  0.53359000  1
  O  O103  1  0.15127300  0.85127600  0.96641000  1
  O  O104  1  0.90444600  0.26056000  0.56609300  1
  O  O105  1  0.40444600  0.73944000  0.93390700  1
  O  O106  1  0.09555400  0.73944000  0.43390700  1
  O  O107  1  0.59555400  0.26056000  0.06609300  1
  O  O108  1  0.95949100  0.59000500  0.64545000  1
  O  O109  1  0.45949100  0.40999500  0.85455000  1
  O  O110  1  0.04050900  0.40999500  0.35455000  1
  O  O111  1  0.54050900  0.59000500  0.14545000  1
  O  O112  1  0.92660200  0.46788100  0.91158500  1
  O  O113  1  0.42660200  0.53211900  0.58841500  1
  O  O114  1  0.07339800  0.53211900  0.08841500  1
  O  O115  1  0.57339800  0.46788100  0.41158500  1
  O  O116  1  0.01800700  0.85572200  0.75145800  1
  O  O117  1  0.51800700  0.14427800  0.74854200  1
  O  O118  1  0.98199300  0.14427800  0.24854200  1
  O  O119  1  0.48199300  0.85572200  0.25145800  1
  O  O120  1  0.73461400  0.21138700  0.85097500  1
  O  O121  1  0.23461400  0.78861300  0.64902500  1
  O  O122  1  0.26538600  0.78861300  0.14902500  1
  O  O123  1  0.76538600  0.21138700  0.35097500  1
  O  O124  1  0.61018500  0.90749200  0.00127100  1
  O  O125  1  0.11018500  0.09250800  0.49872900  1
  O  O126  1  0.38981500  0.09250800  0.99872900  1
  O  O127  1  0.88981500  0.90749200  0.50127100  1
