# generated using pymatgen
data_Na3As(SO2)4
_symmetry_space_group_name_H-M   'P 1'
_cell_length_a   10.71663900
_cell_length_b   10.03277100
_cell_length_c   12.11867081
_cell_angle_alpha   74.66644391
_cell_angle_beta   90.00000000
_cell_angle_gamma   90.00000000
_symmetry_Int_Tables_number   1
_chemical_formula_structural   Na3As(SO2)4
_chemical_formula_sum   'Na12 As4 S16 O32'
_cell_volume   1256.58801303
_cell_formula_units_Z   4
loop_
 _symmetry_equiv_pos_site_id
 _symmetry_equiv_pos_as_xyz
  1  'x, y, z'
loop_
 _atom_site_type_symbol
 _atom_site_label
 _atom_site_symmetry_multiplicity
 _atom_site_fract_x
 _atom_site_fract_y
 _atom_site_fract_z
 _atom_site_occupancy
  Na  Na0  1  0.50000000  0.00000000  0.50000000  1
  Na  Na1  1  0.00000000  0.00000000  0.00000000  1
  Na  Na2  1  0.00000000  0.50000000  0.50000000  1
  Na  Na3  1  0.50000000  0.50000000  0.00000000  1
  Na  Na4  1  0.09813900  0.70024800  0.93792100  1
  Na  Na5  1  0.59813900  0.29975200  0.56207900  1
  Na  Na6  1  0.90186100  0.29975200  0.06207900  1
  Na  Na7  1  0.40186100  0.70024800  0.43792100  1
  Na  Na8  1  0.60016100  0.16346000  0.94676500  1
  Na  Na9  1  0.10016100  0.83654000  0.55323500  1
  Na  Na10  1  0.39983900  0.83654000  0.05323500  1
  Na  Na11  1  0.89983900  0.16346000  0.44676500  1
  As  As12  1  0.25038900  0.26404700  0.73082800  1
  As  As13  1  0.75038900  0.73595300  0.76917200  1
  As  As14  1  0.74961100  0.73595300  0.26917200  1
  As  As15  1  0.24961100  0.26404700  0.23082800  1
  S  S16  1  0.93148500  0.28044300  0.75816600  1
  S  S17  1  0.43148500  0.71955700  0.74183400  1
  S  S18  1  0.06851500  0.71955700  0.24183400  1
  S  S19  1  0.56851500  0.28044300  0.25816600  1
  S  S20  1  0.30237200  0.33224100  0.50980700  1
  S  S21  1  0.80237200  0.66775900  0.99019300  1
  S  S22  1  0.69762800  0.66775900  0.49019300  1
  S  S23  1  0.19762800  0.33224100  0.00980700  1
  S  S24  1  0.34917200  0.40961200  0.81076500  1
  S  S25  1  0.84917200  0.59038800  0.68923500  1
  S  S26  1  0.65082800  0.59038800  0.18923500  1
  S  S27  1  0.15082800  0.40961200  0.31076500  1
  S  S28  1  0.41394300  0.07424700  0.77947200  1
  S  S29  1  0.91394300  0.92575300  0.72052800  1
  S  S30  1  0.58605700  0.92575300  0.22052800  1
  S  S31  1  0.08605700  0.07424700  0.27947200  1
  O  O32  1  0.60437900  0.77543400  0.49995200  1
  O  O33  1  0.10437900  0.22456600  0.00004800  1
  O  O34  1  0.39562100  0.22456600  0.50004800  1
  O  O35  1  0.89562100  0.77543400  0.99995200  1
  O  O36  1  0.32639100  0.83868300  0.55465800  1
  O  O37  1  0.82639100  0.16131700  0.94534200  1
  O  O38  1  0.67360900  0.16131700  0.44534200  1
  O  O39  1  0.17360900  0.83868300  0.05465800  1
  O  O40  1  0.90771700  0.30477900  0.63161600  1
  O  O41  1  0.40771700  0.69522100  0.86838400  1
  O  O42  1  0.09228300  0.69522100  0.36838400  1
  O  O43  1  0.59228300  0.30477900  0.13161600  1
  O  O44  1  0.98003300  0.62852000  0.63538000  1
  O  O45  1  0.48003300  0.37148000  0.86462000  1
  O  O46  1  0.01996700  0.37148000  0.36462000  1
  O  O47  1  0.51996700  0.62852000  0.13538000  1
  O  O48  1  0.86051000  0.52850900  0.01075400  1
  O  O49  1  0.36051000  0.47149100  0.48924600  1
  O  O50  1  0.13949000  0.47149100  0.98924600  1
  O  O51  1  0.63949000  0.52850900  0.51075400  1
  O  O52  1  0.03423800  0.85433200  0.76666500  1
  O  O53  1  0.53423800  0.14566800  0.73333500  1
  O  O54  1  0.96576200  0.14566800  0.23333500  1
  O  O55  1  0.46576200  0.85433200  0.26666500  1
  O  O56  1  0.80684400  0.19427900  0.82187300  1
  O  O57  1  0.30684400  0.80572100  0.67812700  1
  O  O58  1  0.19315600  0.80572100  0.17812700  1
  O  O59  1  0.69315600  0.19427900  0.32187300  1
  O  O60  1  0.41258100  0.04366800  0.90758900  1
  O  O61  1  0.91258100  0.95633200  0.59241100  1
  O  O62  1  0.58741900  0.95633200  0.09241100  1
  O  O63  1  0.08741900  0.04366800  0.40758900  1
