# generated using pymatgen
data_K4Eu(PS4)2
_symmetry_space_group_name_H-M   'P 1'
_cell_length_a   11.35240577
_cell_length_b   11.35240577
_cell_length_c   11.35240577
_cell_angle_alpha   133.78550470
_cell_angle_beta   128.67912913
_cell_angle_gamma   71.52330599
_symmetry_Int_Tables_number   1
_chemical_formula_structural   K4Eu(PS4)2
_chemical_formula_sum   'K8 Eu2 P4 S16'
_cell_volume   807.05132860
_cell_formula_units_Z   2
loop_
 _symmetry_equiv_pos_site_id
 _symmetry_equiv_pos_as_xyz
  1  'x, y, z'
loop_
 _atom_site_type_symbol
 _atom_site_label
 _atom_site_symmetry_multiplicity
 _atom_site_fract_x
 _atom_site_fract_y
 _atom_site_fract_z
 _atom_site_occupancy
  K  K0  1  0.91775900  0.79771700  0.87995800  1
  K  K1  1  0.49369100  0.74369100  0.75000000  1
  K  K2  1  0.08224100  0.20228300  0.12004200  1
  K  K3  1  0.00630900  0.25630900  0.75000000  1
  K  K4  1  0.58224100  0.96219900  0.37995800  1
  K  K5  1  0.50630900  0.25630900  0.25000000  1
  K  K6  1  0.99369100  0.74369100  0.25000000  1
  K  K7  1  0.41775900  0.03780100  0.62004200  1
  Eu  Eu8  1  0.25000000  0.50000000  0.75000000  1
  Eu  Eu9  1  0.75000000  0.50000000  0.25000000  1
  P  P10  1  0.12801000  0.83358700  0.70557700  1
  P  P11  1  0.87199000  0.16641300  0.29442300  1
  P  P12  1  0.62801000  0.42243300  0.79442300  1
  P  P13  1  0.37199000  0.57756700  0.20557700  1
  S  S14  1  0.39447300  0.37017100  0.97569800  1
  S  S15  1  0.74883100  0.28294500  0.87015200  1
  S  S16  1  0.91279300  0.87867800  0.62984800  1
  S  S17  1  0.41279300  0.28294500  0.53411500  1
  S  S18  1  0.08720700  0.12132200  0.37015200  1
  S  S19  1  0.60552700  0.62982900  0.02430200  1
  S  S20  1  0.26236400  0.50693700  0.24457300  1
  S  S21  1  0.89447300  0.41877600  0.52430200  1
  S  S22  1  0.58720700  0.71705500  0.46588500  1
  S  S23  1  0.76236400  0.01779200  0.25542700  1
  S  S24  1  0.24883100  0.87867800  0.96588500  1
  S  S25  1  0.10552700  0.58122400  0.47569800  1
  S  S26  1  0.75116900  0.12132200  0.03411500  1
  S  S27  1  0.25116900  0.71705500  0.12984800  1
  S  S28  1  0.73763600  0.49306300  0.75542700  1
  S  S29  1  0.23763600  0.98220800  0.74457300  1
