# generated using pymatgen
data_KIO3
_symmetry_space_group_name_H-M   'P 1'
_cell_length_a   7.85111293
_cell_length_b   7.85111293
_cell_length_c   9.07698019
_cell_angle_alpha   54.80104569
_cell_angle_beta   54.80104569
_cell_angle_gamma   70.47362089
_symmetry_Int_Tables_number   1
_chemical_formula_structural   KIO3
_chemical_formula_sum   'K4 I4 O12'
_cell_volume   373.60376966
_cell_formula_units_Z   4
loop_
 _symmetry_equiv_pos_site_id
 _symmetry_equiv_pos_as_xyz
  1  'x, y, z'
loop_
 _atom_site_type_symbol
 _atom_site_label
 _atom_site_symmetry_multiplicity
 _atom_site_fract_x
 _atom_site_fract_y
 _atom_site_fract_z
 _atom_site_occupancy
  K  K0  1  0.99720700  0.00279300  0.50000000  1
  K  K1  1  0.49725300  0.50274700  0.00000000  1
  K  K2  1  0.00359800  0.99640200  0.00000000  1
  K  K3  1  0.50656100  0.49343900  0.50000000  1
  I  I4  1  0.48716500  0.97731100  0.03685000  1
  I  I5  1  0.97090300  0.49060700  0.50457900  1
  I  I6  1  0.50939300  0.02909700  0.49542100  1
  I  I7  1  0.02268900  0.51283500  0.96315000  1
  O  O8  1  0.19504900  0.73621300  0.78937400  1
  O  O9  1  0.73685000  0.19533800  0.27790100  1
  O  O10  1  0.69056000  0.77475000  0.05028300  1
  O  O11  1  0.26378700  0.80495100  0.21062600  1
  O  O12  1  0.45581100  0.03780100  0.21945300  1
  O  O13  1  0.76356200  0.68994000  0.50882000  1
  O  O14  1  0.22525000  0.30944000  0.94971700  1
  O  O15  1  0.80466200  0.26315000  0.72209900  1
  O  O16  1  0.01330000  0.47435400  0.29113100  1
  O  O17  1  0.52564600  0.98670000  0.70886900  1
  O  O18  1  0.31006000  0.23643800  0.49118000  1
  O  O19  1  0.96219900  0.54418900  0.78054700  1
