# generated using pymatgen
data_K3Rh
_symmetry_space_group_name_H-M   'P 1'
_cell_length_a   6.76675523
_cell_length_b   6.76675523
_cell_length_c   6.20083367
_cell_angle_alpha   74.58615008
_cell_angle_beta   74.58615008
_cell_angle_gamma   44.84533784
_symmetry_Int_Tables_number   1
_chemical_formula_structural   K3Rh
_chemical_formula_sum   'K3 Rh1'
_cell_volume   191.77095122
_cell_formula_units_Z   1
loop_
 _symmetry_equiv_pos_site_id
 _symmetry_equiv_pos_as_xyz
  1  'x, y, z'
loop_
 _atom_site_type_symbol
 _atom_site_label
 _atom_site_symmetry_multiplicity
 _atom_site_fract_x
 _atom_site_fract_y
 _atom_site_fract_z
 _atom_site_occupancy
  K  K0  1  0.00000000  0.00000000  0.50000000  1
  K  K1  1  0.65747700  0.65747700  0.87380400  1
  K  K2  1  0.34252300  0.34252300  0.12619600  1
  Rh  Rh3  1  0.00000000  0.00000000  0.00000000  1
