# generated using pymatgen
data_K3NaCr2O8
_symmetry_space_group_name_H-M   'P 1'
_cell_length_a   5.97880934
_cell_length_b   5.97880934
_cell_length_c   15.20873353
_cell_angle_alpha   89.78351357
_cell_angle_beta   89.78351357
_cell_angle_gamma   59.85209233
_symmetry_Int_Tables_number   1
_chemical_formula_structural   K3NaCr2O8
_chemical_formula_sum   'K6 Na2 Cr4 O16'
_cell_volume   470.11028615
_cell_formula_units_Z   2
loop_
 _symmetry_equiv_pos_site_id
 _symmetry_equiv_pos_as_xyz
  1  'x, y, z'
loop_
 _atom_site_type_symbol
 _atom_site_label
 _atom_site_symmetry_multiplicity
 _atom_site_fract_x
 _atom_site_fract_y
 _atom_site_fract_z
 _atom_site_occupancy
  K  K0  1  0.67226100  0.66205900  0.91447500  1
  K  K1  1  0.33794100  0.32773900  0.58552500  1
  K  K2  1  0.32773900  0.33794100  0.08552500  1
  K  K3  1  0.66205900  0.67226100  0.41447500  1
  K  K4  1  0.01752700  0.98247300  0.75000000  1
  K  K5  1  0.98247300  0.01752700  0.25000000  1
  Na  Na6  1  0.00000000  0.00000000  0.50000000  1
  Na  Na7  1  0.00000000  0.00000000  0.00000000  1
  Cr  Cr8  1  0.67009500  0.66086100  0.63595900  1
  Cr  Cr9  1  0.33913900  0.32990500  0.86404100  1
  Cr  Cr10  1  0.32990500  0.33913900  0.36404100  1
  Cr  Cr11  1  0.66086100  0.67009500  0.13595900  1
  O  O12  1  0.65377200  0.68018700  0.74382900  1
  O  O13  1  0.31981300  0.34622800  0.75617100  1
  O  O14  1  0.34622800  0.31981300  0.25617100  1
  O  O15  1  0.68018700  0.65377200  0.24382900  1
  O  O16  1  0.37178800  0.80661400  0.59319700  1
  O  O17  1  0.19338600  0.62821200  0.90680300  1
  O  O18  1  0.62821200  0.19338600  0.40680300  1
  O  O19  1  0.80661400  0.37178800  0.09319700  1
  O  O20  1  0.82691400  0.35177500  0.60367500  1
  O  O21  1  0.64822500  0.17308600  0.89632500  1
  O  O22  1  0.17308600  0.64822500  0.39632500  1
  O  O23  1  0.35177500  0.82691400  0.10367500  1
  O  O24  1  0.82627000  0.80721600  0.59680700  1
  O  O25  1  0.19278400  0.17373000  0.90319300  1
  O  O26  1  0.17373000  0.19278400  0.40319300  1
  O  O27  1  0.80721600  0.82627000  0.09680700  1
