# generated using pymatgen
data_KZnCl3O2
_symmetry_space_group_name_H-M   'P 1'
_cell_length_a   10.63183800
_cell_length_b   6.44184800
_cell_length_c   12.35330090
_cell_angle_alpha   76.07810752
_cell_angle_beta   90.00000000
_cell_angle_gamma   90.00000000
_symmetry_Int_Tables_number   1
_chemical_formula_structural   KZnCl3O2
_chemical_formula_sum   'K4 Zn4 Cl12 O8'
_cell_volume   821.20795371
_cell_formula_units_Z   4
loop_
 _symmetry_equiv_pos_site_id
 _symmetry_equiv_pos_as_xyz
  1  'x, y, z'
loop_
 _atom_site_type_symbol
 _atom_site_label
 _atom_site_symmetry_multiplicity
 _atom_site_fract_x
 _atom_site_fract_y
 _atom_site_fract_z
 _atom_site_occupancy
  K  K0  1  0.35252900  0.62365300  0.62581900  1
  K  K1  1  0.85252900  0.37634700  0.87418100  1
  K  K2  1  0.64747100  0.37634700  0.37418100  1
  K  K3  1  0.14747100  0.62365300  0.12581900  1
  Zn  Zn4  1  0.38411100  0.97400200  0.33065200  1
  Zn  Zn5  1  0.88411100  0.02599800  0.16934800  1
  Zn  Zn6  1  0.61588900  0.02599800  0.66934800  1
  Zn  Zn7  1  0.11588900  0.97400200  0.83065200  1
  Cl  Cl8  1  0.38164400  0.31728300  0.24956900  1
  Cl  Cl9  1  0.88164400  0.68271700  0.25043100  1
  Cl  Cl10  1  0.61835600  0.68271700  0.75043100  1
  Cl  Cl11  1  0.11835600  0.31728300  0.74956900  1
  Cl  Cl12  1  0.22149900  0.75701100  0.36533900  1
  Cl  Cl13  1  0.72149900  0.24298900  0.13466100  1
  Cl  Cl14  1  0.77850100  0.24298900  0.63466100  1
  Cl  Cl15  1  0.27850100  0.75701100  0.86533900  1
  Cl  Cl16  1  0.56474600  0.83468900  0.41132400  1
  Cl  Cl17  1  0.06474600  0.16531100  0.08867600  1
  Cl  Cl18  1  0.43525400  0.16531100  0.58867600  1
  Cl  Cl19  1  0.93525400  0.83468900  0.91132400  1
  O  O20  1  0.44027800  0.84330900  0.13509200  1
  O  O21  1  0.94027800  0.15669100  0.36490800  1
  O  O22  1  0.55972200  0.15669100  0.86490800  1
  O  O23  1  0.05972200  0.84330900  0.63509200  1
  O  O24  1  0.45136600  0.17445100  0.89675600  1
  O  O25  1  0.95136600  0.82554900  0.60324400  1
  O  O26  1  0.54863400  0.82554900  0.10324400  1
  O  O27  1  0.04863400  0.17445100  0.39675600  1
