# generated using pymatgen
data_K2PdN2(ClO2)2
_symmetry_space_group_name_H-M   'P 1'
_cell_length_a   4.73235900
_cell_length_b   7.05971384
_cell_length_c   7.87766620
_cell_angle_alpha   67.34221710
_cell_angle_beta   75.08665789
_cell_angle_gamma   81.19090223
_symmetry_Int_Tables_number   1
_chemical_formula_structural   K2PdN2(ClO2)2
_chemical_formula_sum   'K2 Pd1 N2 Cl2 O4'
_cell_volume   234.26199229
_cell_formula_units_Z   1
loop_
 _symmetry_equiv_pos_site_id
 _symmetry_equiv_pos_as_xyz
  1  'x, y, z'
loop_
 _atom_site_type_symbol
 _atom_site_label
 _atom_site_symmetry_multiplicity
 _atom_site_fract_x
 _atom_site_fract_y
 _atom_site_fract_z
 _atom_site_occupancy
  K  K0  1  0.85671300  0.32340500  0.33207800  1
  K  K1  1  0.14328700  0.67659500  0.66792200  1
  Pd  Pd2  1  0.50000000  0.00000000  0.00000000  1
  N  N3  1  0.69982900  0.27433600  0.87240200  1
  N  N4  1  0.30017100  0.72566400  0.12759800  1
  Cl  Cl5  1  0.43594900  0.02886500  0.29316600  1
  Cl  Cl6  1  0.56405100  0.97113500  0.70683400  1
  O  O7  1  0.66472700  0.39688500  0.71263900  1
  O  O8  1  0.13894300  0.68022900  0.04756200  1
  O  O9  1  0.86105700  0.31977100  0.95243800  1
  O  O10  1  0.33527300  0.60311500  0.28736100  1
