# generated using pymatgen
data_K3ReC4(N2O)2
_symmetry_space_group_name_H-M   'P 1'
_cell_length_a   6.98929928
_cell_length_b   8.50348554
_cell_length_c   7.38159450
_cell_angle_alpha   103.18070497
_cell_angle_beta   112.70574716
_cell_angle_gamma   107.16231443
_symmetry_Int_Tables_number   1
_chemical_formula_structural   K3ReC4(N2O)2
_chemical_formula_sum   'K3 Re1 C4 N4 O2'
_cell_volume   356.41096885
_cell_formula_units_Z   1
loop_
 _symmetry_equiv_pos_site_id
 _symmetry_equiv_pos_as_xyz
  1  'x, y, z'
loop_
 _atom_site_type_symbol
 _atom_site_label
 _atom_site_symmetry_multiplicity
 _atom_site_fract_x
 _atom_site_fract_y
 _atom_site_fract_z
 _atom_site_occupancy
  K  K0  1  0.40401400  0.12415400  0.74597800  1
  K  K1  1  0.59598600  0.87584600  0.25402200  1
  K  K2  1  0.50000000  0.50000000  0.50000000  1
  Re  Re3  1  0.00000000  0.00000000  0.00000000  1
  C  C4  1  0.63975500  0.86404800  0.81629600  1
  C  C5  1  0.91559800  0.67772200  0.90637900  1
  C  C6  1  0.08440200  0.32227800  0.09362100  1
  C  C7  1  0.36024500  0.13595200  0.18370400  1
  N  N8  1  0.88210300  0.22847100  0.98915900  1
  N  N9  1  0.44004500  0.79273700  0.69902800  1
  N  N10  1  0.11789700  0.77152900  0.01084100  1
  N  N11  1  0.55995500  0.20726300  0.30097200  1
  O  O12  1  0.01228900  0.98828200  0.75840500  1
  O  O13  1  0.98771100  0.01171800  0.24159500  1
