# generated using pymatgen
data_NaCdF3
_symmetry_space_group_name_H-M   'P 1'
_cell_length_a   17.11958507
_cell_length_b   5.83121325
_cell_length_c   9.07666436
_cell_angle_alpha   131.51607982
_cell_angle_beta   160.57106869
_cell_angle_gamma   45.34353242
_symmetry_Int_Tables_number   1
_chemical_formula_structural   NaCdF3
_chemical_formula_sum   'Na2 Cd2 F6'
_cell_volume   214.39904706
_cell_formula_units_Z   2
loop_
 _symmetry_equiv_pos_site_id
 _symmetry_equiv_pos_as_xyz
  1  'x, y, z'
loop_
 _atom_site_type_symbol
 _atom_site_label
 _atom_site_symmetry_multiplicity
 _atom_site_fract_x
 _atom_site_fract_y
 _atom_site_fract_z
 _atom_site_occupancy
  Na  Na0  1  0.37778200  0.71647800  0.49371600  1
  Na  Na1  1  0.88406600  0.21647800  0.50628400  1
  Cd  Cd2  1  0.22556300  0.54344300  0.50937000  1
  Cd  Cd3  1  0.71619300  0.04344300  0.49063000  1
  F  F4  1  0.03400000  0.65027800  0.98934100  1
  F  F5  1  0.04466000  0.15027800  0.01065900  1
  F  F6  1  0.53282500  0.44706600  0.46140500  1
  F  F7  1  0.54588500  0.63873500  0.99428000  1
  F  F8  1  0.55160500  0.13873500  0.00572000  1
  F  F9  1  0.07142000  0.94706600  0.53859500  1
