# generated using pymatgen
data_Mo2C4NO7
_symmetry_space_group_name_H-M   'P 1'
_cell_length_a   9.35749000
_cell_length_b   9.68576999
_cell_length_c   11.24166086
_cell_angle_alpha   83.26230529
_cell_angle_beta   87.72574374
_cell_angle_gamma   71.18128617
_symmetry_Int_Tables_number   1
_chemical_formula_structural   Mo2C4NO7
_chemical_formula_sum   'Mo8 C16 N4 O28'
_cell_volume   957.75444138
_cell_formula_units_Z   4
loop_
 _symmetry_equiv_pos_site_id
 _symmetry_equiv_pos_as_xyz
  1  'x, y, z'
loop_
 _atom_site_type_symbol
 _atom_site_label
 _atom_site_symmetry_multiplicity
 _atom_site_fract_x
 _atom_site_fract_y
 _atom_site_fract_z
 _atom_site_occupancy
  Mo  Mo0  1  0.81215200  0.98350200  0.47412900  1
  Mo  Mo1  1  0.18784800  0.01649800  0.52587100  1
  Mo  Mo2  1  0.28293200  0.90550700  0.25700600  1
  Mo  Mo3  1  0.71706800  0.09449300  0.74299400  1
  Mo  Mo4  1  0.96369300  0.19680800  0.26559200  1
  Mo  Mo5  1  0.03630700  0.80319200  0.73440800  1
  Mo  Mo6  1  0.13925000  0.71712700  0.44706300  1
  Mo  Mo7  1  0.86075000  0.28287300  0.55293700  1
  C  C8  1  0.62716100  0.84269500  0.17898200  1
  C  C9  1  0.37283900  0.15730500  0.82101800  1
  C  C10  1  0.69188300  0.76221200  0.07792000  1
  C  C11  1  0.30811700  0.23778800  0.92208000  1
  C  C12  1  0.75419700  0.84926200  0.23286900  1
  C  C13  1  0.24580300  0.15073800  0.76713100  1
  C  C14  1  0.85942100  0.76775200  0.14660200  1
  C  C15  1  0.14057900  0.23224800  0.85339800  1
  C  C16  1  0.51174500  0.67731200  0.79767600  1
  C  C17  1  0.48825500  0.32268800  0.20232400  1
  C  C18  1  0.58088500  0.65680000  0.69945500  1
  C  C19  1  0.41911500  0.34320000  0.30054500  1
  C  C20  1  0.67193100  0.60377600  0.49722500  1
  C  C21  1  0.32806900  0.39622400  0.50277500  1
  C  C22  1  0.44105500  0.65883900  0.89644300  1
  C  C23  1  0.55894500  0.34116100  0.10355700  1
  N  N24  1  0.84328700  0.71388500  0.04715000  1
  N  N25  1  0.15671300  0.28611500  0.95285000  1
  N  N26  1  0.65385100  0.63097100  0.60651900  1
  N  N27  1  0.34614900  0.36902900  0.39348100  1
  O  O28  1  0.08737500  0.93943700  0.38990100  1
  O  O29  1  0.91262500  0.06056300  0.61009900  1
  O  O30  1  0.78905100  0.89672600  0.32734500  1
  O  O31  1  0.21094900  0.10327400  0.67265500  1
  O  O32  1  0.80501400  0.18197400  0.38990100  1
  O  O33  1  0.19498600  0.81802600  0.61009900  1
  O  O34  1  0.94780600  0.78953600  0.54780300  1
  O  O35  1  0.05219400  0.21046400  0.45219700  1
  O  O36  1  0.64238700  0.00686600  0.54841800  1
  O  O37  1  0.35761300  0.99313400  0.45158200  1
  O  O38  1  0.33253600  0.73316100  0.37263700  1
  O  O39  1  0.66746400  0.26683900  0.62736300  1
  O  O40  1  0.18305100  0.11231300  0.23705600  1
  O  O41  1  0.81694900  0.88768700  0.76294400  1
  O  O42  1  0.20374500  0.84975100  0.14608400  1
  O  O43  1  0.79625500  0.15024900  0.85391600  1
  O  O44  1  0.48053000  0.88922800  0.20394500  1
  O  O45  1  0.51947000  0.11077200  0.79605500  1
  O  O46  1  0.89736700  0.11861500  0.15897200  1
  O  O47  1  0.10263300  0.88138500  0.84102800  1
  O  O48  1  0.90993800  0.38099500  0.21864500  1
  O  O49  1  0.09006200  0.61900500  0.78135500  1
  O  O50  1  0.07798600  0.62793600  0.34783800  1
  O  O51  1  0.92201400  0.37206400  0.65216200  1
  O  O52  1  0.25708500  0.50463100  0.55306100  1
  O  O53  1  0.74291500  0.49536900  0.44693900  1
  O  O54  1  0.37569900  0.64322700  0.98502200  1
  O  O55  1  0.62430100  0.35677300  0.01497800  1
