# generated using pymatgen
data_MgH12SeO9
_symmetry_space_group_name_H-M   'P 1'
_cell_length_a   10.81175282
_cell_length_b   3.59308769
_cell_length_c   10.28852968
_cell_angle_alpha   101.12489478
_cell_angle_beta   135.11317729
_cell_angle_gamma   90.69975170
_symmetry_Int_Tables_number   1
_chemical_formula_structural   MgH12SeO9
_chemical_formula_sum   'Mg1 H12 Se1 O9'
_cell_volume   270.28464411
_cell_formula_units_Z   1
loop_
 _symmetry_equiv_pos_site_id
 _symmetry_equiv_pos_as_xyz
  1  'x, y, z'
loop_
 _atom_site_type_symbol
 _atom_site_label
 _atom_site_symmetry_multiplicity
 _atom_site_fract_x
 _atom_site_fract_y
 _atom_site_fract_z
 _atom_site_occupancy
  Mg  Mg0  1  0.78020000  0.20552200  0.98445300  1
  H  H1  1  0.10868200  0.09972200  0.34594000  1
  H  H2  1  0.48521600  0.72646800  0.44391900  1
  H  H3  1  0.58472000  0.17520700  0.04723100  1
  H  H4  1  0.74893300  0.52802800  0.21054300  1
  H  H5  1  0.26725200  0.32636200  0.31524500  1
  H  H6  1  0.76410200  0.22246100  0.43291600  1
  H  H7  1  0.28767600  0.58160900  0.79694000  1
  H  H8  1  0.69778500  0.23662800  0.43725900  1
  H  H9  1  0.60073000  0.58558900  0.74813000  1
  H  H10  1  0.13720900  0.69831400  0.87498200  1
  H  H11  1  0.67625100  0.98776400  0.63169300  1
  H  H12  1  0.26382000  0.71360900  0.64885000  1
  Se  Se13  1  0.08942500  0.52660100  0.04331200  1
  O  O14  1  0.67988100  0.64685500  0.88630700  1
  O  O15  1  0.17053500  0.37831600  0.39544100  1
  O  O16  1  0.91757800  0.13455300  0.89832200  1
  O  O17  1  0.03382000  0.55753800  0.24207900  1
  O  O18  1  0.55012900  0.94025500  0.56075200  1
  O  O19  1  0.71581700  0.25494400  0.14238700  1
  O  O20  1  0.15588700  0.46595400  0.91927300  1
  O  O21  1  0.28070100  0.33581000  0.22781900  1
  O  O22  1  0.29405300  0.81709300  0.76620500  1
