# generated using pymatgen
data_Na3LaN6
_symmetry_space_group_name_H-M   'P 1'
_cell_length_a   12.18331646
_cell_length_b   11.62391108
_cell_length_c   6.35951776
_cell_angle_alpha   79.42787385
_cell_angle_beta   69.69992251
_cell_angle_gamma   30.87220365
_symmetry_Int_Tables_number   1
_chemical_formula_structural   Na3LaN6
_chemical_formula_sum   'Na6 La2 N12'
_cell_volume   421.02372971
_cell_formula_units_Z   2
loop_
 _symmetry_equiv_pos_site_id
 _symmetry_equiv_pos_as_xyz
  1  'x, y, z'
loop_
 _atom_site_type_symbol
 _atom_site_label
 _atom_site_symmetry_multiplicity
 _atom_site_fract_x
 _atom_site_fract_y
 _atom_site_fract_z
 _atom_site_occupancy
  Na  Na0  1  0.75000000  0.75000000  0.75000000  1
  Na  Na1  1  0.50000000  0.50000000  0.50000000  1
  Na  Na2  1  0.41414800  0.41414800  0.08585200  1
  Na  Na3  1  0.08585200  0.08585200  0.41414800  1
  Na  Na4  1  0.83585200  0.83585200  0.16414800  1
  Na  Na5  1  0.16414800  0.16414800  0.83585200  1
  La  La6  1  0.25000000  0.25000000  0.25000000  1
  La  La7  1  0.00000000  0.00000000  0.00000000  1
  N  N8  1  0.01129000  0.48871000  0.01129000  1
  N  N9  1  0.48871000  0.01129000  0.48871000  1
  N  N10  1  0.23871000  0.76129000  0.23871000  1
  N  N11  1  0.76129000  0.23871000  0.76129000  1
  N  N12  1  0.38311900  0.96639400  0.07741800  1
  N  N13  1  0.96639400  0.38311900  0.57306800  1
  N  N14  1  0.07741800  0.57306800  0.38311900  1
  N  N15  1  0.57306800  0.07741800  0.96639400  1
  N  N16  1  0.86688100  0.28360600  0.17258200  1
  N  N17  1  0.28360600  0.86688100  0.67693200  1
  N  N18  1  0.17258200  0.67693200  0.86688100  1
  N  N19  1  0.67693200  0.17258200  0.28360600  1
