# generated using pymatgen
data_K2Al2O7
_symmetry_space_group_name_H-M   'P 1'
_cell_length_a   6.76934097
_cell_length_b   6.76934097
_cell_length_c   8.01478800
_cell_angle_alpha   90.00000000
_cell_angle_beta   90.00000000
_cell_angle_gamma   103.97571149
_symmetry_Int_Tables_number   1
_chemical_formula_structural   K2Al2O7
_chemical_formula_sum   'K4 Al4 O14'
_cell_volume   356.39762246
_cell_formula_units_Z   2
loop_
 _symmetry_equiv_pos_site_id
 _symmetry_equiv_pos_as_xyz
  1  'x, y, z'
loop_
 _atom_site_type_symbol
 _atom_site_label
 _atom_site_symmetry_multiplicity
 _atom_site_fract_x
 _atom_site_fract_y
 _atom_site_fract_z
 _atom_site_occupancy
  K  K0  1  0.51105300  0.52988700  0.72359600  1
  K  K1  1  0.47011300  0.48894700  0.27640400  1
  K  K2  1  0.01105300  0.02988700  0.77640400  1
  K  K3  1  0.97011300  0.98894700  0.22359600  1
  Al  Al4  1  0.06783000  0.54455200  0.00803100  1
  Al  Al5  1  0.45544800  0.93217000  0.99196900  1
  Al  Al6  1  0.56783000  0.04455200  0.49196900  1
  Al  Al7  1  0.95544800  0.43217000  0.50803100  1
  O  O8  1  0.16773300  0.33474200  0.51769800  1
  O  O9  1  0.66525800  0.83226700  0.48230200  1
  O  O10  1  0.66773300  0.83474200  0.98230200  1
  O  O11  1  0.16525800  0.33226700  0.01769800  1
  O  O12  1  0.91842400  0.47907300  0.81272900  1
  O  O13  1  0.52092700  0.08157600  0.18727100  1
  O  O14  1  0.41842400  0.97907300  0.68727100  1
  O  O15  1  0.02092700  0.58157600  0.31272900  1
  O  O16  1  0.97715900  0.62045400  0.68024700  1
  O  O17  1  0.37954600  0.02284100  0.31975300  1
  O  O18  1  0.47715900  0.12045400  0.81975300  1
  O  O19  1  0.87954600  0.52284100  0.18024700  1
  O  O20  1  0.70761000  0.29239000  0.50000000  1
  O  O21  1  0.20761000  0.79239000  0.00000000  1
