# generated using pymatgen
data_MgO
_symmetry_space_group_name_H-M   'P 1'
_cell_length_a   20.05688641
_cell_length_b   20.05688641
_cell_length_c   20.05688677
_cell_angle_alpha   8.56341659
_cell_angle_beta   8.56341659
_cell_angle_gamma   8.56341897
_symmetry_Int_Tables_number   1
_chemical_formula_structural   MgO
_chemical_formula_sum   'Mg8 O8'
_cell_volume   155.21783803
_cell_formula_units_Z   8
loop_
 _symmetry_equiv_pos_site_id
 _symmetry_equiv_pos_as_xyz
  1  'x, y, z'
loop_
 _atom_site_type_symbol
 _atom_site_label
 _atom_site_symmetry_multiplicity
 _atom_site_fract_x
 _atom_site_fract_y
 _atom_site_fract_z
 _atom_site_occupancy
  Mg  Mg0  1  0.37560600  0.37560600  0.37560600  1
  Mg  Mg1  1  0.62439400  0.62439400  0.62439400  1
  Mg  Mg2  1  0.79227100  0.79227100  0.79227100  1
  Mg  Mg3  1  0.20772900  0.20772900  0.20772900  1
  Mg  Mg4  1  0.91544000  0.91544000  0.91544000  1
  Mg  Mg5  1  0.08456000  0.08456000  0.08456000  1
  Mg  Mg6  1  0.50000000  0.50000000  0.50000000  1
  Mg  Mg7  1  0.00000000  0.00000000  0.00000000  1
  O  O8  1  0.14613500  0.14613500  0.14613500  1
  O  O9  1  0.85386500  0.85386500  0.85386500  1
  O  O10  1  0.43841700  0.43841700  0.43841700  1
  O  O11  1  0.56158300  0.56158300  0.56158300  1
  O  O12  1  0.31287500  0.31287500  0.31287500  1
  O  O13  1  0.68712500  0.68712500  0.68712500  1
  O  O14  1  0.26923600  0.26923600  0.26923600  1
  O  O15  1  0.73076400  0.73076400  0.73076400  1
