# generated using pymatgen
data_LaFeO3
_symmetry_space_group_name_H-M   'P 1'
_cell_length_a   4.04615430
_cell_length_b   6.75993714
_cell_length_c   11.06507041
_cell_angle_alpha   89.99330492
_cell_angle_beta   89.99916333
_cell_angle_gamma   90.02750032
_symmetry_Int_Tables_number   1
_chemical_formula_structural   LaFeO3
_chemical_formula_sum   'La4 Fe4 O12'
_cell_volume   302.64898869
_cell_formula_units_Z   4
loop_
 _symmetry_equiv_pos_site_id
 _symmetry_equiv_pos_as_xyz
  1  'x, y, z'
loop_
 _atom_site_type_symbol
 _atom_site_label
 _atom_site_symmetry_multiplicity
 _atom_site_fract_x
 _atom_site_fract_y
 _atom_site_fract_z
 _atom_site_occupancy
  La  La0  1  0.50038200  0.00021500  0.99999900  1
  La  La1  1  0.99985300  0.49992300  0.99984600  1
  La  La2  1  0.00039400  0.49977700  0.49989100  1
  La  La3  1  0.49974600  0.00014500  0.49988300  1
  Fe  Fe4  1  0.42610400  0.31128300  0.24991000  1
  Fe  Fe5  1  0.57386200  0.68855900  0.74984100  1
  Fe  Fe6  1  0.07461000  0.81126800  0.24992600  1
  Fe  Fe7  1  0.92393700  0.18909000  0.74994400  1
  O  O8  1  0.02364100  0.16586900  0.58383500  1
  O  O9  1  0.41714300  0.01565900  0.25016200  1
  O  O10  1  0.97670600  0.83443600  0.08371900  1
  O  O11  1  0.52382500  0.33410000  0.08361500  1
  O  O12  1  0.52388100  0.33401000  0.41632000  1
  O  O13  1  0.97641200  0.83444400  0.41632300  1
  O  O14  1  0.47615500  0.66555000  0.91631900  1
  O  O15  1  0.58269300  0.98405200  0.75023600  1
  O  O16  1  0.91713300  0.48472200  0.75017700  1
  O  O17  1  0.08318200  0.51558200  0.25018700  1
  O  O18  1  0.47667400  0.66547300  0.58357600  1
  O  O19  1  0.02366800  0.16584500  0.91629100  1
