# generated using pymatgen
data_NaAl12Ga(S2O33)2
_symmetry_space_group_name_H-M   'P 1'
_cell_length_a   11.04959139
_cell_length_b   11.04959139
_cell_length_c   11.04959139
_cell_angle_alpha   60.00000000
_cell_angle_beta   60.00000000
_cell_angle_gamma   60.00000000
_symmetry_Int_Tables_number   1
_chemical_formula_structural   NaAl12Ga(S2O33)2
_chemical_formula_sum   'Na1 Al12 Ga1 S4 O66'
_cell_volume   953.94570445
_cell_formula_units_Z   1
loop_
 _symmetry_equiv_pos_site_id
 _symmetry_equiv_pos_as_xyz
  1  'x, y, z'
loop_
 _atom_site_type_symbol
 _atom_site_label
 _atom_site_symmetry_multiplicity
 _atom_site_fract_x
 _atom_site_fract_y
 _atom_site_fract_z
 _atom_site_occupancy
  Na  Na0  1  0.00000000  0.00000000  0.00000000  1
  Al  Al1  1  0.70248400  0.70248400  0.42898400  1
  Al  Al2  1  0.70248400  0.16604900  0.42898400  1
  Al  Al3  1  0.16604900  0.70248400  0.42898400  1
  Al  Al4  1  0.70248400  0.70248400  0.16604900  1
  Al  Al5  1  0.16604900  0.70248400  0.70248400  1
  Al  Al6  1  0.70248400  0.16604900  0.70248400  1
  Al  Al7  1  0.42898400  0.16604900  0.70248400  1
  Al  Al8  1  0.42898400  0.70248400  0.70248400  1
  Al  Al9  1  0.42898400  0.70248400  0.16604900  1
  Al  Al10  1  0.16604900  0.42898400  0.70248400  1
  Al  Al11  1  0.70248400  0.42898400  0.16604900  1
  Al  Al12  1  0.70248400  0.42898400  0.70248400  1
  Ga  Ga13  1  0.50000000  0.50000000  0.50000000  1
  S  S14  1  0.13688500  0.13688500  0.58934600  1
  S  S15  1  0.13688500  0.13688500  0.13688500  1
  S  S16  1  0.58934600  0.13688500  0.13688500  1
  S  S17  1  0.13688500  0.58934600  0.13688500  1
  O  O18  1  0.31244200  0.31244200  0.80167700  1
  O  O19  1  0.31244200  0.57343900  0.80167700  1
  O  O20  1  0.57343900  0.31244200  0.80167700  1
  O  O21  1  0.31244200  0.31244200  0.57343900  1
  O  O22  1  0.57343900  0.31244200  0.31244200  1
  O  O23  1  0.31244200  0.57343900  0.31244200  1
  O  O24  1  0.80167700  0.57343900  0.31244200  1
  O  O25  1  0.80167700  0.31244200  0.31244200  1
  O  O26  1  0.80167700  0.31244200  0.57343900  1
  O  O27  1  0.57343900  0.80167700  0.31244200  1
  O  O28  1  0.31244200  0.80167700  0.57343900  1
  O  O29  1  0.31244200  0.80167700  0.31244200  1
  O  O30  1  0.58202500  0.58202500  0.25392500  1
  O  O31  1  0.58202500  0.58202500  0.58202500  1
  O  O32  1  0.25392500  0.58202500  0.58202500  1
  O  O33  1  0.58202500  0.25392500  0.58202500  1
  O  O34  1  0.81816700  0.81816700  0.28190900  1
  O  O35  1  0.81816700  0.08175800  0.28190900  1
  O  O36  1  0.08175800  0.81816700  0.28190900  1
  O  O37  1  0.81816700  0.81816700  0.08175800  1
  O  O38  1  0.08175800  0.81816700  0.81816700  1
  O  O39  1  0.81816700  0.08175800  0.81816700  1
  O  O40  1  0.28190900  0.08175800  0.81816700  1
  O  O41  1  0.28190900  0.81816700  0.81816700  1
  O  O42  1  0.28190900  0.81816700  0.08175800  1
  O  O43  1  0.08175800  0.28190900  0.81816700  1
  O  O44  1  0.81816700  0.28190900  0.08175800  1
  O  O45  1  0.81816700  0.28190900  0.81816700  1
  O  O46  1  0.57418800  0.57418800  0.81844800  1
  O  O47  1  0.57418800  0.03317600  0.81844800  1
  O  O48  1  0.03317600  0.57418800  0.81844800  1
  O  O49  1  0.57418800  0.57418800  0.03317600  1
  O  O50  1  0.03317600  0.57418800  0.57418800  1
  O  O51  1  0.57418800  0.03317600  0.57418800  1
  O  O52  1  0.81844800  0.03317600  0.57418800  1
  O  O53  1  0.81844800  0.57418800  0.57418800  1
  O  O54  1  0.81844800  0.57418800  0.03317600  1
  O  O55  1  0.03317600  0.81844800  0.57418800  1
  O  O56  1  0.57418800  0.81844800  0.03317600  1
  O  O57  1  0.57418800  0.81844800  0.57418800  1
  O  O58  1  0.04374400  0.04374400  0.26340100  1
  O  O59  1  0.04374400  0.64911100  0.26340100  1
  O  O60  1  0.64911100  0.04374400  0.26340100  1
  O  O61  1  0.04374400  0.04374400  0.64911100  1
  O  O62  1  0.64911100  0.04374400  0.04374400  1
  O  O63  1  0.04374400  0.64911100  0.04374400  1
  O  O64  1  0.26340100  0.64911100  0.04374400  1
  O  O65  1  0.26340100  0.04374400  0.04374400  1
  O  O66  1  0.26340100  0.04374400  0.64911100  1
  O  O67  1  0.64911100  0.26340100  0.04374400  1
  O  O68  1  0.04374400  0.26340100  0.64911100  1
  O  O69  1  0.04374400  0.26340100  0.04374400  1
  O  O70  1  0.19024600  0.19024600  0.42926300  1
  O  O71  1  0.19024600  0.19024600  0.19024600  1
  O  O72  1  0.42926300  0.19024600  0.19024600  1
  O  O73  1  0.19024600  0.42926300  0.19024600  1
  O  O74  1  0.41085700  0.41085700  0.76742800  1
  O  O75  1  0.41085700  0.41085700  0.41085700  1
  O  O76  1  0.76742800  0.41085700  0.41085700  1
  O  O77  1  0.41085700  0.76742800  0.41085700  1
  O  O78  1  0.52287300  0.52287300  0.97712700  1
  O  O79  1  0.52287300  0.97712700  0.97712700  1
  O  O80  1  0.97712700  0.52287300  0.97712700  1
  O  O81  1  0.97712700  0.52287300  0.52287300  1
  O  O82  1  0.52287300  0.97712700  0.52287300  1
  O  O83  1  0.97712700  0.97712700  0.52287300  1
