# generated using pymatgen
data_La(NO5)3
_symmetry_space_group_name_H-M   'P 1'
_cell_length_a   7.31240300
_cell_length_b   9.12833654
_cell_length_c   9.83095788
_cell_angle_alpha   84.65731394
_cell_angle_beta   79.39756887
_cell_angle_gamma   71.18991297
_symmetry_Int_Tables_number   1
_chemical_formula_structural   La(NO5)3
_chemical_formula_sum   'La2 N6 O30'
_cell_volume   610.16266958
_cell_formula_units_Z   2
loop_
 _symmetry_equiv_pos_site_id
 _symmetry_equiv_pos_as_xyz
  1  'x, y, z'
loop_
 _atom_site_type_symbol
 _atom_site_label
 _atom_site_symmetry_multiplicity
 _atom_site_fract_x
 _atom_site_fract_y
 _atom_site_fract_z
 _atom_site_occupancy
  La  La0  1  0.80794000  0.85950600  0.76972300  1
  La  La1  1  0.19206000  0.14049400  0.23027700  1
  N  N2  1  0.30852700  0.30938700  0.97314000  1
  N  N3  1  0.69147300  0.69061300  0.02686000  1
  N  N4  1  0.26392100  0.19591600  0.50847300  1
  N  N5  1  0.73607900  0.80408400  0.49152700  1
  N  N6  1  0.88055800  0.15322200  0.80479200  1
  N  N7  1  0.11944200  0.84677800  0.19520800  1
  O  O8  1  0.63840400  0.84135900  0.01333100  1
  O  O9  1  0.36159600  0.15864100  0.98666900  1
  O  O10  1  0.80954600  0.61839100  0.92223400  1
  O  O11  1  0.19045400  0.38160900  0.07776600  1
  O  O12  1  0.37001000  0.37528400  0.86996800  1
  O  O13  1  0.62999000  0.62471600  0.13003200  1
  O  O14  1  0.78271800  0.68866500  0.57867700  1
  O  O15  1  0.21728200  0.31133500  0.42132300  1
  O  O16  1  0.73178300  0.93642400  0.53381900  1
  O  O17  1  0.26821700  0.06357600  0.46618100  1
  O  O18  1  0.30222800  0.20808400  0.62176300  1
  O  O19  1  0.69777200  0.79191600  0.37823700  1
  O  O20  1  0.88363800  0.10453200  0.68428800  1
  O  O21  1  0.11636200  0.89546800  0.31571200  1
  O  O22  1  0.85165700  0.05838300  0.90774400  1
  O  O23  1  0.14834300  0.94161700  0.09225600  1
  O  O24  1  0.90159900  0.27705300  0.82085900  1
  O  O25  1  0.09840100  0.72294700  0.17914100  1
  O  O26  1  0.22806300  0.73797400  0.85509600  1
  O  O27  1  0.77193700  0.26202600  0.14490400  1
  O  O28  1  0.42356600  0.87669300  0.76712400  1
  O  O29  1  0.57643400  0.12330700  0.23287600  1
  O  O30  1  0.19393000  0.71304800  0.55930400  1
  O  O31  1  0.80607000  0.28695200  0.44069600  1
  O  O32  1  0.17761200  0.61028100  0.64801900  1
  O  O33  1  0.82238800  0.38971900  0.35198100  1
  O  O34  1  0.39837700  0.75241700  0.83713700  1
  O  O35  1  0.60162300  0.24758300  0.16286300  1
  O  O36  1  0.49652200  0.44933400  0.54445100  1
  O  O37  1  0.50347800  0.55066600  0.45554900  1
