# generated using pymatgen
data_K3YbB2(PO7)2
_symmetry_space_group_name_H-M   'P 1'
_cell_length_a   12.89078400
_cell_length_b   12.89078400
_cell_length_c   12.89078430
_cell_angle_alpha   25.93443806
_cell_angle_beta   25.93443806
_cell_angle_gamma   25.93444056
_symmetry_Int_Tables_number   1
_chemical_formula_structural   K3YbB2(PO7)2
_chemical_formula_sum   'K3 Yb1 B2 P2 O14'
_cell_volume   360.87633042
_cell_formula_units_Z   1
loop_
 _symmetry_equiv_pos_site_id
 _symmetry_equiv_pos_as_xyz
  1  'x, y, z'
loop_
 _atom_site_type_symbol
 _atom_site_label
 _atom_site_symmetry_multiplicity
 _atom_site_fract_x
 _atom_site_fract_y
 _atom_site_fract_z
 _atom_site_occupancy
  K  K0  1  0.50000000  0.50000000  0.50000000  1
  K  K1  1  0.39575700  0.39575700  0.39575700  1
  K  K2  1  0.60424300  0.60424300  0.60424300  1
  Yb  Yb3  1  0.00000000  0.00000000  0.00000000  1
  B  B4  1  0.11450300  0.11450300  0.11450300  1
  B  B5  1  0.88549700  0.88549700  0.88549700  1
  P  P6  1  0.71360000  0.71360000  0.71360000  1
  P  P7  1  0.28640000  0.28640000  0.28640000  1
  O  O8  1  0.84091400  0.85491500  0.40873000  1
  O  O9  1  0.85491500  0.40873000  0.84091400  1
  O  O10  1  0.40873000  0.84091400  0.85491500  1
  O  O11  1  0.15908600  0.14508500  0.59127000  1
  O  O12  1  0.14508500  0.59127000  0.15908600  1
  O  O13  1  0.59127000  0.15908600  0.14508500  1
  O  O14  1  0.75618500  0.75618500  0.75618500  1
  O  O15  1  0.24381500  0.24381500  0.24381500  1
  O  O16  1  0.18555500  0.85185800  0.31009600  1
  O  O17  1  0.85185800  0.31009600  0.18555500  1
  O  O18  1  0.31009600  0.18555500  0.85185800  1
  O  O19  1  0.81444500  0.14814200  0.68990400  1
  O  O20  1  0.14814200  0.68990400  0.81444500  1
  O  O21  1  0.68990400  0.81444500  0.14814200  1
