# generated using pymatgen
data_Na4XeO14
_symmetry_space_group_name_H-M   'P 1'
_cell_length_a   9.84351500
_cell_length_b   11.24811000
_cell_length_c   11.55621500
_cell_angle_alpha   90.00000000
_cell_angle_beta   90.00000000
_cell_angle_gamma   90.00000000
_symmetry_Int_Tables_number   1
_chemical_formula_structural   Na4XeO14
_chemical_formula_sum   'Na16 Xe4 O56'
_cell_volume   1279.51498194
_cell_formula_units_Z   4
loop_
 _symmetry_equiv_pos_site_id
 _symmetry_equiv_pos_as_xyz
  1  'x, y, z'
loop_
 _atom_site_type_symbol
 _atom_site_label
 _atom_site_symmetry_multiplicity
 _atom_site_fract_x
 _atom_site_fract_y
 _atom_site_fract_z
 _atom_site_occupancy
  Na  Na0  1  0.55334400  0.96767300  0.13450000  1
  Na  Na1  1  0.94665600  0.46767300  0.36550000  1
  Na  Na2  1  0.94665600  0.03232700  0.63450000  1
  Na  Na3  1  0.55334400  0.53232700  0.86550000  1
  Na  Na4  1  0.44665600  0.03232700  0.86550000  1
  Na  Na5  1  0.05334400  0.53232700  0.63450000  1
  Na  Na6  1  0.05334400  0.96767300  0.36550000  1
  Na  Na7  1  0.44665600  0.46767300  0.13450000  1
  Na  Na8  1  0.76877300  0.74813900  0.36251600  1
  Na  Na9  1  0.73122700  0.24813900  0.13748400  1
  Na  Na10  1  0.73122700  0.25186100  0.86251600  1
  Na  Na11  1  0.76877300  0.75186100  0.63748400  1
  Na  Na12  1  0.23122700  0.25186100  0.63748400  1
  Na  Na13  1  0.26877300  0.75186100  0.86251600  1
  Na  Na14  1  0.26877300  0.74813900  0.13748400  1
  Na  Na15  1  0.23122700  0.24813900  0.36251600  1
  Xe  Xe16  1  0.90645000  0.75000000  0.00000000  1
  Xe  Xe17  1  0.59355000  0.25000000  0.50000000  1
  Xe  Xe18  1  0.09355000  0.25000000  0.00000000  1
  Xe  Xe19  1  0.40644900  0.75000000  0.50000000  1
  O  O20  1  0.58280000  0.75000000  0.00000000  1
  O  O21  1  0.91720000  0.25000000  0.50000000  1
  O  O22  1  0.41720000  0.25000000  0.00000000  1
  O  O23  1  0.08280000  0.75000000  0.50000000  1
  O  O24  1  0.11285700  0.75000000  0.00000000  1
  O  O25  1  0.38714300  0.25000000  0.50000000  1
  O  O26  1  0.88714300  0.25000000  0.00000000  1
  O  O27  1  0.61285700  0.75000000  0.50000000  1
  O  O28  1  0.85242200  0.97527800  0.15834000  1
  O  O29  1  0.64757800  0.47527800  0.34166000  1
  O  O30  1  0.64757800  0.02472200  0.65834000  1
  O  O31  1  0.85242200  0.52472200  0.84166000  1
  O  O32  1  0.14757800  0.02472200  0.84166000  1
  O  O33  1  0.35242200  0.52472200  0.65834000  1
  O  O34  1  0.35242200  0.97527800  0.34166000  1
  O  O35  1  0.14757800  0.47527800  0.15834000  1
  O  O36  1  0.77570700  0.50099700  0.10126600  1
  O  O37  1  0.72429300  0.00099700  0.39873400  1
  O  O38  1  0.72429300  0.49900300  0.60126600  1
  O  O39  1  0.77570700  0.99900300  0.89873400  1
  O  O40  1  0.22429300  0.49900300  0.89873400  1
  O  O41  1  0.27570700  0.99900300  0.60126600  1
  O  O42  1  0.27570700  0.50099700  0.39873400  1
  O  O43  1  0.22429300  0.00099700  0.10126600  1
  O  O44  1  0.66062400  0.93334300  0.31904900  1
  O  O45  1  0.83937600  0.43334300  0.18095100  1
  O  O46  1  0.83937600  0.06665700  0.81904900  1
  O  O47  1  0.66062400  0.56665700  0.68095100  1
  O  O48  1  0.33937600  0.06665700  0.68095100  1
  O  O49  1  0.16062400  0.56665700  0.81904900  1
  O  O50  1  0.16062400  0.93334300  0.18095100  1
  O  O51  1  0.33937600  0.43334300  0.31904900  1
  O  O52  1  0.83347000  0.94148400  0.45195900  1
  O  O53  1  0.66653000  0.44148400  0.04804100  1
  O  O54  1  0.66653000  0.05851600  0.95195900  1
  O  O55  1  0.83347000  0.55851600  0.54804100  1
  O  O56  1  0.16653000  0.05851600  0.54804100  1
  O  O57  1  0.33347000  0.55851600  0.95195900  1
  O  O58  1  0.33347000  0.94148400  0.04804100  1
  O  O59  1  0.16653000  0.44148400  0.45195900  1
  O  O60  1  0.00978600  0.72781700  0.40093100  1
  O  O61  1  0.49021400  0.22781700  0.09906900  1
  O  O62  1  0.49021400  0.27218300  0.90093100  1
  O  O63  1  0.00978600  0.77218300  0.59906900  1
  O  O64  1  0.99021400  0.27218300  0.59906900  1
  O  O65  1  0.50978600  0.77218300  0.90093100  1
  O  O66  1  0.50978600  0.72781700  0.09906900  1
  O  O67  1  0.99021400  0.22781700  0.40093100  1
  O  O68  1  0.61460200  0.57555500  0.30082000  1
  O  O69  1  0.88539800  0.07555500  0.19918000  1
  O  O70  1  0.88539800  0.42444500  0.80082000  1
  O  O71  1  0.61460200  0.92444500  0.69918000  1
  O  O72  1  0.38539800  0.42444500  0.69918000  1
  O  O73  1  0.11460200  0.92444500  0.80082000  1
  O  O74  1  0.11460200  0.57555500  0.19918000  1
  O  O75  1  0.38539800  0.07555500  0.30082000  1
