# generated using pymatgen
data_K4NiP6O25
_symmetry_space_group_name_H-M   'P 1'
_cell_length_a   12.86688590
_cell_length_b   11.82285455
_cell_length_c   7.43352209
_cell_angle_alpha   80.34468814
_cell_angle_beta   64.93706522
_cell_angle_gamma   34.71824663
_symmetry_Int_Tables_number   1
_chemical_formula_structural   K4NiP6O25
_chemical_formula_sum   'K4 Ni1 P6 O25'
_cell_volume   546.54319548
_cell_formula_units_Z   1
loop_
 _symmetry_equiv_pos_site_id
 _symmetry_equiv_pos_as_xyz
  1  'x, y, z'
loop_
 _atom_site_type_symbol
 _atom_site_label
 _atom_site_symmetry_multiplicity
 _atom_site_fract_x
 _atom_site_fract_y
 _atom_site_fract_z
 _atom_site_occupancy
  K  K0  1  0.52148500  0.97851500  0.52148500  1
  K  K1  1  0.02148500  0.47851500  0.02148500  1
  K  K2  1  0.70118500  0.50950400  0.49049600  1
  K  K3  1  0.49049600  0.29881500  0.70118500  1
  Ni  Ni4  1  0.00297500  0.99702500  0.00297500  1
  P  P5  1  0.49226000  0.95575300  0.04424700  1
  P  P6  1  0.04424700  0.50774000  0.49226000  1
  P  P7  1  0.63769700  0.59613900  0.01263200  1
  P  P8  1  0.01263200  0.75353200  0.63769700  1
  P  P9  1  0.40386100  0.36230300  0.24646800  1
  P  P10  1  0.24646800  0.98736800  0.40386100  1
  O  O11  1  0.59712200  0.75659800  0.91542500  1
  O  O12  1  0.91542500  0.73085500  0.59712200  1
  O  O13  1  0.24340200  0.40287800  0.26914500  1
  O  O14  1  0.26914500  0.08457500  0.24340200  1
  O  O15  1  0.42228700  0.75611500  0.24388500  1
  O  O16  1  0.24388500  0.57771300  0.42228700  1
  O  O17  1  0.43389400  0.09023800  0.90976200  1
  O  O18  1  0.90976200  0.56610600  0.43389400  1
  O  O19  1  0.62574300  0.87226900  0.12773100  1
  O  O20  1  0.12773100  0.37425700  0.62574300  1
  O  O21  1  0.64602900  0.50548200  0.87811100  1
  O  O22  1  0.87811100  0.97037900  0.64602900  1
  O  O23  1  0.49451800  0.35397100  0.02962200  1
  O  O24  1  0.02962200  0.12188900  0.49451800  1
  O  O25  1  0.82157100  0.44459800  0.05022700  1
  O  O26  1  0.05022700  0.68360400  0.82157100  1
  O  O27  1  0.55540200  0.17842900  0.31639600  1
  O  O28  1  0.31639600  0.94977300  0.55540200  1
  O  O29  1  0.10195700  0.06136100  0.93863900  1
  O  O30  1  0.93863900  0.89804300  0.10195700  1
  O  O31  1  0.28252400  0.71747600  0.89084900  1
  O  O32  1  0.89084900  0.10915100  0.28252400  1
  O  O33  1  0.10455100  0.89544900  0.72762300  1
  O  O34  1  0.72762300  0.27237700  0.10455100  1
  O  O35  1  0.48615500  0.51384500  0.48615500  1
