# generated using pymatgen
data_Li2SeO4
_symmetry_space_group_name_H-M   'P 1'
_cell_length_a   8.17783035
_cell_length_b   8.52308734
_cell_length_c   10.27813279
_cell_angle_alpha   92.20869814
_cell_angle_beta   100.79355468
_cell_angle_gamma   117.37768332
_symmetry_Int_Tables_number   1
_chemical_formula_structural   Li2SeO4
_chemical_formula_sum   'Li12 Se6 O24'
_cell_volume   618.48151905
_cell_formula_units_Z   6
loop_
 _symmetry_equiv_pos_site_id
 _symmetry_equiv_pos_as_xyz
  1  'x, y, z'
loop_
 _atom_site_type_symbol
 _atom_site_label
 _atom_site_symmetry_multiplicity
 _atom_site_fract_x
 _atom_site_fract_y
 _atom_site_fract_z
 _atom_site_occupancy
  Li  Li0  1  0.16555100  0.49245200  0.47506600  1
  Li  Li1  1  0.83844900  0.51972800  0.52809400  1
  Li  Li2  1  0.26647700  0.12175800  0.84118500  1
  Li  Li3  1  0.37102500  0.24145100  0.59222600  1
  Li  Li4  1  0.55018600  0.43049600  0.21281800  1
  Li  Li5  1  0.62926200  0.76255100  0.40009900  1
  Li  Li6  1  0.23154400  0.96338700  0.21899300  1
  Li  Li7  1  0.85410300  0.31735300  0.07776200  1
  Li  Li8  1  0.44455100  0.56255100  0.79298400  1
  Li  Li9  1  0.72430000  0.87270700  0.14662100  1
  Li  Li10  1  0.75705000  0.03499400  0.76435300  1
  Li  Li11  1  0.13730800  0.67165100  0.92339200  1
  Se  Se12  1  0.70135700  0.39600800  0.80317100  1
  Se  Se13  1  0.29377500  0.60242600  0.19720300  1
  Se  Se14  1  0.68653100  0.15915800  0.31842800  1
  Se  Se15  1  0.07420300  0.33991900  0.72046900  1
  Se  Se16  1  0.31919900  0.84307200  0.69499000  1
  Se  Se17  1  0.91894400  0.65653200  0.27248000  1
  O  O18  1  0.13353600  0.66392200  0.59800900  1
  O  O19  1  0.65633100  0.37677200  0.63445400  1
  O  O20  1  0.50935600  0.80722700  0.73366700  1
  O  O21  1  0.26480200  0.88799700  0.83707300  1
  O  O22  1  0.87078100  0.34818400  0.40490500  1
  O  O23  1  0.77327200  0.48767200  0.14314800  1
  O  O24  1  0.75683100  0.62408300  0.37334700  1
  O  O25  1  0.97536300  0.95644500  0.52568100  1
  O  O26  1  0.03774500  0.13982500  0.77767900  1
  O  O27  1  0.49616800  0.35545900  0.84233200  1
  O  O28  1  0.07162000  0.05765800  0.45459000  1
  O  O29  1  0.22915800  0.74854700  0.13058800  1
  O  O30  1  0.34318500  0.63322900  0.36587000  1
  O  O31  1  0.24257200  0.37961900  0.62428800  1
  O  O32  1  0.64873800  0.99646500  0.41027400  1
  O  O33  1  0.86766000  0.60254800  0.86279900  1
  O  O34  1  0.12856600  0.39393000  0.14269400  1
  O  O35  1  0.37824900  0.01992800  0.61676100  1
  O  O36  1  0.21532900  0.50057500  0.85606100  1
  O  O37  1  0.49950500  0.64239400  0.15909000  1
  O  O38  1  0.73311000  0.10647700  0.17495100  1
  O  O39  1  0.48994200  0.18561600  0.27898500  1
  O  O40  1  0.76444100  0.24653900  0.86537400  1
  O  O41  1  0.94992000  0.85069500  0.20704400  1
