# generated using pymatgen
data_K3NaCe(CO5)3
_symmetry_space_group_name_H-M   'P 1'
_cell_length_a   8.29341200
_cell_length_b   9.67550766
_cell_length_c   10.36028081
_cell_angle_alpha   99.50385557
_cell_angle_beta   99.03873789
_cell_angle_gamma   109.22866029
_symmetry_Int_Tables_number   1
_chemical_formula_structural   K3NaCe(CO5)3
_chemical_formula_sum   'K6 Na2 Ce2 C6 O30'
_cell_volume   753.95964815
_cell_formula_units_Z   2
loop_
 _symmetry_equiv_pos_site_id
 _symmetry_equiv_pos_as_xyz
  1  'x, y, z'
loop_
 _atom_site_type_symbol
 _atom_site_label
 _atom_site_symmetry_multiplicity
 _atom_site_fract_x
 _atom_site_fract_y
 _atom_site_fract_z
 _atom_site_occupancy
  K  K0  1  0.72349200  0.77615200  0.02113300  1
  K  K1  1  0.27650800  0.22384800  0.97886700  1
  K  K2  1  0.60244900  0.99479600  0.34927700  1
  K  K3  1  0.39755100  0.00520400  0.65072300  1
  K  K4  1  0.82735100  0.67028100  0.59388600  1
  K  K5  1  0.17264900  0.32971900  0.40611400  1
  Na  Na6  1  0.23632000  0.61017200  0.73693400  1
  Na  Na7  1  0.76368000  0.38982800  0.26306600  1
  Ce  Ce8  1  0.17952600  0.64386500  0.16051900  1
  Ce  Ce9  1  0.82047400  0.35613500  0.83948100  1
  C  C10  1  0.48180300  0.57191800  0.23047400  1
  C  C11  1  0.51819700  0.42808200  0.76952600  1
  C  C12  1  0.18165500  0.94519900  0.15833700  1
  C  C13  1  0.81834500  0.05480100  0.84166300  1
  C  C14  1  0.17663100  0.69105300  0.43711000  1
  C  C15  1  0.82336900  0.30894700  0.56289000  1
  O  O16  1  0.93122000  0.39150800  0.07902700  1
  O  O17  1  0.06878000  0.60849200  0.92097300  1
  O  O18  1  0.85714700  0.50067800  0.06462400  1
  O  O19  1  0.14285300  0.49932200  0.93537600  1
  O  O20  1  0.32105700  0.47680000  0.21994500  1
  O  O21  1  0.67894300  0.52320000  0.78005500  1
  O  O22  1  0.48714700  0.69255100  0.18385700  1
  O  O23  1  0.51285300  0.30744900  0.81614300  1
  O  O24  1  0.61706000  0.54978500  0.28021600  1
  O  O25  1  0.38294000  0.45021500  0.71978400  1
  O  O26  1  0.32018400  0.91516200  0.13887500  1
  O  O27  1  0.67981600  0.08483800  0.86112500  1
  O  O28  1  0.18274300  0.07973000  0.17494500  1
  O  O29  1  0.81725700  0.92027000  0.82505500  1
  O  O30  1  0.04675100  0.83010800  0.15987800  1
  O  O31  1  0.95324900  0.16989200  0.84012200  1
  O  O32  1  0.29905000  0.77954300  0.39022200  1
  O  O33  1  0.70095000  0.22045700  0.60977800  1
  O  O34  1  0.05513400  0.57874400  0.34522300  1
  O  O35  1  0.94486600  0.42125600  0.65477700  1
  O  O36  1  0.17500200  0.71188900  0.56060600  1
  O  O37  1  0.82499800  0.28811100  0.43939400  1
  O  O38  1  0.63242400  0.84738800  0.57512200  1
  O  O39  1  0.36757600  0.15261200  0.42487800  1
  O  O40  1  0.94892500  0.93662300  0.46710100  1
  O  O41  1  0.05107500  0.06337700  0.53289900  1
  O  O42  1  0.07824400  0.93013200  0.79060700  1
  O  O43  1  0.92175600  0.06986800  0.20939300  1
  O  O44  1  0.52765300  0.13494000  0.12485900  1
  O  O45  1  0.47234700  0.86506000  0.87514100  1
