# generated using pymatgen
data_Mg2Cd(ClO2)6
_symmetry_space_group_name_H-M   'P 1'
_cell_length_a   10.72690527
_cell_length_b   10.72690619
_cell_length_c   8.84840800
_cell_angle_alpha   97.68576048
_cell_angle_beta   97.68575696
_cell_angle_gamma   123.47536572
_symmetry_Int_Tables_number   1
_chemical_formula_structural   Mg2Cd(ClO2)6
_chemical_formula_sum   'Mg4 Cd2 Cl12 O24'
_cell_volume   814.68791164
_cell_formula_units_Z   2
loop_
 _symmetry_equiv_pos_site_id
 _symmetry_equiv_pos_as_xyz
  1  'x, y, z'
loop_
 _atom_site_type_symbol
 _atom_site_label
 _atom_site_symmetry_multiplicity
 _atom_site_fract_x
 _atom_site_fract_y
 _atom_site_fract_z
 _atom_site_occupancy
  Mg  Mg0  1  0.36192800  0.62993600  0.68673900  1
  Mg  Mg1  1  0.62993600  0.36192800  0.18673900  1
  Mg  Mg2  1  0.00941500  0.01619900  0.93063000  1
  Mg  Mg3  1  0.01619900  0.00941500  0.43063000  1
  Cd  Cd4  1  0.61903400  0.23362300  0.72052400  1
  Cd  Cd5  1  0.23362300  0.61903400  0.22052400  1
  Cl  Cl6  1  0.53056700  0.41406700  0.85138000  1
  Cl  Cl7  1  0.58590900  0.07246600  0.94213500  1
  Cl  Cl8  1  0.88339300  0.48436600  0.98855700  1
  Cl  Cl9  1  0.41406700  0.53056700  0.35138000  1
  Cl  Cl10  1  0.07246600  0.58590900  0.44213500  1
  Cl  Cl11  1  0.48436600  0.88339300  0.48855700  1
  Cl  Cl12  1  0.82859600  0.27819300  0.61829700  1
  Cl  Cl13  1  0.70765500  0.52454600  0.57347200  1
  Cl  Cl14  1  0.31568000  0.11432600  0.63640200  1
  Cl  Cl15  1  0.27819300  0.82859600  0.11829700  1
  Cl  Cl16  1  0.52454600  0.70765500  0.07347200  1
  Cl  Cl17  1  0.11432600  0.31568000  0.13640200  1
  O  O18  1  0.52100500  0.70973900  0.89161500  1
  O  O19  1  0.16246200  0.85567100  0.80891700  1
  O  O20  1  0.22013900  0.42106200  0.75843900  1
  O  O21  1  0.70973900  0.52100500  0.39161500  1
  O  O22  1  0.85567100  0.16246200  0.30891700  1
  O  O23  1  0.42106200  0.22013900  0.25843900  1
  O  O24  1  0.17591300  0.62974000  0.61717300  1
  O  O25  1  0.42184900  0.52944700  0.53521900  1
  O  O26  1  0.49652500  0.85618900  0.66653100  1
  O  O27  1  0.62974000  0.17591300  0.11717300  1
  O  O28  1  0.52944700  0.42184900  0.03521900  1
  O  O29  1  0.85618900  0.49652500  0.16653100  1
  O  O30  1  0.97867200  0.18028400  0.98038200  1
  O  O31  1  0.91233200  0.84990300  0.06217500  1
  O  O32  1  0.23956200  0.11849300  0.02694700  1
  O  O33  1  0.18028400  0.97867200  0.48038200  1
  O  O34  1  0.84990300  0.91233200  0.56217500  1
  O  O35  1  0.11849300  0.23956200  0.52694700  1
  O  O36  1  0.85181500  0.94373100  0.70912800  1
  O  O37  1  0.04387500  0.85248500  0.77468400  1
  O  O38  1  0.14557100  0.27363500  0.68910400  1
  O  O39  1  0.94373100  0.85181500  0.20912800  1
  O  O40  1  0.85248500  0.04387500  0.27468400  1
  O  O41  1  0.27363500  0.14557100  0.18910400  1
