# generated using pymatgen
data_K4Ag2Sn3S9O2
_symmetry_space_group_name_H-M   'P 1'
_cell_length_a   25.59333000
_cell_length_b   8.03209400
_cell_length_c   11.36743032
_cell_angle_alpha   80.18536377
_cell_angle_beta   90.00000000
_cell_angle_gamma   90.00000000
_symmetry_Int_Tables_number   1
_chemical_formula_structural   K4Ag2Sn3S9O2
_chemical_formula_sum   'K16 Ag8 Sn12 S36 O8'
_cell_volume   2302.58006981
_cell_formula_units_Z   4
loop_
 _symmetry_equiv_pos_site_id
 _symmetry_equiv_pos_as_xyz
  1  'x, y, z'
loop_
 _atom_site_type_symbol
 _atom_site_label
 _atom_site_symmetry_multiplicity
 _atom_site_fract_x
 _atom_site_fract_y
 _atom_site_fract_z
 _atom_site_occupancy
  K  K0  1  0.75000000  0.66622900  0.77592800  1
  K  K1  1  0.25000000  0.33377100  0.22407200  1
  K  K2  1  0.75000000  0.06352600  0.38945600  1
  K  K3  1  0.25000000  0.93647400  0.61054400  1
  K  K4  1  0.75000000  0.15833900  0.03352000  1
  K  K5  1  0.25000000  0.84166100  0.96648000  1
  K  K6  1  0.75000000  0.61173200  0.36543500  1
  K  K7  1  0.25000000  0.38826800  0.63456500  1
  K  K8  1  0.06003900  0.24949400  0.59621900  1
  K  K9  1  0.56003900  0.75050600  0.40378100  1
  K  K10  1  0.93996100  0.75050600  0.40378100  1
  K  K11  1  0.43996100  0.24949400  0.59621900  1
  K  K12  1  0.06607500  0.81945900  0.09109200  1
  K  K13  1  0.56607500  0.18054100  0.90890800  1
  K  K14  1  0.93392500  0.18054100  0.90890800  1
  K  K15  1  0.43392500  0.81945900  0.09109200  1
  Ag  Ag16  1  0.83038100  0.36056300  0.21250200  1
  Ag  Ag17  1  0.33038100  0.63943700  0.78749800  1
  Ag  Ag18  1  0.16961900  0.63943700  0.78749800  1
  Ag  Ag19  1  0.66961900  0.36056300  0.21250200  1
  Ag  Ag20  1  0.86863700  0.50834500  0.68740400  1
  Ag  Ag21  1  0.36863700  0.49165500  0.31259600  1
  Ag  Ag22  1  0.13136300  0.49165500  0.31259600  1
  Ag  Ag23  1  0.63136300  0.50834500  0.68740400  1
  Sn  Sn24  1  0.87215100  0.67157200  0.98569800  1
  Sn  Sn25  1  0.37215100  0.32842800  0.01430200  1
  Sn  Sn26  1  0.12784900  0.32842800  0.01430200  1
  Sn  Sn27  1  0.62784900  0.67157200  0.98569800  1
  Sn  Sn28  1  0.85937700  0.97568000  0.66655700  1
  Sn  Sn29  1  0.35937700  0.02432000  0.33344300  1
  Sn  Sn30  1  0.14062300  0.02432000  0.33344300  1
  Sn  Sn31  1  0.64062300  0.97568000  0.66655700  1
  Sn  Sn32  1  0.00061600  0.71834500  0.75435500  1
  Sn  Sn33  1  0.50061600  0.28165500  0.24564500  1
  Sn  Sn34  1  0.99938400  0.28165500  0.24564500  1
  Sn  Sn35  1  0.49938400  0.71834500  0.75435500  1
  S  S36  1  0.82949300  0.93470800  0.87619400  1
  S  S37  1  0.32949300  0.06529200  0.12380600  1
  S  S38  1  0.17050700  0.06529200  0.12380600  1
  S  S39  1  0.67050700  0.93470800  0.87619400  1
  S  S40  1  0.95275400  0.00029300  0.65128600  1
  S  S41  1  0.45275400  0.99970700  0.34871400  1
  S  S42  1  0.04724600  0.99970700  0.34871400  1
  S  S43  1  0.54724600  0.00029300  0.65128600  1
  S  S44  1  0.96514400  0.48480700  0.66879800  1
  S  S45  1  0.46514400  0.51519300  0.33120200  1
  S  S46  1  0.03485600  0.51519300  0.33120200  1
  S  S47  1  0.53485600  0.48480700  0.66879800  1
  S  S48  1  0.85282300  0.65298400  0.19604600  1
  S  S49  1  0.35282300  0.34701600  0.80395400  1
  S  S50  1  0.14717700  0.34701600  0.80395400  1
  S  S51  1  0.64717700  0.65298400  0.19604600  1
  S  S52  1  0.82859400  0.77228000  0.55416500  1
  S  S53  1  0.32859400  0.22772000  0.44583500  1
  S  S54  1  0.17140600  0.22772000  0.44583500  1
  S  S55  1  0.67140600  0.77228000  0.55416500  1
  S  S56  1  0.80839700  0.26133300  0.60231500  1
  S  S57  1  0.30839700  0.73866700  0.39768500  1
  S  S58  1  0.19160300  0.73866700  0.39768500  1
  S  S59  1  0.69160300  0.26133300  0.60231500  1
  S  S60  1  0.83786100  0.43847200  0.90761900  1
  S  S61  1  0.33786100  0.56152800  0.09238100  1
  S  S62  1  0.16213900  0.56152800  0.09238100  1
  S  S63  1  0.66213900  0.43847200  0.90761900  1
  S  S64  1  0.96416900  0.72436100  0.96414800  1
  S  S65  1  0.46416900  0.27563900  0.03585200  1
  S  S66  1  0.03583100  0.27563900  0.03585200  1
  S  S67  1  0.53583100  0.72436100  0.96414800  1
  S  S68  1  0.10584600  0.88226800  0.78857300  1
  S  S69  1  0.60584600  0.11773200  0.21142700  1
  S  S70  1  0.89415400  0.11773200  0.21142700  1
  S  S71  1  0.39415400  0.88226800  0.78857300  1
  O  O72  1  0.75000000  0.24546300  0.68090000  1
  O  O73  1  0.25000000  0.75453700  0.31910000  1
  O  O74  1  0.75000000  0.36000800  0.25830400  1
  O  O75  1  0.25000000  0.63999200  0.74169600  1
  O  O76  1  0.83016700  0.09657700  0.21488800  1
  O  O77  1  0.33016700  0.90342300  0.78511200  1
  O  O78  1  0.16983300  0.90342300  0.78511200  1
  O  O79  1  0.66983300  0.09657700  0.21488800  1
