# generated using pymatgen
data_K3FeMo4O15
_symmetry_space_group_name_H-M   'P 1'
_cell_length_a   5.84719779
_cell_length_b   16.27784560
_cell_length_c   17.08911841
_cell_angle_alpha   91.62775631
_cell_angle_beta   99.72479951
_cell_angle_gamma   90.12203446
_symmetry_Int_Tables_number   1
_chemical_formula_structural   K3FeMo4O15
_chemical_formula_sum   'K12 Fe4 Mo16 O60'
_cell_volume   1602.47940538
_cell_formula_units_Z   4
loop_
 _symmetry_equiv_pos_site_id
 _symmetry_equiv_pos_as_xyz
  1  'x, y, z'
loop_
 _atom_site_type_symbol
 _atom_site_label
 _atom_site_symmetry_multiplicity
 _atom_site_fract_x
 _atom_site_fract_y
 _atom_site_fract_z
 _atom_site_occupancy
  K  K0  1  0.84911131  0.51382979  0.62600039  1
  K  K1  1  0.37226776  0.13363074  0.78751232  1
  K  K2  1  0.78333040  0.01175377  0.62801711  1
  K  K3  1  0.50067239  0.63069953  0.02443357  1
  K  K4  1  0.62631830  0.86568822  0.21262036  1
  K  K5  1  0.15762069  0.48805774  0.37420433  1
  K  K6  1  0.47408111  0.86907016  0.97531321  1
  K  K7  1  0.52945455  0.13032772  0.02594562  1
  K  K8  1  0.58167772  0.36582790  0.21267496  1
  K  K9  1  0.42275836  0.63326383  0.78912449  1
  K  K10  1  0.21883772  0.98831243  0.37338352  1
  K  K11  1  0.49941140  0.36845989  0.97529803  1
  Fe  Fe12  1  0.18208895  0.23950451  0.36173677  1
  Fe  Fe13  1  0.82080319  0.26084689  0.63850512  1
  Fe  Fe14  1  0.17917545  0.74048672  0.36207877  1
  Fe  Fe15  1  0.81608367  0.75970124  0.63895457  1
  Mo  Mo16  1  0.63646897  0.61887506  0.30062533  1
  Mo  Mo17  1  0.01935394  0.49864141  0.11462850  1
  Mo  Mo18  1  0.09397285  0.99839488  0.11410615  1
  Mo  Mo19  1  0.93685678  0.26958376  0.86145597  1
  Mo  Mo20  1  0.90709315  0.00195808  0.88634262  1
  Mo  Mo21  1  0.98219037  0.50205940  0.88559329  1
  Mo  Mo22  1  0.33475790  0.87891203  0.69970884  1
  Mo  Mo23  1  0.72995617  0.84182627  0.43877118  1
  Mo  Mo24  1  0.36304747  0.38143315  0.69863966  1
  Mo  Mo25  1  0.29158938  0.66041945  0.56309670  1
  Mo  Mo26  1  0.26940798  0.15896396  0.56302769  1
  Mo  Mo27  1  0.92660448  0.76974021  0.86108376  1
  Mo  Mo28  1  0.70649228  0.34063582  0.43757434  1
  Mo  Mo29  1  0.66502274  0.11878639  0.30048946  1
  Mo  Mo30  1  0.06554137  0.73131947  0.13874796  1
  Mo  Mo31  1  0.07387872  0.23105092  0.13863546  1
  O  O32  1  0.02855066  0.16243048  0.61900610  1
  O  O33  1  0.59813451  0.65313298  0.20233567  1
  O  O34  1  0.93423256  0.03799679  0.79194792  1
  O  O35  1  0.89977521  0.66695203  0.35628833  1
  O  O36  1  0.28777965  0.05832849  0.52610803  1
  O  O37  1  0.38922747  0.84205986  0.79725992  1
  O  O38  1  0.14173732  0.25858709  0.24321202  1
  O  O39  1  0.37706692  0.64386399  0.34423401  1
  O  O40  1  0.22151646  0.22660829  0.48094874  1
  O  O41  1  0.88195503  0.94745011  0.04371566  1
  O  O42  1  0.71504178  0.94210826  0.47702775  1
  O  O43  1  0.10379653  0.75979022  0.24318378  1
  O  O44  1  0.90884651  0.31730736  0.36907395  1
  O  O45  1  0.23462138  0.55992435  0.52679907  1
  O  O46  1  0.29508498  0.26912165  0.09187543  1
  O  O47  1  0.40180298  0.34496703  0.79606651  1
  O  O48  1  0.37656488  0.97306223  0.09816578  1
  O  O49  1  0.37830099  0.98623297  0.70078545  1
  O  O50  1  0.85905656  0.53956578  0.79211556  1
  O  O51  1  0.79844680  0.76932588  0.09200948  1
  O  O52  1  0.84398294  0.55426514  0.95616327  1
  O  O53  1  0.85605920  0.74272895  0.75651681  1
  O  O54  1  0.72060363  0.47345079  0.09792258  1
  O  O55  1  0.20441102  0.23136308  0.90743412  1
  O  O56  1  0.11977805  0.05401357  0.95549647  1
  O  O57  1  0.45786178  0.81900830  0.37118766  1
  O  O58  1  0.58696789  0.66220822  0.61974875  1
  O  O59  1  0.77544989  0.77264760  0.51961686  1
  O  O60  1  0.62004514  0.01129381  0.29830766  1
  O  O61  1  0.96776023  0.14207249  0.34530939  1
  O  O62  1  0.54038295  0.18235041  0.63121920  1
  O  O63  1  0.96330580  0.88410338  0.88415058  1
  O  O64  1  0.07760045  0.61676358  0.11708304  1
  O  O65  1  0.92423978  0.38406217  0.88366907  1
  O  O66  1  0.25800346  0.72824182  0.48105615  1
  O  O67  1  0.61206482  0.15477004  0.20275390  1
  O  O68  1  0.18118348  0.71909593  0.90214463  1
  O  O69  1  0.72386397  0.22059182  0.90491636  1
  O  O70  1  0.40945022  0.33769595  0.38217654  1
  O  O71  1  0.76423495  0.44095405  0.47527519  1
  O  O72  1  0.67600245  0.51118860  0.30046537  1
  O  O73  1  0.62428237  0.02693803  0.90235777  1
  O  O74  1  0.08844978  0.68270182  0.63150451  1
  O  O75  1  0.06429083  0.96072910  0.20757382  1
  O  O76  1  0.09945832  0.33409938  0.64211413  1
  O  O77  1  0.27990304  0.77987913  0.09545136  1
  O  O78  1  0.03270672  0.85610170  0.65429315  1
  O  O79  1  0.45566002  0.16635252  0.35592869  1
  O  O80  1  0.97117398  0.83753618  0.38312876  1
  O  O81  1  0.54117689  0.83176568  0.64287152  1
  O  O82  1  0.16276639  0.44651799  0.04535338  1
  O  O83  1  0.89744409  0.24211294  0.75680029  1
  O  O84  1  0.13812926  0.46146571  0.20861481  1
  O  O85  1  0.70339951  0.73170968  0.90666187  1
  O  O86  1  0.62322633  0.35826659  0.65476114  1
  O  O87  1  0.32149602  0.48898473  0.70139174  1
  O  O88  1  0.81731143  0.27973114  0.09569527  1
  O  O89  1  0.73974465  0.27221754  0.51897995  1
  O  O90  1  0.28145116  0.52615412  0.90083884  1
  O  O91  1  0.04130335  0.11648716  0.11677018  1
