# generated using pymatgen
data_LaH2SNO7
_symmetry_space_group_name_H-M   'P 1'
_cell_length_a   8.92647500
_cell_length_b   8.92647500
_cell_length_c   12.15926100
_cell_angle_alpha   90.00000000
_cell_angle_beta   90.00000000
_cell_angle_gamma   90.00000000
_symmetry_Int_Tables_number   1
_chemical_formula_structural   LaH2SNO7
_chemical_formula_sum   'La4 H8 S4 N4 O28'
_cell_volume   968.87369909
_cell_formula_units_Z   4
loop_
 _symmetry_equiv_pos_site_id
 _symmetry_equiv_pos_as_xyz
  1  'x, y, z'
loop_
 _atom_site_type_symbol
 _atom_site_label
 _atom_site_symmetry_multiplicity
 _atom_site_fract_x
 _atom_site_fract_y
 _atom_site_fract_z
 _atom_site_occupancy
  La  La0  1  0.90652100  0.35500100  0.52961100  1
  La  La1  1  0.09347900  0.64499900  0.02961100  1
  La  La2  1  0.35500100  0.09347900  0.27961100  1
  La  La3  1  0.64499900  0.90652100  0.77961100  1
  H  H4  1  0.62500500  0.14428300  0.96523200  1
  H  H5  1  0.37499500  0.85571700  0.46523200  1
  H  H6  1  0.14428300  0.37499500  0.71523200  1
  H  H7  1  0.85571700  0.62500500  0.21523200  1
  H  H8  1  0.53581100  0.41154000  0.95988900  1
  H  H9  1  0.46418900  0.58846000  0.45988900  1
  H  H10  1  0.41154000  0.46418900  0.70988900  1
  H  H11  1  0.58846000  0.53581100  0.20988900  1
  S  S12  1  0.29087200  0.67293600  0.74322500  1
  S  S13  1  0.70912800  0.32706400  0.24322500  1
  S  S14  1  0.67293600  0.70912800  0.49322500  1
  S  S15  1  0.32706400  0.29087200  0.99322500  1
  N  N16  1  0.85020000  0.09297700  0.71804300  1
  N  N17  1  0.14980000  0.90702300  0.21804300  1
  N  N18  1  0.09297700  0.14980000  0.46804300  1
  N  N19  1  0.90702300  0.85020000  0.96804300  1
  O  O20  1  0.05609200  0.51694900  0.61250500  1
  O  O21  1  0.94390800  0.48305100  0.11250500  1
  O  O22  1  0.51694900  0.94390800  0.36250500  1
  O  O23  1  0.48305100  0.05609200  0.86250500  1
  O  O24  1  0.40801300  0.52806800  0.77547300  1
  O  O25  1  0.59198700  0.47193200  0.27547300  1
  O  O26  1  0.52806800  0.59198700  0.52547300  1
  O  O27  1  0.47193200  0.40801300  0.02547300  1
  O  O28  1  0.39735100  0.80424400  0.74687900  1
  O  O29  1  0.60264900  0.19575600  0.24687900  1
  O  O30  1  0.80424400  0.60264900  0.49687900  1
  O  O31  1  0.19575600  0.39735100  0.99687900  1
  O  O32  1  0.19821100  0.67779100  0.84770700  1
  O  O33  1  0.80178900  0.32220900  0.34770700  1
  O  O34  1  0.67779100  0.80178900  0.59770700  1
  O  O35  1  0.32220900  0.19821100  0.09770700  1
  O  O36  1  0.73463500  0.14359400  0.66551200  1
  O  O37  1  0.26536500  0.85640600  0.16551200  1
  O  O38  1  0.14359400  0.26536500  0.41551200  1
  O  O39  1  0.85640600  0.73463500  0.91551200  1
  O  O40  1  0.96983700  0.16068500  0.70420900  1
  O  O41  1  0.03016300  0.83931500  0.20420900  1
  O  O42  1  0.16068500  0.03016300  0.45420900  1
  O  O43  1  0.83931500  0.96983700  0.95420900  1
  O  O44  1  0.61158800  0.15709000  0.88562500  1
  O  O45  1  0.38841200  0.84291000  0.38562500  1
  O  O46  1  0.15709000  0.38841200  0.63562500  1
  O  O47  1  0.84291000  0.61158800  0.13562500  1
