# generated using pymatgen
data_K4MoC4(NO2)4
_symmetry_space_group_name_H-M   'P 1'
_cell_length_a   13.73254300
_cell_length_b   6.88418800
_cell_length_c   9.08539877
_cell_angle_alpha   71.51593490
_cell_angle_beta   90.00000000
_cell_angle_gamma   90.00000000
_symmetry_Int_Tables_number   1
_chemical_formula_structural   K4MoC4(NO2)4
_chemical_formula_sum   'K8 Mo2 C8 N8 O16'
_cell_volume   814.60048119
_cell_formula_units_Z   2
loop_
 _symmetry_equiv_pos_site_id
 _symmetry_equiv_pos_as_xyz
  1  'x, y, z'
loop_
 _atom_site_type_symbol
 _atom_site_label
 _atom_site_symmetry_multiplicity
 _atom_site_fract_x
 _atom_site_fract_y
 _atom_site_fract_z
 _atom_site_occupancy
  K  K0  1  0.87694700  0.81808600  0.65713900  1
  K  K1  1  0.37694700  0.18191400  0.84286100  1
  K  K2  1  0.12305300  0.18191400  0.34286100  1
  K  K3  1  0.62305300  0.81808600  0.15713900  1
  K  K4  1  0.64940400  0.47022200  0.89460400  1
  K  K5  1  0.14940400  0.52977800  0.60539600  1
  K  K6  1  0.35059600  0.52977800  0.10539600  1
  K  K7  1  0.85059600  0.47022200  0.39460400  1
  Mo  Mo8  1  0.50000000  0.00000000  0.50000000  1
  Mo  Mo9  1  0.00000000  0.00000000  0.00000000  1
  C  C10  1  0.50884500  0.86919600  0.75825600  1
  C  C11  1  0.00884500  0.13080400  0.74174400  1
  C  C12  1  0.49115500  0.13080400  0.24174400  1
  C  C13  1  0.99115500  0.86919600  0.25825600  1
  C  C14  1  0.85430700  0.86314100  0.97938700  1
  C  C15  1  0.35430700  0.13685900  0.52061300  1
  C  C16  1  0.14569300  0.13685900  0.02061300  1
  C  C17  1  0.64569300  0.86314100  0.47938700  1
  N  N18  1  0.51000000  0.80025800  0.89456500  1
  N  N19  1  0.01000000  0.19974200  0.60543500  1
  N  N20  1  0.49000000  0.19974200  0.10543500  1
  N  N21  1  0.99000000  0.80025800  0.39456500  1
  N  N22  1  0.78049100  0.78743100  0.96061800  1
  N  N23  1  0.28049100  0.21256900  0.53938200  1
  N  N24  1  0.21950900  0.21256900  0.03938200  1
  N  N25  1  0.71950900  0.78743100  0.46061800  1
  O  O26  1  0.55700800  0.23771800  0.50773300  1
  O  O27  1  0.05700800  0.76228200  0.99226700  1
  O  O28  1  0.44299200  0.76228200  0.49226700  1
  O  O29  1  0.94299200  0.23771800  0.00773300  1
  O  O30  1  0.52788800  0.39707700  0.68577900  1
  O  O31  1  0.02788800  0.60292300  0.81422100  1
  O  O32  1  0.47211200  0.60292300  0.31422100  1
  O  O33  1  0.97211200  0.39707700  0.18577900  1
  O  O34  1  0.79430800  0.36269800  0.72413900  1
  O  O35  1  0.29430800  0.63730200  0.77586100  1
  O  O36  1  0.20569200  0.63730200  0.27586100  1
  O  O37  1  0.70569200  0.36269800  0.22413900  1
  O  O38  1  0.75482600  0.22029500  0.68470100  1
  O  O39  1  0.25482600  0.77970500  0.81529900  1
  O  O40  1  0.24517400  0.77970500  0.31529900  1
  O  O41  1  0.74517400  0.22029500  0.18470100  1
