# generated using pymatgen
data_MnP4(NO6)2
_symmetry_space_group_name_H-M   'P 1'
_cell_length_a   12.94636400
_cell_length_b   8.21944100
_cell_length_c   12.24935354
_cell_angle_alpha   60.51673533
_cell_angle_beta   90.00000000
_cell_angle_gamma   90.00000000
_symmetry_Int_Tables_number   1
_chemical_formula_structural   MnP4(NO6)2
_chemical_formula_sum   'Mn4 P16 N8 O48'
_cell_volume   1134.67578286
_cell_formula_units_Z   4
loop_
 _symmetry_equiv_pos_site_id
 _symmetry_equiv_pos_as_xyz
  1  'x, y, z'
loop_
 _atom_site_type_symbol
 _atom_site_label
 _atom_site_symmetry_multiplicity
 _atom_site_fract_x
 _atom_site_fract_y
 _atom_site_fract_z
 _atom_site_occupancy
  Mn  Mn0  1  0.36039300  0.73933900  0.51896500  1
  Mn  Mn1  1  0.13960700  0.73933900  0.01896500  1
  Mn  Mn2  1  0.63960700  0.26066100  0.48103500  1
  Mn  Mn3  1  0.86039300  0.26066100  0.98103500  1
  P  P4  1  0.09034900  0.42572500  0.91464300  1
  P  P5  1  0.40965100  0.42572500  0.41464300  1
  P  P6  1  0.90965100  0.57427500  0.08535700  1
  P  P7  1  0.59034900  0.57427500  0.58535700  1
  P  P8  1  0.19216800  0.40373500  0.69791300  1
  P  P9  1  0.30783200  0.40373500  0.19791300  1
  P  P10  1  0.80783200  0.59626500  0.30208700  1
  P  P11  1  0.69216800  0.59626500  0.80208700  1
  P  P12  1  0.32540000  0.04513000  0.84587600  1
  P  P13  1  0.17460000  0.04513000  0.34587600  1
  P  P14  1  0.67460000  0.95487000  0.15412400  1
  P  P15  1  0.82540000  0.95487000  0.65412400  1
  P  P16  1  0.43370600  0.05060800  0.63229500  1
  P  P17  1  0.06629400  0.05060800  0.13229500  1
  P  P18  1  0.56629400  0.94939200  0.36770500  1
  P  P19  1  0.93370600  0.94939200  0.86770500  1
  N  N20  1  0.12821500  0.99896800  0.56591400  1
  N  N21  1  0.37178500  0.99896800  0.06591400  1
  N  N22  1  0.87178500  0.00103200  0.43408600  1
  N  N23  1  0.62821500  0.00103200  0.93408600  1
  N  N24  1  0.38543100  0.53816400  0.87148900  1
  N  N25  1  0.11456900  0.53816400  0.37148900  1
  N  N26  1  0.61456900  0.46183600  0.12851100  1
  N  N27  1  0.88543100  0.46183600  0.62851100  1
  O  O28  1  0.10699300  0.38656100  0.62584400  1
  O  O29  1  0.39300700  0.38656100  0.12584400  1
  O  O30  1  0.89300700  0.61343900  0.37415600  1
  O  O31  1  0.60699300  0.61343900  0.87415600  1
  O  O32  1  0.26538200  0.56904000  0.64809200  1
  O  O33  1  0.23461800  0.56904000  0.14809200  1
  O  O34  1  0.73461800  0.43096000  0.35190800  1
  O  O35  1  0.76538200  0.43096000  0.85190800  1
  O  O36  1  0.26924200  0.21917400  0.74589400  1
  O  O37  1  0.23075800  0.21917400  0.24589400  1
  O  O38  1  0.73075800  0.78082600  0.25410600  1
  O  O39  1  0.76924200  0.78082600  0.75410600  1
  O  O40  1  0.16063000  0.36108800  0.83686700  1
  O  O41  1  0.33937000  0.36108800  0.33686700  1
  O  O42  1  0.83937000  0.63891200  0.16313300  1
  O  O43  1  0.66063000  0.63891200  0.66313300  1
  O  O44  1  0.26349800  0.87283200  0.91692300  1
  O  O45  1  0.23650200  0.87283200  0.41692300  1
  O  O46  1  0.73650200  0.12716800  0.08307700  1
  O  O47  1  0.76349800  0.12716800  0.58307700  1
  O  O48  1  0.37980200  0.10657700  0.94091900  1
  O  O49  1  0.12019800  0.10657700  0.44091900  1
  O  O50  1  0.62019800  0.89342300  0.05908100  1
  O  O51  1  0.87980200  0.89342300  0.55908100  1
  O  O52  1  0.42090800  0.02127100  0.77495200  1
  O  O53  1  0.07909200  0.02127100  0.27495200  1
  O  O54  1  0.57909200  0.97872900  0.22504800  1
  O  O55  1  0.92090800  0.97872900  0.72504800  1
  O  O56  1  0.37052000  0.90970700  0.62014800  1
  O  O57  1  0.12948000  0.90970700  0.12014800  1
  O  O58  1  0.62948000  0.09029300  0.37985200  1
  O  O59  1  0.87052000  0.09029300  0.87985200  1
  O  O60  1  0.54895100  0.06160600  0.60671200  1
  O  O61  1  0.95104900  0.06160600  0.10671200  1
  O  O62  1  0.45104900  0.93839400  0.39328800  1
  O  O63  1  0.04895100  0.93839400  0.89328800  1
  O  O64  1  0.38566600  0.25723100  0.55386000  1
  O  O65  1  0.11433400  0.25723100  0.05386000  1
  O  O66  1  0.61433400  0.74276900  0.44614000  1
  O  O67  1  0.88566600  0.74276900  0.94614000  1
  O  O68  1  0.12831800  0.60353100  0.90407900  1
  O  O69  1  0.37168200  0.60353100  0.40407900  1
  O  O70  1  0.87168200  0.39646900  0.09592100  1
  O  O71  1  0.62831800  0.39646900  0.59592100  1
  O  O72  1  0.97710500  0.41571300  0.88427900  1
  O  O73  1  0.52289500  0.41571300  0.38427900  1
  O  O74  1  0.02289500  0.58428700  0.11572100  1
  O  O75  1  0.47710500  0.58428700  0.61572100  1
