# generated using pymatgen
data_HgAsC4Se3N
_symmetry_space_group_name_H-M   'P 1'
_cell_length_a   18.63869200
_cell_length_b   7.11392200
_cell_length_c   10.73294676
_cell_angle_alpha   52.86956852
_cell_angle_beta   90.00000000
_cell_angle_gamma   90.00000000
_symmetry_Int_Tables_number   1
_chemical_formula_structural   HgAsC4Se3N
_chemical_formula_sum   'Hg4 As4 C16 Se12 N4'
_cell_volume   1134.60672224
_cell_formula_units_Z   4
loop_
 _symmetry_equiv_pos_site_id
 _symmetry_equiv_pos_as_xyz
  1  'x, y, z'
loop_
 _atom_site_type_symbol
 _atom_site_label
 _atom_site_symmetry_multiplicity
 _atom_site_fract_x
 _atom_site_fract_y
 _atom_site_fract_z
 _atom_site_occupancy
  Hg  Hg0  1  0.48372700  0.29965100  0.42813500  1
  Hg  Hg1  1  0.01627300  0.29965100  0.92813500  1
  Hg  Hg2  1  0.51627300  0.70034900  0.57186500  1
  Hg  Hg3  1  0.98372700  0.70034900  0.07186500  1
  As  As4  1  0.44579200  0.84081500  0.84559000  1
  As  As5  1  0.05420800  0.84081500  0.34559000  1
  As  As6  1  0.55420800  0.15918500  0.15441000  1
  As  As7  1  0.94579200  0.15918500  0.65441000  1
  C  C8  1  0.62149000  0.02468800  0.88910300  1
  C  C9  1  0.87851000  0.02468800  0.38910300  1
  C  C10  1  0.37851000  0.97531200  0.11089700  1
  C  C11  1  0.12149000  0.97531200  0.61089700  1
  C  C12  1  0.67007700  0.82428100  0.92342900  1
  C  C13  1  0.82992300  0.82428100  0.42342900  1
  C  C14  1  0.32992300  0.17571900  0.07657100  1
  C  C15  1  0.17007700  0.17571900  0.57657100  1
  C  C16  1  0.71382800  0.03592800  0.88266400  1
  C  C17  1  0.78617200  0.03592800  0.38266400  1
  C  C18  1  0.28617200  0.96407200  0.11733600  1
  C  C19  1  0.21382800  0.96407200  0.61733600  1
  C  C20  1  0.66715600  0.14278000  0.93088600  1
  C  C21  1  0.83284400  0.14278000  0.43088600  1
  C  C22  1  0.33284400  0.85722000  0.06911400  1
  C  C23  1  0.16715600  0.85722000  0.56911400  1
  Se  Se24  1  0.32845700  0.69912100  0.98375200  1
  Se  Se25  1  0.17154300  0.69912100  0.48375200  1
  Se  Se26  1  0.67154300  0.30087900  0.01624800  1
  Se  Se27  1  0.82845700  0.30087900  0.51624800  1
  Se  Se28  1  0.39523700  0.22111000  0.62947700  1
  Se  Se29  1  0.10476300  0.22111000  0.12947700  1
  Se  Se30  1  0.60476300  0.77889000  0.37052300  1
  Se  Se31  1  0.89523700  0.77889000  0.87052300  1
  Se  Se32  1  0.42470800  0.57590300  0.77724200  1
  Se  Se33  1  0.07529200  0.57590300  0.27724200  1
  Se  Se34  1  0.57529200  0.42409700  0.22275800  1
  Se  Se35  1  0.92470800  0.42409700  0.72275800  1
  N  N36  1  0.66698100  0.06299200  0.76028100  1
  N  N37  1  0.83301900  0.06299200  0.26028100  1
  N  N38  1  0.33301900  0.93700800  0.23971900  1
  N  N39  1  0.16698100  0.93700800  0.73971900  1
