# generated using pymatgen
data_H5CSO5F3
_symmetry_space_group_name_H-M   'P 1'
_cell_length_a   9.68904300
_cell_length_b   7.65893600
_cell_length_c   11.34924388
_cell_angle_alpha   82.32207274
_cell_angle_beta   90.00000000
_cell_angle_gamma   90.00000000
_symmetry_Int_Tables_number   1
_chemical_formula_structural   H5CSO5F3
_chemical_formula_sum   'H20 C4 S4 O20 F12'
_cell_volume   834.65141224
_cell_formula_units_Z   4
loop_
 _symmetry_equiv_pos_site_id
 _symmetry_equiv_pos_as_xyz
  1  'x, y, z'
loop_
 _atom_site_type_symbol
 _atom_site_label
 _atom_site_symmetry_multiplicity
 _atom_site_fract_x
 _atom_site_fract_y
 _atom_site_fract_z
 _atom_site_occupancy
  H  H0  1  0.48966800  0.83263100  0.70216800  1
  H  H1  1  0.98966800  0.66736900  0.29783200  1
  H  H2  1  0.51033200  0.16736900  0.29783200  1
  H  H3  1  0.01033200  0.33263100  0.70216800  1
  H  H4  1  0.23821900  0.92940000  0.62023200  1
  H  H5  1  0.73821900  0.57060000  0.37976800  1
  H  H6  1  0.76178100  0.07060000  0.37976800  1
  H  H7  1  0.26178100  0.42940000  0.62023200  1
  H  H8  1  0.34617700  0.56055000  0.53397100  1
  H  H9  1  0.84617700  0.93945000  0.46602900  1
  H  H10  1  0.65382300  0.43945000  0.46602900  1
  H  H11  1  0.15382300  0.06055000  0.53397100  1
  H  H12  1  0.74979400  0.03126900  0.75918100  1
  H  H13  1  0.24979400  0.46873100  0.24081900  1
  H  H14  1  0.25020600  0.96873100  0.24081900  1
  H  H15  1  0.75020600  0.53126900  0.75918100  1
  H  H16  1  0.56233900  0.69137900  0.79053800  1
  H  H17  1  0.06233900  0.80862100  0.20946200  1
  H  H18  1  0.43766100  0.30862100  0.20946200  1
  H  H19  1  0.93766100  0.19137900  0.79053800  1
  C  C20  1  0.47489000  0.26032600  0.87054200  1
  C  C21  1  0.97489000  0.23967400  0.12945800  1
  C  C22  1  0.52511000  0.73967400  0.12945800  1
  C  C23  1  0.02511000  0.76032600  0.87054200  1
  S  S24  1  0.57931600  0.34688800  0.72917200  1
  S  S25  1  0.07931600  0.15311200  0.27082800  1
  S  S26  1  0.42068400  0.65311200  0.27082800  1
  S  S27  1  0.92068400  0.84688800  0.72917200  1
  O  O28  1  0.29198700  0.55214600  0.60645600  1
  O  O29  1  0.79198700  0.94785400  0.39354400  1
  O  O30  1  0.70801300  0.44785400  0.39354400  1
  O  O31  1  0.20801300  0.05214600  0.60645600  1
  O  O32  1  0.67841900  0.45530800  0.80746600  1
  O  O33  1  0.17841900  0.04469200  0.19253400  1
  O  O34  1  0.32158100  0.54469200  0.19253400  1
  O  O35  1  0.82158100  0.95530800  0.80746600  1
  O  O36  1  0.65054200  0.18977800  0.69358900  1
  O  O37  1  0.15054200  0.31022200  0.30641100  1
  O  O38  1  0.34945800  0.81022200  0.30641100  1
  O  O39  1  0.84945800  0.68977800  0.69358900  1
  O  O40  1  0.51936500  0.92423500  0.51672600  1
  O  O41  1  0.01936500  0.57576500  0.48327400  1
  O  O42  1  0.48063500  0.07576500  0.48327400  1
  O  O43  1  0.98063500  0.42423500  0.51672600  1
  O  O44  1  0.52301500  0.80977300  0.78326400  1
  O  O45  1  0.02301500  0.69022700  0.21673600  1
  O  O46  1  0.47698500  0.19022700  0.21673600  1
  O  O47  1  0.97698500  0.30977300  0.78326400  1
  F  F48  1  0.37306400  0.15695100  0.83770300  1
  F  F49  1  0.87306400  0.34304900  0.16229700  1
  F  F50  1  0.62693600  0.84304900  0.16229700  1
  F  F51  1  0.12693600  0.65695100  0.83770300  1
  F  F52  1  0.55829300  0.16777900  0.94959000  1
  F  F53  1  0.05829300  0.33222100  0.05041000  1
  F  F54  1  0.44170700  0.83222100  0.05041000  1
  F  F55  1  0.94170700  0.66777900  0.94959000  1
  F  F56  1  0.41851100  0.39584100  0.91808900  1
  F  F57  1  0.91851100  0.10415900  0.08191100  1
  F  F58  1  0.58148900  0.60415900  0.08191100  1
  F  F59  1  0.08148900  0.89584100  0.91808900  1
