# generated using pymatgen
data_FeSb(ClO)8
_symmetry_space_group_name_H-M   'P 1'
_cell_length_a   7.47204100
_cell_length_b   8.57393758
_cell_length_c   9.07504641
_cell_angle_alpha   92.22238429
_cell_angle_beta   93.07202362
_cell_angle_gamma   91.30345054
_symmetry_Int_Tables_number   1
_chemical_formula_structural   FeSb(ClO)8
_chemical_formula_sum   'Fe1 Sb1 Cl8 O8'
_cell_volume   579.93941817
_cell_formula_units_Z   1
loop_
 _symmetry_equiv_pos_site_id
 _symmetry_equiv_pos_as_xyz
  1  'x, y, z'
loop_
 _atom_site_type_symbol
 _atom_site_label
 _atom_site_symmetry_multiplicity
 _atom_site_fract_x
 _atom_site_fract_y
 _atom_site_fract_z
 _atom_site_occupancy
  Fe  Fe0  1  0.00711700  0.99712100  0.00067200  1
  Sb  Sb1  1  0.49883500  0.51520300  0.50100400  1
  Cl  Cl2  1  0.04207100  0.99430100  0.75267000  1
  Cl  Cl3  1  0.01819300  0.96128400  0.25014200  1
  Cl  Cl4  1  0.49391500  0.50328000  0.76057900  1
  Cl  Cl5  1  0.51898000  0.52160100  0.24237100  1
  Cl  Cl6  1  0.75484600  0.69963700  0.53307400  1
  Cl  Cl7  1  0.27296100  0.29980800  0.47163300  1
  Cl  Cl8  1  0.26608600  0.69807800  0.49555200  1
  Cl  Cl9  1  0.72653200  0.30422100  0.50460800  1
  O  O10  1  0.01799200  0.78041300  0.01679600  1
  O  O11  1  0.88959800  0.22267700  0.00834700  1
  O  O12  1  0.25036100  0.98274900  0.99161700  1
  O  O13  1  0.76802100  0.11475100  0.99824400  1
  O  O14  1  0.51335700  0.97935500  0.55740600  1
  O  O15  1  0.95946300  0.48502000  0.60252800  1
  O  O16  1  0.49419900  0.99870400  0.42407100  1
  O  O17  1  0.00747400  0.44179400  0.38868700  1
