# generated using pymatgen
data_K2Co(B2O5)6
_symmetry_space_group_name_H-M   'P 1'
_cell_length_a   8.04356700
_cell_length_b   8.06084879
_cell_length_c   10.13103083
_cell_angle_alpha   104.84040458
_cell_angle_beta   102.47744155
_cell_angle_gamma   89.71777222
_symmetry_Int_Tables_number   1
_chemical_formula_structural   K2Co(B2O5)6
_chemical_formula_sum   'K2 Co1 B12 O30'
_cell_volume   619.08203066
_cell_formula_units_Z   1
loop_
 _symmetry_equiv_pos_site_id
 _symmetry_equiv_pos_as_xyz
  1  'x, y, z'
loop_
 _atom_site_type_symbol
 _atom_site_label
 _atom_site_symmetry_multiplicity
 _atom_site_fract_x
 _atom_site_fract_y
 _atom_site_fract_z
 _atom_site_occupancy
  K  K0  1  0.65730300  0.29892000  0.67538400  1
  K  K1  1  0.34269700  0.70108000  0.32461600  1
  Co  Co2  1  0.00000000  0.00000000  0.00000000  1
  B  B3  1  0.28933100  0.82429900  0.88620000  1
  B  B4  1  0.71066900  0.17570100  0.11380000  1
  B  B5  1  0.12581000  0.79015400  0.62548200  1
  B  B6  1  0.87419000  0.20984600  0.37451800  1
  B  B7  1  0.98698600  0.66253400  0.79249700  1
  B  B8  1  0.01301400  0.33746600  0.20750300  1
  B  B9  1  0.21512000  0.55964500  0.94758000  1
  B  B10  1  0.78488000  0.44035500  0.05242000  1
  B  B11  1  0.41812500  0.90597100  0.70547300  1
  B  B12  1  0.58187500  0.09402900  0.29452700  1
  B  B13  1  0.84542200  0.66194400  0.55205900  1
  B  B14  1  0.15457800  0.33805600  0.44794100  1
  O  O15  1  0.13813900  0.74231700  0.74948100  1
  O  O16  1  0.86186100  0.25768300  0.25051900  1
  O  O17  1  0.26849900  0.46520800  0.04342500  1
  O  O18  1  0.73150100  0.53479200  0.95657500  1
  O  O19  1  0.33185100  0.68739900  0.95372900  1
  O  O20  1  0.66814900  0.31260100  0.04627100  1
  O  O21  1  0.42266700  0.88704400  0.83650300  1
  O  O22  1  0.57733300  0.11295600  0.16349700  1
  O  O23  1  0.55333800  0.96492900  0.66750300  1
  O  O24  1  0.44666200  0.03507100  0.33249700  1
  O  O25  1  0.26416800  0.85920100  0.59826300  1
  O  O26  1  0.73583200  0.14079900  0.40173700  1
  O  O27  1  0.97209000  0.75569400  0.52821200  1
  O  O28  1  0.02791000  0.24430600  0.47178800  1
  O  O29  1  0.68675900  0.62001800  0.44800100  1
  O  O30  1  0.31324100  0.37998200  0.55199900  1
  O  O31  1  0.85454900  0.59472000  0.66187200  1
  O  O32  1  0.14545100  0.40528000  0.33812800  1
  O  O33  1  0.05703000  0.52961300  0.85683100  1
  O  O34  1  0.94297000  0.47038700  0.14316900  1
  O  O35  1  0.21191400  0.96020500  0.97220600  1
  O  O36  1  0.78808600  0.03979500  0.02779400  1
  O  O37  1  0.02416300  0.11767000  0.72700600  1
  O  O38  1  0.97583700  0.88233000  0.27299400  1
  O  O39  1  0.91884400  0.79836800  0.88405200  1
  O  O40  1  0.08115600  0.20163200  0.11594800  1
  O  O41  1  0.92476700  0.14416000  0.80719000  1
  O  O42  1  0.07523300  0.85584000  0.19281000  1
  O  O43  1  0.31578700  0.32749900  0.66930600  1
  O  O44  1  0.68421300  0.67250100  0.33069400  1
