# generated using pymatgen
data_H5IO6
_symmetry_space_group_name_H-M   'P 1'
_cell_length_a   5.44978467
_cell_length_b   18.56980800
_cell_length_c   4.94806833
_cell_angle_alpha   90.00000000
_cell_angle_beta   107.49127288
_cell_angle_gamma   90.00000000
_symmetry_Int_Tables_number   1
_chemical_formula_structural   H5IO6
_chemical_formula_sum   'H20 I4 O24'
_cell_volume   477.59832815
_cell_formula_units_Z   4
loop_
 _symmetry_equiv_pos_site_id
 _symmetry_equiv_pos_as_xyz
  1  'x, y, z'
loop_
 _atom_site_type_symbol
 _atom_site_label
 _atom_site_symmetry_multiplicity
 _atom_site_fract_x
 _atom_site_fract_y
 _atom_site_fract_z
 _atom_site_occupancy
  H  H0  1  0.30786400  0.55196700  0.52481000  1
  H  H1  1  0.63836600  0.99445100  0.30229900  1
  H  H2  1  0.86163400  0.49445100  0.19770100  1
  H  H3  1  0.19213600  0.05196700  0.97519000  1
  H  H4  1  0.72945300  0.60975800  0.06031800  1
  H  H5  1  0.33633500  0.98921000  0.64202000  1
  H  H6  1  0.16366500  0.48921000  0.85798000  1
  H  H7  1  0.77054700  0.10975800  0.43968200  1
  H  H8  1  0.81156900  0.93794100  0.96070500  1
  H  H9  1  0.68843100  0.43794100  0.53929500  1
  H  H10  1  0.11826300  0.68738500  0.45485200  1
  H  H11  1  0.59395400  0.79820300  0.90341000  1
  H  H12  1  0.90604600  0.29820300  0.59659000  1
  H  H13  1  0.38173700  0.18738500  0.04514800  1
  H  H14  1  0.11200500  0.86459800  0.50504100  1
  H  H15  1  0.38799500  0.36459800  0.99495900  1
  H  H16  1  0.91427200  0.71135900  0.78407500  1
  H  H17  1  0.38507100  0.77350100  0.25565000  1
  H  H18  1  0.11492900  0.27350100  0.24435000  1
  H  H19  1  0.58572800  0.21135900  0.71592500  1
  I  I20  1  0.21008300  0.61605100  0.06162500  1
  I  I21  1  0.66280900  0.87201200  0.51214200  1
  I  I22  1  0.83719100  0.37201200  0.98785800  1
  I  I23  1  0.28991700  0.11605100  0.43837500  1
  O  O24  1  0.20534700  0.53957200  0.79699800  1
  O  O25  1  0.66513700  0.94462600  0.23244800  1
  O  O26  1  0.83486300  0.44462600  0.26755200  1
  O  O27  1  0.29465300  0.03957200  0.70300200  1
  O  O28  1  0.89839500  0.57675100  0.11061000  1
  O  O29  1  0.37522200  0.90749400  0.58714200  1
  O  O30  1  0.12477800  0.40749400  0.91285800  1
  O  O31  1  0.60160500  0.07675100  0.38939000  1
  O  O32  1  0.39523600  0.55711000  0.37080900  1
  O  O33  1  0.89016100  0.92948700  0.80421400  1
  O  O34  1  0.60983900  0.42948700  0.69578600  1
  O  O35  1  0.10476400  0.05711000  0.12919200  1
  O  O36  1  0.17869900  0.69941000  0.28594600  1
  O  O37  1  0.67689100  0.78800000  0.75213700  1
  O  O38  1  0.82310900  0.28800000  0.74786300  1
  O  O39  1  0.32130100  0.19941000  0.21405400  1
  O  O40  1  0.50233000  0.65254600  0.01253600  1
  O  O41  1  0.95491000  0.83151600  0.43732800  1
  O  O42  1  0.54509000  0.33151600  0.06267200  1
  O  O43  1  0.99767000  0.15254600  0.48746400  1
  O  O44  1  0.00267000  0.66929000  0.72916800  1
  O  O45  1  0.46469200  0.81563400  0.18972600  1
  O  O46  1  0.03530800  0.31563400  0.31027400  1
  O  O47  1  0.49733000  0.16929000  0.77083200  1
