# generated using pymatgen
data_K3NaFeCl6
_symmetry_space_group_name_H-M   'P 1'
_cell_length_a   11.87797669
_cell_length_b   11.87797669
_cell_length_c   7.26348514
_cell_angle_alpha   77.37608676
_cell_angle_beta   77.37608676
_cell_angle_gamma   124.24905668
_symmetry_Int_Tables_number   1
_chemical_formula_structural   K3NaFeCl6
_chemical_formula_sum   'K6 Na2 Fe2 Cl12'
_cell_volume   748.84212830
_cell_formula_units_Z   2
loop_
 _symmetry_equiv_pos_site_id
 _symmetry_equiv_pos_as_xyz
  1  'x, y, z'
loop_
 _atom_site_type_symbol
 _atom_site_label
 _atom_site_symmetry_multiplicity
 _atom_site_fract_x
 _atom_site_fract_y
 _atom_site_fract_z
 _atom_site_occupancy
  K  K0  1  0.86651700  0.55060500  0.56920200  1
  K  K1  1  0.28308700  0.71691300  0.75000000  1
  K  K2  1  0.44939500  0.13348300  0.93079800  1
  K  K3  1  0.13348300  0.44939500  0.43079800  1
  K  K4  1  0.71691300  0.28308700  0.25000000  1
  K  K5  1  0.55060500  0.86651700  0.06920200  1
  Na  Na6  1  0.50310900  0.49689100  0.25000000  1
  Na  Na7  1  0.49689100  0.50310900  0.75000000  1
  Fe  Fe8  1  0.00000000  0.00000000  0.00000000  1
  Fe  Fe9  1  0.00000000  0.00000000  0.50000000  1
  Cl  Cl10  1  0.04737700  0.59992700  0.17280900  1
  Cl  Cl11  1  0.43913500  0.62396200  0.47462900  1
  Cl  Cl12  1  0.83321200  0.84713100  0.86777400  1
  Cl  Cl13  1  0.95262300  0.40007300  0.82719100  1
  Cl  Cl14  1  0.56086500  0.37603800  0.52537100  1
  Cl  Cl15  1  0.16678800  0.15286900  0.13222600  1
  Cl  Cl16  1  0.62396200  0.43913500  0.97462900  1
  Cl  Cl17  1  0.84713100  0.83321200  0.36777400  1
  Cl  Cl18  1  0.59992700  0.04737700  0.67280900  1
  Cl  Cl19  1  0.37603800  0.56086500  0.02537100  1
  Cl  Cl20  1  0.15286900  0.16678800  0.63222600  1
  Cl  Cl21  1  0.40007300  0.95262300  0.32719100  1
