# generated using pymatgen
data_H6N4O9
_symmetry_space_group_name_H-M   'P 1'
_cell_length_a   12.71237300
_cell_length_b   4.80926000
_cell_length_c   7.40420531
_cell_angle_alpha   84.45330425
_cell_angle_beta   90.00000000
_cell_angle_gamma   90.00000000
_symmetry_Int_Tables_number   1
_chemical_formula_structural   H6N4O9
_chemical_formula_sum   'H12 N8 O18'
_cell_volume   450.55217192
_cell_formula_units_Z   2
loop_
 _symmetry_equiv_pos_site_id
 _symmetry_equiv_pos_as_xyz
  1  'x, y, z'
loop_
 _atom_site_type_symbol
 _atom_site_label
 _atom_site_symmetry_multiplicity
 _atom_site_fract_x
 _atom_site_fract_y
 _atom_site_fract_z
 _atom_site_occupancy
  H  H0  1  0.91098200  0.76633900  0.84304100  1
  H  H1  1  0.41098200  0.23366100  0.15695900  1
  H  H2  1  0.07887900  0.16797100  0.24724600  1
  H  H3  1  0.96607800  0.35582700  0.28242200  1
  H  H4  1  0.46607800  0.64417300  0.71757800  1
  H  H5  1  0.57887900  0.83202900  0.75275400  1
  H  H6  1  0.56224800  0.50827100  0.85977300  1
  H  H7  1  0.48511300  0.77360700  0.91547700  1
  H  H8  1  0.98511300  0.22639300  0.08452300  1
  H  H9  1  0.06224800  0.49172900  0.14022700  1
  H  H10  1  0.17990100  0.97711400  0.92859800  1
  H  H11  1  0.67990100  0.02288600  0.07140200  1
  N  N12  1  0.52203600  0.68966000  0.81042900  1
  N  N13  1  0.02203600  0.31034000  0.18957100  1
  N  N14  1  0.98360500  0.72139500  0.61830700  1
  N  N15  1  0.48360500  0.27860500  0.38169300  1
  N  N16  1  0.72086000  0.19927700  0.78241800  1
  N  N17  1  0.27900000  0.26137700  0.82639400  1
  N  N18  1  0.77900000  0.73862300  0.17360600  1
  N  N19  1  0.22086000  0.80072300  0.21758200  1
  O  O20  1  0.97884700  0.68274900  0.81061400  1
  O  O21  1  0.47884700  0.31725100  0.18938600  1
  O  O22  1  0.92328200  0.89247200  0.54237300  1
  O  O23  1  0.04995600  0.57732500  0.55384300  1
  O  O24  1  0.54995600  0.42267500  0.44615700  1
  O  O25  1  0.42328200  0.10752800  0.45762700  1
  O  O26  1  0.69274000  0.00961800  0.68695800  1
  O  O27  1  0.29259100  0.47450600  0.72554400  1
  O  O28  1  0.79259100  0.52549400  0.27445600  1
  O  O29  1  0.19274000  0.99038200  0.31304200  1
  O  O30  1  0.66092900  0.24733100  0.92337700  1
  O  O31  1  0.34665400  0.13765800  0.92678300  1
  O  O32  1  0.84665400  0.86234200  0.07321700  1
  O  O33  1  0.16092900  0.75266900  0.07662300  1
  O  O34  1  0.80099800  0.34021100  0.75207300  1
  O  O35  1  0.18099500  0.14945800  0.82823100  1
  O  O36  1  0.68099500  0.85054200  0.17176900  1
  O  O37  1  0.30099800  0.65978900  0.24792700  1
