# generated using pymatgen
data_Gd(CO3)2
_symmetry_space_group_name_H-M   'P 1'
_cell_length_a   8.50597077
_cell_length_b   8.50597077
_cell_length_c   4.87390600
_cell_angle_alpha   90.00000000
_cell_angle_beta   90.00000000
_cell_angle_gamma   125.27341453
_symmetry_Int_Tables_number   1
_chemical_formula_structural   Gd(CO3)2
_chemical_formula_sum   'Gd2 C4 O12'
_cell_volume   287.89287159
_cell_formula_units_Z   2
loop_
 _symmetry_equiv_pos_site_id
 _symmetry_equiv_pos_as_xyz
  1  'x, y, z'
loop_
 _atom_site_type_symbol
 _atom_site_label
 _atom_site_symmetry_multiplicity
 _atom_site_fract_x
 _atom_site_fract_y
 _atom_site_fract_z
 _atom_site_occupancy
  Gd  Gd0  1  0.21133600  0.79610100  0.50000000  1
  Gd  Gd1  1  0.79610100  0.21133600  0.50000000  1
  C  C2  1  0.10969000  0.10969000  0.50000000  1
  C  C3  1  0.89759200  0.89759200  0.50000000  1
  C  C4  1  0.58460800  0.03237600  0.00000000  1
  C  C5  1  0.03237600  0.58460800  0.00000000  1
  O  O6  1  0.10008400  0.25119200  0.50000000  1
  O  O7  1  0.25119200  0.10008400  0.50000000  1
  O  O8  1  0.75641200  0.90733400  0.50000000  1
  O  O9  1  0.90733400  0.75641200  0.50000000  1
  O  O10  1  0.49848100  0.99208500  0.76594000  1
  O  O11  1  0.99208500  0.49848100  0.23406000  1
  O  O12  1  0.49848100  0.99208500  0.23406000  1
  O  O13  1  0.99208500  0.49848100  0.76594000  1
  O  O14  1  0.77111700  0.12976600  0.00000000  1
  O  O15  1  0.12976600  0.77111700  0.00000000  1
  O  O16  1  0.63826300  0.37569600  0.50000000  1
  O  O17  1  0.37569600  0.63826300  0.50000000  1
