# generated using pymatgen
data_GaC2NCl4
_symmetry_space_group_name_H-M   'P 1'
_cell_length_a   7.37775000
_cell_length_b   10.26131300
_cell_length_c   12.21710000
_cell_angle_alpha   90.00000000
_cell_angle_beta   90.00000000
_cell_angle_gamma   90.00000000
_symmetry_Int_Tables_number   1
_chemical_formula_structural   GaC2NCl4
_chemical_formula_sum   'Ga4 C8 N4 Cl16'
_cell_volume   924.90046660
_cell_formula_units_Z   4
loop_
 _symmetry_equiv_pos_site_id
 _symmetry_equiv_pos_as_xyz
  1  'x, y, z'
loop_
 _atom_site_type_symbol
 _atom_site_label
 _atom_site_symmetry_multiplicity
 _atom_site_fract_x
 _atom_site_fract_y
 _atom_site_fract_z
 _atom_site_occupancy
  Ga  Ga0  1  0.25000000  0.23864400  0.02145100  1
  Ga  Ga1  1  0.25000000  0.26135600  0.52145100  1
  Ga  Ga2  1  0.75000000  0.76135600  0.97854900  1
  Ga  Ga3  1  0.75000000  0.73864400  0.47854900  1
  C  C4  1  0.25000000  0.78460500  0.13363800  1
  C  C5  1  0.25000000  0.71539500  0.63363800  1
  C  C6  1  0.75000000  0.21539500  0.86636200  1
  C  C7  1  0.75000000  0.28460500  0.36636200  1
  C  C8  1  0.25000000  0.01828000  0.20028200  1
  C  C9  1  0.25000000  0.48172000  0.70028200  1
  C  C10  1  0.75000000  0.98172000  0.79971800  1
  C  C11  1  0.75000000  0.51828000  0.29971800  1
  N  N12  1  0.25000000  0.89963600  0.15103700  1
  N  N13  1  0.25000000  0.60036400  0.65103700  1
  N  N14  1  0.75000000  0.10036400  0.84896300  1
  N  N15  1  0.75000000  0.39963600  0.34896300  1
  Cl  Cl16  1  0.25000000  0.17819900  0.85424300  1
  Cl  Cl17  1  0.25000000  0.32180100  0.35424300  1
  Cl  Cl18  1  0.75000000  0.82180100  0.14575700  1
  Cl  Cl19  1  0.75000000  0.67819900  0.64575700  1
  Cl  Cl20  1  0.04096400  0.11814400  0.12293600  1
  Cl  Cl21  1  0.45903600  0.38185600  0.62293600  1
  Cl  Cl22  1  0.54096400  0.88185600  0.87706400  1
  Cl  Cl23  1  0.95903600  0.61814400  0.37706400  1
  Cl  Cl24  1  0.95903600  0.88185600  0.87706400  1
  Cl  Cl25  1  0.54096400  0.61814400  0.37706400  1
  Cl  Cl26  1  0.45903600  0.11814400  0.12293600  1
  Cl  Cl27  1  0.04096400  0.38185600  0.62293600  1
  Cl  Cl28  1  0.25000000  0.43889600  0.06324200  1
  Cl  Cl29  1  0.25000000  0.06110400  0.56324200  1
  Cl  Cl30  1  0.75000000  0.56110400  0.93675800  1
  Cl  Cl31  1  0.75000000  0.93889600  0.43675800  1
