# generated using pymatgen
data_CuSi(O2F3)2
_symmetry_space_group_name_H-M   'P 1'
_cell_length_a   8.73859800
_cell_length_b   5.12586900
_cell_length_c   6.72075758
_cell_angle_alpha   82.92283934
_cell_angle_beta   90.00000000
_cell_angle_gamma   90.00000000
_symmetry_Int_Tables_number   1
_chemical_formula_structural   CuSi(O2F3)2
_chemical_formula_sum   'Cu2 Si2 O8 F12'
_cell_volume   298.74867788
_cell_formula_units_Z   2
loop_
 _symmetry_equiv_pos_site_id
 _symmetry_equiv_pos_as_xyz
  1  'x, y, z'
loop_
 _atom_site_type_symbol
 _atom_site_label
 _atom_site_symmetry_multiplicity
 _atom_site_fract_x
 _atom_site_fract_y
 _atom_site_fract_z
 _atom_site_occupancy
  Cu  Cu0  1  0.50000000  0.00000000  0.50000000  1
  Cu  Cu1  1  0.00000000  0.00000000  0.00000000  1
  Si  Si2  1  0.50000000  0.50000000  0.00000000  1
  Si  Si3  1  0.00000000  0.50000000  0.50000000  1
  O  O4  1  0.33907500  0.87995800  0.37385800  1
  O  O5  1  0.83907500  0.12004200  0.12614200  1
  O  O6  1  0.66092500  0.12004200  0.62614200  1
  O  O7  1  0.16092500  0.87995800  0.87385800  1
  O  O8  1  0.37727600  0.24725200  0.58368600  1
  O  O9  1  0.87727600  0.75274800  0.91631400  1
  O  O10  1  0.62272400  0.75274800  0.41631400  1
  O  O11  1  0.12272400  0.24725200  0.08368600  1
  F  F12  1  0.37741900  0.25212800  0.94284800  1
  F  F13  1  0.87741900  0.74787200  0.55715200  1
  F  F14  1  0.62258100  0.74787200  0.05715200  1
  F  F15  1  0.12258100  0.25212800  0.44284800  1
  F  F16  1  0.35537200  0.63223200  0.12674100  1
  F  F17  1  0.85537200  0.36776800  0.37325900  1
  F  F18  1  0.64462800  0.36776800  0.87325900  1
  F  F19  1  0.14462800  0.63223200  0.62674100  1
  F  F20  1  0.44917300  0.69059800  0.78582000  1
  F  F21  1  0.94917300  0.30940200  0.71418000  1
  F  F22  1  0.55082700  0.30940200  0.21418000  1
  F  F23  1  0.05082700  0.69059800  0.28582000  1
