# generated using pymatgen
data_C3N2
_symmetry_space_group_name_H-M   'P 1'
_cell_length_a   5.09147100
_cell_length_b   5.09147100
_cell_length_c   5.09147100
_cell_angle_alpha   90.00000000
_cell_angle_beta   90.00000000
_cell_angle_gamma   90.00000000
_symmetry_Int_Tables_number   1
_chemical_formula_structural   C3N2
_chemical_formula_sum   'C12 N8'
_cell_volume   131.98659449
_cell_formula_units_Z   4
loop_
 _symmetry_equiv_pos_site_id
 _symmetry_equiv_pos_as_xyz
  1  'x, y, z'
loop_
 _atom_site_type_symbol
 _atom_site_label
 _atom_site_symmetry_multiplicity
 _atom_site_fract_x
 _atom_site_fract_y
 _atom_site_fract_z
 _atom_site_occupancy
  C  C0  1  0.50000000  0.15597700  0.84402300  1
  C  C1  1  0.15597700  0.15597700  0.50000000  1
  C  C2  1  0.15597700  0.50000000  0.84402300  1
  C  C3  1  0.50000000  0.84402300  0.15597700  1
  C  C4  1  0.15597700  0.84402300  0.50000000  1
  C  C5  1  0.15597700  0.50000000  0.15597700  1
  C  C6  1  0.50000000  0.15597700  0.15597700  1
  C  C7  1  0.84402300  0.15597700  0.50000000  1
  C  C8  1  0.84402300  0.50000000  0.15597700  1
  C  C9  1  0.50000000  0.84402300  0.84402300  1
  C  C10  1  0.84402300  0.84402300  0.50000000  1
  C  C11  1  0.84402300  0.50000000  0.84402300  1
  N  N12  1  0.25710700  0.25710700  0.74289300  1
  N  N13  1  0.25710700  0.74289300  0.25710700  1
  N  N14  1  0.74289300  0.25710700  0.25710700  1
  N  N15  1  0.74289300  0.74289300  0.74289300  1
  N  N16  1  0.74289300  0.74289300  0.25710700  1
  N  N17  1  0.74289300  0.25710700  0.74289300  1
  N  N18  1  0.25710700  0.74289300  0.74289300  1
  N  N19  1  0.25710700  0.25710700  0.25710700  1
