# generated using pymatgen
data_Gd2(SO4)3
_symmetry_space_group_name_H-M   'P 1'
_cell_length_a   6.38758674
_cell_length_b   8.07471572
_cell_length_c   6.91968145
_cell_angle_alpha   115.82727688
_cell_angle_beta   89.86287093
_cell_angle_gamma   116.99697657
_symmetry_Int_Tables_number   1
_chemical_formula_structural   Gd2(SO4)3
_chemical_formula_sum   'Gd2 S3 O12'
_cell_volume   277.62299522
_cell_formula_units_Z   1
loop_
 _symmetry_equiv_pos_site_id
 _symmetry_equiv_pos_as_xyz
  1  'x, y, z'
loop_
 _atom_site_type_symbol
 _atom_site_label
 _atom_site_symmetry_multiplicity
 _atom_site_fract_x
 _atom_site_fract_y
 _atom_site_fract_z
 _atom_site_occupancy
  Gd  Gd0  1  0.74111500  0.42934000  0.44530800  1
  Gd  Gd1  1  0.34058800  0.19457300  0.81663500  1
  S  S2  1  0.16309700  0.23047200  0.34208100  1
  S  S3  1  0.91903500  0.39215400  0.93292400  1
  S  S4  1  0.47549400  0.81870800  0.06615300  1
  O  O5  1  0.08442800  0.39490100  0.42315300  1
  O  O6  1  0.35271600  0.30009100  0.54680400  1
  O  O7  1  0.34881300  0.29073000  0.20107200  1
  O  O8  1  0.00997400  0.23659200  0.84328000  1
  O  O9  1  0.73927900  0.33631100  0.73163300  1
  O  O10  1  0.72629200  0.30895300  0.05627400  1
  O  O11  1  0.50784800  0.64254500  0.02318600  1
  O  O12  1  0.33114700  0.81451800  0.90396500  1
  O  O13  1  0.59910700  0.00747800  0.27900200  1
  O  O14  1  0.17359200  0.86329800  0.54473200  1
  O  O15  1  0.82929400  0.75269200  0.69358300  1
  O  O16  1  0.91168200  0.78874500  0.51091300  1
