# generated using pymatgen
data_MgSiO3
_symmetry_space_group_name_H-M   'P 1'
_cell_length_a   6.21283243
_cell_length_b   11.40838000
_cell_length_c   7.79394463
_cell_angle_alpha   90.00000000
_cell_angle_beta   110.66908700
_cell_angle_gamma   90.00000000
_symmetry_Int_Tables_number   1
_chemical_formula_structural   MgSiO3
_chemical_formula_sum   'Mg8 Si8 O24'
_cell_volume   516.86510386
_cell_formula_units_Z   8
loop_
 _symmetry_equiv_pos_site_id
 _symmetry_equiv_pos_as_xyz
  1  'x, y, z'
loop_
 _atom_site_type_symbol
 _atom_site_label
 _atom_site_symmetry_multiplicity
 _atom_site_fract_x
 _atom_site_fract_y
 _atom_site_fract_z
 _atom_site_occupancy
  Mg  Mg0  1  0.91871100  0.95800500  0.72968500  1
  Mg  Mg1  1  0.59303000  0.81555700  0.35838300  1
  Mg  Mg2  1  0.58128900  0.45800500  0.27031500  1
  Mg  Mg3  1  0.08128900  0.04199500  0.27031500  1
  Mg  Mg4  1  0.40697100  0.18444300  0.64161700  1
  Mg  Mg5  1  0.09302900  0.68444300  0.35838300  1
  Mg  Mg6  1  0.90697000  0.31555700  0.64161700  1
  Mg  Mg7  1  0.41871100  0.54199500  0.72968500  1
  Si  Si8  1  0.16842800  0.39645400  0.38178300  1
  Si  Si9  1  0.69123300  0.87631700  0.00102900  1
  Si  Si10  1  0.30876700  0.12368300  0.99897100  1
  Si  Si11  1  0.33157200  0.89645400  0.61821700  1
  Si  Si12  1  0.83157200  0.60354600  0.61821700  1
  Si  Si13  1  0.66842800  0.10354600  0.38178300  1
  Si  Si14  1  0.19123300  0.62368300  0.00102900  1
  Si  Si15  1  0.80876700  0.37631700  0.99897100  1
  O  O16  1  0.22284200  0.52965600  0.46502200  1
  O  O17  1  0.61475500  0.90062800  0.78105900  1
  O  O18  1  0.66621200  0.19267400  0.54699500  1
  O  O19  1  0.38524500  0.09937200  0.21894100  1
  O  O20  1  0.11475500  0.59937200  0.78105900  1
  O  O21  1  0.33224000  0.35772500  0.27353100  1
  O  O22  1  0.51360100  0.84366600  0.09398800  1
  O  O23  1  0.88524500  0.40062800  0.21894100  1
  O  O24  1  0.66776000  0.64227500  0.72646900  1
  O  O25  1  0.45021800  0.59284100  0.10872400  1
  O  O26  1  0.72284200  0.97034400  0.46502200  1
  O  O27  1  0.16776000  0.85772500  0.72646900  1
  O  O28  1  0.77715800  0.47034400  0.53497800  1
  O  O29  1  0.01360100  0.65633400  0.09398800  1
  O  O30  1  0.83378800  0.69267400  0.45300500  1
  O  O31  1  0.83224000  0.14227500  0.27353100  1
  O  O32  1  0.16621200  0.30732600  0.54699500  1
  O  O33  1  0.04978200  0.09284100  0.89127600  1
  O  O34  1  0.48639900  0.15633400  0.90601200  1
  O  O35  1  0.27715800  0.02965600  0.53497800  1
  O  O36  1  0.54978200  0.40715900  0.89127600  1
  O  O37  1  0.33378800  0.80732600  0.45300500  1
  O  O38  1  0.98639900  0.34366600  0.90601200  1
  O  O39  1  0.95021800  0.90715900  0.10872400  1
