# generated using pymatgen
data_Cu(BrN3)2
_symmetry_space_group_name_H-M   'P 1'
_cell_length_a   6.51177463
_cell_length_b   5.68729847
_cell_length_c   5.68729847
_cell_angle_alpha   69.84724825
_cell_angle_beta   55.07637587
_cell_angle_gamma   55.07637587
_symmetry_Int_Tables_number   1
_chemical_formula_structural   Cu(BrN3)2
_chemical_formula_sum   'Cu1 Br2 N6'
_cell_volume   141.55153671
_cell_formula_units_Z   1
loop_
 _symmetry_equiv_pos_site_id
 _symmetry_equiv_pos_as_xyz
  1  'x, y, z'
loop_
 _atom_site_type_symbol
 _atom_site_label
 _atom_site_symmetry_multiplicity
 _atom_site_fract_x
 _atom_site_fract_y
 _atom_site_fract_z
 _atom_site_occupancy
  Cu  Cu0  1  0.00000000  0.00000000  0.00000000  1
  Br  Br1  1  0.25000000  0.25000000  0.25000000  1
  Br  Br2  1  0.75000000  0.75000000  0.75000000  1
  N  N3  1  0.19863100  0.80136900  0.19863100  1
  N  N4  1  0.80136900  0.80136900  0.19863100  1
  N  N5  1  0.19863100  0.19863100  0.80136900  1
  N  N6  1  0.80136900  0.19863100  0.80136900  1
  N  N7  1  0.41673800  0.58326200  0.58326200  1
  N  N8  1  0.58326200  0.41673800  0.41673800  1
