# generated using pymatgen
data_Ge7H18O23
_symmetry_space_group_name_H-M   'P 1'
_cell_length_a   7.56724000
_cell_length_b   8.03120492
_cell_length_c   8.06406745
_cell_angle_alpha   89.08021789
_cell_angle_beta   88.68691039
_cell_angle_gamma   89.38481800
_symmetry_Int_Tables_number   1
_chemical_formula_structural   Ge7H18O23
_chemical_formula_sum   'Ge7 H18 O23'
_cell_volume   489.86789572
_cell_formula_units_Z   1
loop_
 _symmetry_equiv_pos_site_id
 _symmetry_equiv_pos_as_xyz
  1  'x, y, z'
loop_
 _atom_site_type_symbol
 _atom_site_label
 _atom_site_symmetry_multiplicity
 _atom_site_fract_x
 _atom_site_fract_y
 _atom_site_fract_z
 _atom_site_occupancy
  Ge  Ge0  1  0.14438200  0.13015500  0.14363400  1
  Ge  Ge1  1  0.89002600  0.17835200  0.80681200  1
  Ge  Ge2  1  0.86814300  0.85140200  0.14565200  1
  Ge  Ge3  1  0.14885600  0.85293300  0.88388900  1
  Ge  Ge4  1  0.52289000  0.99066500  0.98689300  1
  Ge  Ge5  1  0.01362900  0.98627400  0.48188600  1
  Ge  Ge6  1  0.02241000  0.49538700  0.00097800  1
  H  H7  1  0.27413400  0.74565300  0.28127100  1
  H  H8  1  0.80218500  0.15781500  0.09047400  1
  H  H9  1  0.76403800  0.72273500  0.76397300  1
  H  H10  1  0.42610600  0.28322100  0.04170900  1
  H  H11  1  0.29912500  0.28583200  0.51693200  1
  H  H12  1  0.73032400  0.38082300  0.42395400  1
  H  H13  1  0.92371100  0.56689500  0.28742000  1
  H  H14  1  0.21875300  0.78348500  0.56880700  1
  H  H15  1  0.37792300  0.51146600  0.94594700  1
  H  H16  1  0.56763600  0.43601000  0.89955100  1
  H  H17  1  0.53829100  0.92335200  0.39737900  1
  H  H18  1  0.58878400  0.04420800  0.53481500  1
  H  H19  1  0.03409800  0.46340100  0.51066800  1
  H  H20  1  0.85773400  0.57699700  0.54273300  1
  H  H21  1  0.39578800  0.61322700  0.37014000  1
  H  H22  1  0.67421200  0.24025800  0.31330500  1
  H  H23  1  0.25670000  0.26289200  0.70312700  1
  H  H24  1  0.62982800  0.75844000  0.62262100  1
  O  O25  1  0.14605600  0.89561700  0.11851500  1
  O  O26  1  0.88318300  0.10070500  0.16756100  1
  O  O27  1  0.10031300  0.10734900  0.88061100  1
  O  O28  1  0.90251100  0.83392100  0.91588700  1
  O  O29  1  0.39153900  0.15327500  0.08955100  1
  O  O30  1  0.16702200  0.10699800  0.36853300  1
  O  O31  1  0.12743200  0.35351300  0.13294700  1
  O  O32  1  0.67711800  0.13685500  0.89833000  1
  O  O33  1  0.86957800  0.11608700  0.60108900  1
  O  O34  1  0.88579500  0.39638300  0.85461200  1
  O  O35  1  0.62365200  0.86484900  0.13947500  1
  O  O36  1  0.88679000  0.84725600  0.37170400  1
  O  O37  1  0.89914500  0.60959400  0.16236400  1
  O  O38  1  0.38761700  0.88895300  0.85088500  1
  O  O39  1  0.12876300  0.85198700  0.63387100  1
  O  O40  1  0.18340800  0.62185400  0.90244700  1
  O  O41  1  0.47383700  0.43499000  0.98507500  1
  O  O42  1  0.52191100  0.94289400  0.51617000  1
  O  O43  1  0.92346500  0.50391000  0.46078700  1
  O  O44  1  0.29047000  0.68281000  0.38548500  1
  O  O45  1  0.62324000  0.32771100  0.38213500  1
  O  O46  1  0.25170200  0.34586500  0.61328800  1
  O  O47  1  0.70097200  0.66787300  0.67450100  1
