# generated using pymatgen
data_CuGeO3
_symmetry_space_group_name_H-M   'P 1'
_cell_length_a   5.02542032
_cell_length_b   8.25336200
_cell_length_c   5.96291265
_cell_angle_alpha   90.00000000
_cell_angle_beta   89.90039487
_cell_angle_gamma   90.00000000
_symmetry_Int_Tables_number   1
_chemical_formula_structural   CuGeO3
_chemical_formula_sum   'Cu4 Ge4 O12'
_cell_volume   247.32104726
_cell_formula_units_Z   4
loop_
 _symmetry_equiv_pos_site_id
 _symmetry_equiv_pos_as_xyz
  1  'x, y, z'
loop_
 _atom_site_type_symbol
 _atom_site_label
 _atom_site_symmetry_multiplicity
 _atom_site_fract_x
 _atom_site_fract_y
 _atom_site_fract_z
 _atom_site_occupancy
  Cu  Cu0  1  0.50062600  0.50046200  0.74909100  1
  Cu  Cu1  1  0.49937400  0.00046200  0.75090900  1
  Cu  Cu2  1  0.49937400  0.49953800  0.25090900  1
  Cu  Cu3  1  0.50062600  0.99953800  0.24909100  1
  Ge  Ge4  1  0.92239300  0.24149800  0.49904900  1
  Ge  Ge5  1  0.07760700  0.74149800  0.00095100  1
  Ge  Ge6  1  0.07760700  0.75850200  0.50095100  1
  Ge  Ge7  1  0.92239300  0.25850200  0.99904900  1
  O  O8  1  0.12270400  0.25009100  0.74876400  1
  O  O9  1  0.87729600  0.75009100  0.75123600  1
  O  O10  1  0.87729600  0.74990900  0.25123600  1
  O  O11  1  0.12270400  0.24990900  0.24876400  1
  O  O12  1  0.28946500  0.91269900  0.00052800  1
  O  O13  1  0.71053500  0.41269900  0.49947200  1
  O  O14  1  0.71053500  0.08730100  0.99947200  1
  O  O15  1  0.28946500  0.58730100  0.50052800  1
  O  O16  1  0.26983500  0.93825100  0.50041400  1
  O  O17  1  0.73016500  0.43825100  0.99958600  1
  O  O18  1  0.73016500  0.06174900  0.49958600  1
  O  O19  1  0.26983500  0.56174900  0.00041400  1
