# generated using pymatgen
data_K2ZnH12(SO7)2
_symmetry_space_group_name_H-M   'P 1'
_cell_length_a   12.83204500
_cell_length_b   6.66910300
_cell_length_c   9.90811891
_cell_angle_alpha   76.44746665
_cell_angle_beta   90.00000000
_cell_angle_gamma   90.00000000
_symmetry_Int_Tables_number   1
_chemical_formula_structural   K2ZnH12(SO7)2
_chemical_formula_sum   'K4 Zn2 H24 S4 O28'
_cell_volume   824.30936364
_cell_formula_units_Z   2
loop_
 _symmetry_equiv_pos_site_id
 _symmetry_equiv_pos_as_xyz
  1  'x, y, z'
loop_
 _atom_site_type_symbol
 _atom_site_label
 _atom_site_symmetry_multiplicity
 _atom_site_fract_x
 _atom_site_fract_y
 _atom_site_fract_z
 _atom_site_occupancy
  K  K0  1  0.76188400  0.30882600  0.82587800  1
  K  K1  1  0.26188400  0.69117400  0.67412200  1
  K  K2  1  0.23811600  0.69117400  0.17412200  1
  K  K3  1  0.73811600  0.30882600  0.32587800  1
  Zn  Zn4  1  0.50000000  0.00000000  0.50000000  1
  Zn  Zn5  1  0.00000000  0.00000000  0.00000000  1
  H  H6  1  0.11484100  0.99801500  0.77172300  1
  H  H7  1  0.16423600  0.16819700  0.99554400  1
  H  H8  1  0.61484100  0.00198500  0.72827700  1
  H  H9  1  0.86912100  0.98970600  0.68189400  1
  H  H10  1  0.96253500  0.61327300  0.83167800  1
  H  H11  1  0.36912100  0.01029400  0.81810600  1
  H  H12  1  0.99160800  0.57305200  0.22309400  1
  H  H13  1  0.53746500  0.61327300  0.33167800  1
  H  H14  1  0.50839200  0.57305200  0.72309400  1
  H  H15  1  0.03746500  0.38672700  0.16832200  1
  H  H16  1  0.75712200  0.01891100  0.60229000  1
  H  H17  1  0.74287800  0.01891100  0.10229000  1
  H  H18  1  0.66423600  0.83180300  0.50445600  1
  H  H19  1  0.49160800  0.42694800  0.27690600  1
  H  H20  1  0.38515900  0.99801500  0.27172300  1
  H  H21  1  0.00839200  0.42694800  0.77690600  1
  H  H22  1  0.13087900  0.01029400  0.31810600  1
  H  H23  1  0.63087900  0.98970600  0.18189400  1
  H  H24  1  0.24287800  0.98108900  0.39771000  1
  H  H25  1  0.46253500  0.38672700  0.66832200  1
  H  H26  1  0.33576400  0.16819700  0.49554400  1
  H  H27  1  0.88515900  0.00198500  0.22827700  1
  H  H28  1  0.83576400  0.83180300  0.00445600  1
  H  H29  1  0.25712200  0.98108900  0.89771000  1
  S  S30  1  0.10474000  0.34317900  0.51918000  1
  S  S31  1  0.39526000  0.34317900  0.01918000  1
  S  S32  1  0.89526000  0.65682100  0.48082000  1
  S  S33  1  0.60474000  0.65682100  0.98082000  1
  O  O34  1  0.95044000  0.46598000  0.82976500  1
  O  O35  1  0.18132900  0.90862500  0.36858000  1
  O  O36  1  0.04956000  0.53402000  0.17023500  1
  O  O37  1  0.51824300  0.87850200  0.31764500  1
  O  O38  1  0.41922400  0.87886700  0.24704400  1
  O  O39  1  0.89226500  0.67310600  0.32959800  1
  O  O40  1  0.10773500  0.32689400  0.67040200  1
  O  O41  1  0.60773500  0.67310600  0.82959800  1
  O  O42  1  0.68132900  0.09137500  0.13142000  1
  O  O43  1  0.85291200  0.96215000  0.02750700  1
  O  O44  1  0.81867100  0.09137500  0.63142000  1
  O  O45  1  0.35291200  0.03785000  0.47249300  1
  O  O46  1  0.58077600  0.12113300  0.75295600  1
  O  O47  1  0.45044000  0.53402000  0.67023500  1
  O  O48  1  0.31867100  0.90862500  0.86858000  1
  O  O49  1  0.01824300  0.12149800  0.18235500  1
  O  O50  1  0.29721500  0.41885300  0.94911700  1
  O  O51  1  0.98175700  0.87850200  0.81764500  1
  O  O52  1  0.79721500  0.58114700  0.55088300  1
  O  O53  1  0.39226500  0.32689400  0.17040200  1
  O  O54  1  0.20278500  0.41885300  0.44911700  1
  O  O55  1  0.54956000  0.46598000  0.32976500  1
  O  O56  1  0.14708800  0.03785000  0.97249300  1
  O  O57  1  0.70278500  0.58114700  0.05088300  1
  O  O58  1  0.08077600  0.87886700  0.74704400  1
  O  O59  1  0.64708800  0.96215000  0.52750700  1
  O  O60  1  0.48175700  0.12149800  0.68235500  1
  O  O61  1  0.91922400  0.12113300  0.25295600  1
