# generated using pymatgen
data_Cu2H3ClO3
_symmetry_space_group_name_H-M   'P 1'
_cell_length_a   6.17992078
_cell_length_b   6.84354100
_cell_length_c   9.19137948
_cell_angle_alpha   90.00000000
_cell_angle_beta   99.97193884
_cell_angle_gamma   90.00000000
_symmetry_Int_Tables_number   1
_chemical_formula_structural   Cu2H3ClO3
_chemical_formula_sum   'Cu8 H12 Cl4 O12'
_cell_volume   382.85417553
_cell_formula_units_Z   4
loop_
 _symmetry_equiv_pos_site_id
 _symmetry_equiv_pos_as_xyz
  1  'x, y, z'
loop_
 _atom_site_type_symbol
 _atom_site_label
 _atom_site_symmetry_multiplicity
 _atom_site_fract_x
 _atom_site_fract_y
 _atom_site_fract_z
 _atom_site_occupancy
  Cu  Cu0  1  0.25956300  0.26537000  0.24872700  1
  Cu  Cu1  1  0.75956300  0.23463000  0.74872700  1
  Cu  Cu2  1  0.74043700  0.73463000  0.75127300  1
  Cu  Cu3  1  0.24043700  0.76537000  0.25127300  1
  Cu  Cu4  1  0.00000000  0.50000000  0.50000000  1
  Cu  Cu5  1  0.50000000  0.00000000  0.00000000  1
  Cu  Cu6  1  0.50000000  0.50000000  0.50000000  1
  Cu  Cu7  1  0.00000000  0.00000000  0.00000000  1
  H  H8  1  0.77827400  0.18410500  0.47737400  1
  H  H9  1  0.27827400  0.31589500  0.97737400  1
  H  H10  1  0.22172600  0.81589500  0.52262600  1
  H  H11  1  0.72172600  0.68410500  0.02262600  1
  H  H12  1  0.73745300  0.79230500  0.47135300  1
  H  H13  1  0.23745300  0.70769500  0.97135300  1
  H  H14  1  0.26254700  0.20769500  0.52864700  1
  H  H15  1  0.76254700  0.29230500  0.02864700  1
  H  H16  1  0.94433800  0.02087700  0.26915500  1
  H  H17  1  0.44433800  0.47912300  0.76915500  1
  H  H18  1  0.05566200  0.97912300  0.73084500  1
  H  H19  1  0.55566200  0.52087700  0.23084500  1
  Cl  Cl20  1  0.87593900  0.49482600  0.18718300  1
  Cl  Cl21  1  0.37593900  0.00517400  0.68718300  1
  Cl  Cl22  1  0.12406100  0.50517400  0.81281700  1
  Cl  Cl23  1  0.62406100  0.99482600  0.31281700  1
  O  O24  1  0.42133000  0.51923300  0.27668300  1
  O  O25  1  0.92133000  0.98076700  0.77668300  1
  O  O26  1  0.57867000  0.48076700  0.72331700  1
  O  O27  1  0.07867000  0.01923300  0.22331700  1
  O  O28  1  0.23889800  0.32193900  0.46027500  1
  O  O29  1  0.73889800  0.17806100  0.96027500  1
  O  O30  1  0.76110200  0.67806100  0.53972500  1
  O  O31  1  0.26110200  0.82193900  0.03972500  1
  O  O32  1  0.18890400  0.70853800  0.45023400  1
  O  O33  1  0.68890400  0.79146200  0.95023400  1
  O  O34  1  0.81109600  0.29146200  0.54976600  1
  O  O35  1  0.31109600  0.20853800  0.04976600  1
