# generated using pymatgen
data_H4N2O3
_symmetry_space_group_name_H-M   'P 1'
_cell_length_a   6.81722100
_cell_length_b   7.37861589
_cell_length_c   8.28874935
_cell_angle_alpha   88.70393424
_cell_angle_beta   87.78471850
_cell_angle_gamma   89.21819978
_symmetry_Int_Tables_number   1
_chemical_formula_structural   H4N2O3
_chemical_formula_sum   'H16 N8 O12'
_cell_volume   416.48558982
_cell_formula_units_Z   4
loop_
 _symmetry_equiv_pos_site_id
 _symmetry_equiv_pos_as_xyz
  1  'x, y, z'
loop_
 _atom_site_type_symbol
 _atom_site_label
 _atom_site_symmetry_multiplicity
 _atom_site_fract_x
 _atom_site_fract_y
 _atom_site_fract_z
 _atom_site_occupancy
  H  H0  1  0.11061800  0.84577200  0.62837700  1
  H  H1  1  0.08678300  0.65682100  0.12693800  1
  H  H2  1  0.60463800  0.15414000  0.37360600  1
  H  H3  1  0.86397400  0.38135100  0.87342600  1
  H  H4  1  0.94372600  0.49851000  0.12827700  1
  H  H5  1  0.49627700  0.94235900  0.56728000  1
  H  H6  1  0.62946100  0.99345000  0.70222300  1
  H  H7  1  0.43850200  0.57153600  0.80130000  1
  H  H8  1  0.37640900  0.37622000  0.85368100  1
  H  H9  1  0.10038100  0.13730300  0.30195700  1
  H  H10  1  0.98882900  0.99022900  0.39965900  1
  H  H11  1  0.05134000  0.32592800  0.77860700  1
  H  H12  1  0.42998700  0.10110100  0.27407000  1
  H  H13  1  0.61755900  0.63167600  0.20855200  1
  H  H14  1  0.51519000  0.50634000  0.09177100  1
  H  H15  1  0.92176000  0.84114400  0.73300600  1
  N  N16  1  0.25928100  0.10685000  0.97164700  1
  N  N17  1  0.22283400  0.36766200  0.47032900  1
  N  N18  1  0.73547800  0.86306100  0.01494600  1
  N  N19  1  0.77283300  0.62984900  0.51850800  1
  N  N20  1  0.24419600  0.52073700  0.47011400  1
  N  N21  1  0.25341000  0.95306700  0.96244900  1
  N  N22  1  0.76385600  0.47579300  0.52689100  1
  N  N23  1  0.72814900  0.01654800  0.02992100  1
  O  O24  1  0.26771400  0.68092300  0.47209900  1
  O  O25  1  0.24688400  0.79180800  0.95507500  1
  O  O26  1  0.75643600  0.31338800  0.53594300  1
  O  O27  1  0.71761700  0.17749300  0.04358500  1
  O  O28  1  0.00512800  0.58162300  0.19984700  1
  O  O29  1  0.51495200  0.92086600  0.68336900  1
  O  O30  1  0.49063100  0.45284900  0.83353900  1
  O  O31  1  0.01396800  0.03510100  0.28906600  1
  O  O32  1  0.99291400  0.42689700  0.83821700  1
  O  O33  1  0.51897400  0.05245700  0.35354600  1
  O  O34  1  0.54132200  0.52093200  0.20604200  1
  O  O35  1  0.01199600  0.92620600  0.67858900  1
