# generated using pymatgen
data_HoC8N4Cl7
_symmetry_space_group_name_H-M   'P 1'
_cell_length_a   8.58911400
_cell_length_b   9.03671300
_cell_length_c   14.46940700
_cell_angle_alpha   90.00000000
_cell_angle_beta   90.00000000
_cell_angle_gamma   90.00000000
_symmetry_Int_Tables_number   1
_chemical_formula_structural   HoC8N4Cl7
_chemical_formula_sum   'Ho2 C16 N8 Cl14'
_cell_volume   1123.07714523
_cell_formula_units_Z   2
loop_
 _symmetry_equiv_pos_site_id
 _symmetry_equiv_pos_as_xyz
  1  'x, y, z'
loop_
 _atom_site_type_symbol
 _atom_site_label
 _atom_site_symmetry_multiplicity
 _atom_site_fract_x
 _atom_site_fract_y
 _atom_site_fract_z
 _atom_site_occupancy
  Ho  Ho0  1  0.30464500  0.50000000  0.50000000  1
  Ho  Ho1  1  0.69535500  0.00000000  0.00000000  1
  C  C2  1  0.12258500  0.75708600  0.67145900  1
  C  C3  1  0.12258500  0.24291400  0.32854100  1
  C  C4  1  0.87741500  0.74291400  0.17145900  1
  C  C5  1  0.87741500  0.25708600  0.82854100  1
  C  C6  1  0.95537100  0.79178300  0.53125000  1
  C  C7  1  0.95537100  0.20821700  0.46875000  1
  C  C8  1  0.04462900  0.70821700  0.03125000  1
  C  C9  1  0.04462900  0.29178300  0.96875000  1
  C  C10  1  0.38585600  0.68097900  0.85113000  1
  C  C11  1  0.38585600  0.31902100  0.14887000  1
  C  C12  1  0.61414400  0.81902100  0.35113000  1
  C  C13  1  0.61414400  0.18097900  0.64887000  1
  C  C14  1  0.65103300  0.56636000  0.83071100  1
  C  C15  1  0.65103300  0.43364000  0.16928900  1
  C  C16  1  0.34896700  0.93364000  0.33071100  1
  C  C17  1  0.34896700  0.06636000  0.66928900  1
  N  N18  1  0.05310400  0.78391800  0.59943200  1
  N  N19  1  0.05310400  0.21608200  0.40056800  1
  N  N20  1  0.94689600  0.71608200  0.09943200  1
  N  N21  1  0.94689600  0.28391800  0.90056800  1
  N  N22  1  0.53278800  0.63452200  0.84477700  1
  N  N23  1  0.53278800  0.36547800  0.15522300  1
  N  N24  1  0.46721200  0.86547800  0.34477700  1
  N  N25  1  0.46721200  0.13452200  0.65522300  1
  Cl  Cl26  1  0.40998600  0.69975000  0.60492700  1
  Cl  Cl27  1  0.40998600  0.30025000  0.39507300  1
  Cl  Cl28  1  0.59001400  0.80025000  0.10492700  1
  Cl  Cl29  1  0.59001400  0.19975000  0.89507300  1
  Cl  Cl30  1  0.62314500  0.63677700  0.38528100  1
  Cl  Cl31  1  0.62314500  0.36322300  0.61471900  1
  Cl  Cl32  1  0.37685500  0.86322300  0.88528100  1
  Cl  Cl33  1  0.37685500  0.13677700  0.11471900  1
  Cl  Cl34  1  0.11108100  0.64866500  0.40724400  1
  Cl  Cl35  1  0.11108100  0.35133500  0.59275600  1
  Cl  Cl36  1  0.88891900  0.85133500  0.90724400  1
  Cl  Cl37  1  0.88891900  0.14866500  0.09275600  1
  Cl  Cl38  1  0.91414300  0.00000000  0.50000000  1
  Cl  Cl39  1  0.08585700  0.50000000  0.00000000  1
