# generated using pymatgen
data_GaSiC4N
_symmetry_space_group_name_H-M   'P 1'
_cell_length_a   10.01110904
_cell_length_b   10.01110904
_cell_length_c   16.69764999
_cell_angle_alpha   71.56542632
_cell_angle_beta   71.56542632
_cell_angle_gamma   58.42482083
_symmetry_Int_Tables_number   1
_chemical_formula_structural   GaSiC4N
_chemical_formula_sum   'Ga8 Si8 C32 N8'
_cell_volume   1328.86344506
_cell_formula_units_Z   8
loop_
 _symmetry_equiv_pos_site_id
 _symmetry_equiv_pos_as_xyz
  1  'x, y, z'
loop_
 _atom_site_type_symbol
 _atom_site_label
 _atom_site_symmetry_multiplicity
 _atom_site_fract_x
 _atom_site_fract_y
 _atom_site_fract_z
 _atom_site_occupancy
  Ga  Ga0  1  0.91036700  0.27042600  0.71640200  1
  Ga  Ga1  1  0.72957400  0.08963300  0.78359800  1
  Ga  Ga2  1  0.08963300  0.72957400  0.28359800  1
  Ga  Ga3  1  0.27042600  0.91036700  0.21640200  1
  Ga  Ga4  1  0.03435100  0.97505700  0.83155100  1
  Ga  Ga5  1  0.02494300  0.96564900  0.66844900  1
  Ga  Ga6  1  0.96564900  0.02494300  0.16844900  1
  Ga  Ga7  1  0.97505700  0.03435100  0.33155100  1
  Si  Si8  1  0.71958200  0.28681900  0.91503000  1
  Si  Si9  1  0.71318100  0.28041800  0.58497000  1
  Si  Si10  1  0.28041800  0.71318100  0.08497000  1
  Si  Si11  1  0.28681900  0.71958200  0.41503000  1
  Si  Si12  1  0.29285200  0.04488700  0.63467000  1
  Si  Si13  1  0.95511300  0.70714800  0.86533000  1
  Si  Si14  1  0.70714800  0.95511300  0.36533000  1
  Si  Si15  1  0.04488700  0.29285200  0.13467000  1
  C  C16  1  0.86180200  0.47616500  0.72320300  1
  C  C17  1  0.52383500  0.13819800  0.77679700  1
  C  C18  1  0.13819800  0.52383500  0.27679700  1
  C  C19  1  0.47616500  0.86180200  0.22320300  1
  C  C20  1  0.16290200  0.83967100  0.91449600  1
  C  C21  1  0.16032900  0.83709800  0.58550400  1
  C  C22  1  0.83709800  0.16032900  0.08550400  1
  C  C23  1  0.83967100  0.16290200  0.41449600  1
  C  C24  1  0.74080100  0.25993100  0.03068000  1
  C  C25  1  0.74006900  0.25919900  0.46932000  1
  C  C26  1  0.25919900  0.74006900  0.96932000  1
  C  C27  1  0.25993100  0.74080100  0.53068000  1
  C  C28  1  0.59392900  0.40654700  0.02675200  1
  C  C29  1  0.59345300  0.40607100  0.47324800  1
  C  C30  1  0.40607100  0.59345300  0.97324800  1
  C  C31  1  0.40654700  0.59392900  0.52675200  1
  C  C32  1  0.54403200  0.45870500  0.94160500  1
  C  C33  1  0.54129500  0.45596800  0.55839500  1
  C  C34  1  0.45596800  0.54129500  0.05839500  1
  C  C35  1  0.45870500  0.54403200  0.44160500  1
  C  C36  1  0.36901200  0.17153500  0.66056200  1
  C  C37  1  0.82846500  0.63098800  0.83943800  1
  C  C38  1  0.63098800  0.82846500  0.33943800  1
  C  C39  1  0.17153500  0.36901200  0.16056200  1
  C  C40  1  0.43703700  0.00970400  0.70029200  1
  C  C41  1  0.99029600  0.56296300  0.79970800  1
  C  C42  1  0.56296300  0.99029600  0.29970800  1
  C  C43  1  0.00970400  0.43703700  0.20029200  1
  C  C44  1  0.46156500  0.12022900  0.72583800  1
  C  C45  1  0.87977100  0.53843500  0.77416200  1
  C  C46  1  0.53843500  0.87977100  0.27416200  1
  C  C47  1  0.12022900  0.46156500  0.22583800  1
  N  N48  1  0.81622700  0.17482900  0.83848200  1
  N  N49  1  0.82517100  0.18377300  0.66151800  1
  N  N50  1  0.18377300  0.82517100  0.16151800  1
  N  N51  1  0.17482900  0.81622700  0.33848200  1
  N  N52  1  0.11020300  0.06753800  0.71253900  1
  N  N53  1  0.93246200  0.88979700  0.78746100  1
  N  N54  1  0.88979700  0.93246200  0.28746100  1
  N  N55  1  0.06753800  0.11020300  0.21253900  1
