# generated using pymatgen
data_KAu(CN)2
_symmetry_space_group_name_H-M   'P 1'
_cell_length_a   8.59630356
_cell_length_b   8.59630371
_cell_length_c   8.59630327
_cell_angle_alpha   74.29807418
_cell_angle_beta   74.29807296
_cell_angle_gamma   74.29807941
_symmetry_Int_Tables_number   1
_chemical_formula_structural   KAu(CN)2
_chemical_formula_sum   'K3 Au3 C6 N6'
_cell_volume   575.20175219
_cell_formula_units_Z   3
loop_
 _symmetry_equiv_pos_site_id
 _symmetry_equiv_pos_as_xyz
  1  'x, y, z'
loop_
 _atom_site_type_symbol
 _atom_site_label
 _atom_site_symmetry_multiplicity
 _atom_site_fract_x
 _atom_site_fract_y
 _atom_site_fract_z
 _atom_site_occupancy
  K  K0  1  0.77369400  0.77369400  0.77369400  1
  K  K1  1  0.22630600  0.22630600  0.22630600  1
  K  K2  1  0.00000000  0.00000000  0.00000000  1
  Au  Au3  1  0.00000000  0.50000000  0.00000000  1
  Au  Au4  1  0.50000000  0.00000000  0.00000000  1
  Au  Au5  1  0.00000000  0.00000000  0.50000000  1
  C  C6  1  0.52737400  0.43173700  0.05644700  1
  C  C7  1  0.56826300  0.94355300  0.47262600  1
  C  C8  1  0.43173700  0.05644700  0.52737400  1
  C  C9  1  0.47262600  0.56826300  0.94355300  1
  C  C10  1  0.94355300  0.47262600  0.56826300  1
  C  C11  1  0.05644700  0.52737400  0.43173700  1
  N  N12  1  0.57063800  0.31141900  0.15134400  1
  N  N13  1  0.84865600  0.42936200  0.68858100  1
  N  N14  1  0.42936200  0.68858100  0.84865600  1
  N  N15  1  0.68858100  0.84865600  0.42936200  1
  N  N16  1  0.15134400  0.57063800  0.31141900  1
  N  N17  1  0.31141900  0.15134400  0.57063800  1
