# generated using pymatgen
data_Pr(CoP3)4
_symmetry_space_group_name_H-M   'P 1'
_cell_length_a   6.77661241
_cell_length_b   6.77661241
_cell_length_c   6.77661241
_cell_angle_alpha   109.47122063
_cell_angle_beta   109.47122063
_cell_angle_gamma   109.47122063
_symmetry_Int_Tables_number   1
_chemical_formula_structural   Pr(CoP3)4
_chemical_formula_sum   'Pr1 Co4 P12'
_cell_volume   239.56096280
_cell_formula_units_Z   1
loop_
 _symmetry_equiv_pos_site_id
 _symmetry_equiv_pos_as_xyz
  1  'x, y, z'
loop_
 _atom_site_type_symbol
 _atom_site_label
 _atom_site_symmetry_multiplicity
 _atom_site_fract_x
 _atom_site_fract_y
 _atom_site_fract_z
 _atom_site_occupancy
  Pr  Pr0  1  0.00000000  0.00000000  0.00000000  1
  Co  Co1  1  0.00000000  0.00000000  0.50000000  1
  Co  Co2  1  0.50000000  0.00000000  0.00000000  1
  Co  Co3  1  0.00000000  0.50000000  0.00000000  1
  Co  Co4  1  0.50000000  0.50000000  0.50000000  1
  P  P5  1  0.35339900  0.20609900  0.85270000  1
  P  P6  1  0.64660100  0.79390100  0.14730000  1
  P  P7  1  0.64660100  0.49930100  0.85270000  1
  P  P8  1  0.35339900  0.50069900  0.14730000  1
  P  P9  1  0.20609900  0.85270000  0.35339900  1
  P  P10  1  0.79390100  0.14730000  0.64660100  1
  P  P11  1  0.49930100  0.85270000  0.64660100  1
  P  P12  1  0.50069900  0.14730000  0.35339900  1
  P  P13  1  0.85270000  0.35339900  0.20609900  1
  P  P14  1  0.14730000  0.64660100  0.79390100  1
  P  P15  1  0.85270000  0.64660100  0.49930100  1
  P  P16  1  0.14730000  0.35339900  0.50069900  1
