# generated using pymatgen
data_K2CoC4S4N4O3
_symmetry_space_group_name_H-M   'P 1'
_cell_length_a   11.32796900
_cell_length_b   7.39416300
_cell_length_c   11.75368400
_cell_angle_alpha   90.00000000
_cell_angle_beta   90.00000000
_cell_angle_gamma   90.00000000
_symmetry_Int_Tables_number   1
_chemical_formula_structural   K2CoC4S4N4O3
_chemical_formula_sum   'K4 Co2 C8 S8 N8 O6'
_cell_volume   984.49855360
_cell_formula_units_Z   2
loop_
 _symmetry_equiv_pos_site_id
 _symmetry_equiv_pos_as_xyz
  1  'x, y, z'
loop_
 _atom_site_type_symbol
 _atom_site_label
 _atom_site_symmetry_multiplicity
 _atom_site_fract_x
 _atom_site_fract_y
 _atom_site_fract_z
 _atom_site_occupancy
  K  K0  1  0.19614500  0.27196700  0.64014000  1
  K  K1  1  0.80385500  0.27196700  0.35986000  1
  K  K2  1  0.69614500  0.72803300  0.85986000  1
  K  K3  1  0.30385500  0.72803300  0.14014000  1
  Co  Co4  1  0.50000000  0.17702200  0.50000000  1
  Co  Co5  1  0.00000000  0.82297800  0.00000000  1
  C  C6  1  0.38858900  0.93931400  0.66196000  1
  C  C7  1  0.61141100  0.93931400  0.33804000  1
  C  C8  1  0.88858900  0.06068600  0.83804000  1
  C  C9  1  0.11141100  0.06068600  0.16196000  1
  C  C10  1  0.17259000  0.45202600  0.88229400  1
  C  C11  1  0.82741000  0.45202600  0.11770600  1
  C  C12  1  0.67259000  0.54797400  0.61770600  1
  C  C13  1  0.32741000  0.54797400  0.38229400  1
  S  S14  1  0.39548600  0.82187000  0.77519000  1
  S  S15  1  0.60451400  0.82187000  0.22481000  1
  S  S16  1  0.89548600  0.17813000  0.72481000  1
  S  S17  1  0.10451400  0.17813000  0.27519000  1
  S  S18  1  0.30266200  0.37101600  0.89776500  1
  S  S19  1  0.69733800  0.37101600  0.10223500  1
  S  S20  1  0.80266200  0.62898400  0.60223500  1
  S  S21  1  0.19733800  0.62898400  0.39776500  1
  N  N22  1  0.37675500  0.02730000  0.57616700  1
  N  N23  1  0.62324500  0.02730000  0.42383300  1
  N  N24  1  0.87675500  0.97270000  0.92383300  1
  N  N25  1  0.12324500  0.97270000  0.07616700  1
  N  N26  1  0.07437700  0.50877600  0.86246700  1
  N  N27  1  0.92562300  0.50877600  0.13753300  1
  N  N28  1  0.57437700  0.49122400  0.63753300  1
  N  N29  1  0.42562300  0.49122400  0.36246700  1
  O  O30  1  0.08211400  0.82164900  0.87492300  1
  O  O31  1  0.91788600  0.82164900  0.12507700  1
  O  O32  1  0.58211400  0.17835100  0.62507700  1
  O  O33  1  0.41788600  0.17835100  0.37492300  1
  O  O34  1  0.50000000  0.42867800  0.50000000  1
  O  O35  1  0.00000000  0.57132200  0.00000000  1
