# generated using pymatgen
data_CoCuP2O7
_symmetry_space_group_name_H-M   'P 1'
_cell_length_a   4.59307298
_cell_length_b   5.36394199
_cell_length_c   5.39286453
_cell_angle_alpha   101.43439814
_cell_angle_beta   100.93720399
_cell_angle_gamma   100.89037008
_symmetry_Int_Tables_number   1
_chemical_formula_structural   CoCuP2O7
_chemical_formula_sum   'Co1 Cu1 P2 O7'
_cell_volume   124.26804231
_cell_formula_units_Z   1
loop_
 _symmetry_equiv_pos_site_id
 _symmetry_equiv_pos_as_xyz
  1  'x, y, z'
loop_
 _atom_site_type_symbol
 _atom_site_label
 _atom_site_symmetry_multiplicity
 _atom_site_fract_x
 _atom_site_fract_y
 _atom_site_fract_z
 _atom_site_occupancy
  Co  Co0  1  0.71881100  0.10325000  0.28429900  1
  Cu  Cu1  1  0.72590100  0.48137500  0.90876000  1
  P  P2  1  0.31598800  0.58138800  0.40096600  1
  P  P3  1  0.13071800  0.99376000  0.80827000  1
  O  O4  1  0.22162900  0.76188100  0.62867400  1
  O  O5  1  0.50505500  0.41572300  0.53639600  1
  O  O6  1  0.94247100  0.85734400  0.97373500  1
  O  O7  1  0.95686300  0.14320100  0.64798900  1
  O  O8  1  0.49255500  0.74290200  0.25341200  1
  O  O9  1  0.00916800  0.41346200  0.21921100  1
  O  O10  1  0.44094200  0.17281200  0.97449000  1
