# generated using pymatgen
data_Cr8O21
_symmetry_space_group_name_H-M   'P 1'
_cell_length_a   5.42805800
_cell_length_b   6.59281366
_cell_length_c   12.69061912
_cell_angle_alpha   100.36125432
_cell_angle_beta   89.50252450
_cell_angle_gamma   97.35547976
_symmetry_Int_Tables_number   1
_chemical_formula_structural   Cr8O21
_chemical_formula_sum   'Cr8 O21'
_cell_volume   443.01889519
_cell_formula_units_Z   1
loop_
 _symmetry_equiv_pos_site_id
 _symmetry_equiv_pos_as_xyz
  1  'x, y, z'
loop_
 _atom_site_type_symbol
 _atom_site_label
 _atom_site_symmetry_multiplicity
 _atom_site_fract_x
 _atom_site_fract_y
 _atom_site_fract_z
 _atom_site_occupancy
  Cr  Cr0  1  0.26904700  0.80156000  0.52874400  1
  Cr  Cr1  1  0.13710300  0.20495400  0.06970900  1
  Cr  Cr2  1  0.36550400  0.62637600  0.75533400  1
  Cr  Cr3  1  0.66594900  0.25175100  0.90539600  1
  Cr  Cr4  1  0.33405100  0.74824900  0.09460400  1
  Cr  Cr5  1  0.86289700  0.79504600  0.93029100  1
  Cr  Cr6  1  0.63449600  0.37362400  0.24466600  1
  Cr  Cr7  1  0.73095300  0.19844000  0.47125600  1
  O  O8  1  0.09763800  0.89613200  0.06309300  1
  O  O9  1  0.44856300  0.76186000  0.23324700  1
  O  O10  1  0.62568100  0.34772200  0.38301900  1
  O  O11  1  0.19718600  0.50273200  0.06669000  1
  O  O12  1  0.96308600  0.09926200  0.41561500  1
  O  O13  1  0.63950700  0.76112800  0.80651900  1
  O  O14  1  0.13970600  0.73780800  0.82464400  1
  O  O15  1  0.82153000  0.35407600  0.57938900  1
  O  O16  1  0.86029400  0.26219200  0.17535600  1
  O  O17  1  0.35200100  0.35857200  0.77366700  1
  O  O18  1  0.37431900  0.65227800  0.61698100  1
  O  O19  1  0.50000000  0.00000000  0.50000000  1
  O  O20  1  0.59116600  0.82847400  0.03239400  1
  O  O21  1  0.36049300  0.23887200  0.19348100  1
  O  O22  1  0.17847000  0.64592400  0.42061100  1
  O  O23  1  0.64799900  0.64142800  0.22633300  1
  O  O24  1  0.80281400  0.49726800  0.93331000  1
  O  O25  1  0.03691400  0.90073800  0.58438500  1
  O  O26  1  0.55143700  0.23814000  0.76675300  1
  O  O27  1  0.40883400  0.17152600  0.96760600  1
  O  O28  1  0.90236200  0.10386800  0.93690700  1
