# generated using pymatgen
data_CsC4S4N8O2F
_symmetry_space_group_name_H-M   'P 1'
_cell_length_a   11.50638472
_cell_length_b   11.50638472
_cell_length_c   11.50638472
_cell_angle_alpha   133.37146688
_cell_angle_beta   127.00040838
_cell_angle_gamma   73.22905433
_symmetry_Int_Tables_number   1
_chemical_formula_structural   CsC4S4N8O2F
_chemical_formula_sum   'Cs2 C8 S8 N16 O4 F2'
_cell_volume   863.74087877
_cell_formula_units_Z   2
loop_
 _symmetry_equiv_pos_site_id
 _symmetry_equiv_pos_as_xyz
  1  'x, y, z'
loop_
 _atom_site_type_symbol
 _atom_site_label
 _atom_site_symmetry_multiplicity
 _atom_site_fract_x
 _atom_site_fract_y
 _atom_site_fract_z
 _atom_site_occupancy
  Cs  Cs0  1  0.25000000  0.00000000  0.25000000  1
  Cs  Cs1  1  0.75000000  0.00000000  0.75000000  1
  C  C2  1  0.44732500  0.30109700  0.85377200  1
  C  C3  1  0.55267500  0.69890300  0.14622800  1
  C  C4  1  0.05267500  0.40644600  0.35377200  1
  C  C5  1  0.94732500  0.59355400  0.64622800  1
  C  C6  1  0.78423000  0.88494800  0.10071800  1
  C  C7  1  0.21577000  0.11505200  0.89928200  1
  C  C8  1  0.71577000  0.31648900  0.60071800  1
  C  C9  1  0.28423000  0.68351100  0.39928200  1
  S  S10  1  0.38085000  0.06606000  0.68521000  1
  S  S11  1  0.61915000  0.93394000  0.31479000  1
  S  S12  1  0.11915000  0.30436000  0.18521000  1
  S  S13  1  0.88085000  0.69564000  0.81479000  1
  S  S14  1  0.85706500  0.10168200  0.24461700  1
  S  S15  1  0.14293500  0.89831800  0.75538300  1
  S  S16  1  0.64293500  0.38755100  0.74461700  1
  S  S17  1  0.35706500  0.61244900  0.25538300  1
  N  N18  1  0.31465800  0.23019300  0.68913000  1
  N  N19  1  0.45893700  0.76980700  0.08446400  1
  N  N20  1  0.18534200  0.37447200  0.41553600  1
  N  N21  1  0.04106300  0.62552800  0.81087000  1
  N  N22  1  0.68534200  0.76980700  0.31087000  1
  N  N23  1  0.54106300  0.23019300  0.91553600  1
  N  N24  1  0.81465800  0.62552800  0.58446400  1
  N  N25  1  0.95893700  0.37447200  0.18913000  1
  N  N26  1  0.68119700  0.92458700  0.00608700  1
  N  N27  1  0.08150000  0.07541300  0.75661000  1
  N  N28  1  0.81880300  0.32489000  0.74339000  1
  N  N29  1  0.41850000  0.67511000  0.49391300  1
  N  N30  1  0.31880300  0.07541300  0.99391300  1
  N  N31  1  0.91850000  0.92458700  0.24339000  1
  N  N32  1  0.18119700  0.67511000  0.25661000  1
  N  N33  1  0.58150000  0.32489000  0.50608700  1
  O  O34  1  0.16599600  0.77079500  0.60480000  1
  O  O35  1  0.83400400  0.22920500  0.39520000  1
  O  O36  1  0.33400400  0.43880400  0.10480000  1
  O  O37  1  0.66599600  0.56119600  0.89520000  1
  F  F38  1  0.00000000  0.50000000  0.50000000  1
  F  F39  1  0.50000000  0.50000000  0.00000000  1
