# generated using pymatgen
data_CaSiO3
_symmetry_space_group_name_H-M   'P 1'
_cell_length_a   6.25108741
_cell_length_b   6.25108741
_cell_length_c   6.25108741
_cell_angle_alpha   109.47122063
_cell_angle_beta   109.47122063
_cell_angle_gamma   109.47122063
_symmetry_Int_Tables_number   1
_chemical_formula_structural   CaSiO3
_chemical_formula_sum   'Ca4 Si4 O12'
_cell_volume   188.03765431
_cell_formula_units_Z   4
loop_
 _symmetry_equiv_pos_site_id
 _symmetry_equiv_pos_as_xyz
  1  'x, y, z'
loop_
 _atom_site_type_symbol
 _atom_site_label
 _atom_site_symmetry_multiplicity
 _atom_site_fract_x
 _atom_site_fract_y
 _atom_site_fract_z
 _atom_site_occupancy
  Ca  Ca0  1  0.00000000  0.50000000  0.50000000  1
  Ca  Ca1  1  0.50000000  0.00000000  0.50000000  1
  Ca  Ca2  1  0.00000000  0.00000000  0.00000000  1
  Ca  Ca3  1  0.50000000  0.50000000  0.00000000  1
  Si  Si4  1  0.00000000  0.50000000  0.00000000  1
  Si  Si5  1  0.00000000  0.00000000  0.50000000  1
  Si  Si6  1  0.50000000  0.50000000  0.50000000  1
  Si  Si7  1  0.50000000  0.00000000  0.00000000  1
  O  O8  1  0.76079600  0.26041000  0.02120600  1
  O  O9  1  0.23920400  0.73959000  0.97879400  1
  O  O10  1  0.26041000  0.49961300  0.23920400  1
  O  O11  1  0.76079600  0.73959000  0.50038700  1
  O  O12  1  0.23920400  0.26041000  0.49961300  1
  O  O13  1  0.49961300  0.23920400  0.26041000  1
  O  O14  1  0.73959000  0.50038700  0.76079600  1
  O  O15  1  0.73959000  0.97879400  0.23920400  1
  O  O16  1  0.26041000  0.02120600  0.76079600  1
  O  O17  1  0.02120600  0.76079600  0.26041000  1
  O  O18  1  0.97879400  0.23920400  0.73959000  1
  O  O19  1  0.50038700  0.76079600  0.73959000  1
