# generated using pymatgen
data_Mg3B2H9SO13F
_symmetry_space_group_name_H-M   'P 1'
_cell_length_a   9.01009100
_cell_length_b   10.19139000
_cell_length_c   13.24163500
_cell_angle_alpha   90.00000000
_cell_angle_beta   90.00000000
_cell_angle_gamma   90.00000000
_symmetry_Int_Tables_number   1
_chemical_formula_structural   Mg3B2H9SO13F
_chemical_formula_sum   'Mg12 B8 H36 S4 O52 F4'
_cell_volume   1215.91778588
_cell_formula_units_Z   4
loop_
 _symmetry_equiv_pos_site_id
 _symmetry_equiv_pos_as_xyz
  1  'x, y, z'
loop_
 _atom_site_type_symbol
 _atom_site_label
 _atom_site_symmetry_multiplicity
 _atom_site_fract_x
 _atom_site_fract_y
 _atom_site_fract_z
 _atom_site_occupancy
  Mg  Mg0  1  0.65826400  0.94086600  0.25000000  1
  Mg  Mg1  1  0.15826400  0.55913400  0.25000000  1
  Mg  Mg2  1  0.34173600  0.05913400  0.75000000  1
  Mg  Mg3  1  0.84173600  0.44086600  0.75000000  1
  Mg  Mg4  1  0.61505700  0.12235700  0.60639300  1
  Mg  Mg5  1  0.11505700  0.37764300  0.89360700  1
  Mg  Mg6  1  0.38494300  0.87764300  0.10639300  1
  Mg  Mg7  1  0.88494300  0.62235700  0.39360700  1
  Mg  Mg8  1  0.38494300  0.87764300  0.39360700  1
  Mg  Mg9  1  0.88494300  0.62235700  0.10639300  1
  Mg  Mg10  1  0.61505700  0.12235700  0.89360700  1
  Mg  Mg11  1  0.11505700  0.37764300  0.60639300  1
  B  B12  1  0.80261000  0.36210700  0.51479700  1
  B  B13  1  0.30261000  0.13789300  0.98520300  1
  B  B14  1  0.19739000  0.63789300  0.01479700  1
  B  B15  1  0.69739000  0.86210700  0.48520300  1
  B  B16  1  0.19739000  0.63789300  0.48520300  1
  B  B17  1  0.69739000  0.86210700  0.01479700  1
  B  B18  1  0.80261000  0.36210700  0.98520300  1
  B  B19  1  0.30261000  0.13789300  0.51479700  1
  H  H20  1  0.63040500  0.70359000  0.35963700  1
  H  H21  1  0.13040500  0.79641000  0.14036300  1
  H  H22  1  0.36959500  0.29641000  0.85963700  1
  H  H23  1  0.86959500  0.20359000  0.64036300  1
  H  H24  1  0.36959500  0.29641000  0.64036300  1
  H  H25  1  0.86959500  0.20359000  0.85963700  1
  H  H26  1  0.63040500  0.70359000  0.14036300  1
  H  H27  1  0.13040500  0.79641000  0.35963700  1
  H  H28  1  0.62007200  0.29322600  0.44190100  1
  H  H29  1  0.12007200  0.20677400  0.05809900  1
  H  H30  1  0.37992800  0.70677400  0.94190100  1
  H  H31  1  0.87992800  0.79322600  0.55809900  1
  H  H32  1  0.37992800  0.70677400  0.55809900  1
  H  H33  1  0.87992800  0.79322600  0.94190100  1
  H  H34  1  0.62007200  0.29322600  0.05809900  1
  H  H35  1  0.12007200  0.20677400  0.44190100  1
  H  H36  1  0.83465500  0.38224500  0.13994300  1
  H  H37  1  0.33465500  0.11775500  0.36005700  1
  H  H38  1  0.16534500  0.61775500  0.63994300  1
  H  H39  1  0.66534500  0.88224500  0.86005700  1
  H  H40  1  0.16534500  0.61775500  0.86005700  1
  H  H41  1  0.66534500  0.88224500  0.63994300  1
  H  H42  1  0.83465500  0.38224500  0.36005700  1
  H  H43  1  0.33465500  0.11775500  0.13994300  1
  H  H44  1  0.93729300  0.98975600  0.30720800  1
  H  H45  1  0.43729300  0.51024400  0.19279200  1
  H  H46  1  0.06270700  0.01024400  0.80720800  1
  H  H47  1  0.56270700  0.48975600  0.69279200  1
  H  H48  1  0.06270700  0.01024400  0.69279200  1
  H  H49  1  0.56270700  0.48975600  0.80720800  1
  H  H50  1  0.93729300  0.98975600  0.19279200  1
  H  H51  1  0.43729300  0.51024400  0.30720800  1
  H  H52  1  0.32525700  0.38222000  0.75000000  1
  H  H53  1  0.82525700  0.11778000  0.75000000  1
  H  H54  1  0.67474300  0.61778000  0.25000000  1
  H  H55  1  0.17474300  0.88222000  0.25000000  1
  S  S56  1  0.01474600  0.26154200  0.25000000  1
  S  S57  1  0.51474600  0.23845800  0.25000000  1
  S  S58  1  0.98525400  0.73845800  0.75000000  1
  S  S59  1  0.48525400  0.76154200  0.75000000  1
  O  O60  1  0.97096900  0.82123500  0.65801900  1
  O  O61  1  0.47096900  0.67876500  0.84198100  1
  O  O62  1  0.02903100  0.17876500  0.15801900  1
  O  O63  1  0.52903100  0.32123500  0.34198100  1
  O  O64  1  0.02903100  0.17876500  0.34198100  1
  O  O65  1  0.52903100  0.32123500  0.15801900  1
  O  O66  1  0.97096900  0.82123500  0.84198100  1
  O  O67  1  0.47096900  0.67876500  0.65801900  1
  O  O68  1  0.86337300  0.32526900  0.25000000  1
  O  O69  1  0.36337300  0.17473100  0.25000000  1
  O  O70  1  0.13662700  0.67473100  0.75000000  1
  O  O71  1  0.63662700  0.82526900  0.75000000  1
  O  O72  1  0.62831100  0.13258900  0.25000000  1
  O  O73  1  0.12831100  0.36741100  0.25000000  1
  O  O74  1  0.37168900  0.86741100  0.75000000  1
  O  O75  1  0.87168900  0.63258900  0.75000000  1
  O  O76  1  0.62098900  0.87878800  0.39826200  1
  O  O77  1  0.12098900  0.62121200  0.10173800  1
  O  O78  1  0.37901100  0.12121200  0.89826200  1
  O  O79  1  0.87901100  0.37878800  0.60173800  1
  O  O80  1  0.37901100  0.12121200  0.60173800  1
  O  O81  1  0.87901100  0.37878800  0.89826200  1
  O  O82  1  0.62098900  0.87878800  0.10173800  1
  O  O83  1  0.12098900  0.62121200  0.39826200  1
  O  O84  1  0.82190000  0.12072700  0.65819500  1
  O  O85  1  0.32190000  0.37927300  0.84180500  1
  O  O86  1  0.17810000  0.87927300  0.15819500  1
  O  O87  1  0.67810000  0.62072700  0.34180500  1
  O  O88  1  0.17810000  0.87927300  0.34180500  1
  O  O89  1  0.67810000  0.62072700  0.15819500  1
  O  O90  1  0.82190000  0.12072700  0.84180500  1
  O  O91  1  0.32190000  0.37927300  0.65819500  1
  O  O92  1  0.67525200  0.28172400  0.50877800  1
  O  O93  1  0.17525200  0.21827600  0.99122200  1
  O  O94  1  0.32474800  0.71827600  0.00877800  1
  O  O95  1  0.82474800  0.78172400  0.49122200  1
  O  O96  1  0.32474800  0.71827600  0.49122200  1
  O  O97  1  0.82474800  0.78172400  0.00877800  1
  O  O98  1  0.67525200  0.28172400  0.99122200  1
  O  O99  1  0.17525200  0.21827600  0.50877800  1
  O  O100  1  0.11706300  0.04925000  0.75000000  1
  O  O101  1  0.61706300  0.45075000  0.75000000  1
  O  O102  1  0.88293700  0.95075000  0.25000000  1
  O  O103  1  0.38293700  0.54925000  0.25000000  1
  O  O104  1  0.14514400  0.57458700  0.57161300  1
  O  O105  1  0.64514400  0.92541300  0.92838700  1
  O  O106  1  0.85485600  0.42541300  0.07161300  1
  O  O107  1  0.35485600  0.07458700  0.42838700  1
  O  O108  1  0.85485600  0.42541300  0.42838700  1
  O  O109  1  0.35485600  0.07458700  0.07161300  1
  O  O110  1  0.14514400  0.57458700  0.92838700  1
  O  O111  1  0.64514400  0.92541300  0.57161300  1
  F  F112  1  0.04942200  0.37251400  0.75000000  1
  F  F113  1  0.54942200  0.12748600  0.75000000  1
  F  F114  1  0.95057800  0.62748600  0.25000000  1
  F  F115  1  0.45057800  0.87251400  0.25000000  1
