# generated using pymatgen
data_CoPNO10
_symmetry_space_group_name_H-M   'P 1'
_cell_length_a   7.16646300
_cell_length_b   7.52910150
_cell_length_c   12.94489979
_cell_angle_alpha   89.53715756
_cell_angle_beta   89.96796811
_cell_angle_gamma   89.35946059
_symmetry_Int_Tables_number   1
_chemical_formula_structural   CoPNO10
_chemical_formula_sum   'Co2 P2 N2 O20'
_cell_volume   698.40179876
_cell_formula_units_Z   2
loop_
 _symmetry_equiv_pos_site_id
 _symmetry_equiv_pos_as_xyz
  1  'x, y, z'
loop_
 _atom_site_type_symbol
 _atom_site_label
 _atom_site_symmetry_multiplicity
 _atom_site_fract_x
 _atom_site_fract_y
 _atom_site_fract_z
 _atom_site_occupancy
  Co  Co0  1  0.42684900  0.49559600  0.76361800  1
  Co  Co1  1  0.57534900  0.00256300  0.26371200  1
  P  P2  1  0.90936700  0.57165000  0.46369900  1
  P  P3  1  0.09161800  0.07047700  0.96272100  1
  N  N4  1  0.36411000  0.50139900  0.24009500  1
  N  N5  1  0.63590400  0.00108400  0.73959400  1
  O  O6  1  0.64488500  0.50579900  0.78471400  1
  O  O7  1  0.35652900  0.99728700  0.28437100  1
  O  O8  1  0.92504100  0.56481800  0.00523500  1
  O  O9  1  0.07422900  0.06332200  0.50306700  1
  O  O10  1  0.32427300  0.68375200  0.75769300  1
  O  O11  1  0.32310100  0.31309300  0.75393100  1
  O  O12  1  0.66839600  0.81161500  0.25335600  1
  O  O13  1  0.67904700  0.18613500  0.25787700  1
  O  O14  1  0.48647400  0.58036300  0.01242700  1
  O  O15  1  0.49690000  0.41834200  0.01706200  1
  O  O16  1  0.50714900  0.91764300  0.51585400  1
  O  O17  1  0.51337100  0.07934100  0.51311500  1
  O  O18  1  0.03419900  0.48520300  0.38618600  1
  O  O19  1  0.96684900  0.98333700  0.88637800  1
  O  O20  1  0.83073400  0.46405200  0.55053100  1
  O  O21  1  0.16917600  0.96522500  0.05130000  1
  O  O22  1  0.04808000  0.65582700  0.96938400  1
  O  O23  1  0.13755300  0.26237000  0.95072800  1
  O  O24  1  0.86302300  0.76486600  0.45549300  1
  O  O25  1  0.94779500  0.15484200  0.46866200  1
