# generated using pymatgen
data_CdIO9
_symmetry_space_group_name_H-M   'P 1'
_cell_length_a   13.19779600
_cell_length_b   5.60175700
_cell_length_c   9.78069430
_cell_angle_alpha   62.96097465
_cell_angle_beta   90.00000000
_cell_angle_gamma   90.00000000
_symmetry_Int_Tables_number   1
_chemical_formula_structural   CdIO9
_chemical_formula_sum   'Cd4 I4 O36'
_cell_volume   644.05862064
_cell_formula_units_Z   4
loop_
 _symmetry_equiv_pos_site_id
 _symmetry_equiv_pos_as_xyz
  1  'x, y, z'
loop_
 _atom_site_type_symbol
 _atom_site_label
 _atom_site_symmetry_multiplicity
 _atom_site_fract_x
 _atom_site_fract_y
 _atom_site_fract_z
 _atom_site_occupancy
  Cd  Cd0  1  0.57171700  0.79253600  0.81695000  1
  Cd  Cd1  1  0.07171700  0.20746400  0.68305000  1
  Cd  Cd2  1  0.42828300  0.20746400  0.18305000  1
  Cd  Cd3  1  0.92828300  0.79253600  0.31695000  1
  I  I4  1  0.75113900  0.77306800  0.57154600  1
  I  I5  1  0.25113900  0.22693200  0.92845400  1
  I  I6  1  0.24886100  0.22693200  0.42845400  1
  I  I7  1  0.74886100  0.77306800  0.07154600  1
  O  O8  1  0.83235100  0.97528500  0.63746100  1
  O  O9  1  0.33235100  0.02471500  0.86253900  1
  O  O10  1  0.16764900  0.02471500  0.36253900  1
  O  O11  1  0.66764900  0.97528500  0.13746100  1
  O  O12  1  0.63196200  0.97648300  0.55628900  1
  O  O13  1  0.13196200  0.02351700  0.94371100  1
  O  O14  1  0.36803800  0.02351700  0.44371100  1
  O  O15  1  0.86803800  0.97648300  0.05628900  1
  O  O16  1  0.70706400  0.53919200  0.77340300  1
  O  O17  1  0.20706400  0.46080800  0.72659700  1
  O  O18  1  0.29293600  0.46080800  0.22659700  1
  O  O19  1  0.79293600  0.53919200  0.27340300  1
  O  O20  1  0.65508200  0.57830600  0.51493800  1
  O  O21  1  0.15508200  0.42169400  0.98506200  1
  O  O22  1  0.34491800  0.42169400  0.48506200  1
  O  O23  1  0.84491800  0.57830600  0.01493800  1
  O  O24  1  0.85399400  0.52710100  0.57794500  1
  O  O25  1  0.35399400  0.47289900  0.92205500  1
  O  O26  1  0.14600600  0.47289900  0.42205500  1
  O  O27  1  0.64600600  0.52710100  0.07794500  1
  O  O28  1  0.78992800  0.99553200  0.36713100  1
  O  O29  1  0.28992800  0.00446800  0.13286900  1
  O  O30  1  0.21007200  0.00446800  0.63286900  1
  O  O31  1  0.71007200  0.99553200  0.86713100  1
  O  O32  1  0.48456800  0.70185700  0.05898700  1
  O  O33  1  0.98456800  0.29814300  0.44101300  1
  O  O34  1  0.51543200  0.29814300  0.94101300  1
  O  O35  1  0.01543200  0.70185700  0.55898700  1
  O  O36  1  0.45119400  0.61582900  0.72199600  1
  O  O37  1  0.95119400  0.38417100  0.77800400  1
  O  O38  1  0.54880600  0.38417100  0.27800400  1
  O  O39  1  0.04880600  0.61582900  0.22199600  1
  O  O40  1  0.48750900  0.22100100  0.75896400  1
  O  O41  1  0.98750900  0.77899900  0.74103600  1
  O  O42  1  0.51249100  0.77899900  0.24103600  1
  O  O43  1  0.01249100  0.22100100  0.25896400  1
