# generated using pymatgen
data_BrO
_symmetry_space_group_name_H-M   'P 1'
_cell_length_a   3.85025276
_cell_length_b   3.85025276
_cell_length_c   3.85025292
_cell_angle_alpha   58.60122225
_cell_angle_beta   58.60122225
_cell_angle_gamma   58.60122394
_symmetry_Int_Tables_number   1
_chemical_formula_structural   BrO
_chemical_formula_sum   'Br1 O1'
_cell_volume   39.06943057
_cell_formula_units_Z   1
loop_
 _symmetry_equiv_pos_site_id
 _symmetry_equiv_pos_as_xyz
  1  'x, y, z'
loop_
 _atom_site_type_symbol
 _atom_site_label
 _atom_site_symmetry_multiplicity
 _atom_site_fract_x
 _atom_site_fract_y
 _atom_site_fract_z
 _atom_site_occupancy
  Br  Br0  1  0.95761900  0.95761900  0.95761900  1
  O  O1  1  0.59118100  0.59118100  0.59118100  1
