# generated using pymatgen
data_Ca3V2O8
_symmetry_space_group_name_H-M   'P 1'
_cell_length_a   5.63223898
_cell_length_b   5.63223898
_cell_length_c   7.13919667
_cell_angle_alpha   66.71465558
_cell_angle_beta   66.71465558
_cell_angle_gamma   59.44545380
_symmetry_Int_Tables_number   1
_chemical_formula_structural   Ca3V2O8
_chemical_formula_sum   'Ca3 V2 O8'
_cell_volume   173.64738956
_cell_formula_units_Z   1
loop_
 _symmetry_equiv_pos_site_id
 _symmetry_equiv_pos_as_xyz
  1  'x, y, z'
loop_
 _atom_site_type_symbol
 _atom_site_label
 _atom_site_symmetry_multiplicity
 _atom_site_fract_x
 _atom_site_fract_y
 _atom_site_fract_z
 _atom_site_occupancy
  Ca  Ca0  1  0.80509100  0.80509100  0.59084000  1
  Ca  Ca1  1  0.19490900  0.19490900  0.40916000  1
  Ca  Ca2  1  0.00000000  0.00000000  0.00000000  1
  V  V3  1  0.59405000  0.59405000  0.21420300  1
  V  V4  1  0.40595000  0.40595000  0.78579700  1
  O  O5  1  0.73799900  0.22467800  0.30527300  1
  O  O6  1  0.67821800  0.67821800  0.94468700  1
  O  O7  1  0.26382600  0.26382600  0.70137000  1
  O  O8  1  0.22467800  0.73799900  0.30527300  1
  O  O9  1  0.26200100  0.77532200  0.69472700  1
  O  O10  1  0.77532200  0.26200100  0.69472700  1
  O  O11  1  0.32178200  0.32178200  0.05531300  1
  O  O12  1  0.73617400  0.73617400  0.29863000  1
