# generated using pymatgen
data_Nb6Hg(Br8O9)2
_symmetry_space_group_name_H-M   'P 1'
_cell_length_a   14.98871073
_cell_length_b   14.98871073
_cell_length_c   14.98871073
_cell_angle_alpha   60.00000000
_cell_angle_beta   60.00000000
_cell_angle_gamma   60.00000000
_symmetry_Int_Tables_number   1
_chemical_formula_structural   Nb6Hg(Br8O9)2
_chemical_formula_sum   'Nb12 Hg2 Br32 O36'
_cell_volume   2381.10110633
_cell_formula_units_Z   2
loop_
 _symmetry_equiv_pos_site_id
 _symmetry_equiv_pos_as_xyz
  1  'x, y, z'
loop_
 _atom_site_type_symbol
 _atom_site_label
 _atom_site_symmetry_multiplicity
 _atom_site_fract_x
 _atom_site_fract_y
 _atom_site_fract_z
 _atom_site_occupancy
  Nb  Nb0  1  0.34928000  0.65072000  0.65072000  1
  Nb  Nb1  1  0.65072000  0.34928000  0.34928000  1
  Nb  Nb2  1  0.65072000  0.65072000  0.34928000  1
  Nb  Nb3  1  0.34928000  0.34928000  0.65072000  1
  Nb  Nb4  1  0.65072000  0.34928000  0.65072000  1
  Nb  Nb5  1  0.34928000  0.65072000  0.34928000  1
  Nb  Nb6  1  0.90072000  0.59928000  0.59928000  1
  Nb  Nb7  1  0.59928000  0.90072000  0.90072000  1
  Nb  Nb8  1  0.59928000  0.59928000  0.90072000  1
  Nb  Nb9  1  0.90072000  0.90072000  0.59928000  1
  Nb  Nb10  1  0.59928000  0.90072000  0.59928000  1
  Nb  Nb11  1  0.90072000  0.59928000  0.90072000  1
  Hg  Hg12  1  0.25000000  0.25000000  0.25000000  1
  Hg  Hg13  1  0.00000000  0.00000000  0.00000000  1
  Br  Br14  1  0.25598900  0.49852400  0.74696300  1
  Br  Br15  1  0.49852400  0.25598900  0.49852400  1
  Br  Br16  1  0.74696300  0.49852400  0.25598900  1
  Br  Br17  1  0.49852400  0.74696300  0.49852400  1
  Br  Br18  1  0.49852400  0.74696300  0.25598900  1
  Br  Br19  1  0.25598900  0.49852400  0.49852400  1
  Br  Br20  1  0.49852400  0.25598900  0.74696300  1
  Br  Br21  1  0.74696300  0.49852400  0.49852400  1
  Br  Br22  1  0.74696300  0.25598900  0.49852400  1
  Br  Br23  1  0.49852400  0.49852400  0.25598900  1
  Br  Br24  1  0.25598900  0.74696300  0.49852400  1
  Br  Br25  1  0.49852400  0.49852400  0.74696300  1
  Br  Br26  1  0.99401100  0.75147600  0.50303700  1
  Br  Br27  1  0.75147600  0.99401100  0.75147600  1
  Br  Br28  1  0.50303700  0.75147600  0.99401100  1
  Br  Br29  1  0.75147600  0.50303700  0.75147600  1
  Br  Br30  1  0.75147600  0.50303700  0.99401100  1
  Br  Br31  1  0.99401100  0.75147600  0.75147600  1
  Br  Br32  1  0.75147600  0.99401100  0.50303700  1
  Br  Br33  1  0.50303700  0.75147600  0.75147600  1
  Br  Br34  1  0.50303700  0.99401100  0.75147600  1
  Br  Br35  1  0.75147600  0.75147600  0.99401100  1
  Br  Br36  1  0.99401100  0.50303700  0.75147600  1
  Br  Br37  1  0.75147600  0.75147600  0.50303700  1
  Br  Br38  1  0.03429100  0.32190300  0.32190300  1
  Br  Br39  1  0.32190300  0.03429100  0.32190300  1
  Br  Br40  1  0.32190300  0.32190300  0.03429100  1
  Br  Br41  1  0.32190300  0.32190300  0.32190300  1
  Br  Br42  1  0.21570900  0.92809700  0.92809700  1
  Br  Br43  1  0.92809700  0.21570900  0.92809700  1
  Br  Br44  1  0.92809700  0.92809700  0.21570900  1
  Br  Br45  1  0.92809700  0.92809700  0.92809700  1
  O  O46  1  0.26839000  0.73161000  0.73161000  1
  O  O47  1  0.73161000  0.26839000  0.26839000  1
  O  O48  1  0.73161000  0.73161000  0.26839000  1
  O  O49  1  0.26839000  0.26839000  0.73161000  1
  O  O50  1  0.73161000  0.26839000  0.73161000  1
  O  O51  1  0.26839000  0.73161000  0.26839000  1
  O  O52  1  0.98161000  0.51839000  0.51839000  1
  O  O53  1  0.51839000  0.98161000  0.98161000  1
  O  O54  1  0.51839000  0.51839000  0.98161000  1
  O  O55  1  0.98161000  0.98161000  0.51839000  1
  O  O56  1  0.51839000  0.98161000  0.51839000  1
  O  O57  1  0.98161000  0.51839000  0.98161000  1
  O  O58  1  0.60024700  0.18414300  0.18414300  1
  O  O59  1  0.18414300  0.60024700  0.03146700  1
  O  O60  1  0.18414300  0.03146700  0.60024700  1
  O  O61  1  0.03146700  0.18414300  0.18414300  1
  O  O62  1  0.18414300  0.18414300  0.60024700  1
  O  O63  1  0.60024700  0.03146700  0.18414300  1
  O  O64  1  0.03146700  0.60024700  0.18414300  1
  O  O65  1  0.18414300  0.18414300  0.03146700  1
  O  O66  1  0.18414300  0.60024700  0.18414300  1
  O  O67  1  0.03146700  0.18414300  0.60024700  1
  O  O68  1  0.60024700  0.18414300  0.03146700  1
  O  O69  1  0.18414300  0.03146700  0.18414300  1
  O  O70  1  0.64975300  0.06585700  0.06585700  1
  O  O71  1  0.06585700  0.64975300  0.21853300  1
  O  O72  1  0.06585700  0.21853300  0.64975300  1
  O  O73  1  0.21853300  0.06585700  0.06585700  1
  O  O74  1  0.06585700  0.06585700  0.64975300  1
  O  O75  1  0.64975300  0.21853300  0.06585700  1
  O  O76  1  0.21853300  0.64975300  0.06585700  1
  O  O77  1  0.06585700  0.06585700  0.21853300  1
  O  O78  1  0.06585700  0.64975300  0.06585700  1
  O  O79  1  0.21853300  0.06585700  0.64975300  1
  O  O80  1  0.64975300  0.06585700  0.21853300  1
  O  O81  1  0.06585700  0.21853300  0.06585700  1
