# generated using pymatgen
data_Ca(H8O5)2
_symmetry_space_group_name_H-M   'P 1'
_cell_length_a   6.35353300
_cell_length_b   6.36411185
_cell_length_c   11.91444227
_cell_angle_alpha   78.22089594
_cell_angle_beta   84.77655398
_cell_angle_gamma   87.67570121
_symmetry_Int_Tables_number   1
_chemical_formula_structural   Ca(H8O5)2
_chemical_formula_sum   'Ca2 H32 O20'
_cell_volume   469.53300836
_cell_formula_units_Z   2
loop_
 _symmetry_equiv_pos_site_id
 _symmetry_equiv_pos_as_xyz
  1  'x, y, z'
loop_
 _atom_site_type_symbol
 _atom_site_label
 _atom_site_symmetry_multiplicity
 _atom_site_fract_x
 _atom_site_fract_y
 _atom_site_fract_z
 _atom_site_occupancy
  Ca  Ca0  1  0.03772300  0.03609000  0.51624600  1
  Ca  Ca1  1  0.99111800  0.96566600  0.98563300  1
  H  H2  1  0.29113300  0.08092400  0.71364900  1
  H  H3  1  0.36852300  0.28411500  0.61131400  1
  H  H4  1  0.64404800  0.92608100  0.66248500  1
  H  H5  1  0.65652000  0.72285300  0.60021700  1
  H  H6  1  0.07496100  0.60433800  0.61885100  1
  H  H7  1  0.32226300  0.64316000  0.60034700  1
  H  H8  1  0.95632100  0.31799300  0.66406700  1
  H  H9  1  0.72354900  0.38258500  0.61049100  1
  H  H10  1  0.29993300  0.95844200  0.14761600  1
  H  H11  1  0.34213800  0.72105000  0.11220200  1
  H  H12  1  0.71468400  0.06661800  0.19832200  1
  H  H13  1  0.67082100  0.26765500  0.09600000  1
  H  H14  1  0.04295000  0.28039600  0.14185100  1
  H  H15  1  0.28355400  0.37172500  0.11285000  1
  H  H16  1  0.83442100  0.66556300  0.19081100  1
  H  H17  1  0.69336500  0.61408000  0.09468700  1
  H  H18  1  0.59311600  0.74185900  0.40120900  1
  H  H19  1  0.72532000  0.04143300  0.36026500  1
  H  H20  1  0.24001600  0.19210700  0.29103000  1
  H  H21  1  0.42740300  0.05609300  0.35550400  1
  H  H22  1  0.72635400  0.40100000  0.40613400  1
  H  H23  1  0.96908400  0.43827800  0.37608800  1
  H  H24  1  0.14915800  0.72773400  0.29009500  1
  H  H25  1  0.26130600  0.61814000  0.39877400  1
  H  H26  1  0.74221100  0.17126800  0.79293800  1
  H  H27  1  0.57116400  0.03081400  0.87429700  1
  H  H28  1  0.41272000  0.73475100  0.91471900  1
  H  H29  1  0.29765200  0.10939000  0.86390000  1
  H  H30  1  0.73637900  0.62620900  0.88857500  1
  H  H31  1  0.88133100  0.72951400  0.77919400  1
  H  H32  1  0.27259000  0.40891300  0.91300800  1
  H  H33  1  0.03983300  0.45533900  0.87984400  1
  O  O34  1  0.53829100  0.54218100  0.56493100  1
  O  O35  1  0.47809800  0.53626600  0.06302000  1
  O  O36  1  0.53476600  0.57896300  0.43784400  1
  O  O37  1  0.47822000  0.58297300  0.93576300  1
  O  O38  1  0.26442300  0.16849700  0.63398200  1
  O  O39  1  0.74481500  0.83264800  0.62769400  1
  O  O40  1  0.17797300  0.71228500  0.61959000  1
  O  O41  1  0.82235400  0.26219600  0.64896600  1
  O  O42  1  0.23289000  0.82649000  0.13926400  1
  O  O43  1  0.77274000  0.14996000  0.11978100  1
  O  O44  1  0.19288200  0.24914300  0.15520800  1
  O  O45  1  0.83672100  0.66629100  0.10884300  1
  O  O46  1  0.64158300  0.94292900  0.33060400  1
  O  O47  1  0.28614000  0.13583100  0.37003300  1
  O  O48  1  0.86164900  0.32096900  0.39071000  1
  O  O49  1  0.11803600  0.66085400  0.37278000  1
  O  O50  1  0.70860500  0.10328000  0.87493400  1
  O  O51  1  0.31673100  0.96152900  0.85117300  1
  O  O52  1  0.88636300  0.66777000  0.86161000  1
  O  O53  1  0.14587100  0.33388600  0.89973800  1
