# generated using pymatgen
data_CoH10(SeO5)2
_symmetry_space_group_name_H-M   'P 1'
_cell_length_a   8.01967109
_cell_length_b   8.01967109
_cell_length_c   10.77165037
_cell_angle_alpha   63.50608294
_cell_angle_beta   63.50608294
_cell_angle_gamma   66.44329450
_symmetry_Int_Tables_number   1
_chemical_formula_structural   CoH10(SeO5)2
_chemical_formula_sum   'Co2 H20 Se4 O20'
_cell_volume   537.21896556
_cell_formula_units_Z   2
loop_
 _symmetry_equiv_pos_site_id
 _symmetry_equiv_pos_as_xyz
  1  'x, y, z'
loop_
 _atom_site_type_symbol
 _atom_site_label
 _atom_site_symmetry_multiplicity
 _atom_site_fract_x
 _atom_site_fract_y
 _atom_site_fract_z
 _atom_site_occupancy
  Co  Co0  1  0.07491400  0.92508600  0.25000000  1
  Co  Co1  1  0.92508600  0.07491400  0.75000000  1
  H  H2  1  0.28091900  0.25993900  0.03125800  1
  H  H3  1  0.74006100  0.71908100  0.46874200  1
  H  H4  1  0.71908100  0.74006100  0.96874200  1
  H  H5  1  0.25993900  0.28091900  0.53125800  1
  H  H6  1  0.59197200  0.30157900  0.41559000  1
  H  H7  1  0.69842100  0.40802800  0.08441000  1
  H  H8  1  0.40802800  0.69842100  0.58441000  1
  H  H9  1  0.30157900  0.59197200  0.91559000  1
  H  H10  1  0.33693700  0.56906000  0.33723500  1
  H  H11  1  0.43094000  0.66306300  0.16276500  1
  H  H12  1  0.66306300  0.43094000  0.66276500  1
  H  H13  1  0.56906000  0.33693700  0.83723500  1
  H  H14  1  0.29265400  0.29279000  0.29572100  1
  H  H15  1  0.70721000  0.70734600  0.20427900  1
  H  H16  1  0.70734600  0.70721000  0.70427900  1
  H  H17  1  0.29279000  0.29265400  0.79572100  1
  H  H18  1  0.31172600  0.40181000  0.58880100  1
  H  H19  1  0.59819000  0.68827400  0.91119900  1
  H  H20  1  0.68827400  0.59819000  0.41119900  1
  H  H21  1  0.40181000  0.31172600  0.08880100  1
  Se  Se22  1  0.89803200  0.76719400  0.62303900  1
  Se  Se23  1  0.23280600  0.10196800  0.87696100  1
  Se  Se24  1  0.10196800  0.23280600  0.37696100  1
  Se  Se25  1  0.76719400  0.89803200  0.12303900  1
  O  O26  1  0.98095700  0.81346500  0.15848200  1
  O  O27  1  0.18653500  0.01904300  0.34151800  1
  O  O28  1  0.01904300  0.18653500  0.84151800  1
  O  O29  1  0.81346500  0.98095700  0.65848200  1
  O  O30  1  0.88412400  0.81904400  0.45186900  1
  O  O31  1  0.18095600  0.11587600  0.04813100  1
  O  O32  1  0.11587600  0.18095600  0.54813100  1
  O  O33  1  0.81904400  0.88412400  0.95186900  1
  O  O34  1  0.28628100  0.66198500  0.66118400  1
  O  O35  1  0.33801500  0.71371900  0.83881600  1
  O  O36  1  0.71371900  0.33801500  0.33881600  1
  O  O37  1  0.66198500  0.28628100  0.16118400  1
  O  O38  1  0.78271400  0.21728600  0.25000000  1
  O  O39  1  0.21728600  0.78271400  0.75000000  1
  O  O40  1  0.31894700  0.68105300  0.25000000  1
  O  O41  1  0.68105300  0.31894700  0.75000000  1
  O  O42  1  0.35341100  0.35720400  0.50613000  1
  O  O43  1  0.64279600  0.64658900  0.99387000  1
  O  O44  1  0.64658900  0.64279600  0.49387000  1
  O  O45  1  0.35720400  0.35341100  0.00613000  1
