# generated using pymatgen
data_CaSi3SnO11
_symmetry_space_group_name_H-M   'P 1'
_cell_length_a   5.30271900
_cell_length_b   11.75589800
_cell_length_c   14.62990900
_cell_angle_alpha   90.00000000
_cell_angle_beta   90.00000000
_cell_angle_gamma   90.00000000
_symmetry_Int_Tables_number   1
_chemical_formula_structural   CaSi3SnO11
_chemical_formula_sum   'Ca4 Si12 Sn4 O44'
_cell_volume   912.00253976
_cell_formula_units_Z   4
loop_
 _symmetry_equiv_pos_site_id
 _symmetry_equiv_pos_as_xyz
  1  'x, y, z'
loop_
 _atom_site_type_symbol
 _atom_site_label
 _atom_site_symmetry_multiplicity
 _atom_site_fract_x
 _atom_site_fract_y
 _atom_site_fract_z
 _atom_site_occupancy
  Ca  Ca0  1  0.25000000  0.25000000  0.90983400  1
  Ca  Ca1  1  0.25000000  0.75000000  0.59016600  1
  Ca  Ca2  1  0.75000000  0.75000000  0.09016600  1
  Ca  Ca3  1  0.75000000  0.25000000  0.40983400  1
  Si  Si4  1  0.25000000  0.25000000  0.56699600  1
  Si  Si5  1  0.25000000  0.75000000  0.93300400  1
  Si  Si6  1  0.75000000  0.75000000  0.43300400  1
  Si  Si7  1  0.75000000  0.25000000  0.06699600  1
  Si  Si8  1  0.50051900  0.47011900  0.64240600  1
  Si  Si9  1  0.50051900  0.52988100  0.85759400  1
  Si  Si10  1  0.99948100  0.02988100  0.64240600  1
  Si  Si11  1  0.99948100  0.97011900  0.85759400  1
  Si  Si12  1  0.49948100  0.52988100  0.35759400  1
  Si  Si13  1  0.49948100  0.47011900  0.14240600  1
  Si  Si14  1  0.00051900  0.97011900  0.35759400  1
  Si  Si15  1  0.00051900  0.02988100  0.14240600  1
  Sn  Sn16  1  0.00000000  0.50000000  0.50000000  1
  Sn  Sn17  1  0.00000000  0.50000000  0.00000000  1
  Sn  Sn18  1  0.50000000  0.00000000  0.50000000  1
  Sn  Sn19  1  0.50000000  0.00000000  0.00000000  1
  O  O20  1  0.79482900  0.48811200  0.61663900  1
  O  O21  1  0.79482900  0.51188800  0.88336100  1
  O  O22  1  0.70517100  0.01188800  0.61663900  1
  O  O23  1  0.70517100  0.98811200  0.88336100  1
  O  O24  1  0.20517100  0.51188800  0.38336100  1
  O  O25  1  0.20517100  0.48811200  0.11663900  1
  O  O26  1  0.29482900  0.98811200  0.38336100  1
  O  O27  1  0.29482900  0.01188800  0.11663900  1
  O  O28  1  0.41118100  0.33681500  0.63081400  1
  O  O29  1  0.41118100  0.66318500  0.86918600  1
  O  O30  1  0.08881900  0.16318500  0.63081400  1
  O  O31  1  0.08881900  0.83681500  0.86918600  1
  O  O32  1  0.58881900  0.66318500  0.36918600  1
  O  O33  1  0.58881900  0.33681500  0.13081400  1
  O  O34  1  0.91118100  0.83681500  0.36918600  1
  O  O35  1  0.91118100  0.16318500  0.13081400  1
  O  O36  1  0.31396400  0.44763600  0.91963700  1
  O  O37  1  0.31396400  0.55236400  0.58036300  1
  O  O38  1  0.18603600  0.05236400  0.91963700  1
  O  O39  1  0.18603600  0.94763600  0.58036300  1
  O  O40  1  0.68603600  0.55236400  0.08036300  1
  O  O41  1  0.68603600  0.44763600  0.41963700  1
  O  O42  1  0.81396400  0.94763600  0.08036300  1
  O  O43  1  0.81396400  0.05236400  0.41963700  1
  O  O44  1  0.05869900  0.32281200  0.50105700  1
  O  O45  1  0.05869900  0.67718800  0.99894300  1
  O  O46  1  0.44130100  0.17718800  0.50105700  1
  O  O47  1  0.44130100  0.82281200  0.99894300  1
  O  O48  1  0.94130100  0.67718800  0.49894300  1
  O  O49  1  0.94130100  0.32281200  0.00105700  1
  O  O50  1  0.55869900  0.82281200  0.49894300  1
  O  O51  1  0.55869900  0.17718800  0.00105700  1
  O  O52  1  0.83640000  0.28537400  0.78897900  1
  O  O53  1  0.83640000  0.71462600  0.71102100  1
  O  O54  1  0.66360000  0.21462600  0.78897900  1
  O  O55  1  0.66360000  0.78537400  0.71102100  1
  O  O56  1  0.16360000  0.71462600  0.21102100  1
  O  O57  1  0.16360000  0.28537400  0.28897900  1
  O  O58  1  0.33640000  0.78537400  0.21102100  1
  O  O59  1  0.33640000  0.21462600  0.28897900  1
  O  O60  1  0.45633600  0.50000000  0.75000000  1
  O  O61  1  0.04366400  0.00000000  0.75000000  1
  O  O62  1  0.54366400  0.50000000  0.25000000  1
  O  O63  1  0.95633600  0.00000000  0.25000000  1
