# generated using pymatgen
data_CaV2P2(H4O7)2
_symmetry_space_group_name_H-M   'P 1'
_cell_length_a   6.42300600
_cell_length_b   6.45653822
_cell_length_c   6.75100633
_cell_angle_alpha   92.97746273
_cell_angle_beta   109.06323312
_cell_angle_gamma   90.11593982
_symmetry_Int_Tables_number   1
_chemical_formula_structural   CaV2P2(H4O7)2
_chemical_formula_sum   'Ca1 V2 P2 H8 O14'
_cell_volume   264.20238025
_cell_formula_units_Z   1
loop_
 _symmetry_equiv_pos_site_id
 _symmetry_equiv_pos_as_xyz
  1  'x, y, z'
loop_
 _atom_site_type_symbol
 _atom_site_label
 _atom_site_symmetry_multiplicity
 _atom_site_fract_x
 _atom_site_fract_y
 _atom_site_fract_z
 _atom_site_occupancy
  Ca  Ca0  1  0.08389300  0.35525300  0.49406000  1
  V  V1  1  0.14644400  0.65178200  0.05726700  1
  V  V2  1  0.57690900  0.14655900  0.88419100  1
  P  P3  1  0.60785100  0.65173100  0.96377600  1
  P  P4  1  0.10686200  0.15331100  0.98432700  1
  H  H5  1  0.10746600  0.78472900  0.42997200  1
  H  H6  1  0.35175200  0.72845200  0.55465600  1
  H  H7  1  0.53600100  0.24813100  0.46582200  1
  H  H8  1  0.37218000  0.05612200  0.37619500  1
  H  H9  1  0.62237300  0.52889600  0.34208600  1
  H  H10  1  0.69202600  0.50987500  0.59537700  1
  H  H11  1  0.83094400  0.96077000  0.48873700  1
  H  H12  1  0.07192600  0.99775800  0.63910800  1
  O  O13  1  0.07903600  0.60896800  0.80056500  1
  O  O14  1  0.47899300  0.64233300  0.12367600  1
  O  O15  1  0.18459000  0.96338900  0.11809700  1
  O  O16  1  0.85295600  0.67095800  0.09833900  1
  O  O17  1  0.14401200  0.34741500  0.13911800  1
  O  O18  1  0.22456100  0.67967800  0.43024500  1
  O  O19  1  0.66290400  0.16215000  0.14028200  1
  O  O20  1  0.24246300  0.17151100  0.82987700  1
  O  O21  1  0.53138600  0.83398400  0.81576100  1
  O  O22  1  0.56094400  0.45335900  0.81268900  1
  O  O23  1  0.86713700  0.13076500  0.83624200  1
  O  O24  1  0.43410700  0.15107900  0.50287800  1
  O  O25  1  0.71264900  0.45093500  0.46574000  1
  O  O26  1  0.98083400  0.98190500  0.48801800  1
