# generated using pymatgen
data_CaAl(OF2)2
_symmetry_space_group_name_H-M   'P 1'
_cell_length_a   4.97771800
_cell_length_b   6.81246392
_cell_length_c   7.06145267
_cell_angle_alpha   97.85664078
_cell_angle_beta   93.78255747
_cell_angle_gamma   108.87985067
_symmetry_Int_Tables_number   1
_chemical_formula_structural   CaAl(OF2)2
_chemical_formula_sum   'Ca2 Al2 O4 F8'
_cell_volume   222.89104984
_cell_formula_units_Z   2
loop_
 _symmetry_equiv_pos_site_id
 _symmetry_equiv_pos_as_xyz
  1  'x, y, z'
loop_
 _atom_site_type_symbol
 _atom_site_label
 _atom_site_symmetry_multiplicity
 _atom_site_fract_x
 _atom_site_fract_y
 _atom_site_fract_z
 _atom_site_occupancy
  Ca  Ca0  1  0.64547000  0.64136700  0.76713700  1
  Ca  Ca1  1  0.35453000  0.35863300  0.23286300  1
  Al  Al2  1  0.01223400  0.20728800  0.70221500  1
  Al  Al3  1  0.98776600  0.79271200  0.29778500  1
  O  O4  1  0.18067100  0.72875800  0.78399000  1
  O  O5  1  0.81932900  0.27124200  0.21601000  1
  O  O6  1  0.87025500  0.01113200  0.45567100  1
  O  O7  1  0.12974500  0.98886800  0.54432900  1
  F  F8  1  0.77852900  0.34861700  0.71822100  1
  F  F9  1  0.22147100  0.65138300  0.28177900  1
  F  F10  1  0.80558300  0.00088700  0.81586100  1
  F  F11  1  0.19441700  0.99911300  0.18413900  1
  F  F12  1  0.27408600  0.33029900  0.90322500  1
  F  F13  1  0.72591400  0.66970100  0.09677500  1
  F  F14  1  0.75125700  0.61405800  0.43810900  1
  F  F15  1  0.24874300  0.38594200  0.56189100  1
