# generated using pymatgen
data_C3NClO
_symmetry_space_group_name_H-M   'P 1'
_cell_length_a   6.84570000
_cell_length_b   7.12512100
_cell_length_c   12.06501600
_cell_angle_alpha   90.00000000
_cell_angle_beta   90.00000000
_cell_angle_gamma   90.00000000
_symmetry_Int_Tables_number   1
_chemical_formula_structural   C3NClO
_chemical_formula_sum   'C12 N4 Cl4 O4'
_cell_volume   588.48853903
_cell_formula_units_Z   4
loop_
 _symmetry_equiv_pos_site_id
 _symmetry_equiv_pos_as_xyz
  1  'x, y, z'
loop_
 _atom_site_type_symbol
 _atom_site_label
 _atom_site_symmetry_multiplicity
 _atom_site_fract_x
 _atom_site_fract_y
 _atom_site_fract_z
 _atom_site_occupancy
  C  C0  1  0.23415500  0.75000000  0.59328700  1
  C  C1  1  0.26584500  0.75000000  0.09328700  1
  C  C2  1  0.76584500  0.25000000  0.40671300  1
  C  C3  1  0.73415500  0.25000000  0.90671300  1
  C  C4  1  0.81505500  0.89107500  0.61021700  1
  C  C5  1  0.68494500  0.60892500  0.11021700  1
  C  C6  1  0.18494500  0.39107500  0.38978300  1
  C  C7  1  0.31505500  0.10892500  0.88978300  1
  C  C8  1  0.18494500  0.10892500  0.38978300  1
  C  C9  1  0.31505500  0.39107500  0.88978300  1
  C  C10  1  0.81505500  0.60892500  0.61021700  1
  C  C11  1  0.68494500  0.89107500  0.11021700  1
  N  N12  1  0.78528900  0.75000000  0.67870300  1
  N  N13  1  0.71471100  0.75000000  0.17870300  1
  N  N14  1  0.21471100  0.25000000  0.32129700  1
  N  N15  1  0.28528900  0.25000000  0.82129700  1
  Cl  Cl16  1  0.76078300  0.75000000  0.95978100  1
  Cl  Cl17  1  0.73921700  0.75000000  0.45978100  1
  Cl  Cl18  1  0.23921700  0.25000000  0.04021900  1
  Cl  Cl19  1  0.26078300  0.25000000  0.54021900  1
  O  O20  1  0.31734700  0.75000000  0.67538000  1
  O  O21  1  0.18265300  0.75000000  0.17538000  1
  O  O22  1  0.68265300  0.25000000  0.32462000  1
  O  O23  1  0.81734700  0.25000000  0.82462000  1
