# generated using pymatgen
data_CO2
_symmetry_space_group_name_H-M   'P 1'
_cell_length_a   3.76681700
_cell_length_b   5.58326400
_cell_length_c   10.99466700
_cell_angle_alpha   90.00000000
_cell_angle_beta   90.00000000
_cell_angle_gamma   90.00000000
_symmetry_Int_Tables_number   1
_chemical_formula_structural   CO2
_chemical_formula_sum   'C4 O8'
_cell_volume   231.23031222
_cell_formula_units_Z   4
loop_
 _symmetry_equiv_pos_site_id
 _symmetry_equiv_pos_as_xyz
  1  'x, y, z'
loop_
 _atom_site_type_symbol
 _atom_site_label
 _atom_site_symmetry_multiplicity
 _atom_site_fract_x
 _atom_site_fract_y
 _atom_site_fract_z
 _atom_site_occupancy
  C  C0  1  0.23728200  0.10227700  0.66376000  1
  C  C1  1  0.76271800  0.60227700  0.33624000  1
  C  C2  1  0.73728200  0.60227700  0.83624000  1
  C  C3  1  0.26271800  0.10227700  0.16376000  1
  O  O4  1  0.32771100  0.04862200  0.56542100  1
  O  O5  1  0.67228900  0.54862200  0.43457900  1
  O  O6  1  0.82771100  0.54862200  0.93457900  1
  O  O7  1  0.17228900  0.04862200  0.06542100  1
  O  O8  1  0.14674200  0.15710000  0.76255000  1
  O  O9  1  0.85325800  0.65710000  0.23745000  1
  O  O10  1  0.64674200  0.65710000  0.73745000  1
  O  O11  1  0.35325800  0.15710000  0.26255000  1
