# generated using pymatgen
data_CuH8C2(NCl2)2
_symmetry_space_group_name_H-M   'P 1'
_cell_length_a   5.90779268
_cell_length_b   6.15485700
_cell_length_c   16.12801922
_cell_angle_alpha   90.00000000
_cell_angle_beta   109.34878919
_cell_angle_gamma   90.00000000
_symmetry_Int_Tables_number   1
_chemical_formula_structural   CuH8C2(NCl2)2
_chemical_formula_sum   'Cu2 H16 C4 N4 Cl8'
_cell_volume   553.31822104
_cell_formula_units_Z   2
loop_
 _symmetry_equiv_pos_site_id
 _symmetry_equiv_pos_as_xyz
  1  'x, y, z'
loop_
 _atom_site_type_symbol
 _atom_site_label
 _atom_site_symmetry_multiplicity
 _atom_site_fract_x
 _atom_site_fract_y
 _atom_site_fract_z
 _atom_site_occupancy
  Cu  Cu0  1  0.50000000  0.50000000  0.00000000  1
  Cu  Cu1  1  0.00000000  0.00000000  0.00000000  1
  H  H2  1  0.29707700  0.90718100  0.17874900  1
  H  H3  1  0.20292300  0.40718200  0.82125100  1
  H  H4  1  0.70292300  0.09281900  0.82125100  1
  H  H5  1  0.79707700  0.59281900  0.17874900  1
  H  H6  1  0.20252200  0.43929000  0.37066200  1
  H  H7  1  0.29747800  0.93929000  0.62933800  1
  H  H8  1  0.79747800  0.56071000  0.62933800  1
  H  H9  1  0.70252200  0.06071000  0.37066200  1
  H  H10  1  0.16773500  0.75437600  0.36872800  1
  H  H11  1  0.33226500  0.25437600  0.63127200  1
  H  H12  1  0.83226500  0.24562400  0.63127200  1
  H  H13  1  0.66773500  0.74562400  0.36872800  1
  H  H14  1  0.05897200  0.49582000  0.51838900  1
  H  H15  1  0.44102800  0.99582000  0.48161100  1
  H  H16  1  0.94102800  0.50418000  0.48161100  1
  H  H17  1  0.55897200  0.00418000  0.51838900  1
  C  C18  1  0.30960900  0.58625100  0.36991000  1
  C  C19  1  0.19039100  0.08625100  0.63009000  1
  C  C20  1  0.69039100  0.41374900  0.63009000  1
  C  C21  1  0.80960900  0.91374900  0.36991000  1
  N  N22  1  0.01718600  0.92302200  0.37044200  1
  N  N23  1  0.48281400  0.42302200  0.62955800  1
  N  N24  1  0.98281400  0.07697800  0.62955800  1
  N  N25  1  0.51718600  0.57697800  0.37044200  1
  Cl  Cl26  1  0.75432000  0.41565700  0.21461100  1
  Cl  Cl27  1  0.74568000  0.91565700  0.78538900  1
  Cl  Cl28  1  0.24568000  0.58434300  0.78538900  1
  Cl  Cl29  1  0.25432000  0.08434300  0.21461100  1
  Cl  Cl30  1  0.76366300  0.30225800  0.95570600  1
  Cl  Cl31  1  0.73633700  0.80225800  0.04429400  1
  Cl  Cl32  1  0.23633700  0.69774200  0.04429400  1
  Cl  Cl33  1  0.26366300  0.19774200  0.95570600  1
