# generated using pymatgen
data_C2NCl
_symmetry_space_group_name_H-M   'P 1'
_cell_length_a   8.66222702
_cell_length_b   8.66222702
_cell_length_c   8.66222702
_cell_angle_alpha   137.58629471
_cell_angle_beta   106.62205322
_cell_angle_gamma   88.60463933
_symmetry_Int_Tables_number   1
_chemical_formula_structural   C2NCl
_chemical_formula_sum   'C8 N4 Cl4'
_cell_volume   402.13016877
_cell_formula_units_Z   4
loop_
 _symmetry_equiv_pos_site_id
 _symmetry_equiv_pos_as_xyz
  1  'x, y, z'
loop_
 _atom_site_type_symbol
 _atom_site_label
 _atom_site_symmetry_multiplicity
 _atom_site_fract_x
 _atom_site_fract_y
 _atom_site_fract_z
 _atom_site_occupancy
  C  C0  1  0.00100600  0.14826400  0.38810500  1
  C  C1  1  0.23984100  0.85173600  0.85274200  1
  C  C2  1  0.26015900  0.61290100  0.11189500  1
  C  C3  1  0.49899400  0.38709900  0.64725800  1
  C  C4  1  0.99899400  0.85173600  0.61189500  1
  C  C5  1  0.76015900  0.14826400  0.14725800  1
  C  C6  1  0.73984100  0.38709900  0.88810500  1
  C  C7  1  0.50100600  0.61290100  0.35274200  1
  N  N8  1  0.88076200  0.14663900  0.26587700  1
  N  N9  1  0.11923800  0.85336100  0.73412300  1
  N  N10  1  0.38076200  0.61488500  0.23412300  1
  N  N11  1  0.61923800  0.38511500  0.76587700  1
  Cl  Cl12  1  0.62769700  0.89824500  0.27054800  1
  Cl  Cl13  1  0.37230300  0.10175500  0.72945200  1
  Cl  Cl14  1  0.12769700  0.35714800  0.22945200  1
  Cl  Cl15  1  0.87230300  0.64285200  0.77054800  1
