# generated using pymatgen
data_BaAl2O6
_symmetry_space_group_name_H-M   'P 1'
_cell_length_a   9.86091628
_cell_length_b   9.61986952
_cell_length_c   5.58293055
_cell_angle_alpha   75.73184225
_cell_angle_beta   70.99008787
_cell_angle_gamma   33.27806988
_symmetry_Int_Tables_number   1
_chemical_formula_structural   BaAl2O6
_chemical_formula_sum   'Ba2 Al4 O12'
_cell_volume   274.40371287
_cell_formula_units_Z   2
loop_
 _symmetry_equiv_pos_site_id
 _symmetry_equiv_pos_as_xyz
  1  'x, y, z'
loop_
 _atom_site_type_symbol
 _atom_site_label
 _atom_site_symmetry_multiplicity
 _atom_site_fract_x
 _atom_site_fract_y
 _atom_site_fract_z
 _atom_site_occupancy
  Ba  Ba0  1  0.72573000  0.27427000  0.27427000  1
  Ba  Ba1  1  0.97573000  0.52427000  0.52427000  1
  Al  Al2  1  0.49441500  0.65549600  0.74944800  1
  Al  Al3  1  0.10064100  0.74944800  0.65549600  1
  Al  Al4  1  0.59450400  0.75558500  0.14935900  1
  Al  Al5  1  0.50055200  0.14935900  0.75558500  1
  O  O6  1  0.63842600  0.60673900  0.94253500  1
  O  O7  1  0.81230000  0.94253500  0.60673900  1
  O  O8  1  0.64326100  0.61157400  0.43770000  1
  O  O9  1  0.30746500  0.43770000  0.61157400  1
  O  O10  1  0.55536400  0.41632300  0.82705200  1
  O  O11  1  0.20126100  0.82705200  0.41632300  1
  O  O12  1  0.83367700  0.69463600  0.04873900  1
  O  O13  1  0.42294800  0.04873900  0.69463600  1
  O  O14  1  0.13859200  0.94037700  0.81722600  1
  O  O15  1  0.10380500  0.81722600  0.94037700  1
  O  O16  1  0.30962300  0.11140800  0.14619500  1
  O  O17  1  0.43277400  0.14619500  0.11140800  1
