# generated using pymatgen
data_CeVO4
_symmetry_space_group_name_H-M   'P 1'
_cell_length_a   6.24236161
_cell_length_b   7.06201160
_cell_length_c   8.45367700
_cell_angle_alpha   90.00000000
_cell_angle_beta   90.00000000
_cell_angle_gamma   121.00978918
_symmetry_Int_Tables_number   1
_chemical_formula_structural   CeVO4
_chemical_formula_sum   'Ce4 V4 O16'
_cell_volume   319.40668542
_cell_formula_units_Z   4
loop_
 _symmetry_equiv_pos_site_id
 _symmetry_equiv_pos_as_xyz
  1  'x, y, z'
loop_
 _atom_site_type_symbol
 _atom_site_label
 _atom_site_symmetry_multiplicity
 _atom_site_fract_x
 _atom_site_fract_y
 _atom_site_fract_z
 _atom_site_occupancy
  Ce  Ce0  1  0.34107900  0.27916800  0.15320500  1
  Ce  Ce1  1  0.65892100  0.72083200  0.84679500  1
  Ce  Ce2  1  0.84107900  0.77916800  0.34679500  1
  Ce  Ce3  1  0.15892100  0.22083200  0.65320500  1
  V  V4  1  0.65982100  0.23626600  0.84797100  1
  V  V5  1  0.84017900  0.26373400  0.34797100  1
  V  V6  1  0.15982100  0.73626600  0.65202900  1
  V  V7  1  0.34017900  0.76373400  0.15202900  1
  O  O8  1  0.85595300  0.28060200  0.55369000  1
  O  O9  1  0.58573700  0.65148100  0.12309300  1
  O  O10  1  0.08573700  0.15148100  0.37690700  1
  O  O11  1  0.10825500  0.46029100  0.20398100  1
  O  O12  1  0.36697800  0.59884700  0.65902800  1
  O  O13  1  0.60825500  0.96029100  0.29601900  1
  O  O14  1  0.91426300  0.84851900  0.62309300  1
  O  O15  1  0.13302200  0.90115300  0.15902800  1
  O  O16  1  0.41426300  0.34851900  0.87690700  1
  O  O17  1  0.86697800  0.09884700  0.84097200  1
  O  O18  1  0.64404700  0.21939800  0.05369000  1
  O  O19  1  0.39174500  0.03970900  0.70398100  1
  O  O20  1  0.89174500  0.53970900  0.79601900  1
  O  O21  1  0.14404700  0.71939800  0.44631000  1
  O  O22  1  0.35595300  0.78060200  0.94631000  1
  O  O23  1  0.63302200  0.40115300  0.34097200  1
