# generated using pymatgen
data_CaO10
_symmetry_space_group_name_H-M   'P 1'
_cell_length_a   5.49037700
_cell_length_b   5.49037700
_cell_length_c   10.36595800
_cell_angle_alpha   90.00000000
_cell_angle_beta   90.00000000
_cell_angle_gamma   90.00000000
_symmetry_Int_Tables_number   1
_chemical_formula_structural   CaO10
_chemical_formula_sum   'Ca2 O20'
_cell_volume   312.47392166
_cell_formula_units_Z   2
loop_
 _symmetry_equiv_pos_site_id
 _symmetry_equiv_pos_as_xyz
  1  'x, y, z'
loop_
 _atom_site_type_symbol
 _atom_site_label
 _atom_site_symmetry_multiplicity
 _atom_site_fract_x
 _atom_site_fract_y
 _atom_site_fract_z
 _atom_site_occupancy
  Ca  Ca0  1  0.00000000  0.00000000  0.50000000  1
  Ca  Ca1  1  0.00000000  0.00000000  0.00000000  1
  O  O2  1  0.50000000  0.50000000  0.44097200  1
  O  O3  1  0.50000000  0.50000000  0.94097200  1
  O  O4  1  0.50000000  0.50000000  0.55902800  1
  O  O5  1  0.50000000  0.50000000  0.05902800  1
  O  O6  1  0.06118600  0.40109500  0.39682400  1
  O  O7  1  0.93881400  0.59890500  0.39682400  1
  O  O8  1  0.59890500  0.06118600  0.39682400  1
  O  O9  1  0.40109500  0.93881400  0.39682400  1
  O  O10  1  0.93881400  0.40109500  0.89682400  1
  O  O11  1  0.06118600  0.59890500  0.89682400  1
  O  O12  1  0.40109500  0.06118600  0.89682400  1
  O  O13  1  0.59890500  0.93881400  0.89682400  1
  O  O14  1  0.93881400  0.59890500  0.60317600  1
  O  O15  1  0.06118600  0.40109500  0.60317600  1
  O  O16  1  0.40109500  0.93881400  0.60317600  1
  O  O17  1  0.59890500  0.06118600  0.60317600  1
  O  O18  1  0.06118600  0.59890500  0.10317600  1
  O  O19  1  0.93881400  0.40109500  0.10317600  1
  O  O20  1  0.59890500  0.93881400  0.10317600  1
  O  O21  1  0.40109500  0.06118600  0.10317600  1
