# generated using pymatgen
data_CoP3H16N4O11
_symmetry_space_group_name_H-M   'P 1'
_cell_length_a   11.16569300
_cell_length_b   8.50338800
_cell_length_c   8.57201521
_cell_angle_alpha   79.42194158
_cell_angle_beta   90.00000000
_cell_angle_gamma   90.00000000
_symmetry_Int_Tables_number   1
_chemical_formula_structural   CoP3H16N4O11
_chemical_formula_sum   'Co2 P6 H32 N8 O22'
_cell_volume   800.04913032
_cell_formula_units_Z   2
loop_
 _symmetry_equiv_pos_site_id
 _symmetry_equiv_pos_as_xyz
  1  'x, y, z'
loop_
 _atom_site_type_symbol
 _atom_site_label
 _atom_site_symmetry_multiplicity
 _atom_site_fract_x
 _atom_site_fract_y
 _atom_site_fract_z
 _atom_site_occupancy
  Co  Co0  1  0.00874300  0.79615000  0.62742900  1
  Co  Co1  1  0.50874300  0.20385000  0.37257100  1
  P  P2  1  0.99520000  0.34005800  0.22254200  1
  P  P3  1  0.49520000  0.65994200  0.77745800  1
  P  P4  1  0.95191500  0.16850400  0.54815400  1
  P  P5  1  0.45191500  0.83149600  0.45184600  1
  P  P6  1  0.16077400  0.07093000  0.75902000  1
  P  P7  1  0.66077400  0.92907000  0.24098000  1
  H  H8  1  0.03486700  0.82136400  0.11065400  1
  H  H9  1  0.53486700  0.17863600  0.88934600  1
  H  H10  1  0.91425300  0.60350700  0.86248700  1
  H  H11  1  0.41425300  0.39649300  0.13751300  1
  H  H12  1  0.79669200  0.84898500  0.89314000  1
  H  H13  1  0.29669200  0.15101500  0.10686000  1
  H  H14  1  0.03867600  0.45713200  0.42000800  1
  H  H15  1  0.53867600  0.54286800  0.57999200  1
  H  H16  1  0.15864500  0.60171100  0.78015900  1
  H  H17  1  0.65864500  0.39828900  0.21984100  1
  H  H18  1  0.04496300  0.46759900  0.75237000  1
  H  H19  1  0.54496300  0.53240100  0.24763000  1
  H  H20  1  0.86072900  0.55755400  0.55246300  1
  H  H21  1  0.36072900  0.44244600  0.44753700  1
  H  H22  1  0.83800800  0.73570700  0.43596000  1
  H  H23  1  0.33800800  0.26429300  0.56404000  1
  H  H24  1  0.77796700  0.69406400  0.61340000  1
  H  H25  1  0.27796700  0.30593600  0.38660000  1
  H  H26  1  0.99135800  0.82719100  0.17633200  1
  H  H27  1  0.49135800  0.17280900  0.82366800  1
  H  H28  1  0.13407800  0.72044800  0.39036400  1
  H  H29  1  0.63407800  0.27955200  0.60963600  1
  H  H30  1  0.13978300  0.91139900  0.40281400  1
  H  H31  1  0.63978300  0.08860100  0.59718600  1
  H  H32  1  0.26864300  0.77109000  0.07176300  1
  H  H33  1  0.76864300  0.22891000  0.92823700  1
  H  H34  1  0.19563000  0.61356600  0.12014800  1
  H  H35  1  0.69563000  0.38643400  0.87985200  1
  H  H36  1  0.82911200  0.38208200  0.08187000  1
  H  H37  1  0.32911200  0.61791800  0.91813000  1
  H  H38  1  0.08858400  0.16412500  0.97021500  1
  H  H39  1  0.58858400  0.83587500  0.02978500  1
  N  N40  1  0.99396600  0.66502500  0.84351500  1
  N  N41  1  0.49396600  0.33497500  0.15648500  1
  N  N42  1  0.06914300  0.57950800  0.76962500  1
  N  N43  1  0.56914300  0.42049200  0.23037500  1
  N  N44  1  0.85422700  0.67854000  0.55204500  1
  N  N45  1  0.35422700  0.32146000  0.44795500  1
  N  N46  1  0.09250500  0.80771100  0.43768900  1
  N  N47  1  0.59250500  0.19228900  0.56231100  1
  O  O48  1  0.06650400  0.31390600  0.08315000  1
  O  O49  1  0.56650400  0.68609400  0.91685000  1
  O  O50  1  0.86648200  0.41075800  0.18188300  1
  O  O51  1  0.36648200  0.58924200  0.81811700  1
  O  O52  1  0.06339300  0.46658000  0.30875800  1
  O  O53  1  0.56339300  0.53342000  0.69124200  1
  O  O54  1  0.98233100  0.18337600  0.35564900  1
  O  O55  1  0.48233100  0.81662400  0.64435100  1
  O  O56  1  0.90731000  0.99940500  0.60227600  1
  O  O57  1  0.40731000  0.00059500  0.39772400  1
  O  O58  1  0.87919900  0.31012600  0.57011200  1
  O  O59  1  0.37919900  0.68987400  0.42988800  1
  O  O60  1  0.08483900  0.18964600  0.61447300  1
  O  O61  1  0.58483900  0.81035400  0.38552700  1
  O  O62  1  0.08137300  0.07288200  0.91283100  1
  O  O63  1  0.58137300  0.92711800  0.08716900  1
  O  O64  1  0.28007000  0.14765100  0.76143200  1
  O  O65  1  0.78007000  0.85234900  0.23856800  1
  O  O66  1  0.15092200  0.90268500  0.72389100  1
  O  O67  1  0.65092200  0.09731500  0.27610900  1
  O  O68  1  0.27181900  0.65594900  0.07455000  1
  O  O69  1  0.77181900  0.34405100  0.92545000  1
