# generated using pymatgen
data_KNa4Te2PdO22
_symmetry_space_group_name_H-M   'P 1'
_cell_length_a   7.40569800
_cell_length_b   11.36779997
_cell_length_c   11.75216740
_cell_angle_alpha   94.48044224
_cell_angle_beta   91.30378257
_cell_angle_gamma   104.65305858
_symmetry_Int_Tables_number   1
_chemical_formula_structural   KNa4Te2PdO22
_chemical_formula_sum   'K2 Na8 Te4 Pd2 O44'
_cell_volume   953.34208564
_cell_formula_units_Z   2
loop_
 _symmetry_equiv_pos_site_id
 _symmetry_equiv_pos_as_xyz
  1  'x, y, z'
loop_
 _atom_site_type_symbol
 _atom_site_label
 _atom_site_symmetry_multiplicity
 _atom_site_fract_x
 _atom_site_fract_y
 _atom_site_fract_z
 _atom_site_occupancy
  K  K0  1  0.72083900  0.08026800  0.70276400  1
  K  K1  1  0.27916100  0.91973200  0.29723600  1
  Na  Na2  1  0.41223200  0.46541700  0.74478100  1
  Na  Na3  1  0.58776800  0.53458300  0.25521900  1
  Na  Na4  1  0.17336100  0.97662900  0.63545700  1
  Na  Na5  1  0.82663900  0.02337100  0.36454300  1
  Na  Na6  1  0.39611200  0.85199800  0.84924900  1
  Na  Na7  1  0.60388800  0.14800200  0.15075100  1
  Na  Na8  1  0.87676800  0.46804900  0.79567800  1
  Na  Na9  1  0.12323200  0.53195100  0.20432200  1
  Te  Te10  1  0.81528600  0.73946700  0.67733100  1
  Te  Te11  1  0.18471400  0.26053300  0.32266900  1
  Te  Te12  1  0.28473200  0.14377000  0.88214800  1
  Te  Te13  1  0.71526800  0.85623000  0.11785200  1
  Pd  Pd14  1  0.93482100  0.91479800  0.89005500  1
  Pd  Pd15  1  0.06517900  0.08520200  0.10994500  1
  O  O16  1  0.85757000  0.84601400  0.55769000  1
  O  O17  1  0.14243000  0.15398600  0.44231000  1
  O  O18  1  0.46422200  0.68998300  0.59445300  1
  O  O19  1  0.53577800  0.31001700  0.40554700  1
  O  O20  1  0.88787200  0.61425900  0.58690800  1
  O  O21  1  0.11212800  0.38574100  0.41309200  1
  O  O22  1  0.69637800  0.59983300  0.75255000  1
  O  O23  1  0.30362200  0.40016700  0.24745000  1
  O  O24  1  0.70718400  0.84848200  0.77848700  1
  O  O25  1  0.29281600  0.15151800  0.22151300  1
  O  O26  1  0.04205100  0.81043300  0.76994000  1
  O  O27  1  0.95794900  0.18956700  0.23006000  1
  O  O28  1  0.03914100  0.06286000  0.80215400  1
  O  O29  1  0.96085900  0.93714000  0.19784600  1
  O  O30  1  0.17197600  0.99030800  0.98656500  1
  O  O31  1  0.82802400  0.00969200  0.01343500  1
  O  O32  1  0.16231700  0.21834900  0.00948200  1
  O  O33  1  0.83768300  0.78165100  0.99051800  1
  O  O34  1  0.39585100  0.03831000  0.79115800  1
  O  O35  1  0.60414900  0.96169000  0.20884200  1
  O  O36  1  0.33081400  0.27909000  0.79850100  1
  O  O37  1  0.66918600  0.72091000  0.20149900  1
  O  O38  1  0.49866200  0.18729400  0.98377500  1
  O  O39  1  0.50133800  0.81270600  0.01622500  1
  O  O40  1  0.21538800  0.46768100  0.91896900  1
  O  O41  1  0.78461200  0.53231900  0.08103100  1
  O  O42  1  0.08138900  0.39074400  0.63275100  1
  O  O43  1  0.91861100  0.60925600  0.36724900  1
  O  O44  1  0.56139300  0.37562500  0.58019400  1
  O  O45  1  0.43860700  0.62437500  0.41980600  1
  O  O46  1  0.12453600  0.62736600  0.90694300  1
  O  O47  1  0.87546400  0.37263400  0.09305700  1
  O  O48  1  0.39702900  0.77697000  0.57005400  1
  O  O49  1  0.60297100  0.22303000  0.42994600  1
  O  O50  1  0.35897000  0.06671000  0.48932400  1
  O  O51  1  0.64103000  0.93329000  0.51067600  1
  O  O52  1  0.83890700  0.34204100  0.98934200  1
  O  O53  1  0.16109300  0.65795900  0.01065800  1
  O  O54  1  0.63491000  0.29287000  0.60380200  1
  O  O55  1  0.36509000  0.70713000  0.39619800  1
  O  O56  1  0.73646500  0.50290300  0.97875100  1
  O  O57  1  0.26353500  0.49709700  0.02124900  1
  O  O58  1  0.04633400  0.28350300  0.65969300  1
  O  O59  1  0.95366600  0.71649700  0.34030700  1
