# generated using pymatgen
data_BaCu3O4
_symmetry_space_group_name_H-M   'P 1'
_cell_length_a   5.03947600
_cell_length_b   5.91198955
_cell_length_c   6.82146223
_cell_angle_alpha   115.67955792
_cell_angle_beta   90.00000000
_cell_angle_gamma   90.00000000
_symmetry_Int_Tables_number   1
_chemical_formula_structural   BaCu3O4
_chemical_formula_sum   'Ba1 Cu3 O4'
_cell_volume   183.16098482
_cell_formula_units_Z   1
loop_
 _symmetry_equiv_pos_site_id
 _symmetry_equiv_pos_as_xyz
  1  'x, y, z'
loop_
 _atom_site_type_symbol
 _atom_site_label
 _atom_site_symmetry_multiplicity
 _atom_site_fract_x
 _atom_site_fract_y
 _atom_site_fract_z
 _atom_site_occupancy
  Ba  Ba0  1  0.00000000  0.50000000  0.00000000  1
  Cu  Cu1  1  0.00000000  0.74554600  0.49109300  1
  Cu  Cu2  1  0.00000000  0.25445400  0.50890700  1
  Cu  Cu3  1  0.00000000  0.00000000  0.00000000  1
  O  O4  1  0.00000000  0.62922200  0.70620800  1
  O  O5  1  0.00000000  0.07698600  0.70620800  1
  O  O6  1  0.00000000  0.92301400  0.29379200  1
  O  O7  1  0.00000000  0.37077800  0.29379200  1
