# generated using pymatgen
data_BaClO3
_symmetry_space_group_name_H-M   'P 1'
_cell_length_a   4.08016200
_cell_length_b   4.08974800
_cell_length_c   12.11870887
_cell_angle_alpha   89.76972807
_cell_angle_beta   90.00000000
_cell_angle_gamma   90.00000000
_symmetry_Int_Tables_number   1
_chemical_formula_structural   BaClO3
_chemical_formula_sum   'Ba2 Cl2 O6'
_cell_volume   202.22125466
_cell_formula_units_Z   2
loop_
 _symmetry_equiv_pos_site_id
 _symmetry_equiv_pos_as_xyz
  1  'x, y, z'
loop_
 _atom_site_type_symbol
 _atom_site_label
 _atom_site_symmetry_multiplicity
 _atom_site_fract_x
 _atom_site_fract_y
 _atom_site_fract_z
 _atom_site_occupancy
  Ba  Ba0  1  0.75000000  0.26287000  0.69904500  1
  Ba  Ba1  1  0.25000000  0.73713000  0.30095500  1
  Cl  Cl2  1  0.25000000  0.73734200  0.89633400  1
  Cl  Cl3  1  0.75000000  0.26265800  0.10366600  1
  O  O4  1  0.75000000  0.76763200  0.55429700  1
  O  O5  1  0.25000000  0.22776700  0.55474000  1
  O  O6  1  0.25000000  0.23236800  0.44570300  1
  O  O7  1  0.75000000  0.77223300  0.44526000  1
  O  O8  1  0.25000000  0.76323500  0.75481000  1
  O  O9  1  0.75000000  0.23676500  0.24519000  1
