# generated using pymatgen
data_CaB3O8
_symmetry_space_group_name_H-M   'P 1'
_cell_length_a   11.53694700
_cell_length_b   5.95058000
_cell_length_c   8.67086665
_cell_angle_alpha   71.31703124
_cell_angle_beta   90.00000000
_cell_angle_gamma   90.00000000
_symmetry_Int_Tables_number   1
_chemical_formula_structural   CaB3O8
_chemical_formula_sum   'Ca4 B12 O32'
_cell_volume   563.90088915
_cell_formula_units_Z   4
loop_
 _symmetry_equiv_pos_site_id
 _symmetry_equiv_pos_as_xyz
  1  'x, y, z'
loop_
 _atom_site_type_symbol
 _atom_site_label
 _atom_site_symmetry_multiplicity
 _atom_site_fract_x
 _atom_site_fract_y
 _atom_site_fract_z
 _atom_site_occupancy
  Ca  Ca0  1  0.20869800  0.27530500  0.63579200  1
  Ca  Ca1  1  0.70869800  0.72469500  0.86420800  1
  Ca  Ca2  1  0.79130200  0.72469500  0.36420800  1
  Ca  Ca3  1  0.29130200  0.27530500  0.13579200  1
  B  B4  1  0.28900000  0.69739000  0.83292100  1
  B  B5  1  0.78900000  0.30261000  0.66707900  1
  B  B6  1  0.71100000  0.30261000  0.16707900  1
  B  B7  1  0.21100000  0.69739000  0.33292100  1
  B  B8  1  0.45334700  0.51634100  0.71918900  1
  B  B9  1  0.95334700  0.48365900  0.78081100  1
  B  B10  1  0.54665300  0.48365900  0.28081100  1
  B  B11  1  0.04665300  0.51634100  0.21918900  1
  B  B12  1  0.33275800  0.85307200  0.53725100  1
  B  B13  1  0.83275800  0.14692800  0.96274900  1
  B  B14  1  0.66724200  0.14692800  0.46274900  1
  B  B15  1  0.16724200  0.85307200  0.03725100  1
  O  O16  1  0.35521200  0.49733100  0.84212800  1
  O  O17  1  0.85521200  0.50266900  0.65787200  1
  O  O18  1  0.64478800  0.50266900  0.15787200  1
  O  O19  1  0.14478800  0.49733100  0.34212800  1
  O  O20  1  0.27777700  0.87898700  0.68951000  1
  O  O21  1  0.77777700  0.12101300  0.81049000  1
  O  O22  1  0.72222300  0.12101300  0.31049000  1
  O  O23  1  0.22222300  0.87898700  0.18951000  1
  O  O24  1  0.44398400  0.73479800  0.57999000  1
  O  O25  1  0.94398400  0.26520200  0.92001000  1
  O  O26  1  0.55601600  0.26520200  0.42001000  1
  O  O27  1  0.05601600  0.73479800  0.07999000  1
  O  O28  1  0.24224500  0.68964900  0.97923500  1
  O  O29  1  0.74224500  0.31035100  0.52076500  1
  O  O30  1  0.75775500  0.31035100  0.02076500  1
  O  O31  1  0.25775500  0.68964900  0.47923500  1
  O  O32  1  0.56368000  0.49711100  0.79273200  1
  O  O33  1  0.06368000  0.50288900  0.70726800  1
  O  O34  1  0.43632000  0.50288900  0.20726800  1
  O  O35  1  0.93632000  0.49711100  0.29273200  1
  O  O36  1  0.43490800  0.31078300  0.66834500  1
  O  O37  1  0.93490800  0.68921700  0.83165500  1
  O  O38  1  0.56509200  0.68921700  0.33165500  1
  O  O39  1  0.06509200  0.31078300  0.16834500  1
  O  O40  1  0.32700200  0.07809600  0.41111600  1
  O  O41  1  0.82700200  0.92190400  0.08888400  1
  O  O42  1  0.67299800  0.92190400  0.58888400  1
  O  O43  1  0.17299800  0.07809600  0.91111600  1
  O  O44  1  0.01072900  0.04441400  0.55365200  1
  O  O45  1  0.51072900  0.95558600  0.94634800  1
  O  O46  1  0.98927100  0.95558600  0.44634800  1
  O  O47  1  0.48927100  0.04441400  0.05365200  1
