# generated using pymatgen
data_BaO2
_symmetry_space_group_name_H-M   'P 1'
_cell_length_a   8.34819980
_cell_length_b   7.95450900
_cell_length_c   7.08379764
_cell_angle_alpha   90.00000000
_cell_angle_beta   99.86055761
_cell_angle_gamma   90.00000000
_symmetry_Int_Tables_number   1
_chemical_formula_structural   BaO2
_chemical_formula_sum   'Ba8 O16'
_cell_volume   463.45637602
_cell_formula_units_Z   8
loop_
 _symmetry_equiv_pos_site_id
 _symmetry_equiv_pos_as_xyz
  1  'x, y, z'
loop_
 _atom_site_type_symbol
 _atom_site_label
 _atom_site_symmetry_multiplicity
 _atom_site_fract_x
 _atom_site_fract_y
 _atom_site_fract_z
 _atom_site_occupancy
  Ba  Ba0  1  0.86382600  0.11810600  0.27458400  1
  Ba  Ba1  1  0.36382600  0.38189400  0.77458400  1
  Ba  Ba2  1  0.13617400  0.88189400  0.72541600  1
  Ba  Ba3  1  0.63617400  0.61810600  0.22541600  1
  Ba  Ba4  1  0.33350400  0.03832000  0.26241900  1
  Ba  Ba5  1  0.83350400  0.46168000  0.76241900  1
  Ba  Ba6  1  0.66649600  0.96168000  0.73758100  1
  Ba  Ba7  1  0.16649600  0.53832000  0.23758100  1
  O  O8  1  0.63193400  0.92938100  0.36364300  1
  O  O9  1  0.13193400  0.57061900  0.86364300  1
  O  O10  1  0.36806600  0.07061900  0.63635700  1
  O  O11  1  0.86806600  0.42938100  0.13635700  1
  O  O12  1  0.06451000  0.83949100  0.33177800  1
  O  O13  1  0.56451000  0.66050900  0.83177800  1
  O  O14  1  0.93549000  0.16050900  0.66822200  1
  O  O15  1  0.43549000  0.33949100  0.16822200  1
  O  O16  1  0.93691200  0.86334600  0.02610000  1
  O  O17  1  0.43691200  0.63665400  0.52610000  1
  O  O18  1  0.06308800  0.13665400  0.97390000  1
  O  O19  1  0.56308800  0.36334600  0.47390000  1
  O  O20  1  0.34614300  0.73852500  0.02633200  1
  O  O21  1  0.84614300  0.76147500  0.52633200  1
  O  O22  1  0.65385700  0.26147500  0.97366800  1
  O  O23  1  0.15385800  0.23852500  0.47366800  1
