# generated using pymatgen
data_Er3Sn7
_symmetry_space_group_name_H-M   'P 1'
_cell_length_a   14.82589075
_cell_length_b   14.82589075
_cell_length_c   5.86071200
_cell_angle_alpha   90.00000000
_cell_angle_beta   90.00000000
_cell_angle_gamma   12.06518671
_symmetry_Int_Tables_number   1
_chemical_formula_structural   Er3Sn7
_chemical_formula_sum   'Er3 Sn7'
_cell_volume   269.27063318
_cell_formula_units_Z   1
loop_
 _symmetry_equiv_pos_site_id
 _symmetry_equiv_pos_as_xyz
  1  'x, y, z'
loop_
 _atom_site_type_symbol
 _atom_site_label
 _atom_site_symmetry_multiplicity
 _atom_site_fract_x
 _atom_site_fract_y
 _atom_site_fract_z
 _atom_site_occupancy
  Er  Er0  1  0.00000000  0.00000000  0.50000000  1
  Er  Er1  1  0.69743300  0.69743300  0.00000000  1
  Er  Er2  1  0.30256700  0.30256700  0.00000000  1
  Sn  Sn3  1  0.50000000  0.50000000  0.00000000  1
  Sn  Sn4  1  0.59843400  0.59843400  0.50000000  1
  Sn  Sn5  1  0.40156600  0.40156600  0.50000000  1
  Sn  Sn6  1  0.89973300  0.89973300  0.00000000  1
  Sn  Sn7  1  0.10026700  0.10026700  0.00000000  1
  Sn  Sn8  1  0.79899100  0.79899100  0.50000000  1
  Sn  Sn9  1  0.20100900  0.20100900  0.50000000  1
