# generated using pymatgen
data_Cd(ClO2)2
_symmetry_space_group_name_H-M   'P 1'
_cell_length_a   7.16670500
_cell_length_b   13.22810700
_cell_length_c   14.64912500
_cell_angle_alpha   90.00000000
_cell_angle_beta   90.00000000
_cell_angle_gamma   90.00000000
_symmetry_Int_Tables_number   1
_chemical_formula_structural   Cd(ClO2)2
_chemical_formula_sum   'Cd8 Cl16 O32'
_cell_volume   1388.76547776
_cell_formula_units_Z   8
loop_
 _symmetry_equiv_pos_site_id
 _symmetry_equiv_pos_as_xyz
  1  'x, y, z'
loop_
 _atom_site_type_symbol
 _atom_site_label
 _atom_site_symmetry_multiplicity
 _atom_site_fract_x
 _atom_site_fract_y
 _atom_site_fract_z
 _atom_site_occupancy
  Cd  Cd0  1  0.25145500  0.50602400  0.18374900  1
  Cd  Cd1  1  0.24854500  0.49397600  0.68374900  1
  Cd  Cd2  1  0.74854500  0.00602400  0.31625100  1
  Cd  Cd3  1  0.75145500  0.99397600  0.81625100  1
  Cd  Cd4  1  0.26231600  0.52015300  0.43501200  1
  Cd  Cd5  1  0.23768400  0.47984700  0.93501200  1
  Cd  Cd6  1  0.73768400  0.02015300  0.06498800  1
  Cd  Cd7  1  0.76231600  0.97984700  0.56498800  1
  Cl  Cl8  1  0.01174900  0.53800800  0.05885300  1
  Cl  Cl9  1  0.48825100  0.46199200  0.55885300  1
  Cl  Cl10  1  0.98825100  0.03800800  0.44114700  1
  Cl  Cl11  1  0.51174900  0.96199200  0.94114700  1
  Cl  Cl12  1  0.49272700  0.47804800  0.05803500  1
  Cl  Cl13  1  0.00727300  0.52195200  0.55803500  1
  Cl  Cl14  1  0.50727300  0.97804800  0.44196500  1
  Cl  Cl15  1  0.99272700  0.02195200  0.94196500  1
  Cl  Cl16  1  0.50198500  0.49822000  0.30737200  1
  Cl  Cl17  1  0.99801500  0.50178000  0.80737200  1
  Cl  Cl18  1  0.49801500  0.99822000  0.19262800  1
  Cl  Cl19  1  0.00198500  0.00178000  0.69262800  1
  Cl  Cl20  1  0.02546400  0.55985700  0.30932200  1
  Cl  Cl21  1  0.47453600  0.44014300  0.80932200  1
  Cl  Cl22  1  0.97453600  0.05985700  0.19067800  1
  Cl  Cl23  1  0.52546400  0.94014300  0.69067800  1
  O  O24  1  0.28859400  0.75881100  0.16604300  1
  O  O25  1  0.21140600  0.24118900  0.66604300  1
  O  O26  1  0.71140600  0.25881100  0.33395700  1
  O  O27  1  0.78859400  0.74118900  0.83395700  1
  O  O28  1  0.17244700  0.29057100  0.13342600  1
  O  O29  1  0.32755300  0.70942900  0.63342600  1
  O  O30  1  0.82755300  0.79057100  0.36657400  1
  O  O31  1  0.67244700  0.20942900  0.86657400  1
  O  O32  1  0.18282700  0.30140100  0.40066500  1
  O  O33  1  0.31717300  0.69859900  0.90066500  1
  O  O34  1  0.81717300  0.80140100  0.09933500  1
  O  O35  1  0.68282700  0.19859900  0.59933500  1
  O  O36  1  0.32799600  0.72044500  0.48283700  1
  O  O37  1  0.17200400  0.27955500  0.98283700  1
  O  O38  1  0.67200400  0.22044500  0.01716300  1
  O  O39  1  0.82799600  0.77955500  0.51716300  1
  O  O40  1  0.74571500  0.73285000  0.14395300  1
  O  O41  1  0.75428500  0.26715000  0.64395300  1
  O  O42  1  0.25428500  0.23285000  0.35604700  1
  O  O43  1  0.24571500  0.76715000  0.85604700  1
  O  O44  1  0.74847200  0.28365900  0.25079700  1
  O  O45  1  0.75152800  0.71634100  0.75079700  1
  O  O46  1  0.25152800  0.78365900  0.24920300  1
  O  O47  1  0.24847200  0.21634100  0.74920300  1
  O  O48  1  0.77496600  0.31488100  0.39848100  1
  O  O49  1  0.72503400  0.68511900  0.89848100  1
  O  O50  1  0.22503400  0.81488100  0.10151900  1
  O  O51  1  0.27496600  0.18511900  0.60151900  1
  O  O52  1  0.76688000  0.74723500  0.43913100  1
  O  O53  1  0.73312000  0.25276500  0.93913100  1
  O  O54  1  0.23312000  0.24723500  0.06086900  1
  O  O55  1  0.26688000  0.75276500  0.56086900  1
