# generated using pymatgen
data_Ca2Al3O8
_symmetry_space_group_name_H-M   'P 1'
_cell_length_a   7.96011361
_cell_length_b   7.96011361
_cell_length_c   12.24119400
_cell_angle_alpha   90.00000000
_cell_angle_beta   90.00000000
_cell_angle_gamma   112.69269895
_symmetry_Int_Tables_number   1
_chemical_formula_structural   Ca2Al3O8
_chemical_formula_sum   'Ca8 Al12 O32'
_cell_volume   715.59906661
_cell_formula_units_Z   4
loop_
 _symmetry_equiv_pos_site_id
 _symmetry_equiv_pos_as_xyz
  1  'x, y, z'
loop_
 _atom_site_type_symbol
 _atom_site_label
 _atom_site_symmetry_multiplicity
 _atom_site_fract_x
 _atom_site_fract_y
 _atom_site_fract_z
 _atom_site_occupancy
  Ca  Ca0  1  0.67415600  0.32584400  0.50000000  1
  Ca  Ca1  1  0.17415600  0.82584400  0.00000000  1
  Ca  Ca2  1  0.32584400  0.67415600  0.50000000  1
  Ca  Ca3  1  0.82584400  0.17415600  0.00000000  1
  Ca  Ca4  1  0.30469400  0.30469400  0.84642200  1
  Ca  Ca5  1  0.69530600  0.69530600  0.15357800  1
  Ca  Ca6  1  0.19530600  0.19530600  0.34642200  1
  Ca  Ca7  1  0.80469400  0.80469400  0.65357800  1
  Al  Al8  1  0.26545100  0.02701300  0.62120300  1
  Al  Al9  1  0.97298700  0.73454900  0.37879700  1
  Al  Al10  1  0.47298700  0.23454900  0.12120300  1
  Al  Al11  1  0.76545100  0.52701300  0.87879700  1
  Al  Al12  1  0.73454900  0.97298700  0.37879700  1
  Al  Al13  1  0.02701300  0.26545100  0.62120300  1
  Al  Al14  1  0.52701300  0.76545100  0.87879700  1
  Al  Al15  1  0.23454900  0.47298700  0.12120300  1
  Al  Al16  1  0.64192400  0.14192400  0.75000000  1
  Al  Al17  1  0.85807600  0.35807600  0.25000000  1
  Al  Al18  1  0.35807600  0.85807600  0.25000000  1
  Al  Al19  1  0.14192400  0.64192400  0.75000000  1
  O  O20  1  0.72389400  0.29322100  0.86271600  1
  O  O21  1  0.70677900  0.27610600  0.13728400  1
  O  O22  1  0.20677900  0.77610600  0.36271600  1
  O  O23  1  0.22389400  0.79322100  0.63728400  1
  O  O24  1  0.27610600  0.70677900  0.13728400  1
  O  O25  1  0.29322100  0.72389400  0.86271600  1
  O  O26  1  0.79322100  0.22389400  0.63728400  1
  O  O27  1  0.77610600  0.20677900  0.36271600  1
  O  O28  1  0.43062900  0.15417000  0.71711200  1
  O  O29  1  0.84583000  0.56937100  0.28288800  1
  O  O30  1  0.34583000  0.06937100  0.21711200  1
  O  O31  1  0.93062900  0.65417000  0.78288800  1
  O  O32  1  0.56937100  0.84583000  0.28288800  1
  O  O33  1  0.15417000  0.43062900  0.71711200  1
  O  O34  1  0.65417000  0.93062900  0.78288800  1
  O  O35  1  0.06937100  0.34583000  0.21711200  1
  O  O36  1  0.35630500  0.10860200  0.48816200  1
  O  O37  1  0.89139800  0.64369500  0.51183800  1
  O  O38  1  0.39139800  0.14369500  0.98816200  1
  O  O39  1  0.85630500  0.60860200  0.01183800  1
  O  O40  1  0.64369500  0.89139800  0.51183800  1
  O  O41  1  0.10860200  0.35630500  0.48816200  1
  O  O42  1  0.60860200  0.85630500  0.01183800  1
  O  O43  1  0.14369500  0.39139800  0.98816200  1
  O  O44  1  0.06398600  0.06398600  0.64771900  1
  O  O45  1  0.93601400  0.93601400  0.35228100  1
  O  O46  1  0.43601400  0.43601400  0.14771900  1
  O  O47  1  0.56398600  0.56398600  0.85228100  1
  O  O48  1  0.03042300  0.03042300  0.95008400  1
  O  O49  1  0.96957700  0.96957700  0.04991600  1
  O  O50  1  0.46957700  0.46957700  0.45008400  1
  O  O51  1  0.53042300  0.53042300  0.54991600  1
