# generated using pymatgen
data_Ca2Fe2(SiO3)5
_symmetry_space_group_name_H-M   'P 1'
_cell_length_a   6.69466400
_cell_length_b   7.50116896
_cell_length_c   11.87358788
_cell_angle_alpha   103.47878065
_cell_angle_beta   93.13714106
_cell_angle_gamma   93.78977499
_symmetry_Int_Tables_number   1
_chemical_formula_structural   Ca2Fe2(SiO3)5
_chemical_formula_sum   'Ca4 Fe4 Si10 O30'
_cell_volume   577.06104049
_cell_formula_units_Z   2
loop_
 _symmetry_equiv_pos_site_id
 _symmetry_equiv_pos_as_xyz
  1  'x, y, z'
loop_
 _atom_site_type_symbol
 _atom_site_label
 _atom_site_symmetry_multiplicity
 _atom_site_fract_x
 _atom_site_fract_y
 _atom_site_fract_z
 _atom_site_occupancy
  Ca  Ca0  1  0.83865500  0.71678100  0.04445500  1
  Ca  Ca1  1  0.16134500  0.28321900  0.95554500  1
  Ca  Ca2  1  0.70280900  0.26995000  0.48246900  1
  Ca  Ca3  1  0.29719100  0.73005000  0.51753100  1
  Fe  Fe4  1  0.93335900  0.90892000  0.35004900  1
  Fe  Fe5  1  0.06664100  0.09108000  0.64995100  1
  Fe  Fe6  1  0.81470500  0.44909600  0.76935200  1
  Fe  Fe7  1  0.18529500  0.55090400  0.23064800  1
  Si  Si8  1  0.42289600  0.96480800  0.31302900  1
  Si  Si9  1  0.57710400  0.03519200  0.68697100  1
  Si  Si10  1  0.34615400  0.78629500  0.05344500  1
  Si  Si11  1  0.65384600  0.21370500  0.94655500  1
  Si  Si12  1  0.11758400  0.82007100  0.83590400  1
  Si  Si13  1  0.88241600  0.17992900  0.16409600  1
  Si  Si14  1  0.31658300  0.47845300  0.71149200  1
  Si  Si15  1  0.68341700  0.52154700  0.28850800  1
  Si  Si16  1  0.20940300  0.30582700  0.44273000  1
  Si  Si17  1  0.79059700  0.69417300  0.55727000  1
  O  O18  1  0.38196800  0.18297200  0.37642800  1
  O  O19  1  0.61803200  0.81702800  0.62357200  1
  O  O20  1  0.64409200  0.95299100  0.37771200  1
  O  O21  1  0.35590800  0.04700900  0.62228800  1
  O  O22  1  0.23519300  0.83471700  0.34667600  1
  O  O23  1  0.76480700  0.16528300  0.65332400  1
  O  O24  1  0.41970800  0.94342700  0.17512900  1
  O  O25  1  0.58029200  0.05657300  0.82487100  1
  O  O26  1  0.17207400  0.63998700  0.08520100  1
  O  O27  1  0.82792600  0.36001300  0.91479900  1
  O  O28  1  0.52822100  0.69793000  0.99089400  1
  O  O29  1  0.47177900  0.30207000  0.00910600  1
  O  O30  1  0.25936500  0.69551100  0.74013900  1
  O  O31  1  0.74063500  0.30448900  0.25986100  1
  O  O32  1  0.92340100  0.69046300  0.85302900  1
  O  O33  1  0.07659900  0.30953700  0.14697100  1
  O  O34  1  0.06582800  0.00016300  0.78820000  1
  O  O35  1  0.93417200  0.99983700  0.21180000  1
  O  O36  1  0.53043900  0.44129600  0.76109800  1
  O  O37  1  0.46956100  0.55870400  0.23890200  1
  O  O38  1  0.12717000  0.35098700  0.74345500  1
  O  O39  1  0.87283000  0.64901300  0.25654500  1
  O  O40  1  0.32872200  0.42808200  0.56640500  1
  O  O41  1  0.67127800  0.57191800  0.43359500  1
  O  O42  1  0.02948100  0.16384400  0.46948100  1
  O  O43  1  0.97051900  0.83615600  0.53051900  1
  O  O44  1  0.14780900  0.46788400  0.38274000  1
  O  O45  1  0.85219100  0.53211600  0.61726000  1
  O  O46  1  0.22227800  0.90094800  0.96834300  1
  O  O47  1  0.77772200  0.09905200  0.03165700  1
