# generated using pymatgen
data_CuH9C4NO6
_symmetry_space_group_name_H-M   'P 1'
_cell_length_a   5.78188700
_cell_length_b   8.87558400
_cell_length_c   19.19536300
_cell_angle_alpha   90.00000000
_cell_angle_beta   90.00000000
_cell_angle_gamma   90.00000000
_symmetry_Int_Tables_number   1
_chemical_formula_structural   CuH9C4NO6
_chemical_formula_sum   'Cu4 H36 C16 N4 O24'
_cell_volume   985.06041612
_cell_formula_units_Z   4
loop_
 _symmetry_equiv_pos_site_id
 _symmetry_equiv_pos_as_xyz
  1  'x, y, z'
loop_
 _atom_site_type_symbol
 _atom_site_label
 _atom_site_symmetry_multiplicity
 _atom_site_fract_x
 _atom_site_fract_y
 _atom_site_fract_z
 _atom_site_occupancy
  Cu  Cu0  1  0.00000000  0.00000000  0.50000000  1
  Cu  Cu1  1  0.50000000  0.50000000  0.50000000  1
  Cu  Cu2  1  0.00000000  0.00000000  0.00000000  1
  Cu  Cu3  1  0.50000000  0.50000000  0.00000000  1
  H  H4  1  0.23407300  0.55935100  0.25000000  1
  H  H5  1  0.26592700  0.05935100  0.25000000  1
  H  H6  1  0.90064600  0.28034500  0.38758900  1
  H  H7  1  0.46405000  0.24035300  0.40181600  1
  H  H8  1  0.11175600  0.16968800  0.75000000  1
  H  H9  1  0.59099200  0.84995100  0.13433500  1
  H  H10  1  0.09935400  0.71965500  0.61241100  1
  H  H11  1  0.76592700  0.44064900  0.75000000  1
  H  H12  1  0.96405000  0.25964700  0.59818400  1
  H  H13  1  0.38824400  0.66968800  0.75000000  1
  H  H14  1  0.23034100  0.36491300  0.25000000  1
  H  H15  1  0.88824400  0.83031200  0.25000000  1
  H  H16  1  0.76965900  0.63508700  0.75000000  1
  H  H17  1  0.40064600  0.21965500  0.61241100  1
  H  H18  1  0.40900800  0.15004900  0.86566500  1
  H  H19  1  0.03595000  0.74035300  0.40181600  1
  H  H20  1  0.53595000  0.75964700  0.59818400  1
  H  H21  1  0.40064600  0.21965500  0.88758900  1
  H  H22  1  0.96405000  0.25964700  0.90181600  1
  H  H23  1  0.59935400  0.78034500  0.11241100  1
  H  H24  1  0.26965900  0.86491300  0.25000000  1
  H  H25  1  0.09935400  0.71965500  0.88758900  1
  H  H26  1  0.59099200  0.84995100  0.36566500  1
  H  H27  1  0.90900800  0.34995100  0.13433500  1
  H  H28  1  0.73407300  0.94064900  0.75000000  1
  H  H29  1  0.59935400  0.78034500  0.38758900  1
  H  H30  1  0.90900800  0.34995100  0.36566500  1
  H  H31  1  0.46405000  0.24035300  0.09818400  1
  H  H32  1  0.61175600  0.33031200  0.25000000  1
  H  H33  1  0.09099200  0.65004900  0.86566500  1
  H  H34  1  0.03595000  0.74035300  0.09818400  1
  H  H35  1  0.40900800  0.15004900  0.63433500  1
  H  H36  1  0.53595000  0.75964700  0.90181600  1
  H  H37  1  0.90064600  0.28034500  0.11241100  1
  H  H38  1  0.73034100  0.13508700  0.75000000  1
  H  H39  1  0.09099200  0.65004900  0.63433500  1
  C  C40  1  0.34149900  0.21448900  0.44465900  1
  C  C41  1  0.15850100  0.71448900  0.44465900  1
  C  C42  1  0.34149900  0.21448900  0.05534100  1
  C  C43  1  0.31951500  0.90429600  0.75000000  1
  C  C44  1  0.84149900  0.28551100  0.55534100  1
  C  C45  1  0.65850100  0.78551100  0.94465900  1
  C  C46  1  0.05466700  0.05135500  0.75000000  1
  C  C47  1  0.44533300  0.55135500  0.75000000  1
  C  C48  1  0.81951500  0.59570400  0.25000000  1
  C  C49  1  0.68048500  0.09570400  0.25000000  1
  C  C50  1  0.15850100  0.71448900  0.05534100  1
  C  C51  1  0.65850100  0.78551100  0.55534100  1
  C  C52  1  0.18048500  0.40429600  0.75000000  1
  C  C53  1  0.94533300  0.94864500  0.25000000  1
  C  C54  1  0.84149900  0.28551100  0.94465900  1
  C  C55  1  0.55466700  0.44864500  0.25000000  1
  N  N56  1  0.32419900  0.46082000  0.25000000  1
  N  N57  1  0.67580100  0.53918000  0.75000000  1
  N  N58  1  0.17580100  0.96082000  0.25000000  1
  N  N59  1  0.82419900  0.03918000  0.75000000  1
  O  O60  1  0.19674500  0.96238800  0.69729700  1
  O  O61  1  0.69674500  0.53761200  0.19729700  1
  O  O62  1  0.30325500  0.46238800  0.80270300  1
  O  O63  1  0.80325500  0.03761200  0.30270300  1
  O  O64  1  0.17709200  0.80723400  0.00538200  1
  O  O65  1  0.23232800  0.09101000  0.06169700  1
  O  O66  1  0.26767200  0.59101000  0.06169700  1
  O  O67  1  0.69674500  0.53761200  0.30270300  1
  O  O68  1  0.76767200  0.90899000  0.93830300  1
  O  O69  1  0.82290800  0.19276600  0.50538200  1
  O  O70  1  0.67709200  0.69276600  0.99461800  1
  O  O71  1  0.73232800  0.40899000  0.56169700  1
  O  O72  1  0.80325500  0.03761200  0.19729700  1
  O  O73  1  0.67709200  0.69276600  0.50538200  1
  O  O74  1  0.82290800  0.19276600  0.99461800  1
  O  O75  1  0.76767200  0.90899000  0.56169700  1
  O  O76  1  0.23232800  0.09101000  0.43830300  1
  O  O77  1  0.73232800  0.40899000  0.93830300  1
  O  O78  1  0.26767200  0.59101000  0.43830300  1
  O  O79  1  0.17709200  0.80723400  0.49461800  1
  O  O80  1  0.30325500  0.46238800  0.69729700  1
  O  O81  1  0.32290800  0.30723400  0.49461800  1
  O  O82  1  0.32290800  0.30723400  0.00538200  1
  O  O83  1  0.19674500  0.96238800  0.80270300  1
