# generated using pymatgen
data_Ba(BO2)5
_symmetry_space_group_name_H-M   'P 1'
_cell_length_a   6.84025900
_cell_length_b   6.89504605
_cell_length_c   10.15895157
_cell_angle_alpha   93.78808820
_cell_angle_beta   92.21808438
_cell_angle_gamma   119.46431662
_symmetry_Int_Tables_number   1
_chemical_formula_structural   Ba(BO2)5
_chemical_formula_sum   'Ba2 B10 O20'
_cell_volume   414.85370694
_cell_formula_units_Z   2
loop_
 _symmetry_equiv_pos_site_id
 _symmetry_equiv_pos_as_xyz
  1  'x, y, z'
loop_
 _atom_site_type_symbol
 _atom_site_label
 _atom_site_symmetry_multiplicity
 _atom_site_fract_x
 _atom_site_fract_y
 _atom_site_fract_z
 _atom_site_occupancy
  Ba  Ba0  1  0.64738300  0.31248000  0.87518500  1
  Ba  Ba1  1  0.35261700  0.68752000  0.12481500  1
  B  B2  1  0.79358100  0.58887600  0.40458500  1
  B  B3  1  0.20641900  0.41112400  0.59541500  1
  B  B4  1  0.06451400  0.81850000  0.83309200  1
  B  B5  1  0.93548600  0.18150000  0.16690800  1
  B  B6  1  0.74910400  0.89084100  0.84338400  1
  B  B7  1  0.25089600  0.10915900  0.15661600  1
  B  B8  1  0.12580700  0.20006100  0.78812000  1
  B  B9  1  0.87419300  0.79993900  0.21188000  1
  B  B10  1  0.68644000  0.37598800  0.19222800  1
  B  B11  1  0.31356000  0.62401200  0.80777200  1
  O  O12  1  0.11328700  0.21094500  0.64400600  1
  O  O13  1  0.88671300  0.78905500  0.35599400  1
  O  O14  1  0.52936700  0.82404700  0.86763900  1
  O  O15  1  0.47063300  0.17595300  0.13236100  1
  O  O16  1  0.71333400  0.58144500  0.14092900  1
  O  O17  1  0.28666600  0.41855500  0.85907100  1
  O  O18  1  0.20574500  0.03729100  0.81628000  1
  O  O19  1  0.79425500  0.96270900  0.18372000  1
  O  O20  1  0.87484600  0.33941900  0.14415900  1
  O  O21  1  0.12515400  0.66058100  0.85584100  1
  O  O22  1  0.83233400  0.74304200  0.83984300  1
  O  O23  1  0.16766600  0.25695800  0.16015700  1
  O  O24  1  0.69240300  0.38548400  0.33563700  1
  O  O25  1  0.30759700  0.61451600  0.66436300  1
  O  O26  1  0.89376700  0.11258400  0.83331200  1
  O  O27  1  0.10623300  0.88741600  0.16668800  1
  O  O28  1  0.80633400  0.60353600  0.55017900  1
  O  O29  1  0.19366600  0.39646400  0.44982100  1
  O  O30  1  0.70660100  0.40136600  0.59712300  1
  O  O31  1  0.29339900  0.59863400  0.40287700  1
