# generated using pymatgen
data_Be2CoN2(O3F4)2
_symmetry_space_group_name_H-M   'P 1'
_cell_length_a   12.54900300
_cell_length_b   6.07557000
_cell_length_c   8.43092794
_cell_angle_alpha   81.60312900
_cell_angle_beta   90.00000000
_cell_angle_gamma   90.00000000
_symmetry_Int_Tables_number   1
_chemical_formula_structural   Be2CoN2(O3F4)2
_chemical_formula_sum   'Be4 Co2 N4 O12 F16'
_cell_volume   635.90317648
_cell_formula_units_Z   2
loop_
 _symmetry_equiv_pos_site_id
 _symmetry_equiv_pos_as_xyz
  1  'x, y, z'
loop_
 _atom_site_type_symbol
 _atom_site_label
 _atom_site_symmetry_multiplicity
 _atom_site_fract_x
 _atom_site_fract_y
 _atom_site_fract_z
 _atom_site_occupancy
  Be  Be0  1  0.11347200  0.21746200  0.42088100  1
  Be  Be1  1  0.61347200  0.78253800  0.07911900  1
  Be  Be2  1  0.88652800  0.78253800  0.57911900  1
  Be  Be3  1  0.38652800  0.21746200  0.92088100  1
  Co  Co4  1  0.50000000  0.00000000  0.50000000  1
  Co  Co5  1  0.00000000  0.00000000  0.00000000  1
  N  N6  1  0.82982900  0.46374800  0.37454500  1
  N  N7  1  0.32982900  0.53625200  0.12545500  1
  N  N8  1  0.17017100  0.53625200  0.62545500  1
  N  N9  1  0.67017100  0.46374800  0.87454500  1
  O  O10  1  0.59373500  0.10354500  0.62766900  1
  O  O11  1  0.09373500  0.89645500  0.87233100  1
  O  O12  1  0.40626500  0.89645500  0.37233100  1
  O  O13  1  0.90626500  0.10354500  0.12766900  1
  O  O14  1  0.58962400  0.15133000  0.36162300  1
  O  O15  1  0.08962400  0.84867000  0.13837700  1
  O  O16  1  0.41037600  0.84867000  0.63837700  1
  O  O17  1  0.91037600  0.15133000  0.86162300  1
  O  O18  1  0.45784300  0.27911100  0.49828000  1
  O  O19  1  0.95784300  0.72088900  0.00172000  1
  O  O20  1  0.54215700  0.72088900  0.50172000  1
  O  O21  1  0.04215700  0.27911100  0.99828000  1
  F  F22  1  0.29428700  0.51246200  0.27541200  1
  F  F23  1  0.79428700  0.48753800  0.22458800  1
  F  F24  1  0.70571300  0.48753800  0.72458800  1
  F  F25  1  0.20571300  0.51246200  0.77541200  1
  F  F26  1  0.16497500  0.00978300  0.42659600  1
  F  F27  1  0.66497500  0.99021700  0.07340400  1
  F  F28  1  0.83502500  0.99021700  0.57340400  1
  F  F29  1  0.33502500  0.00978300  0.92659600  1
  F  F30  1  0.05038900  0.37452400  0.32305500  1
  F  F31  1  0.55038900  0.62547600  0.17694500  1
  F  F32  1  0.94961100  0.62547600  0.67694500  1
  F  F33  1  0.44961100  0.37452400  0.82305500  1
  F  F34  1  0.13727900  0.30342500  0.61169300  1
  F  F35  1  0.63727900  0.69657500  0.88830700  1
  F  F36  1  0.86272100  0.69657500  0.38830700  1
  F  F37  1  0.36272100  0.30342500  0.11169300  1
