# generated using pymatgen
data_Ba(H2O3)2
_symmetry_space_group_name_H-M   'P 1'
_cell_length_a   5.32028418
_cell_length_b   5.32028418
_cell_length_c   8.41947128
_cell_angle_alpha   83.91445029
_cell_angle_beta   83.91445029
_cell_angle_gamma   73.47148420
_symmetry_Int_Tables_number   1
_chemical_formula_structural   Ba(H2O3)2
_chemical_formula_sum   'Ba2 H8 O12'
_cell_volume   226.46120337
_cell_formula_units_Z   2
loop_
 _symmetry_equiv_pos_site_id
 _symmetry_equiv_pos_as_xyz
  1  'x, y, z'
loop_
 _atom_site_type_symbol
 _atom_site_label
 _atom_site_symmetry_multiplicity
 _atom_site_fract_x
 _atom_site_fract_y
 _atom_site_fract_z
 _atom_site_occupancy
  Ba  Ba0  1  0.20485700  0.79514300  0.75000000  1
  Ba  Ba1  1  0.79514300  0.20485700  0.25000000  1
  H  H2  1  0.73049700  0.67353600  0.54626700  1
  H  H3  1  0.32646400  0.26950300  0.95373300  1
  H  H4  1  0.26950300  0.32646400  0.45373300  1
  H  H5  1  0.67353600  0.73049700  0.04626700  1
  H  H6  1  0.63379300  0.18546900  0.62673800  1
  H  H7  1  0.18546900  0.63379300  0.12673800  1
  H  H8  1  0.81453100  0.36620700  0.87326200  1
  H  H9  1  0.36620700  0.81453100  0.37326200  1
  O  O10  1  0.81195000  0.83549300  0.54247500  1
  O  O11  1  0.16450700  0.18805000  0.95752500  1
  O  O12  1  0.18805000  0.16450700  0.45752500  1
  O  O13  1  0.83549300  0.81195000  0.04247500  1
  O  O14  1  0.66364000  0.98749500  0.67717700  1
  O  O15  1  0.01250500  0.33636000  0.82282300  1
  O  O16  1  0.33636000  0.01250500  0.32282300  1
  O  O17  1  0.98749500  0.66364000  0.17717700  1
  O  O18  1  0.60926000  0.45422800  0.55455600  1
  O  O19  1  0.54577200  0.39074000  0.94544400  1
  O  O20  1  0.39074000  0.54577200  0.44544400  1
  O  O21  1  0.45422800  0.60926000  0.05455600  1
