# generated using pymatgen
data_CoP2H15N5O8
_symmetry_space_group_name_H-M   'P 1'
_cell_length_a   7.46691376
_cell_length_b   7.46691376
_cell_length_c   13.00694372
_cell_angle_alpha   78.00694587
_cell_angle_beta   78.00694587
_cell_angle_gamma   79.98041562
_symmetry_Int_Tables_number   1
_chemical_formula_structural   CoP2H15N5O8
_chemical_formula_sum   'Co2 P4 H30 N10 O16'
_cell_volume   687.37211787
_cell_formula_units_Z   2
loop_
 _symmetry_equiv_pos_site_id
 _symmetry_equiv_pos_as_xyz
  1  'x, y, z'
loop_
 _atom_site_type_symbol
 _atom_site_label
 _atom_site_symmetry_multiplicity
 _atom_site_fract_x
 _atom_site_fract_y
 _atom_site_fract_z
 _atom_site_occupancy
  Co  Co0  1  0.57024800  0.01833500  0.73805200  1
  Co  Co1  1  0.01833500  0.57024800  0.23805200  1
  P  P2  1  0.08735400  0.55518100  0.85429900  1
  P  P3  1  0.55518100  0.08735400  0.35429900  1
  P  P4  1  0.69066500  0.66593800  0.91571800  1
  P  P5  1  0.66593800  0.69066500  0.41571800  1
  H  H6  1  0.92215000  0.88038600  0.89151800  1
  H  H7  1  0.88038600  0.92215000  0.39151800  1
  H  H8  1  0.48027700  0.90647000  0.57404500  1
  H  H9  1  0.90647000  0.48027700  0.07404500  1
  H  H10  1  0.31763900  0.84399100  0.68414200  1
  H  H11  1  0.84399100  0.31763900  0.18414200  1
  H  H12  1  0.55927000  0.31690700  0.59440100  1
  H  H13  1  0.31690700  0.55927000  0.09440100  1
  H  H14  1  0.66264300  0.34479900  0.68891900  1
  H  H15  1  0.34479900  0.66264300  0.18891900  1
  H  H16  1  0.43474000  0.36230300  0.71062500  1
  H  H17  1  0.36230300  0.43474000  0.21062500  1
  H  H18  1  0.70828400  0.12625900  0.92043100  1
  H  H19  1  0.12625900  0.70828400  0.42043100  1
  H  H20  1  0.15371500  0.32714500  0.64319600  1
  H  H21  1  0.32714500  0.15371500  0.14319600  1
  H  H22  1  0.69705600  0.23014100  0.91323300  1
  H  H23  1  0.23014100  0.69705600  0.41323300  1
  H  H24  1  0.40382400  0.01887800  0.92639600  1
  H  H25  1  0.01887800  0.40382400  0.42639600  1
  H  H26  1  0.25406500  0.99537900  0.85278700  1
  H  H27  1  0.99537900  0.25406500  0.35278700  1
  H  H28  1  0.30888400  0.20340100  0.84783100  1
  H  H29  1  0.20340100  0.30888400  0.34783100  1
  H  H30  1  0.78055500  0.93538400  0.57040900  1
  H  H31  1  0.93538400  0.78055500  0.07040900  1
  H  H32  1  0.86974100  0.09749800  0.60945100  1
  H  H33  1  0.09749800  0.86974100  0.10945100  1
  H  H34  1  0.89019700  0.88126400  0.67472900  1
  H  H35  1  0.88126400  0.89019700  0.17472900  1
  N  N36  1  0.43241500  0.91075900  0.65354900  1
  N  N37  1  0.91075900  0.43241500  0.15354900  1
  N  N38  1  0.55524300  0.28771100  0.67647100  1
  N  N39  1  0.28771200  0.55524300  0.17647100  1
  N  N40  1  0.28321900  0.06271200  0.10523000  1
  N  N41  1  0.06271200  0.28321900  0.60523000  1
  N  N42  1  0.36242500  0.06468300  0.85397300  1
  N  N43  1  0.06468300  0.36242500  0.35397300  1
  N  N44  1  0.80379100  0.98214300  0.63519200  1
  N  N45  1  0.98214300  0.80379100  0.13519200  1
  O  O46  1  0.19751600  0.43241500  0.77823300  1
  O  O47  1  0.43241500  0.19751600  0.27823300  1
  O  O48  1  0.13781000  0.55529600  0.95889400  1
  O  O49  1  0.55529600  0.13781000  0.45889400  1
  O  O50  1  0.08961900  0.76500300  0.77595300  1
  O  O51  1  0.76500300  0.08961900  0.27595300  1
  O  O52  1  0.87288200  0.52313800  0.86989600  1
  O  O53  1  0.52313800  0.87288200  0.36989600  1
  O  O54  1  0.63750300  0.77984800  0.80753400  1
  O  O55  1  0.77984800  0.63750300  0.30753400  1
  O  O56  1  0.55019300  0.54848900  0.97930300  1
  O  O57  1  0.54848900  0.55019300  0.47930300  1
  O  O58  1  0.76324200  0.79449100  0.97074600  1
  O  O59  1  0.79449100  0.76324200  0.47074600  1
  O  O60  1  0.92307500  0.03361500  0.33424200  1
  O  O61  1  0.03361500  0.92307500  0.83424200  1
