# generated using pymatgen
data_CoP6(N2O11)2
_symmetry_space_group_name_H-M   'P 1'
_cell_length_a   12.91872100
_cell_length_b   9.06103700
_cell_length_c   9.07462955
_cell_angle_alpha   85.86713894
_cell_angle_beta   90.00000000
_cell_angle_gamma   90.00000000
_symmetry_Int_Tables_number   1
_chemical_formula_structural   CoP6(N2O11)2
_chemical_formula_sum   'Co2 P12 N8 O44'
_cell_volume   1059.48673405
_cell_formula_units_Z   2
loop_
 _symmetry_equiv_pos_site_id
 _symmetry_equiv_pos_as_xyz
  1  'x, y, z'
loop_
 _atom_site_type_symbol
 _atom_site_label
 _atom_site_symmetry_multiplicity
 _atom_site_fract_x
 _atom_site_fract_y
 _atom_site_fract_z
 _atom_site_occupancy
  Co  Co0  1  0.50000000  0.50000000  0.00000000  1
  Co  Co1  1  0.00000000  0.00000000  0.00000000  1
  P  P2  1  0.83382600  0.18751400  0.13988900  1
  P  P3  1  0.33382600  0.31248600  0.86011100  1
  P  P4  1  0.16617400  0.81248600  0.86011100  1
  P  P5  1  0.66617400  0.68751400  0.13988900  1
  P  P6  1  0.83837900  0.23455900  0.45775200  1
  P  P7  1  0.33837900  0.26544100  0.54224800  1
  P  P8  1  0.16162100  0.76544100  0.54224800  1
  P  P9  1  0.66162100  0.73455900  0.45775200  1
  P  P10  1  0.94728200  0.44818100  0.24964400  1
  P  P11  1  0.44728200  0.05181900  0.75035600  1
  P  P12  1  0.05271800  0.55181900  0.75035600  1
  P  P13  1  0.55271800  0.94818100  0.24964400  1
  N  N14  1  0.64450300  0.32075700  0.49043700  1
  N  N15  1  0.14450300  0.17924300  0.50956300  1
  N  N16  1  0.35549700  0.67924300  0.50956300  1
  N  N17  1  0.85549700  0.82075700  0.49043700  1
  N  N18  1  0.64912700  0.03346000  0.78232900  1
  N  N19  1  0.14912700  0.46654000  0.21767100  1
  N  N20  1  0.35087300  0.96654000  0.21767100  1
  N  N21  1  0.85087300  0.53346000  0.78232900  1
  O  O22  1  0.78545500  0.19258100  0.30987700  1
  O  O23  1  0.28545500  0.30741900  0.69012300  1
  O  O24  1  0.21454500  0.80741900  0.69012300  1
  O  O25  1  0.71454500  0.69258100  0.30987700  1
  O  O26  1  0.90041100  0.34759100  0.13384900  1
  O  O27  1  0.40041100  0.15240900  0.86615100  1
  O  O28  1  0.09958900  0.65240900  0.86615100  1
  O  O29  1  0.59958900  0.84759100  0.13384900  1
  O  O30  1  0.75080400  0.20038600  0.03067200  1
  O  O31  1  0.25080400  0.29961400  0.96932800  1
  O  O32  1  0.24919600  0.79961400  0.96932800  1
  O  O33  1  0.74919600  0.70038600  0.03067200  1
  O  O34  1  0.91167000  0.06133700  0.16131000  1
  O  O35  1  0.41167000  0.43866300  0.83869000  1
  O  O36  1  0.08833000  0.93866300  0.83869000  1
  O  O37  1  0.58833000  0.56133700  0.16131000  1
  O  O38  1  0.90570600  0.38201400  0.40845000  1
  O  O39  1  0.40570600  0.11798600  0.59155000  1
  O  O40  1  0.09429400  0.61798600  0.59155000  1
  O  O41  1  0.59429400  0.88201400  0.40845000  1
  O  O42  1  0.73843000  0.31103200  0.54450200  1
  O  O43  1  0.23843000  0.18896800  0.45549800  1
  O  O44  1  0.26157000  0.68896800  0.45549800  1
  O  O45  1  0.76157000  0.81103200  0.54450200  1
  O  O46  1  0.89039200  0.12546900  0.55628900  1
  O  O47  1  0.39039200  0.37453100  0.44371100  1
  O  O48  1  0.10960800  0.87453100  0.44371100  1
  O  O49  1  0.60960800  0.62546900  0.55628900  1
  O  O50  1  0.57366000  0.11780600  0.73926500  1
  O  O51  1  0.07366000  0.38219400  0.26073500  1
  O  O52  1  0.42634000  0.88219400  0.26073500  1
  O  O53  1  0.92634000  0.61780600  0.73926500  1
  O  O54  1  0.55557300  0.10783800  0.22325900  1
  O  O55  1  0.05557300  0.39216200  0.77674100  1
  O  O56  1  0.44442700  0.89216200  0.77674100  1
  O  O57  1  0.94442700  0.60783800  0.22325900  1
  O  O58  1  0.93619100  0.12607500  0.87454600  1
  O  O59  1  0.43619100  0.37392500  0.12545400  1
  O  O60  1  0.06380900  0.87392500  0.12545400  1
  O  O61  1  0.56381000  0.62607500  0.87454600  1
  O  O62  1  0.59991100  0.39739000  0.92448700  1
  O  O63  1  0.09991100  0.10261000  0.07551300  1
  O  O64  1  0.40008900  0.60261000  0.07551300  1
  O  O65  1  0.90008900  0.89739000  0.92448700  1
