# generated using pymatgen
data_CaHg(IO2)4
_symmetry_space_group_name_H-M   'P 1'
_cell_length_a   13.74557900
_cell_length_b   13.74557900
_cell_length_c   13.41458100
_cell_angle_alpha   90.00000000
_cell_angle_beta   90.00000000
_cell_angle_gamma   90.00000000
_symmetry_Int_Tables_number   1
_chemical_formula_structural   CaHg(IO2)4
_chemical_formula_sum   'Ca8 Hg8 I32 O64'
_cell_volume   2534.56357128
_cell_formula_units_Z   8
loop_
 _symmetry_equiv_pos_site_id
 _symmetry_equiv_pos_as_xyz
  1  'x, y, z'
loop_
 _atom_site_type_symbol
 _atom_site_label
 _atom_site_symmetry_multiplicity
 _atom_site_fract_x
 _atom_site_fract_y
 _atom_site_fract_z
 _atom_site_occupancy
  Ca  Ca0  1  0.00000000  0.00000000  0.75000000  1
  Ca  Ca1  1  0.00000000  0.00000000  0.25000000  1
  Ca  Ca2  1  0.50000000  0.50000000  0.75000000  1
  Ca  Ca3  1  0.50000000  0.50000000  0.25000000  1
  Ca  Ca4  1  0.50000000  0.00000000  0.75000000  1
  Ca  Ca5  1  0.00000000  0.50000000  0.25000000  1
  Ca  Ca6  1  0.00000000  0.50000000  0.75000000  1
  Ca  Ca7  1  0.50000000  0.00000000  0.25000000  1
  Hg  Hg8  1  0.33016600  0.25819200  0.00000000  1
  Hg  Hg9  1  0.74180800  0.33016600  0.50000000  1
  Hg  Hg10  1  0.83016600  0.24180800  0.00000000  1
  Hg  Hg11  1  0.75819200  0.83016600  0.50000000  1
  Hg  Hg12  1  0.66983400  0.74180800  0.00000000  1
  Hg  Hg13  1  0.25819200  0.66983400  0.50000000  1
  Hg  Hg14  1  0.16983400  0.75819200  0.00000000  1
  Hg  Hg15  1  0.24180800  0.16983400  0.50000000  1
  I  I16  1  0.10636700  0.24483100  0.19469900  1
  I  I17  1  0.75516900  0.10636700  0.69469900  1
  I  I18  1  0.60636700  0.25516900  0.19469900  1
  I  I19  1  0.74483100  0.60636700  0.69469900  1
  I  I20  1  0.10636700  0.24483100  0.80530100  1
  I  I21  1  0.75516900  0.10636700  0.30530100  1
  I  I22  1  0.60636700  0.25516900  0.80530100  1
  I  I23  1  0.74483100  0.60636700  0.30530100  1
  I  I24  1  0.89363300  0.75516900  0.80530100  1
  I  I25  1  0.24483100  0.89363300  0.30530100  1
  I  I26  1  0.39363300  0.74483100  0.80530100  1
  I  I27  1  0.25516900  0.39363300  0.30530100  1
  I  I28  1  0.89363300  0.75516900  0.19469900  1
  I  I29  1  0.24483100  0.89363300  0.69469900  1
  I  I30  1  0.39363300  0.74483100  0.19469900  1
  I  I31  1  0.25516900  0.39363300  0.69469900  1
  I  I32  1  0.36536000  0.53937400  0.00000000  1
  I  I33  1  0.46062600  0.36536000  0.50000000  1
  I  I34  1  0.86536000  0.96062600  0.00000000  1
  I  I35  1  0.03937400  0.86536000  0.50000000  1
  I  I36  1  0.63464000  0.46062600  0.00000000  1
  I  I37  1  0.53937400  0.63464000  0.50000000  1
  I  I38  1  0.13464000  0.03937400  0.00000000  1
  I  I39  1  0.96062600  0.13464000  0.50000000  1
  I  I40  1  0.56627500  0.09545700  0.00000000  1
  I  I41  1  0.90454300  0.56627500  0.50000000  1
  I  I42  1  0.06627500  0.40454300  0.00000000  1
  I  I43  1  0.59545700  0.06627500  0.50000000  1
  I  I44  1  0.43372500  0.90454300  0.00000000  1
  I  I45  1  0.09545700  0.43372500  0.50000000  1
  I  I46  1  0.93372500  0.59545700  0.00000000  1
  I  I47  1  0.40454300  0.93372500  0.50000000  1
  O  O48  1  0.61888300  0.03003600  0.11133100  1
  O  O49  1  0.96996400  0.61888300  0.61133100  1
  O  O50  1  0.11888300  0.46996400  0.11133100  1
  O  O51  1  0.53003600  0.11888300  0.61133100  1
  O  O52  1  0.61888300  0.03003600  0.88866900  1
  O  O53  1  0.96996400  0.61888300  0.38866900  1
  O  O54  1  0.11888300  0.46996400  0.88866900  1
  O  O55  1  0.53003600  0.11888300  0.38866900  1
  O  O56  1  0.38111700  0.96996400  0.88866900  1
  O  O57  1  0.03003600  0.38111700  0.38866900  1
  O  O58  1  0.88111700  0.53003600  0.88866900  1
  O  O59  1  0.46996400  0.88111700  0.38866900  1
  O  O60  1  0.38111700  0.96996400  0.11133100  1
  O  O61  1  0.03003600  0.38111700  0.61133100  1
  O  O62  1  0.88111700  0.53003600  0.11133100  1
  O  O63  1  0.46996400  0.88111700  0.61133100  1
  O  O64  1  0.15990700  0.92041000  0.79592000  1
  O  O65  1  0.07959000  0.15990700  0.29592000  1
  O  O66  1  0.65990700  0.57959000  0.79592000  1
  O  O67  1  0.42041000  0.65990700  0.29592000  1
  O  O68  1  0.15990700  0.92041000  0.20408000  1
  O  O69  1  0.07959000  0.15990700  0.70408000  1
  O  O70  1  0.65990700  0.57959000  0.20408000  1
  O  O71  1  0.42041000  0.65990700  0.70408000  1
  O  O72  1  0.84009300  0.07959000  0.20408000  1
  O  O73  1  0.92041000  0.84009300  0.70408000  1
  O  O74  1  0.34009300  0.42041000  0.20408000  1
  O  O75  1  0.57959000  0.34009300  0.70408000  1
  O  O76  1  0.84009300  0.07959000  0.79592000  1
  O  O77  1  0.92041000  0.84009300  0.29592000  1
  O  O78  1  0.34009300  0.42041000  0.79592000  1
  O  O79  1  0.57959000  0.34009300  0.29592000  1
  O  O80  1  0.99381800  0.31579800  0.81693400  1
  O  O81  1  0.68420200  0.99381800  0.31693400  1
  O  O82  1  0.49381800  0.18420200  0.81693400  1
  O  O83  1  0.81579800  0.49381800  0.31693400  1
  O  O84  1  0.99381800  0.31579800  0.18306600  1
  O  O85  1  0.68420200  0.99381800  0.68306600  1
  O  O86  1  0.49381800  0.18420200  0.18306600  1
  O  O87  1  0.81579800  0.49381800  0.68306600  1
  O  O88  1  0.00618200  0.68420200  0.18306600  1
  O  O89  1  0.31579800  0.00618200  0.68306600  1
  O  O90  1  0.50618200  0.81579800  0.18306600  1
  O  O91  1  0.18420200  0.50618200  0.68306600  1
  O  O92  1  0.00618200  0.68420200  0.81693400  1
  O  O93  1  0.31579800  0.00618200  0.31693400  1
  O  O94  1  0.50618200  0.81579800  0.81693400  1
  O  O95  1  0.18420200  0.50618200  0.31693400  1
  O  O96  1  0.58977800  0.56007400  0.60606300  1
  O  O97  1  0.43992600  0.58977800  0.10606300  1
  O  O98  1  0.08977800  0.93992600  0.60606300  1
  O  O99  1  0.06007400  0.08977800  0.10606300  1
  O  O100  1  0.58977800  0.56007400  0.39393700  1
  O  O101  1  0.43992600  0.58977800  0.89393700  1
  O  O102  1  0.08977800  0.93992600  0.39393700  1
  O  O103  1  0.06007400  0.08977800  0.89393700  1
  O  O104  1  0.41022200  0.43992600  0.39393700  1
  O  O105  1  0.56007400  0.41022200  0.89393700  1
  O  O106  1  0.91022200  0.06007400  0.39393700  1
  O  O107  1  0.93992600  0.91022200  0.89393700  1
  O  O108  1  0.41022200  0.43992600  0.60606300  1
  O  O109  1  0.56007400  0.41022200  0.10606300  1
  O  O110  1  0.91022200  0.06007400  0.60606300  1
  O  O111  1  0.93992600  0.91022200  0.10606300  1
