# generated using pymatgen
data_Ba2BiSbO6
_symmetry_space_group_name_H-M   'P 1'
_cell_length_a   8.48274871
_cell_length_b   6.19958083
_cell_length_c   6.46667583
_cell_angle_alpha   100.79356757
_cell_angle_beta   123.20877296
_cell_angle_gamma   62.78025938
_symmetry_Int_Tables_number   1
_chemical_formula_structural   Ba2BiSbO6
_chemical_formula_sum   'Ba2 Bi1 Sb1 O6'
_cell_volume   252.11175223
_cell_formula_units_Z   1
loop_
 _symmetry_equiv_pos_site_id
 _symmetry_equiv_pos_as_xyz
  1  'x, y, z'
loop_
 _atom_site_type_symbol
 _atom_site_label
 _atom_site_symmetry_multiplicity
 _atom_site_fract_x
 _atom_site_fract_y
 _atom_site_fract_z
 _atom_site_occupancy
  Ba  Ba0  1  0.27500800  0.16818300  0.64346400  1
  Ba  Ba1  1  0.72499200  0.83181700  0.35653600  1
  Bi  Bi2  1  0.00000000  0.00000000  0.00000000  1
  Sb  Sb3  1  0.00000000  0.50000000  0.00000000  1
  O  O4  1  0.69653700  0.01509700  0.97292600  1
  O  O5  1  0.68191100  0.79216300  0.84816400  1
  O  O6  1  0.94031200  0.44210100  0.66020500  1
  O  O7  1  0.30346300  0.98490300  0.02707400  1
  O  O8  1  0.31808900  0.20783700  0.15183600  1
  O  O9  1  0.05968800  0.55789900  0.33979500  1
