# generated using pymatgen
data_C3N4
_symmetry_space_group_name_H-M   'P 1'
_cell_length_a   6.48142104
_cell_length_b   6.48142104
_cell_length_c   22.05385200
_cell_angle_alpha   90.00000000
_cell_angle_beta   90.00000000
_cell_angle_gamma   119.99999023
_symmetry_Int_Tables_number   1
_chemical_formula_structural   C3N4
_chemical_formula_sum   'C6 N8'
_cell_volume   802.33474531
_cell_formula_units_Z   2
loop_
 _symmetry_equiv_pos_site_id
 _symmetry_equiv_pos_as_xyz
  1  'x, y, z'
loop_
 _atom_site_type_symbol
 _atom_site_label
 _atom_site_symmetry_multiplicity
 _atom_site_fract_x
 _atom_site_fract_y
 _atom_site_fract_z
 _atom_site_occupancy
  C  C0  1  0.55613600  0.69436000  0.25000000  1
  C  C1  1  0.13822400  0.44386400  0.25000000  1
  C  C2  1  0.30564000  0.86177600  0.25000000  1
  C  C3  1  0.44386400  0.30564000  0.75000000  1
  C  C4  1  0.86177600  0.55613600  0.75000000  1
  C  C5  1  0.69436000  0.13822400  0.75000000  1
  N  N6  1  0.74271400  0.70867000  0.25000000  1
  N  N7  1  0.96595600  0.25728600  0.25000000  1
  N  N8  1  0.29133000  0.03404400  0.25000000  1
  N  N9  1  0.25728600  0.29133000  0.75000000  1
  N  N10  1  0.03404400  0.74271400  0.75000000  1
  N  N11  1  0.70867000  0.96595600  0.75000000  1
  N  N12  1  0.33333300  0.66666700  0.25000000  1
  N  N13  1  0.66666700  0.33333300  0.75000000  1
