# generated using pymatgen
data_CoP(H4O3)3
_symmetry_space_group_name_H-M   'P 1'
_cell_length_a   7.96495700
_cell_length_b   13.25343800
_cell_length_c   10.86217600
_cell_angle_alpha   90.00000000
_cell_angle_beta   90.00000000
_cell_angle_gamma   90.00000000
_symmetry_Int_Tables_number   1
_chemical_formula_structural   CoP(H4O3)3
_chemical_formula_sum   'Co4 P4 H48 O36'
_cell_volume   1146.64457779
_cell_formula_units_Z   4
loop_
 _symmetry_equiv_pos_site_id
 _symmetry_equiv_pos_as_xyz
  1  'x, y, z'
loop_
 _atom_site_type_symbol
 _atom_site_label
 _atom_site_symmetry_multiplicity
 _atom_site_fract_x
 _atom_site_fract_y
 _atom_site_fract_z
 _atom_site_occupancy
  Co  Co0  1  0.50000000  0.50000000  0.64526800  1
  Co  Co1  1  0.00000000  0.00000000  0.35473200  1
  Co  Co2  1  0.50000000  0.50000000  0.35473200  1
  Co  Co3  1  0.00000000  0.00000000  0.64526800  1
  P  P4  1  0.13875700  0.51712700  0.50000000  1
  P  P5  1  0.86124300  0.48287300  0.50000000  1
  P  P6  1  0.63875700  0.98287300  0.50000000  1
  P  P7  1  0.36124300  0.01712700  0.50000000  1
  H  H8  1  0.98190700  0.28335600  0.25285000  1
  H  H9  1  0.01809300  0.71664400  0.25285000  1
  H  H10  1  0.48190700  0.21664400  0.74715000  1
  H  H11  1  0.51809300  0.78335600  0.74715000  1
  H  H12  1  0.01809300  0.71664400  0.74715000  1
  H  H13  1  0.98190700  0.28335600  0.74715000  1
  H  H14  1  0.51809300  0.78335600  0.25285000  1
  H  H15  1  0.48190700  0.21664400  0.25285000  1
  H  H16  1  0.36667100  0.33053600  0.12049900  1
  H  H17  1  0.63332900  0.66946400  0.12049900  1
  H  H18  1  0.86667100  0.16946400  0.87950100  1
  H  H19  1  0.13332900  0.83053600  0.87950100  1
  H  H20  1  0.63332900  0.66946400  0.87950100  1
  H  H21  1  0.36667100  0.33053600  0.87950100  1
  H  H22  1  0.13332900  0.83053600  0.12049900  1
  H  H23  1  0.86667100  0.16946400  0.12049900  1
  H  H24  1  0.92498600  0.61544900  0.27779400  1
  H  H25  1  0.07501400  0.38455100  0.27779400  1
  H  H26  1  0.42498600  0.88455100  0.72220600  1
  H  H27  1  0.57501400  0.11544900  0.72220600  1
  H  H28  1  0.07501400  0.38455100  0.72220600  1
  H  H29  1  0.92498600  0.61544900  0.72220600  1
  H  H30  1  0.57501400  0.11544900  0.27779400  1
  H  H31  1  0.42498600  0.88455100  0.27779400  1
  H  H32  1  0.53420800  0.74810100  0.46542100  1
  H  H33  1  0.46579200  0.25189900  0.46542100  1
  H  H34  1  0.03420800  0.75189900  0.53457900  1
  H  H35  1  0.96579200  0.24810100  0.53457900  1
  H  H36  1  0.46579200  0.25189900  0.53457900  1
  H  H37  1  0.53420800  0.74810100  0.53457900  1
  H  H38  1  0.96579200  0.24810100  0.46542100  1
  H  H39  1  0.03420800  0.75189900  0.46542100  1
  H  H40  1  0.82440100  0.99125400  0.00000000  1
  H  H41  1  0.17559900  0.00874600  0.00000000  1
  H  H42  1  0.32440100  0.50874600  0.00000000  1
  H  H43  1  0.67559900  0.49125400  0.00000000  1
  H  H44  1  0.16583300  0.35533700  0.00000000  1
  H  H45  1  0.83416700  0.64466300  0.00000000  1
  H  H46  1  0.66583300  0.14466300  0.00000000  1
  H  H47  1  0.33416700  0.85533700  0.00000000  1
  H  H48  1  0.14509400  0.55425100  0.00000000  1
  H  H49  1  0.85490600  0.44574900  0.00000000  1
  H  H50  1  0.64509400  0.94574900  0.00000000  1
  H  H51  1  0.35490600  0.05425100  0.00000000  1
  H  H52  1  0.65635200  0.26532300  0.00000000  1
  H  H53  1  0.34364800  0.73467700  0.00000000  1
  H  H54  1  0.15635200  0.23467700  0.00000000  1
  H  H55  1  0.84364800  0.76532300  0.00000000  1
  O  O56  1  0.66554200  0.47689300  0.50000000  1
  O  O57  1  0.33445800  0.52310700  0.50000000  1
  O  O58  1  0.16554200  0.02310700  0.50000000  1
  O  O59  1  0.83445800  0.97689300  0.50000000  1
  O  O60  1  0.61791300  0.59881400  0.27462900  1
  O  O61  1  0.38208700  0.40118600  0.27462900  1
  O  O62  1  0.11791300  0.90118600  0.72537100  1
  O  O63  1  0.88208700  0.09881400  0.72537100  1
  O  O64  1  0.38208700  0.40118600  0.72537100  1
  O  O65  1  0.61791300  0.59881400  0.72537100  1
  O  O66  1  0.88208700  0.09881400  0.27462900  1
  O  O67  1  0.11791300  0.90118600  0.27462900  1
  O  O68  1  0.03661100  0.64379600  0.73602400  1
  O  O69  1  0.96338900  0.35620400  0.73602400  1
  O  O70  1  0.53661100  0.85620400  0.26397600  1
  O  O71  1  0.46338900  0.14379600  0.26397600  1
  O  O72  1  0.96338900  0.35620400  0.26397600  1
  O  O73  1  0.03661100  0.64379600  0.26397600  1
  O  O74  1  0.46338900  0.14379600  0.73602400  1
  O  O75  1  0.53661100  0.85620400  0.73602400  1
  O  O76  1  0.53490900  0.64932800  0.17180500  1
  O  O77  1  0.46509100  0.35067200  0.17180500  1
  O  O78  1  0.03490900  0.85067200  0.82819500  1
  O  O79  1  0.96509100  0.14932800  0.82819500  1
  O  O80  1  0.46509100  0.35067200  0.82819500  1
  O  O81  1  0.53490900  0.64932800  0.82819500  1
  O  O82  1  0.96509100  0.14932800  0.17180500  1
  O  O83  1  0.03490900  0.85067200  0.17180500  1
  O  O84  1  0.79429300  0.50929400  0.00000000  1
  O  O85  1  0.20570700  0.49070600  0.00000000  1
  O  O86  1  0.29429300  0.99070600  0.00000000  1
  O  O87  1  0.70570700  0.00929400  0.00000000  1
  O  O88  1  0.73229100  0.20766300  0.00000000  1
  O  O89  1  0.26770900  0.79233700  0.00000000  1
  O  O90  1  0.23229100  0.29233700  0.00000000  1
  O  O91  1  0.76770900  0.70766300  0.00000000  1
