# generated using pymatgen
data_KHSO4
_symmetry_space_group_name_H-M   'P 1'
_cell_length_a   9.42884400
_cell_length_b   10.59256400
_cell_length_c   18.96761600
_cell_angle_alpha   90.00000000
_cell_angle_beta   90.00000000
_cell_angle_gamma   90.00000000
_symmetry_Int_Tables_number   1
_chemical_formula_structural   KHSO4
_chemical_formula_sum   'K16 H16 S16 O64'
_cell_volume   1894.40266429
_cell_formula_units_Z   16
loop_
 _symmetry_equiv_pos_site_id
 _symmetry_equiv_pos_as_xyz
  1  'x, y, z'
loop_
 _atom_site_type_symbol
 _atom_site_label
 _atom_site_symmetry_multiplicity
 _atom_site_fract_x
 _atom_site_fract_y
 _atom_site_fract_z
 _atom_site_occupancy
  K  K0  1  0.86447400  0.12521000  0.38659000  1
  K  K1  1  0.36447400  0.37479000  0.61341000  1
  K  K2  1  0.13552600  0.62521000  0.11341000  1
  K  K3  1  0.63552600  0.87479000  0.88659000  1
  K  K4  1  0.13552600  0.87479000  0.61341000  1
  K  K5  1  0.63552600  0.62521000  0.38659000  1
  K  K6  1  0.86447400  0.37479000  0.88659000  1
  K  K7  1  0.36447400  0.12521000  0.11341000  1
  K  K8  1  0.34198500  0.31879400  0.37946000  1
  K  K9  1  0.84198500  0.18120600  0.62054000  1
  K  K10  1  0.65801500  0.81879400  0.12054000  1
  K  K11  1  0.15801500  0.68120600  0.87946000  1
  K  K12  1  0.65801500  0.68120600  0.62054000  1
  K  K13  1  0.15801500  0.81879400  0.37946000  1
  K  K14  1  0.34198500  0.18120600  0.87946000  1
  K  K15  1  0.84198500  0.31879400  0.12054000  1
  H  H16  1  0.88265000  0.66254700  0.97593500  1
  H  H17  1  0.38265000  0.83745300  0.02406500  1
  H  H18  1  0.11735000  0.16254700  0.52406500  1
  H  H19  1  0.61735000  0.33745300  0.47593500  1
  H  H20  1  0.11735000  0.33745300  0.02406500  1
  H  H21  1  0.61735000  0.16254700  0.97593500  1
  H  H22  1  0.88265000  0.83745300  0.47593500  1
  H  H23  1  0.38265000  0.66254700  0.52406500  1
  H  H24  1  0.24696800  0.05223400  0.27234300  1
  H  H25  1  0.74696800  0.44776600  0.72765700  1
  H  H26  1  0.75303200  0.55223400  0.22765700  1
  H  H27  1  0.25303200  0.94776600  0.77234300  1
  H  H28  1  0.75303200  0.94776600  0.72765700  1
  H  H29  1  0.25303200  0.55223400  0.27234300  1
  H  H30  1  0.24696800  0.44776600  0.77234300  1
  H  H31  1  0.74696800  0.05223400  0.22765700  1
  S  S32  1  0.96594200  0.61430900  0.52538000  1
  S  S33  1  0.46594200  0.88569100  0.47462000  1
  S  S34  1  0.03405800  0.11430900  0.97462000  1
  S  S35  1  0.53405800  0.38569100  0.02538000  1
  S  S36  1  0.03405800  0.38569100  0.47462000  1
  S  S37  1  0.53405800  0.11430900  0.52538000  1
  S  S38  1  0.96594200  0.88569100  0.02538000  1
  S  S39  1  0.46594200  0.61430900  0.97462000  1
  S  S40  1  0.47598600  0.01161100  0.28759100  1
  S  S41  1  0.97598600  0.48838900  0.71240900  1
  S  S42  1  0.52401400  0.51161100  0.21240900  1
  S  S43  1  0.02401400  0.98838900  0.78759100  1
  S  S44  1  0.52401400  0.98838900  0.71240900  1
  S  S45  1  0.02401400  0.51161100  0.28759100  1
  S  S46  1  0.47598600  0.48838900  0.78759100  1
  S  S47  1  0.97598600  0.01161100  0.21240900  1
  O  O48  1  0.83137500  0.65023700  0.49002400  1
  O  O49  1  0.33137500  0.84976300  0.50997600  1
  O  O50  1  0.16862500  0.15023700  0.00997600  1
  O  O51  1  0.66862500  0.34976300  0.99002400  1
  O  O52  1  0.16862500  0.34976300  0.50997600  1
  O  O53  1  0.66862500  0.15023700  0.49002400  1
  O  O54  1  0.83137500  0.84976300  0.99002400  1
  O  O55  1  0.33137500  0.65023700  0.00997600  1
  O  O56  1  0.91483700  0.30305800  0.49635800  1
  O  O57  1  0.41483700  0.19694200  0.50364200  1
  O  O58  1  0.08516300  0.80305800  0.00364200  1
  O  O59  1  0.58516300  0.69694200  0.99635800  1
  O  O60  1  0.08516300  0.69694200  0.50364200  1
  O  O61  1  0.58516300  0.80305800  0.49635800  1
  O  O62  1  0.91483700  0.19694200  0.99635800  1
  O  O63  1  0.41483700  0.30305800  0.00364200  1
  O  O64  1  0.61831600  0.44587300  0.55498700  1
  O  O65  1  0.11831600  0.05412700  0.44501300  1
  O  O66  1  0.38168400  0.94587300  0.94501300  1
  O  O67  1  0.88168400  0.55412700  0.05498700  1
  O  O68  1  0.38168400  0.55412700  0.44501300  1
  O  O69  1  0.88168400  0.94587300  0.55498700  1
  O  O70  1  0.61831600  0.05412700  0.05498700  1
  O  O71  1  0.11831600  0.44587300  0.94501300  1
  O  O72  1  0.63075200  0.42941000  0.48156600  1
  O  O73  1  0.13075200  0.07059000  0.51843400  1
  O  O74  1  0.36924800  0.92941000  0.01843400  1
  O  O75  1  0.86924800  0.57059000  0.98156600  1
  O  O76  1  0.36924800  0.57059000  0.51843400  1
  O  O77  1  0.86924800  0.92941000  0.48156600  1
  O  O78  1  0.63075200  0.07059000  0.98156600  1
  O  O79  1  0.13075200  0.42941000  0.01843400  1
  O  O80  1  0.55961200  0.00049800  0.22162800  1
  O  O81  1  0.05961200  0.49950200  0.77837200  1
  O  O82  1  0.44038800  0.50049800  0.27837200  1
  O  O83  1  0.94038800  0.99950200  0.72162800  1
  O  O84  1  0.44038800  0.99950200  0.77837200  1
  O  O85  1  0.94038800  0.50049800  0.22162800  1
  O  O86  1  0.55961200  0.49950200  0.72162800  1
  O  O87  1  0.05961200  0.00049800  0.27837200  1
  O  O88  1  0.33890700  0.09774500  0.26511800  1
  O  O89  1  0.83890700  0.40225500  0.73488200  1
  O  O90  1  0.66109300  0.59774500  0.23488200  1
  O  O91  1  0.16109300  0.90225500  0.76511800  1
  O  O92  1  0.66109300  0.90225500  0.73488200  1
  O  O93  1  0.16109300  0.59774500  0.26511800  1
  O  O94  1  0.33890700  0.40225500  0.76511800  1
  O  O95  1  0.83890700  0.09774500  0.23488200  1
  O  O96  1  0.41686400  0.89128500  0.31144000  1
  O  O97  1  0.91686400  0.60871500  0.68856000  1
  O  O98  1  0.58313600  0.39128500  0.18856000  1
  O  O99  1  0.08313600  0.10871500  0.81144000  1
  O  O100  1  0.58313600  0.10871500  0.68856000  1
  O  O101  1  0.08313600  0.39128500  0.31144000  1
  O  O102  1  0.41686400  0.60871500  0.81144000  1
  O  O103  1  0.91686400  0.89128500  0.18856000  1
  O  O104  1  0.54957400  0.08614000  0.34074100  1
  O  O105  1  0.04957400  0.41386000  0.65925900  1
  O  O106  1  0.45042600  0.58614000  0.15925900  1
  O  O107  1  0.95042600  0.91386000  0.84074100  1
  O  O108  1  0.45042600  0.91386000  0.65925900  1
  O  O109  1  0.95042600  0.58614000  0.34074100  1
  O  O110  1  0.54957400  0.41386000  0.84074100  1
  O  O111  1  0.04957400  0.08614000  0.15925900  1
