# generated using pymatgen
data_CaU(PbO3)2
_symmetry_space_group_name_H-M   'P 1'
_cell_length_a   6.23986700
_cell_length_b   5.95724616
_cell_length_c   8.69667466
_cell_angle_alpha   90.06578603
_cell_angle_beta   90.00000000
_cell_angle_gamma   90.00000000
_symmetry_Int_Tables_number   1
_chemical_formula_structural   CaU(PbO3)2
_chemical_formula_sum   'Ca2 U2 Pb4 O12'
_cell_volume   323.27626257
_cell_formula_units_Z   2
loop_
 _symmetry_equiv_pos_site_id
 _symmetry_equiv_pos_as_xyz
  1  'x, y, z'
loop_
 _atom_site_type_symbol
 _atom_site_label
 _atom_site_symmetry_multiplicity
 _atom_site_fract_x
 _atom_site_fract_y
 _atom_site_fract_z
 _atom_site_occupancy
  Ca  Ca0  1  0.50000000  0.00000000  0.50000000  1
  Ca  Ca1  1  0.00000000  0.50000000  0.00000000  1
  U  U2  1  0.50000000  0.00000000  0.00000000  1
  U  U3  1  0.00000000  0.50000000  0.50000000  1
  Pb  Pb4  1  0.45442300  0.51057900  0.77050700  1
  Pb  Pb5  1  0.04557700  0.01057900  0.27050700  1
  Pb  Pb6  1  0.54557700  0.48942100  0.22949300  1
  Pb  Pb7  1  0.95442300  0.98942100  0.72949300  1
  O  O8  1  0.04700100  0.59282500  0.73757100  1
  O  O9  1  0.45299900  0.09282500  0.23757100  1
  O  O10  1  0.95299900  0.40717500  0.26242900  1
  O  O11  1  0.54700100  0.90717500  0.76242900  1
  O  O12  1  0.17074600  0.19314300  0.52515500  1
  O  O13  1  0.32925400  0.69314300  0.02515500  1
  O  O14  1  0.82925400  0.80685700  0.47484500  1
  O  O15  1  0.67074600  0.30685700  0.97484500  1
  O  O16  1  0.27127100  0.67444300  0.44600500  1
  O  O17  1  0.22872900  0.17444300  0.94600500  1
  O  O18  1  0.72872900  0.32555700  0.55399500  1
  O  O19  1  0.77127100  0.82555700  0.05399500  1
