# generated using pymatgen
data_Ca3(Si3O11)2
_symmetry_space_group_name_H-M   'P 1'
_cell_length_a   7.33396000
_cell_length_b   7.49121728
_cell_length_c   10.00543140
_cell_angle_alpha   68.17393367
_cell_angle_beta   83.69559332
_cell_angle_gamma   74.83231921
_symmetry_Int_Tables_number   1
_chemical_formula_structural   Ca3(Si3O11)2
_chemical_formula_sum   'Ca3 Si6 O22'
_cell_volume   492.47214666
_cell_formula_units_Z   1
loop_
 _symmetry_equiv_pos_site_id
 _symmetry_equiv_pos_as_xyz
  1  'x, y, z'
loop_
 _atom_site_type_symbol
 _atom_site_label
 _atom_site_symmetry_multiplicity
 _atom_site_fract_x
 _atom_site_fract_y
 _atom_site_fract_z
 _atom_site_occupancy
  Ca  Ca0  1  0.46416900  0.33031600  0.16363300  1
  Ca  Ca1  1  0.53519000  0.71998900  0.85921700  1
  Ca  Ca2  1  0.55294600  0.17424100  0.85324900  1
  Si  Si3  1  0.84231600  0.94606400  0.14522400  1
  Si  Si4  1  0.11793400  0.10152000  0.87827800  1
  Si  Si5  1  0.15502500  0.50629700  0.89084900  1
  Si  Si6  1  0.86627900  0.51711000  0.14805000  1
  Si  Si7  1  0.82598200  0.12863600  0.37739200  1
  Si  Si8  1  0.93002300  0.93799900  0.70626200  1
  O  O9  1  0.01637800  0.99481000  0.02915100  1
  O  O10  1  0.89348300  0.97344700  0.29046200  1
  O  O11  1  0.00210700  0.10338900  0.74573700  1
  O  O12  1  0.64210100  0.09176500  0.07833500  1
  O  O13  1  0.33927200  0.99521600  0.87646000  1
  O  O14  1  0.09544100  0.33889800  0.84779700  1
  O  O15  1  0.84123600  0.71385800  0.18820000  1
  O  O16  1  0.06626000  0.49894400  0.04999100  1
  O  O17  1  0.08481800  0.72275700  0.76520600  1
  O  O18  1  0.91698600  0.32265200  0.29669100  1
  O  O19  1  0.38402100  0.46019800  0.90403900  1
  O  O20  1  0.68386700  0.52277100  0.06677900  1
  O  O21  1  0.93016700  0.00904500  0.53241100  1
  O  O22  1  0.59753700  0.19381600  0.38092200  1
  O  O23  1  0.72480100  0.92573400  0.77906000  1
  O  O24  1  0.45969200  0.45548400  0.48565200  1
  O  O25  1  0.40415400  0.87705400  0.46345600  1
  O  O26  1  0.28092600  0.55743100  0.29554800  1
  O  O27  1  0.31272000  0.97410900  0.35296800  1
  O  O28  1  0.83025100  0.55302100  0.56238300  1
  O  O29  1  0.29363600  0.49080200  0.43654900  1
  O  O30  1  0.71918100  0.52742900  0.66564500  1
