# generated using pymatgen
data_MgFe4(S3O23)2
_symmetry_space_group_name_H-M   'P 1'
_cell_length_a   7.64266800
_cell_length_b   7.70456151
_cell_length_c   17.96342599
_cell_angle_alpha   101.27656899
_cell_angle_beta   89.81421941
_cell_angle_gamma   102.07020216
_symmetry_Int_Tables_number   1
_chemical_formula_structural   MgFe4(S3O23)2
_chemical_formula_sum   'Mg1 Fe4 S6 O46'
_cell_volume   1013.61251306
_cell_formula_units_Z   1
loop_
 _symmetry_equiv_pos_site_id
 _symmetry_equiv_pos_as_xyz
  1  'x, y, z'
loop_
 _atom_site_type_symbol
 _atom_site_label
 _atom_site_symmetry_multiplicity
 _atom_site_fract_x
 _atom_site_fract_y
 _atom_site_fract_z
 _atom_site_occupancy
  Mg  Mg0  1  0.00000000  0.00000000  0.00000000  1
  Fe  Fe1  1  0.54376100  0.26714700  0.69303900  1
  Fe  Fe2  1  0.45623900  0.73285300  0.30696100  1
  Fe  Fe3  1  0.04524000  0.32670300  0.30646100  1
  Fe  Fe4  1  0.95476000  0.67329700  0.69353900  1
  S  S5  1  0.68283400  0.05349800  0.25213200  1
  S  S6  1  0.31716600  0.94650200  0.74786800  1
  S  S7  1  0.84071000  0.27268400  0.57068400  1
  S  S8  1  0.15929000  0.72731600  0.42931600  1
  S  S9  1  0.86039800  0.44543900  0.81862700  1
  S  S10  1  0.13960200  0.55456100  0.18137300  1
  O  O11  1  0.79719200  0.22725500  0.29944900  1
  O  O12  1  0.20280800  0.77274500  0.70055100  1
  O  O13  1  0.50721200  0.08706100  0.23649700  1
  O  O14  1  0.49278800  0.91293900  0.76350300  1
  O  O15  1  0.33546500  0.07901300  0.69305400  1
  O  O16  1  0.66453500  0.92098700  0.30694600  1
  O  O17  1  0.22294600  0.01218600  0.81442800  1
  O  O18  1  0.77705400  0.98781400  0.18557200  1
  O  O19  1  0.91830900  0.43933200  0.63182700  1
  O  O20  1  0.08169100  0.56066800  0.36817300  1
  O  O21  1  0.78914900  0.32622000  0.50199400  1
  O  O22  1  0.21085100  0.67378000  0.49800600  1
  O  O23  1  0.67246400  0.17640300  0.60506600  1
  O  O24  1  0.32753600  0.82359700  0.39493400  1
  O  O25  1  0.96757000  0.15490800  0.55986700  1
  O  O26  1  0.03243000  0.84509200  0.44013300  1
  O  O27  1  0.84685900  0.48961800  0.90044100  1
  O  O28  1  0.15314100  0.51038200  0.09955900  1
  O  O29  1  0.13344000  0.37787500  0.21139600  1
  O  O30  1  0.86656000  0.62212500  0.78860400  1
  O  O31  1  0.00875800  0.36409900  0.79154100  1
  O  O32  1  0.99124200  0.63590100  0.20845900  1
  O  O33  1  0.68231800  0.32260200  0.78457200  1
  O  O34  1  0.31768200  0.67739800  0.21542800  1
  O  O35  1  0.44305400  0.48331800  0.33628200  1
  O  O36  1  0.55694600  0.51668200  0.66371800  1
  O  O37  1  0.41454700  0.47911800  0.70331700  1
  O  O38  1  0.58545300  0.52088200  0.29668300  1
  O  O39  1  0.35615100  0.23338800  0.53115500  1
  O  O40  1  0.64384900  0.76661200  0.46884500  1
  O  O41  1  0.86409400  0.20096800  0.03785900  1
  O  O42  1  0.13590600  0.79903200  0.96214100  1
  O  O43  1  0.13296000  0.18101800  0.37612800  1
  O  O44  1  0.86704000  0.81898200  0.62387200  1
  O  O45  1  0.29605200  0.23823600  0.01309000  1
  O  O46  1  0.70394800  0.76176400  0.98691000  1
  O  O47  1  0.17082800  0.11297000  0.30719400  1
  O  O48  1  0.82917200  0.88703000  0.69280600  1
  O  O49  1  0.86404100  0.07706200  0.91867600  1
  O  O50  1  0.13595900  0.92293800  0.08132400  1
  O  O51  1  0.43681900  0.28273100  0.06023800  1
  O  O52  1  0.56318100  0.71726900  0.93976200  1
  O  O53  1  0.43714000  0.28854400  0.47921200  1
  O  O54  1  0.56286000  0.71145600  0.52078800  1
  O  O55  1  0.47906600  0.55406000  0.92850500  1
  O  O56  1  0.52093400  0.44594000  0.07149500  1
