# generated using pymatgen
data_CaSO6
_symmetry_space_group_name_H-M   'P 1'
_cell_length_a   17.52331300
_cell_length_b   5.69855800
_cell_length_c   6.72381271
_cell_angle_alpha   57.48063869
_cell_angle_beta   90.00000000
_cell_angle_gamma   90.00000000
_symmetry_Int_Tables_number   1
_chemical_formula_structural   CaSO6
_chemical_formula_sum   'Ca4 S4 O24'
_cell_volume   566.15123888
_cell_formula_units_Z   4
loop_
 _symmetry_equiv_pos_site_id
 _symmetry_equiv_pos_as_xyz
  1  'x, y, z'
loop_
 _atom_site_type_symbol
 _atom_site_label
 _atom_site_symmetry_multiplicity
 _atom_site_fract_x
 _atom_site_fract_y
 _atom_site_fract_z
 _atom_site_occupancy
  Ca  Ca0  1  0.80979900  0.75141000  0.00486600  1
  Ca  Ca1  1  0.69020100  0.75141000  0.50486600  1
  Ca  Ca2  1  0.19020100  0.24859000  0.99513400  1
  Ca  Ca3  1  0.30979900  0.24859000  0.49513400  1
  S  S4  1  0.67374700  0.25163900  0.00478000  1
  S  S5  1  0.82625300  0.25163900  0.50478000  1
  S  S6  1  0.32625300  0.74836100  0.99522000  1
  S  S7  1  0.17374700  0.74836100  0.49522000  1
  O  O8  1  0.72394800  0.50129500  0.92803200  1
  O  O9  1  0.77605200  0.50129500  0.42803200  1
  O  O10  1  0.27605200  0.49870500  0.07196800  1
  O  O11  1  0.22394800  0.49870500  0.57196800  1
  O  O12  1  0.22352800  0.99853700  0.41900200  1
  O  O13  1  0.27647200  0.99853700  0.91900200  1
  O  O14  1  0.77647200  0.00146300  0.58099800  1
  O  O15  1  0.72352800  0.00146300  0.08099800  1
  O  O16  1  0.62808500  0.32255000  0.79486200  1
  O  O17  1  0.87191500  0.32255000  0.29486200  1
  O  O18  1  0.37191500  0.67745000  0.20513800  1
  O  O19  1  0.12808500  0.67745000  0.70513800  1
  O  O20  1  0.12870900  0.81886700  0.28451600  1
  O  O21  1  0.37129100  0.81886700  0.78451600  1
  O  O22  1  0.87129100  0.18113300  0.71548400  1
  O  O23  1  0.62870900  0.18113300  0.21548400  1
  O  O24  1  0.97706000  0.94384600  0.08185900  1
  O  O25  1  0.52294000  0.94384600  0.58185900  1
  O  O26  1  0.02294000  0.05615400  0.91814100  1
  O  O27  1  0.47706000  0.05615400  0.41814100  1
  O  O28  1  0.47669300  0.44417400  0.58107700  1
  O  O29  1  0.02330700  0.44417400  0.08107700  1
  O  O30  1  0.52330700  0.55582600  0.41892300  1
  O  O31  1  0.97669300  0.55582600  0.91892300  1
