# generated using pymatgen
data_K3VO5
_symmetry_space_group_name_H-M   'P 1'
_cell_length_a   10.38718800
_cell_length_b   10.49027093
_cell_length_c   12.30511514
_cell_angle_alpha   90.00623111
_cell_angle_beta   90.00596932
_cell_angle_gamma   90.03475345
_symmetry_Int_Tables_number   1
_chemical_formula_structural   K3VO5
_chemical_formula_sum   'K24 V8 O40'
_cell_volume   1340.81942705
_cell_formula_units_Z   8
loop_
 _symmetry_equiv_pos_site_id
 _symmetry_equiv_pos_as_xyz
  1  'x, y, z'
loop_
 _atom_site_type_symbol
 _atom_site_label
 _atom_site_symmetry_multiplicity
 _atom_site_fract_x
 _atom_site_fract_y
 _atom_site_fract_z
 _atom_site_occupancy
  K  K0  1  0.76569000  0.28691900  0.62197300  1
  K  K1  1  0.26480100  0.21354700  0.37816700  1
  K  K2  1  0.23519900  0.78626800  0.87789600  1
  K  K3  1  0.73399700  0.71328400  0.12243000  1
  K  K4  1  0.23471500  0.71349900  0.37736200  1
  K  K5  1  0.73463100  0.78646200  0.62213100  1
  K  K6  1  0.76522200  0.21339200  0.12181400  1
  K  K7  1  0.26483800  0.28664600  0.87766300  1
  K  K8  1  0.12632300  0.39769400  0.59650500  1
  K  K9  1  0.62633500  0.10256100  0.40335600  1
  K  K10  1  0.87371600  0.89750900  0.90306800  1
  K  K11  1  0.37397900  0.60227100  0.09650300  1
  K  K12  1  0.87374400  0.60246300  0.40323600  1
  K  K13  1  0.37388200  0.89780700  0.59667300  1
  K  K14  1  0.12617900  0.10226100  0.09642500  1
  K  K15  1  0.62659200  0.39761200  0.90334200  1
  K  K16  1  0.45609200  0.54744900  0.65289100  1
  K  K17  1  0.95597600  0.95307400  0.34698000  1
  K  K18  1  0.54384500  0.04669800  0.84737700  1
  K  K19  1  0.04389100  0.45274000  0.15241600  1
  K  K20  1  0.54393600  0.45327900  0.34766400  1
  K  K21  1  0.04382700  0.04724600  0.65273300  1
  K  K22  1  0.45605600  0.95250000  0.15321800  1
  K  K23  1  0.95607400  0.54671300  0.84717100  1
  V  V24  1  0.44143000  0.21886800  0.63209600  1
  V  V25  1  0.94147900  0.28164000  0.36769400  1
  V  V26  1  0.55873800  0.71838700  0.86804500  1
  V  V27  1  0.05858500  0.78121100  0.13156400  1
  V  V28  1  0.55884100  0.78137300  0.36884600  1
  V  V29  1  0.05853400  0.71855300  0.63202500  1
  V  V30  1  0.44156800  0.28141200  0.13221700  1
  V  V31  1  0.94105900  0.21852500  0.86802100  1
  O  O32  1  0.45857800  0.32531800  0.52667600  1
  O  O33  1  0.95867400  0.17541100  0.47335400  1
  O  O34  1  0.54166000  0.82436100  0.97393200  1
  O  O35  1  0.04149200  0.67492600  0.02610900  1
  O  O36  1  0.54163400  0.67554000  0.47438500  1
  O  O37  1  0.04130700  0.82492600  0.52643800  1
  O  O38  1  0.45880300  0.17482700  0.02694800  1
  O  O39  1  0.95823200  0.32465900  0.97362700  1
  O  O40  1  0.47367000  0.29392100  0.75382100  1
  O  O41  1  0.97360300  0.20615400  0.24616100  1
  O  O42  1  0.52641300  0.79405300  0.74666600  1
  O  O43  1  0.02619900  0.70588500  0.25324500  1
  O  O44  1  0.52629700  0.70575700  0.24718900  1
  O  O45  1  0.02651900  0.79382400  0.75365800  1
  O  O46  1  0.47343700  0.20637000  0.25407000  1
  O  O47  1  0.97358200  0.29397100  0.74643700  1
  O  O48  1  0.27933000  0.15982500  0.62570800  1
  O  O49  1  0.77967100  0.34094200  0.37396100  1
  O  O50  1  0.72062800  0.65921300  0.87395800  1
  O  O51  1  0.22076200  0.84011600  0.12546900  1
  O  O52  1  0.72088700  0.84052900  0.37465200  1
  O  O53  1  0.22046300  0.65951500  0.62579600  1
  O  O54  1  0.27972900  0.34068400  0.12572700  1
  O  O55  1  0.77901200  0.15943100  0.87411900  1
  O  O56  1  0.55041100  0.09377600  0.61519100  1
  O  O57  1  0.05081300  0.40664600  0.38449800  1
  O  O58  1  0.44953100  0.59330100  0.88476500  1
  O  O59  1  0.94964800  0.90631800  0.11482000  1
  O  O60  1  0.44983000  0.90653900  0.38532800  1
  O  O61  1  0.94939800  0.59337400  0.61528900  1
  O  O62  1  0.55086600  0.40652400  0.11547900  1
  O  O63  1  0.05014900  0.09358400  0.88482900  1
  O  O64  1  0.72479300  0.54133700  0.71880200  1
  O  O65  1  0.22381300  0.95842200  0.28004000  1
  O  O66  1  0.27586300  0.04157700  0.78022500  1
  O  O67  1  0.77502900  0.45859400  0.21870400  1
  O  O68  1  0.27545400  0.45857200  0.28075000  1
  O  O69  1  0.77557000  0.04175200  0.71926000  1
  O  O70  1  0.72399900  0.95828400  0.21972700  1
  O  O71  1  0.22447600  0.54137900  0.78068400  1
