# generated using pymatgen
data_Ba8CaY2U4O24
_symmetry_space_group_name_H-M   'P 1'
_cell_length_a   12.39972792
_cell_length_b   12.41270385
_cell_length_c   17.63268902
_cell_angle_alpha   90.00000000
_cell_angle_beta   90.00000000
_cell_angle_gamma   90.00000000
_symmetry_Int_Tables_number   1
_chemical_formula_structural   Ba8CaY2U4O24
_chemical_formula_sum   'Ba32 Ca4 Y8 U16 O96'
_cell_volume   2713.92035139
_cell_formula_units_Z   4
loop_
 _symmetry_equiv_pos_site_id
 _symmetry_equiv_pos_as_xyz
  1  'x, y, z'
loop_
 _atom_site_type_symbol
 _atom_site_label
 _atom_site_symmetry_multiplicity
 _atom_site_fract_x
 _atom_site_fract_y
 _atom_site_fract_z
 _atom_site_occupancy
  Ba  Ba0  1  0.50000000  0.27599105  0.11597013  1
  Ba  Ba1  1  0.50000000  0.27599105  0.88402987  1
  Ba  Ba2  1  0.77159067  0.50000000  0.61645535  1
  Ba  Ba3  1  0.22840933  0.50000000  0.38354465  1
  Ba  Ba4  1  0.50000000  0.72400895  0.88402987  1
  Ba  Ba5  1  0.50000000  0.72400895  0.11597013  1
  Ba  Ba6  1  -0.00000000  0.25843139  0.61835292  1
  Ba  Ba7  1  0.72350698  -0.00000000  0.61759329  1
  Ba  Ba8  1  -0.00000000  0.77037870  0.88146209  1
  Ba  Ba9  1  0.77159067  0.50000000  0.38354465  1
  Ba  Ba10  1  0.75351978  -0.00000000  0.12063588  1
  Ba  Ba11  1  0.75351978  -0.00000000  0.87936412  1
  Ba  Ba12  1  0.25389059  0.50000000  0.11746644  1
  Ba  Ba13  1  -0.00000000  0.74156861  0.61835292  1
  Ba  Ba14  1  0.27649302  -0.00000000  0.61759329  1
  Ba  Ba15  1  -0.00000000  0.74156861  0.38164708  1
  Ba  Ba16  1  -0.00000000  0.25843139  0.38164708  1
  Ba  Ba17  1  0.50000000  0.74686101  0.61820444  1
  Ba  Ba18  1  0.50000000  0.74686101  0.38179556  1
  Ba  Ba19  1  -0.00000000  0.22962130  0.11853791  1
  Ba  Ba20  1  0.25389059  0.50000000  0.88253356  1
  Ba  Ba21  1  0.50000000  0.25313899  0.38179556  1
  Ba  Ba22  1  0.22840933  0.50000000  0.61645535  1
  Ba  Ba23  1  0.50000000  0.25313899  0.61820444  1
  Ba  Ba24  1  0.72350698  -0.00000000  0.38240671  1
  Ba  Ba25  1  0.74610941  0.50000000  0.11746644  1
  Ba  Ba26  1  0.24648022  -0.00000000  0.12063588  1
  Ba  Ba27  1  0.74610941  0.50000000  0.88253356  1
  Ba  Ba28  1  0.27649302  -0.00000000  0.38240671  1
  Ba  Ba29  1  -0.00000000  0.22962130  0.88146209  1
  Ba  Ba30  1  -0.00000000  0.77037870  0.11853791  1
  Ba  Ba31  1  0.24648022  -0.00000000  0.87936412  1
  Ca  Ca32  1  0.50000000  0.50000000  0.50000000  1
  Ca  Ca33  1  -0.00000000  -0.00000000  0.50000000  1
  Ca  Ca34  1  0.50000000  -0.00000000  -0.00000000  1
  Ca  Ca35  1  -0.00000000  0.50000000  -0.00000000  1
  Y  Y36  1  0.74942221  0.24993443  0.24998427  1
  Y  Y37  1  0.25057779  0.75006557  0.24998427  1
  Y  Y38  1  0.74942221  0.75006557  0.24998427  1
  Y  Y39  1  0.25057779  0.75006557  0.75001573  1
  Y  Y40  1  0.25057779  0.24993443  0.75001573  1
  Y  Y41  1  0.74942221  0.75006557  0.75001573  1
  Y  Y42  1  0.25057779  0.24993443  0.24998427  1
  Y  Y43  1  0.74942221  0.24993443  0.75001573  1
  U  U44  1  0.50000000  0.50000000  0.74691098  1
  U  U45  1  -0.00000000  -0.00000000  0.74539149  1
  U  U46  1  0.74793783  0.75087856  0.50000000  1
  U  U47  1  0.25206217  0.24912144  0.50000000  1
  U  U48  1  0.50000000  0.50000000  0.25308902  1
  U  U49  1  0.25206217  0.75087856  0.50000000  1
  U  U50  1  -0.00000000  0.50000000  0.75090263  1
  U  U51  1  -0.00000000  -0.00000000  0.25460851  1
  U  U52  1  0.75094280  0.25203593  -0.00000000  1
  U  U53  1  0.50000000  -0.00000000  0.75630841  1
  U  U54  1  0.75094280  0.74796407  -0.00000000  1
  U  U55  1  0.24905720  0.74796407  -0.00000000  1
  U  U56  1  0.74793783  0.24912144  0.50000000  1
  U  U57  1  0.50000000  -0.00000000  0.24369159  1
  U  U58  1  -0.00000000  0.50000000  0.24909737  1
  U  U59  1  0.24905720  0.25203593  -0.00000000  1
  O  O60  1  0.38210580  0.62371435  0.75123712  1
  O  O61  1  0.62678862  0.63351347  0.50000000  1
  O  O62  1  0.74348819  0.74866182  0.37734957  1
  O  O63  1  0.62502037  0.11786495  0.75443178  1
  O  O64  1  0.13555627  0.37583133  -0.00000000  1
  O  O65  1  0.37321138  0.36648653  0.50000000  1
  O  O66  1  0.37497963  0.11786495  0.24556822  1
  O  O67  1  0.87777144  0.37995768  0.25545494  1
  O  O68  1  -0.00000000  0.50000000  0.63636941  1
  O  O69  1  0.13032223  0.85788542  -0.00000000  1
  O  O70  1  0.36487289  0.86639777  0.50000000  1
  O  O71  1  0.13011469  0.13341198  0.50000000  1
  O  O72  1  0.12050320  0.12298222  0.24993335  1
  O  O73  1  0.13555627  0.62416867  -0.00000000  1
  O  O74  1  0.13775890  0.36537306  0.50000000  1
  O  O75  1  0.50000000  -0.00000000  0.35764218  1
  O  O76  1  0.37497963  0.11786495  0.75443178  1
  O  O77  1  0.62502037  0.11786495  0.24556822  1
  O  O78  1  0.86444373  0.37583133  -0.00000000  1
  O  O79  1  -0.00000000  0.50000000  0.13357777  1
  O  O80  1  0.87777144  0.37995768  0.74454506  1
  O  O81  1  0.50000000  -0.00000000  0.87079852  1
  O  O82  1  0.12050320  0.12298222  0.75006665  1
  O  O83  1  0.86967777  0.14211458  -0.00000000  1
  O  O84  1  0.12222856  0.62004232  0.74454506  1
  O  O85  1  0.63512711  0.13360223  0.50000000  1
  O  O86  1  0.63512711  0.86639777  0.50000000  1
  O  O87  1  -0.00000000  0.50000000  0.36363059  1
  O  O88  1  0.86224110  0.36537306  0.50000000  1
  O  O89  1  0.24741879  0.25716236  0.12272670  1
  O  O90  1  0.62502037  0.88213505  0.75443178  1
  O  O91  1  0.86224110  0.63462694  0.50000000  1
  O  O92  1  0.37321138  0.63351347  0.50000000  1
  O  O93  1  0.61789420  0.62371435  0.75123712  1
  O  O94  1  0.86444373  0.62416867  -0.00000000  1
  O  O95  1  0.63245480  0.36350996  -0.00000000  1
  O  O96  1  0.75258121  0.25716236  0.12272670  1
  O  O97  1  0.50000000  0.50000000  0.63135523  1
  O  O98  1  0.50000000  0.50000000  0.86171193  1
  O  O99  1  0.50000000  0.50000000  0.13828807  1
  O  O100  1  0.87949680  0.87701778  0.75006665  1
  O  O101  1  0.12222856  0.62004232  0.25545494  1
  O  O102  1  0.37497963  0.88213505  0.75443178  1
  O  O103  1  0.50000000  -0.00000000  0.12920148  1
  O  O104  1  0.86988531  0.13341198  0.50000000  1
  O  O105  1  0.13775890  0.63462694  0.50000000  1
  O  O106  1  0.37497963  0.88213505  0.24556822  1
  O  O107  1  0.75258121  0.74283764  0.87727330  1
  O  O108  1  0.63628916  0.12826517  -0.00000000  1
  O  O109  1  0.38210580  0.37628565  0.75123712  1
  O  O110  1  -0.00000000  -0.00000000  0.63120091  1
  O  O111  1  0.61789420  0.62371435  0.24876288  1
  O  O112  1  0.12050320  0.87701778  0.75006665  1
  O  O113  1  0.36371084  0.87173483  -0.00000000  1
  O  O114  1  0.24741879  0.74283764  0.87727330  1
  O  O115  1  0.13032223  0.14211458  -0.00000000  1
  O  O116  1  0.12050320  0.87701778  0.24993335  1
  O  O117  1  0.12222856  0.37995768  0.25545494  1
  O  O118  1  0.50000000  0.50000000  0.36864477  1
  O  O119  1  -0.00000000  0.50000000  0.86642223  1
  O  O120  1  0.36754520  0.36350996  -0.00000000  1
  O  O121  1  0.74348819  0.25133818  0.62265043  1
  O  O122  1  0.86967777  0.85788542  -0.00000000  1
  O  O123  1  0.63245480  0.63649004  -0.00000000  1
  O  O124  1  -0.00000000  -0.00000000  0.36879909  1
  O  O125  1  0.61789420  0.37628565  0.75123712  1
  O  O126  1  -0.00000000  -0.00000000  0.85940771  1
  O  O127  1  0.87777144  0.62004232  0.74454506  1
  O  O128  1  0.87949680  0.12298222  0.75006665  1
  O  O129  1  0.13011469  0.86658802  0.50000000  1
  O  O130  1  0.36487289  0.13360223  0.50000000  1
  O  O131  1  0.24741879  0.74283764  0.12272670  1
  O  O132  1  0.74348819  0.74866182  0.62265043  1
  O  O133  1  0.25651181  0.25133818  0.62265043  1
  O  O134  1  0.62502037  0.88213505  0.24556822  1
  O  O135  1  0.86988531  0.86658802  0.50000000  1
  O  O136  1  0.36754520  0.63649004  -0.00000000  1
  O  O137  1  0.25651181  0.25133818  0.37734957  1
  O  O138  1  0.74348819  0.25133818  0.37734957  1
  O  O139  1  0.38210580  0.62371435  0.24876288  1
  O  O140  1  0.38210580  0.37628565  0.24876288  1
  O  O141  1  0.24741879  0.25716236  0.87727330  1
  O  O142  1  0.25651181  0.74866182  0.37734957  1
  O  O143  1  0.63628916  0.87173483  -0.00000000  1
  O  O144  1  0.87949680  0.12298222  0.24993335  1
  O  O145  1  0.75258121  0.25716236  0.87727330  1
  O  O146  1  -0.00000000  -0.00000000  0.14059229  1
  O  O147  1  0.36371084  0.12826517  -0.00000000  1
  O  O148  1  0.12222856  0.37995768  0.74454506  1
  O  O149  1  0.75258121  0.74283764  0.12272670  1
  O  O150  1  0.87949680  0.87701778  0.24993335  1
  O  O151  1  0.87777144  0.62004232  0.25545494  1
  O  O152  1  0.62678862  0.36648653  0.50000000  1
  O  O153  1  0.61789420  0.37628565  0.24876288  1
  O  O154  1  0.50000000  -0.00000000  0.64235782  1
  O  O155  1  0.25651181  0.74866182  0.62265043  1
