# generated using pymatgen
data_BaTlP3O11
_symmetry_space_group_name_H-M   'P 1'
_cell_length_a   12.25812100
_cell_length_b   7.20345500
_cell_length_c   13.12457889
_cell_angle_alpha   68.51917624
_cell_angle_beta   90.00000000
_cell_angle_gamma   90.00000000
_symmetry_Int_Tables_number   1
_chemical_formula_structural   BaTlP3O11
_chemical_formula_sum   'Ba4 Tl4 P12 O44'
_cell_volume   1078.41335975
_cell_formula_units_Z   4
loop_
 _symmetry_equiv_pos_site_id
 _symmetry_equiv_pos_as_xyz
  1  'x, y, z'
loop_
 _atom_site_type_symbol
 _atom_site_label
 _atom_site_symmetry_multiplicity
 _atom_site_fract_x
 _atom_site_fract_y
 _atom_site_fract_z
 _atom_site_occupancy
  Ba  Ba0  1  0.53051400  0.54602200  0.16604500  1
  Ba  Ba1  1  0.96948600  0.54602200  0.66604500  1
  Ba  Ba2  1  0.46948600  0.45397800  0.83395500  1
  Ba  Ba3  1  0.03051400  0.45397800  0.33395500  1
  Tl  Tl4  1  0.74686300  0.81975600  0.89608900  1
  Tl  Tl5  1  0.75313700  0.81975600  0.39608900  1
  Tl  Tl6  1  0.25313700  0.18024400  0.10391100  1
  Tl  Tl7  1  0.24686300  0.18024400  0.60391100  1
  P  P8  1  0.64595100  0.13128900  0.06637600  1
  P  P9  1  0.85404900  0.13128900  0.56637600  1
  P  P10  1  0.35404900  0.86871100  0.93362400  1
  P  P11  1  0.14595100  0.86871100  0.43362400  1
  P  P12  1  0.83220700  0.33601400  0.91502700  1
  P  P13  1  0.66779300  0.33601400  0.41502700  1
  P  P14  1  0.16779300  0.66398600  0.08497300  1
  P  P15  1  0.33220700  0.66398600  0.58497300  1
  P  P16  1  0.81251100  0.34578600  0.12816700  1
  P  P17  1  0.68748900  0.34578600  0.62816700  1
  P  P18  1  0.18748900  0.65421400  0.87183300  1
  P  P19  1  0.31251100  0.65421400  0.37183300  1
  O  O20  1  0.88528400  0.31733800  0.03068600  1
  O  O21  1  0.61471600  0.31733800  0.53068600  1
  O  O22  1  0.11471600  0.68266200  0.96931400  1
  O  O23  1  0.38528400  0.68266200  0.46931400  1
  O  O24  1  0.73125500  0.15081500  0.15733400  1
  O  O25  1  0.76874500  0.15081500  0.65733400  1
  O  O26  1  0.26874500  0.84918500  0.84266600  1
  O  O27  1  0.23125500  0.84918500  0.34266600  1
  O  O28  1  0.71537000  0.22661600  0.95200800  1
  O  O29  1  0.78463000  0.22661600  0.45200800  1
  O  O30  1  0.28463000  0.77338400  0.04799200  1
  O  O31  1  0.21537000  0.77338400  0.54799200  1
  O  O32  1  0.62563400  0.91670600  0.08818600  1
  O  O33  1  0.87436600  0.91670600  0.58818600  1
  O  O34  1  0.37436600  0.08329400  0.91181400  1
  O  O35  1  0.12563400  0.08329400  0.41181400  1
  O  O36  1  0.55130700  0.27415500  0.05132400  1
  O  O37  1  0.94869300  0.27415500  0.55132400  1
  O  O38  1  0.44869300  0.72584500  0.94867600  1
  O  O39  1  0.05130700  0.72584500  0.44867600  1
  O  O40  1  0.81830300  0.55304300  0.84262000  1
  O  O41  1  0.68169700  0.55304300  0.34262000  1
  O  O42  1  0.18169700  0.44695700  0.15738000  1
  O  O43  1  0.31830300  0.44695700  0.65738000  1
  O  O44  1  0.89776000  0.22668300  0.85748800  1
  O  O45  1  0.60224000  0.22668300  0.35748800  1
  O  O46  1  0.10224000  0.77331700  0.14251200  1
  O  O47  1  0.39776000  0.77331700  0.64251200  1
  O  O48  1  0.74080600  0.52784800  0.07968200  1
  O  O49  1  0.75919400  0.52784800  0.57968200  1
  O  O50  1  0.25919400  0.47215200  0.92031800  1
  O  O51  1  0.24080600  0.47215200  0.42031800  1
  O  O52  1  0.88350900  0.31922900  0.22394200  1
  O  O53  1  0.61649100  0.31922900  0.72394200  1
  O  O54  1  0.11649100  0.68077100  0.77605800  1
  O  O55  1  0.38350900  0.68077100  0.27605800  1
  O  O56  1  0.61382400  0.89618800  0.44860000  1
  O  O57  1  0.88617600  0.89618800  0.94860000  1
  O  O58  1  0.38617600  0.10381200  0.55140000  1
  O  O59  1  0.11382400  0.10381200  0.05140000  1
  O  O60  1  0.60853100  0.76938200  0.82895800  1
  O  O61  1  0.89146900  0.76938200  0.32895800  1
  O  O62  1  0.39146900  0.23061800  0.17104200  1
  O  O63  1  0.10853100  0.23061800  0.67104200  1
