# generated using pymatgen
data_CdSnO3
_symmetry_space_group_name_H-M   'P 1'
_cell_length_a   6.70444350
_cell_length_b   8.48919923
_cell_length_c   3.36531635
_cell_angle_alpha   89.84814720
_cell_angle_beta   120.33625723
_cell_angle_gamma   73.32165020
_symmetry_Int_Tables_number   1
_chemical_formula_structural   CdSnO3
_chemical_formula_sum   'Cd2 Sn2 O6'
_cell_volume   155.81331425
_cell_formula_units_Z   2
loop_
 _symmetry_equiv_pos_site_id
 _symmetry_equiv_pos_as_xyz
  1  'x, y, z'
loop_
 _atom_site_type_symbol
 _atom_site_label
 _atom_site_symmetry_multiplicity
 _atom_site_fract_x
 _atom_site_fract_y
 _atom_site_fract_z
 _atom_site_occupancy
  Cd  Cd0  1  0.29449800  0.66355700  0.04763000  1
  Cd  Cd1  1  0.70550200  0.33644300  0.95237000  1
  Sn  Sn2  1  0.66906800  0.83097800  0.92224200  1
  Sn  Sn3  1  0.33093200  0.16902200  0.07775800  1
  O  O4  1  0.89826300  0.78161200  0.65315800  1
  O  O5  1  0.59785200  0.08853000  0.84832500  1
  O  O6  1  0.42424300  0.38074500  0.17005000  1
  O  O7  1  0.10173700  0.21838800  0.34684200  1
  O  O8  1  0.40214800  0.91147000  0.15167500  1
  O  O9  1  0.57575700  0.61925500  0.82995000  1
