# generated using pymatgen
data_Cr2NiH20(NO7)2
_symmetry_space_group_name_H-M   'P 1'
_cell_length_a   18.63671400
_cell_length_b   9.85562300
_cell_length_c   14.90574284
_cell_angle_alpha   56.86314385
_cell_angle_beta   90.00000000
_cell_angle_gamma   90.00000000
_symmetry_Int_Tables_number   1
_chemical_formula_structural   Cr2NiH20(NO7)2
_chemical_formula_sum   'Cr4 Ni2 H40 N4 O28'
_cell_volume   2292.57220317
_cell_formula_units_Z   2
loop_
 _symmetry_equiv_pos_site_id
 _symmetry_equiv_pos_as_xyz
  1  'x, y, z'
loop_
 _atom_site_type_symbol
 _atom_site_label
 _atom_site_symmetry_multiplicity
 _atom_site_fract_x
 _atom_site_fract_y
 _atom_site_fract_z
 _atom_site_occupancy
  Cr  Cr0  1  0.36277200  0.32581900  0.88074100  1
  Cr  Cr1  1  0.86277200  0.67418100  0.61925900  1
  Cr  Cr2  1  0.63722800  0.67418100  0.11925900  1
  Cr  Cr3  1  0.13722800  0.32581900  0.38074100  1
  Ni  Ni4  1  0.50000000  0.00000000  0.50000000  1
  Ni  Ni5  1  0.00000000  0.00000000  0.00000000  1
  H  H6  1  0.23417900  0.04359300  0.39530800  1
  H  H7  1  0.73417900  0.95640700  0.10469200  1
  H  H8  1  0.76582100  0.95640700  0.60469200  1
  H  H9  1  0.26582100  0.04359300  0.89530800  1
  H  H10  1  0.19966800  0.59742900  0.74745700  1
  H  H11  1  0.69966800  0.40257100  0.75254300  1
  H  H12  1  0.80033200  0.40257100  0.25254300  1
  H  H13  1  0.30033200  0.59742900  0.24745700  1
  H  H14  1  0.31185200  0.39769400  0.17896100  1
  H  H15  1  0.81185200  0.60230600  0.32103900  1
  H  H16  1  0.68814800  0.60230600  0.82103900  1
  H  H17  1  0.18814800  0.39769400  0.67896100  1
  H  H18  1  0.68456700  0.61043700  0.86796500  1
  H  H19  1  0.18456700  0.38956300  0.63203500  1
  H  H20  1  0.31543300  0.38956300  0.13203500  1
  H  H21  1  0.81543300  0.61043700  0.36796500  1
  H  H22  1  0.51941900  0.76765600  0.81309300  1
  H  H23  1  0.01941900  0.23234400  0.68690700  1
  H  H24  1  0.48058100  0.23234400  0.18690700  1
  H  H25  1  0.98058100  0.76765600  0.31309300  1
  H  H26  1  0.26128400  0.74943900  0.22298500  1
  H  H27  1  0.76128400  0.25056100  0.27701500  1
  H  H28  1  0.73871600  0.25056100  0.77701500  1
  H  H29  1  0.23871600  0.74943900  0.72298500  1
  H  H30  1  0.49548800  0.81029600  0.58440600  1
  H  H31  1  0.99548800  0.18970400  0.91559400  1
  H  H32  1  0.50451200  0.18970400  0.41559400  1
  H  H33  1  0.00451200  0.81029600  0.08440600  1
  H  H34  1  0.94954300  0.04083800  0.54237700  1
  H  H35  1  0.44954300  0.95916200  0.95762300  1
  H  H36  1  0.05045700  0.95916200  0.45762300  1
  H  H37  1  0.55045700  0.04083800  0.04237700  1
  H  H38  1  0.54554900  0.66506200  0.23607900  1
  H  H39  1  0.04554900  0.33493800  0.26392100  1
  H  H40  1  0.45445100  0.33493800  0.76392100  1
  H  H41  1  0.95445100  0.66506200  0.73607900  1
  H  H42  1  0.02291600  0.26127600  0.72400500  1
  H  H43  1  0.52291600  0.73872400  0.77599500  1
  H  H44  1  0.97708400  0.73872400  0.27599500  1
  H  H45  1  0.47708400  0.26127600  0.22400500  1
  N  N46  1  0.41201800  0.39207500  0.95869700  1
  N  N47  1  0.91201800  0.60792500  0.54130300  1
  N  N48  1  0.58798200  0.60792500  0.04130300  1
  N  N49  1  0.08798200  0.39207500  0.45869700  1
  O  O50  1  0.28744600  0.41917200  0.85025000  1
  O  O51  1  0.78744600  0.58082800  0.64975000  1
  O  O52  1  0.71255400  0.58082800  0.14975000  1
  O  O53  1  0.21255400  0.41917200  0.35025000  1
  O  O54  1  0.39776400  0.24878000  0.02952500  1
  O  O55  1  0.89776400  0.75122000  0.47047500  1
  O  O56  1  0.60223600  0.75122000  0.97047500  1
  O  O57  1  0.10223600  0.24878000  0.52952500  1
  O  O58  1  0.41315900  0.39729600  0.76188900  1
  O  O59  1  0.91315900  0.60270400  0.73811100  1
  O  O60  1  0.58684100  0.60270400  0.23811100  1
  O  O61  1  0.08684100  0.39729600  0.26188900  1
  O  O62  1  0.31076000  0.09610200  0.85822600  1
  O  O63  1  0.81076000  0.90389800  0.64177400  1
  O  O64  1  0.68924000  0.90389800  0.14177400  1
  O  O65  1  0.18924000  0.09610200  0.35822600  1
  O  O66  1  0.48783900  0.92106800  0.01096700  1
  O  O67  1  0.98783900  0.07893200  0.48903300  1
  O  O68  1  0.51216100  0.07893200  0.98903300  1
  O  O69  1  0.01216100  0.92106800  0.51096700  1
  O  O70  1  0.69399100  0.28543900  0.79163000  1
  O  O71  1  0.19399100  0.71456100  0.70837000  1
  O  O72  1  0.30600900  0.71456100  0.20837000  1
  O  O73  1  0.80600900  0.28543900  0.29163000  1
  O  O74  1  0.15367800  0.11032700  0.43986900  1
  O  O75  1  0.65367800  0.88967300  0.06013100  1
  O  O76  1  0.84632200  0.88967300  0.56013100  1
  O  O77  1  0.34632200  0.11032700  0.93986900  1
