# generated using pymatgen
data_Fe8H10O17
_symmetry_space_group_name_H-M   'P 1'
_cell_length_a   6.13736800
_cell_length_b   10.54836913
_cell_length_c   10.72137103
_cell_angle_alpha   93.42568392
_cell_angle_beta   91.14579198
_cell_angle_gamma   91.78072819
_symmetry_Int_Tables_number   1
_chemical_formula_structural   Fe8H10O17
_chemical_formula_sum   'Fe16 H20 O34'
_cell_volume   692.35225040
_cell_formula_units_Z   2
loop_
 _symmetry_equiv_pos_site_id
 _symmetry_equiv_pos_as_xyz
  1  'x, y, z'
loop_
 _atom_site_type_symbol
 _atom_site_label
 _atom_site_symmetry_multiplicity
 _atom_site_fract_x
 _atom_site_fract_y
 _atom_site_fract_z
 _atom_site_occupancy
  Fe  Fe0  1  0.02171200  0.32312700  0.90849800  1
  Fe  Fe1  1  0.99405500  0.16006500  0.38418400  1
  Fe  Fe2  1  0.24634000  0.83814300  0.43366900  1
  Fe  Fe3  1  0.22245400  0.71321800  0.91196800  1
  Fe  Fe4  1  0.99889000  0.66514200  0.20563400  1
  Fe  Fe5  1  0.99553400  0.86692300  0.72455900  1
  Fe  Fe6  1  0.24496200  0.17219200  0.68133600  1
  Fe  Fe7  1  0.25260400  0.35696800  0.19882100  1
  Fe  Fe8  1  0.50140600  0.32441300  0.90138800  1
  Fe  Fe9  1  0.48991500  0.14620000  0.38204900  1
  Fe  Fe10  1  0.72742200  0.83117500  0.42328500  1
  Fe  Fe11  1  0.78964700  0.86093400  0.03717100  1
  Fe  Fe12  1  0.49039600  0.67977400  0.18094700  1
  Fe  Fe13  1  0.50634600  0.87200700  0.73317800  1
  Fe  Fe14  1  0.76148600  0.17538600  0.67039800  1
  Fe  Fe15  1  0.74758400  0.33271600  0.19424900  1
  H  H16  1  0.99971700  0.38260700  0.64749200  1
  H  H17  1  0.99517600  0.42115300  0.39661700  1
  H  H18  1  0.19872800  0.87300500  0.18082600  1
  H  H19  1  0.98362500  0.65584900  0.48912400  1
  H  H20  1  0.98968900  0.99417200  0.52405000  1
  H  H21  1  0.86210300  0.68978400  0.83325700  1
  H  H22  1  0.30073600  0.50129400  0.99273300  1
  H  H23  1  0.17894000  0.08731300  0.18193200  1
  H  H24  1  0.48018300  0.37365400  0.64258200  1
  H  H25  1  0.49596200  0.01639100  0.57257400  1
  H  H26  1  0.52058600  0.40444600  0.40455000  1
  H  H27  1  0.75423600  0.52357000  0.07646000  1
  H  H28  1  0.40337400  0.61948400  0.37636300  1
  H  H29  1  0.75783400  0.11251200  0.90377700  1
  H  H30  1  0.82377400  0.51045400  0.84827900  1
  H  H31  1  0.67929600  0.08172800  0.17486600  1
  H  H32  1  0.48138300  0.01389000  0.02807200  1
  H  H33  1  0.14190200  0.96827600  0.00841400  1
  H  H34  1  0.55645700  0.60093700  0.77982000  1
  H  H35  1  0.42545600  0.64596000  0.65833900  1
  O  O36  1  0.00606000  0.31429500  0.70369600  1
  O  O37  1  0.99457300  0.05246300  0.67165700  1
  O  O38  1  0.99898300  0.35384100  0.33148100  1
  O  O39  1  0.00141100  0.31842500  0.08723800  1
  O  O40  1  0.24166100  0.80377400  0.23853600  1
  O  O41  1  0.25686700  0.54861700  0.21164700  1
  O  O42  1  0.25584000  0.88224700  0.85309700  1
  O  O43  1  0.24538800  0.82948300  0.61167400  1
  O  O44  1  0.98360300  0.69883600  0.41142200  1
  O  O45  1  0.98921000  0.96665200  0.43092800  1
  O  O46  1  0.98400100  0.66944300  0.77838700  1
  O  O47  1  0.98889900  0.70840300  0.03090900  1
  O  O48  1  0.25478800  0.20441700  0.86714300  1
  O  O49  1  0.26813300  0.46337000  0.90840900  1
  O  O50  1  0.22921900  0.15175100  0.25171400  1
  O  O51  1  0.25045800  0.19329600  0.49769800  1
  O  O52  1  0.51041800  0.31072400  0.70250600  1
  O  O53  1  0.50054900  0.05046100  0.66434500  1
  O  O54  1  0.50397500  0.34775300  0.33043800  1
  O  O55  1  0.49358400  0.32092500  0.08337300  1
  O  O56  1  0.74856900  0.78884700  0.23100700  1
  O  O57  1  0.74627000  0.53324800  0.16949200  1
  O  O58  1  0.75681500  0.88813400  0.85514900  1
  O  O59  1  0.73749200  0.82876900  0.60669300  1
  O  O60  1  0.47119300  0.69258100  0.42535000  1
  O  O61  1  0.49468900  0.96279900  0.42452400  1
  O  O62  1  0.49125000  0.70618400  0.01034500  1
  O  O63  1  0.75282300  0.19533500  0.86709300  1
  O  O64  1  0.77115600  0.44801900  0.90573300  1
  O  O65  1  0.73417300  0.14940500  0.25116200  1
  O  O66  1  0.74789500  0.19726100  0.49397500  1
  O  O67  1  0.59243500  0.99308500  0.08846300  1
  O  O68  1  0.06213600  0.96836600  0.08743700  1
  O  O69  1  0.44982000  0.65892100  0.74898700  1
