# generated using pymatgen
data_Mg12Fe4C2O47
_symmetry_space_group_name_H-M   'P 1'
_cell_length_a   9.90145100
_cell_length_b   10.28036537
_cell_length_c   10.53725832
_cell_angle_alpha   76.05799819
_cell_angle_beta   78.89409142
_cell_angle_gamma   80.35344100
_symmetry_Int_Tables_number   1
_chemical_formula_structural   Mg12Fe4C2O47
_chemical_formula_sum   'Mg12 Fe4 C2 O47'
_cell_volume   1013.19966207
_cell_formula_units_Z   1
loop_
 _symmetry_equiv_pos_site_id
 _symmetry_equiv_pos_as_xyz
  1  'x, y, z'
loop_
 _atom_site_type_symbol
 _atom_site_label
 _atom_site_symmetry_multiplicity
 _atom_site_fract_x
 _atom_site_fract_y
 _atom_site_fract_z
 _atom_site_occupancy
  Mg  Mg0  1  0.99696700  0.22716300  0.73028400  1
  Mg  Mg1  1  0.21174400  0.71500000  0.96712300  1
  Mg  Mg2  1  0.72000400  0.98475800  0.20939300  1
  Mg  Mg3  1  0.72333100  0.20761500  0.98734400  1
  Mg  Mg4  1  0.21833200  0.97455800  0.72067600  1
  Mg  Mg5  1  0.98291400  0.72030900  0.21655000  1
  Mg  Mg6  1  0.49437400  0.71967800  0.72570300  1
  Mg  Mg7  1  0.72793000  0.73113100  0.48987900  1
  Mg  Mg8  1  0.72261200  0.48197100  0.73171700  1
  Mg  Mg9  1  0.46840600  0.23539600  0.24779400  1
  Mg  Mg10  1  0.24679000  0.24692100  0.47241100  1
  Mg  Mg11  1  0.22496600  0.46604000  0.23922600  1
  Fe  Fe12  1  0.00757800  0.00595400  0.00722100  1
  Fe  Fe13  1  0.94087000  0.50048600  0.50445500  1
  Fe  Fe14  1  0.49409900  0.48961900  0.94734100  1
  Fe  Fe15  1  0.50223700  0.94414000  0.50181000  1
  C  C16  1  0.85412600  0.85475100  0.85642300  1
  C  C17  1  0.15684600  0.16370400  0.15531300  1
  O  O18  1  0.35859300  0.61374000  0.87008800  1
  O  O19  1  0.62670500  0.87966700  0.36647200  1
  O  O20  1  0.87209000  0.36075400  0.63687000  1
  O  O21  1  0.87193000  0.63176500  0.36891100  1
  O  O22  1  0.61709900  0.35466400  0.88162700  1
  O  O23  1  0.36283700  0.86743500  0.62977100  1
  O  O24  1  0.70663000  0.43931400  0.14735100  1
  O  O25  1  0.42632100  0.17948200  0.74237300  1
  O  O26  1  0.16794900  0.72851300  0.43886700  1
  O  O27  1  0.16560800  0.42924000  0.73490100  1
  O  O28  1  0.46537500  0.71283900  0.14036100  1
  O  O29  1  0.71758500  0.16861400  0.42673300  1
  O  O30  1  0.10184400  0.42003000  0.42526500  1
  O  O31  1  0.40378500  0.40655700  0.11030100  1
  O  O32  1  0.41530800  0.10672400  0.42381800  1
  O  O33  1  0.85898400  0.61205600  0.61536600  1
  O  O34  1  0.61818100  0.60578100  0.86558500  1
  O  O35  1  0.62329300  0.86092800  0.61352400  1
  O  O36  1  0.11393300  0.89291200  0.89327300  1
  O  O37  1  0.86484700  0.86608000  0.08874400  1
  O  O38  1  0.87121500  0.08998500  0.87060600  1
  O  O39  1  0.87419000  0.10493500  0.10793000  1
  O  O40  1  0.12717800  0.15043800  0.93174400  1
  O  O41  1  0.12651600  0.93335200  0.14385900  1
  O  O42  1  0.15851600  0.15140800  0.63854500  1
  O  O43  1  0.14278500  0.62987800  0.13884200  1
  O  O44  1  0.60005900  0.13590000  0.13847300  1
  O  O45  1  0.91391100  0.91430400  0.40676400  1
  O  O46  1  0.89958100  0.37461400  0.90170500  1
  O  O47  1  0.41026200  0.89088300  0.89350200  1
  O  O48  1  0.60182900  0.59838900  0.60487200  1
  O  O49  1  0.37655700  0.37862000  0.34108300  1
  O  O50  1  0.86318000  0.77970400  0.78163200  1
  O  O51  1  0.83765600  0.79375000  0.98841200  1
  O  O52  1  0.84021800  0.99000900  0.79945000  1
  O  O53  1  0.17843800  0.23633500  0.22634100  1
  O  O54  1  0.14778300  0.22483300  0.02857700  1
  O  O55  1  0.14573900  0.03398900  0.21558000  1
  O  O56  1  0.27692000  0.71100100  0.48449000  1
  O  O57  1  0.69824200  0.48895900  0.24461400  1
  O  O58  1  0.51355600  0.25732100  0.69106200  1
  O  O59  1  0.46248900  0.69667600  0.26065200  1
  O  O60  1  0.71522400  0.27087100  0.46933800  1
  O  O61  1  0.27234500  0.48348400  0.69378000  1
  O  O62  1  0.96830200  0.97509000  0.46701200  1
  O  O63  1  0.94877600  0.44812400  0.95414600  1
  O  O64  1  0.47520900  0.95056300  0.94582500  1
