# generated using pymatgen
data_GaSiC4N
_symmetry_space_group_name_H-M   'P 1'
_cell_length_a   9.87408950
_cell_length_b   9.87408950
_cell_length_c   13.75159911
_cell_angle_alpha   76.52422872
_cell_angle_beta   76.52422872
_cell_angle_gamma   64.39440392
_symmetry_Int_Tables_number   1
_chemical_formula_structural   GaSiC4N
_chemical_formula_sum   'Ga8 Si8 C32 N8'
_cell_volume   1162.32477979
_cell_formula_units_Z   8
loop_
 _symmetry_equiv_pos_site_id
 _symmetry_equiv_pos_as_xyz
  1  'x, y, z'
loop_
 _atom_site_type_symbol
 _atom_site_label
 _atom_site_symmetry_multiplicity
 _atom_site_fract_x
 _atom_site_fract_y
 _atom_site_fract_z
 _atom_site_occupancy
  Ga  Ga0  1  0.25433800  0.54170800  0.28926100  1
  Ga  Ga1  1  0.45829200  0.74566200  0.21073900  1
  Ga  Ga2  1  0.74566200  0.45829200  0.71073900  1
  Ga  Ga3  1  0.54170800  0.25433800  0.78926100  1
  Ga  Ga4  1  0.54676600  0.47576900  0.13887400  1
  Ga  Ga5  1  0.52423100  0.45323400  0.36112600  1
  Ga  Ga6  1  0.45323400  0.52423100  0.86112600  1
  Ga  Ga7  1  0.47576900  0.54676600  0.63887400  1
  Si  Si8  1  0.21480700  0.74315300  0.08969800  1
  Si  Si9  1  0.25684700  0.78519300  0.41030200  1
  Si  Si10  1  0.78519300  0.25684700  0.91030200  1
  Si  Si11  1  0.74315300  0.21480700  0.58969800  1
  Si  Si12  1  0.53802300  0.19793000  0.31455500  1
  Si  Si13  1  0.80207000  0.46197700  0.18544500  1
  Si  Si14  1  0.46197700  0.80207000  0.68544500  1
  Si  Si15  1  0.19793000  0.53802300  0.81455500  1
  C  C16  1  0.12373400  0.63323000  0.18891500  1
  C  C17  1  0.36677000  0.87626600  0.31108500  1
  C  C18  1  0.87626600  0.36677000  0.81108500  1
  C  C19  1  0.63323000  0.12373400  0.68891500  1
  C  C20  1  0.77196200  0.35810100  0.10427700  1
  C  C21  1  0.64189900  0.22803800  0.39572300  1
  C  C22  1  0.22803800  0.64189900  0.89572300  1
  C  C23  1  0.35810100  0.77196200  0.60427700  1
  C  C24  1  0.17139300  0.74827300  0.95870900  1
  C  C25  1  0.25172700  0.82860700  0.54129100  1
  C  C26  1  0.82860700  0.25172700  0.04129100  1
  C  C27  1  0.74827300  0.17139300  0.45870900  1
  C  C28  1  0.05915400  0.89938900  0.97017400  1
  C  C29  1  0.10061100  0.94084600  0.52982600  1
  C  C30  1  0.94084600  0.10061100  0.02982600  1
  C  C31  1  0.89938900  0.05915400  0.47017400  1
  C  C32  1  0.07902700  0.94633900  0.05181800  1
  C  C33  1  0.05366100  0.92097300  0.44818200  1
  C  C34  1  0.92097300  0.05366100  0.94818200  1
  C  C35  1  0.94633900  0.07902700  0.55181800  1
  C  C36  1  0.42294300  0.08656400  0.36601300  1
  C  C37  1  0.91343600  0.57705700  0.13398700  1
  C  C38  1  0.57705700  0.91343600  0.63398700  1
  C  C39  1  0.08656400  0.42294300  0.86601300  1
  C  C40  1  0.53057700  0.04164100  0.27099700  1
  C  C41  1  0.95835900  0.46942300  0.22900300  1
  C  C42  1  0.46942300  0.95835900  0.72900300  1
  C  C43  1  0.04164100  0.53057700  0.77099700  1
  C  C44  1  0.42408900  0.97613200  0.31631400  1
  C  C45  1  0.02386800  0.57591100  0.18368600  1
  C  C46  1  0.57591100  0.02386800  0.68368600  1
  C  C47  1  0.97613200  0.42408900  0.81631400  1
  N  N48  1  0.39716700  0.68379500  0.11465700  1
  N  N49  1  0.31620500  0.60283300  0.38534300  1
  N  N50  1  0.60283300  0.31620500  0.88534300  1
  N  N51  1  0.68379500  0.39716700  0.61465700  1
  N  N52  1  0.44653800  0.37577300  0.25303300  1
  N  N53  1  0.62422700  0.55346200  0.24696700  1
  N  N54  1  0.55346200  0.62422700  0.74696700  1
  N  N55  1  0.37577300  0.44653800  0.75303300  1
