# generated using pymatgen
data_CsNb3(PO5)3
_symmetry_space_group_name_H-M   'P 1'
_cell_length_a   6.59513600
_cell_length_b   13.20715500
_cell_length_c   15.65481300
_cell_angle_alpha   90.00000000
_cell_angle_beta   90.00000000
_cell_angle_gamma   90.00000000
_symmetry_Int_Tables_number   1
_chemical_formula_structural   CsNb3(PO5)3
_chemical_formula_sum   'Cs4 Nb12 P12 O60'
_cell_volume   1363.58091684
_cell_formula_units_Z   4
loop_
 _symmetry_equiv_pos_site_id
 _symmetry_equiv_pos_as_xyz
  1  'x, y, z'
loop_
 _atom_site_type_symbol
 _atom_site_label
 _atom_site_symmetry_multiplicity
 _atom_site_fract_x
 _atom_site_fract_y
 _atom_site_fract_z
 _atom_site_occupancy
  Cs  Cs0  1  0.00000000  0.01642800  0.33221800  1
  Cs  Cs1  1  0.50000000  0.48357200  0.83221800  1
  Cs  Cs2  1  0.50000000  0.51642800  0.16778200  1
  Cs  Cs3  1  0.00000000  0.98357200  0.66778200  1
  Nb  Nb4  1  0.50000000  0.85442000  0.52660700  1
  Nb  Nb5  1  0.00000000  0.64558000  0.02660700  1
  Nb  Nb6  1  0.00000000  0.35442000  0.97339300  1
  Nb  Nb7  1  0.00000000  0.57303500  0.63668600  1
  Nb  Nb8  1  0.50000000  0.79359300  0.76844700  1
  Nb  Nb9  1  0.50000000  0.20640700  0.23155300  1
  Nb  Nb10  1  0.00000000  0.42696500  0.36331400  1
  Nb  Nb11  1  0.00000000  0.29359300  0.73155300  1
  Nb  Nb12  1  0.50000000  0.92696500  0.13668600  1
  Nb  Nb13  1  0.50000000  0.07303500  0.86331400  1
  Nb  Nb14  1  0.50000000  0.14558000  0.47339300  1
  Nb  Nb15  1  0.00000000  0.70640700  0.26844700  1
  P  P16  1  0.50000000  0.27818500  0.00859100  1
  P  P17  1  0.00000000  0.22181500  0.50859100  1
  P  P18  1  0.00000000  0.73792600  0.80657700  1
  P  P19  1  0.50000000  0.58647800  0.56967000  1
  P  P20  1  0.50000000  0.41352200  0.43033000  1
  P  P21  1  0.00000000  0.08647800  0.93033000  1
  P  P22  1  0.50000000  0.76207400  0.30657700  1
  P  P23  1  0.00000000  0.26207400  0.19342300  1
  P  P24  1  0.00000000  0.77818500  0.49140900  1
  P  P25  1  0.00000000  0.91352200  0.06967000  1
  P  P26  1  0.50000000  0.23792600  0.69342300  1
  P  P27  1  0.50000000  0.72181500  0.99140900  1
  O  O28  1  0.00000000  0.35561900  0.25797600  1
  O  O29  1  0.68542200  0.30377500  0.71511300  1
  O  O30  1  0.50000000  0.31056300  0.47123400  1
  O  O31  1  0.00000000  0.32634900  0.46147000  1
  O  O32  1  0.19511000  0.93697100  0.11985800  1
  O  O33  1  0.31457800  0.30377500  0.71511300  1
  O  O34  1  0.50000000  0.82634900  0.03853000  1
  O  O35  1  0.50000000  0.33286200  0.26467500  1
  O  O36  1  0.50000000  0.68943700  0.52876600  1
  O  O37  1  0.00000000  0.44138300  0.66571500  1
  O  O38  1  0.00000000  0.35703700  0.85025800  1
  O  O39  1  0.80489000  0.06302900  0.88014200  1
  O  O40  1  0.00000000  0.16713800  0.76467500  1
  O  O41  1  0.00000000  0.81056300  0.02876600  1
  O  O42  1  0.81463800  0.84211200  0.51989700  1
  O  O43  1  0.50000000  0.18725100  0.60638800  1
  O  O44  1  0.50000000  0.85703700  0.64974200  1
  O  O45  1  0.19511000  0.06302900  0.88014200  1
  O  O46  1  0.81457800  0.19622500  0.21511300  1
  O  O47  1  0.50000000  0.66713800  0.73532500  1
  O  O48  1  0.50000000  0.73937000  0.89564100  1
  O  O49  1  0.50000000  0.26063000  0.10435900  1
  O  O50  1  0.18536200  0.15788800  0.48010300  1
  O  O51  1  0.30489000  0.43697100  0.38014200  1
  O  O52  1  0.81463800  0.15788800  0.48010300  1
  O  O53  1  0.50000000  0.50000000  0.50000000  1
  O  O54  1  0.18542200  0.19622500  0.21511300  1
  O  O55  1  0.80489000  0.93697100  0.11985800  1
  O  O56  1  0.68542200  0.69622500  0.28488700  1
  O  O57  1  0.68536200  0.65788800  0.01989700  1
  O  O58  1  0.50000000  0.14296300  0.35025800  1
  O  O59  1  0.50000000  0.14438100  0.75797600  1
  O  O60  1  0.50000000  0.05861700  0.16571500  1
  O  O61  1  0.50000000  0.94138300  0.83428500  1
  O  O62  1  0.00000000  0.68725100  0.89361200  1
  O  O63  1  0.31463800  0.65788800  0.01989700  1
  O  O64  1  0.69511000  0.43697100  0.38014200  1
  O  O65  1  0.00000000  0.23937000  0.60435900  1
  O  O66  1  0.31457800  0.69622500  0.28488700  1
  O  O67  1  0.31463800  0.34211200  0.98010300  1
  O  O68  1  0.30489000  0.56302900  0.61985800  1
  O  O69  1  0.18542200  0.80377500  0.78488700  1
  O  O70  1  0.00000000  0.76063000  0.39564100  1
  O  O71  1  0.50000000  0.00000000  0.50000000  1
  O  O72  1  0.00000000  0.50000000  0.00000000  1
  O  O73  1  0.81457800  0.80377500  0.78488700  1
  O  O74  1  0.18536200  0.84211200  0.51989700  1
  O  O75  1  0.50000000  0.17365100  0.96147000  1
  O  O76  1  0.00000000  0.83286200  0.23532500  1
  O  O77  1  0.00000000  0.55861700  0.33428500  1
  O  O78  1  0.00000000  0.64438100  0.74202400  1
  O  O79  1  0.50000000  0.85561900  0.24202400  1
  O  O80  1  0.00000000  0.18943700  0.97123400  1
  O  O81  1  0.00000000  0.64296300  0.14974200  1
  O  O82  1  0.00000000  0.00000000  0.00000000  1
  O  O83  1  0.00000000  0.67365100  0.53853000  1
  O  O84  1  0.00000000  0.31274900  0.10638800  1
  O  O85  1  0.68536200  0.34211200  0.98010300  1
  O  O86  1  0.69511000  0.56302900  0.61985800  1
  O  O87  1  0.50000000  0.81274900  0.39361200  1
