# generated using pymatgen
data_K2Mo2O15
_symmetry_space_group_name_H-M   'P 1'
_cell_length_a   6.89991500
_cell_length_b   10.20061019
_cell_length_c   11.87938927
_cell_angle_alpha   96.55229147
_cell_angle_beta   99.52988156
_cell_angle_gamma   107.18491556
_symmetry_Int_Tables_number   1
_chemical_formula_structural   K2Mo2O15
_chemical_formula_sum   'K4 Mo4 O30'
_cell_volume   775.87774834
_cell_formula_units_Z   2
loop_
 _symmetry_equiv_pos_site_id
 _symmetry_equiv_pos_as_xyz
  1  'x, y, z'
loop_
 _atom_site_type_symbol
 _atom_site_label
 _atom_site_symmetry_multiplicity
 _atom_site_fract_x
 _atom_site_fract_y
 _atom_site_fract_z
 _atom_site_occupancy
  K  K0  1  0.64395700  0.75938700  0.98987000  1
  K  K1  1  0.35604300  0.24061300  0.01013000  1
  K  K2  1  0.71907800  0.23076400  0.45620500  1
  K  K3  1  0.28092200  0.76923600  0.54379500  1
  Mo  Mo4  1  0.88433900  0.94609300  0.69941400  1
  Mo  Mo5  1  0.11566100  0.05390700  0.30058600  1
  Mo  Mo6  1  0.89772200  0.28614900  0.81811500  1
  Mo  Mo7  1  0.10227800  0.71385100  0.18188500  1
  O  O8  1  0.74141000  0.02859600  0.57914600  1
  O  O9  1  0.25859000  0.97140400  0.42085400  1
  O  O10  1  0.69825500  0.87712500  0.54446900  1
  O  O11  1  0.30174500  0.12287500  0.45553100  1
  O  O12  1  0.24639900  0.82421100  0.90301700  1
  O  O13  1  0.75360100  0.17578900  0.09698300  1
  O  O14  1  0.22075900  0.92409500  0.96142400  1
  O  O15  1  0.77924100  0.07590500  0.03857600  1
  O  O16  1  0.63175700  0.14826600  0.83533600  1
  O  O17  1  0.36824300  0.85173400  0.16466400  1
  O  O18  1  0.64593300  0.29419000  0.87272700  1
  O  O19  1  0.35406700  0.70581000  0.12727300  1
  O  O20  1  0.64868400  0.42911000  0.23691800  1
  O  O21  1  0.35131600  0.57089000  0.76308200  1
  O  O22  1  0.63152200  0.54664300  0.24817300  1
  O  O23  1  0.36847800  0.45335700  0.75182700  1
  O  O24  1  0.74346200  0.85009500  0.78963900  1
  O  O25  1  0.25653800  0.14990500  0.21036100  1
  O  O26  1  0.09705100  0.89250000  0.68187700  1
  O  O27  1  0.90294900  0.10750000  0.31812300  1
  O  O28  1  0.00549500  0.13157500  0.79067700  1
  O  O29  1  0.99450500  0.86842500  0.20932300  1
  O  O30  1  0.89268400  0.35682500  0.69071100  1
  O  O31  1  0.10731600  0.64317500  0.30928900  1
  O  O32  1  0.10330800  0.38942600  0.93059600  1
  O  O33  1  0.89669200  0.61057400  0.06940400  1
  O  O34  1  0.39383400  0.42186400  0.40892600  1
  O  O35  1  0.60616600  0.57813600  0.59107400  1
  O  O36  1  0.69231300  0.54118200  0.51547200  1
  O  O37  1  0.30768700  0.45881800  0.48452800  1
