# generated using pymatgen
data_Ca(IO6)2
_symmetry_space_group_name_H-M   'P 1'
_cell_length_a   15.77063959
_cell_length_b   14.36562231
_cell_length_c   8.23709686
_cell_angle_alpha   83.81255409
_cell_angle_beta   64.90460570
_cell_angle_gamma   31.28284021
_symmetry_Int_Tables_number   1
_chemical_formula_structural   Ca(IO6)2
_chemical_formula_sum   'Ca2 I4 O24'
_cell_volume   737.70537743
_cell_formula_units_Z   2
loop_
 _symmetry_equiv_pos_site_id
 _symmetry_equiv_pos_as_xyz
  1  'x, y, z'
loop_
 _atom_site_type_symbol
 _atom_site_label
 _atom_site_symmetry_multiplicity
 _atom_site_fract_x
 _atom_site_fract_y
 _atom_site_fract_z
 _atom_site_occupancy
  Ca  Ca0  1  0.91879000  0.58121000  0.58121000  1
  Ca  Ca1  1  0.66879000  0.33121000  0.33121000  1
  I  I2  1  0.22791500  0.01497200  0.31990100  1
  I  I3  1  0.43721100  0.31990100  0.01497200  1
  I  I4  1  0.93009900  0.81278900  0.02208500  1
  I  I5  1  0.23502800  0.02208500  0.81278900  1
  O  O6  1  0.31188400  0.00159500  0.44107100  1
  O  O7  1  0.24545000  0.44107100  0.00159500  1
  O  O8  1  0.80892900  0.00455000  0.93811600  1
  O  O9  1  0.24840500  0.93811600  0.00455000  1
  O  O10  1  0.50085300  0.62361800  0.46910800  1
  O  O11  1  0.40642100  0.46910800  0.62361800  1
  O  O12  1  0.78089200  0.84357900  0.74914700  1
  O  O13  1  0.62638200  0.74914700  0.84357900  1
  O  O14  1  0.01349500  0.30093300  0.97793000  1
  O  O15  1  0.70764200  0.97793000  0.30093300  1
  O  O16  1  0.27207000  0.54235800  0.23650500  1
  O  O17  1  0.94906700  0.23650500  0.54235800  1
  O  O18  1  0.18488600  0.30881700  0.62588700  1
  O  O19  1  0.88041000  0.62588700  0.30881700  1
  O  O20  1  0.62411300  0.36959000  0.06511400  1
  O  O21  1  0.94118300  0.06511400  0.36959000  1
  O  O22  1  0.77753600  0.56720400  0.82833400  1
  O  O23  1  0.82692600  0.82833400  0.56720400  1
  O  O24  1  0.42166600  0.42307400  0.47246400  1
  O  O25  1  0.68279600  0.47246400  0.42307400  1
  O  O26  1  0.80424900  0.24503000  0.98039100  1
  O  O27  1  0.97033100  0.98039100  0.24503000  1
  O  O28  1  0.26960900  0.27966900  0.44575100  1
  O  O29  1  0.00497100  0.44575100  0.27966900  1
