# generated using pymatgen
data_Rb3LaN6
_symmetry_space_group_name_H-M   'P 1'
_cell_length_a   8.34273327
_cell_length_b   8.34273327
_cell_length_c   8.34273317
_cell_angle_alpha   93.09047104
_cell_angle_beta   93.09047104
_cell_angle_gamma   93.09047168
_symmetry_Int_Tables_number   1
_chemical_formula_structural   Rb3LaN6
_chemical_formula_sum   'Rb6 La2 N12'
_cell_volume   578.03566104
_cell_formula_units_Z   2
loop_
 _symmetry_equiv_pos_site_id
 _symmetry_equiv_pos_as_xyz
  1  'x, y, z'
loop_
 _atom_site_type_symbol
 _atom_site_label
 _atom_site_symmetry_multiplicity
 _atom_site_fract_x
 _atom_site_fract_y
 _atom_site_fract_z
 _atom_site_occupancy
  Rb  Rb0  1  0.89986500  0.60013500  0.25000000  1
  Rb  Rb1  1  0.25000000  0.89986500  0.60013500  1
  Rb  Rb2  1  0.60013500  0.25000000  0.89986500  1
  Rb  Rb3  1  0.75000000  0.10013500  0.39986500  1
  Rb  Rb4  1  0.39986500  0.75000000  0.10013500  1
  Rb  Rb5  1  0.10013500  0.39986500  0.75000000  1
  La  La6  1  0.50000000  0.50000000  0.50000000  1
  La  La7  1  0.00000000  0.00000000  0.00000000  1
  N  N8  1  0.27597600  0.06461500  0.94102500  1
  N  N9  1  0.94102500  0.27597600  0.06461500  1
  N  N10  1  0.06461500  0.94102500  0.27597600  1
  N  N11  1  0.44102500  0.56461500  0.77597600  1
  N  N12  1  0.77597600  0.44102500  0.56461500  1
  N  N13  1  0.56461500  0.77597600  0.44102500  1
  N  N14  1  0.72402400  0.93538500  0.05897500  1
  N  N15  1  0.05897500  0.72402400  0.93538500  1
  N  N16  1  0.93538500  0.05897500  0.72402400  1
  N  N17  1  0.55897500  0.43538500  0.22402400  1
  N  N18  1  0.22402400  0.55897500  0.43538500  1
  N  N19  1  0.43538500  0.22402400  0.55897500  1
