# generated using pymatgen
data_EuC10
_symmetry_space_group_name_H-M   'P 1'
_cell_length_a   10.86186036
_cell_length_b   10.86186036
_cell_length_c   10.86186036
_cell_angle_alpha   109.47122063
_cell_angle_beta   109.47122063
_cell_angle_gamma   109.47122063
_symmetry_Int_Tables_number   1
_chemical_formula_structural   EuC10
_chemical_formula_sum   'Eu6 C60'
_cell_volume   986.48560949
_cell_formula_units_Z   6
loop_
 _symmetry_equiv_pos_site_id
 _symmetry_equiv_pos_as_xyz
  1  'x, y, z'
loop_
 _atom_site_type_symbol
 _atom_site_label
 _atom_site_symmetry_multiplicity
 _atom_site_fract_x
 _atom_site_fract_y
 _atom_site_fract_z
 _atom_site_occupancy
  Eu  Eu0  1  0.37724200  0.50000000  0.87724200  1
  Eu  Eu1  1  0.50000000  0.87724100  0.37724200  1
  Eu  Eu2  1  0.12275800  0.62275800  0.50000000  1
  Eu  Eu3  1  0.50000000  0.12275800  0.62275800  1
  Eu  Eu4  1  0.87724100  0.37724100  0.50000000  1
  Eu  Eu5  1  0.62275800  0.50000000  0.12275800  1
  C  C6  1  0.54356000  0.13634100  0.40721900  1
  C  C7  1  0.86365900  0.40721900  0.27087900  1
  C  C8  1  0.59278100  0.45644000  0.86365900  1
  C  C9  1  0.13634100  0.59278100  0.72912100  1
  C  C10  1  0.40721900  0.27087900  0.86365900  1
  C  C11  1  0.86365900  0.59278100  0.45644000  1
  C  C12  1  0.59278100  0.72912100  0.13634100  1
  C  C13  1  0.40721900  0.54356000  0.13634100  1
  C  C14  1  0.13634100  0.40721900  0.54356000  1
  C  C15  1  0.27087900  0.86365900  0.40721900  1
  C  C16  1  0.45644000  0.86365900  0.59278100  1
  C  C17  1  0.72912100  0.13634100  0.59278100  1
  C  C18  1  0.58090200  0.28043100  0.41476600  1
  C  C19  1  0.71956900  0.30047100  0.13433600  1
  C  C20  1  0.69952900  0.41909800  0.83386500  1
  C  C21  1  0.16613500  0.58523400  0.86566400  1
  C  C22  1  0.30047100  0.13433600  0.71956900  1
  C  C23  1  0.83386500  0.69952900  0.41909800  1
  C  C24  1  0.58523400  0.86566400  0.16613500  1
  C  C25  1  0.41476600  0.58090200  0.28043100  1
  C  C26  1  0.28043100  0.41476600  0.58090200  1
  C  C27  1  0.13433600  0.71956900  0.30047100  1
  C  C28  1  0.41909800  0.83386500  0.69952900  1
  C  C29  1  0.86566400  0.16613500  0.58523400  1
  C  C30  1  0.41909800  0.71956900  0.58523400  1
  C  C31  1  0.28043100  0.69952900  0.86566400  1
  C  C32  1  0.30047100  0.58090200  0.16613500  1
  C  C33  1  0.83386500  0.41476600  0.13433600  1
  C  C34  1  0.69952900  0.86566400  0.28043100  1
  C  C35  1  0.16613500  0.30047100  0.58090200  1
  C  C36  1  0.41476600  0.13433600  0.83386500  1
  C  C37  1  0.58523400  0.41909800  0.71956900  1
  C  C38  1  0.71956900  0.58523400  0.41909800  1
  C  C39  1  0.86566400  0.28043100  0.69952900  1
  C  C40  1  0.58090200  0.16613500  0.30047100  1
  C  C41  1  0.13433600  0.83386500  0.41476600  1
  C  C42  1  0.40986800  0.47911000  0.57275800  1
  C  C43  1  0.52089000  0.93075900  0.09364900  1
  C  C44  1  0.06924100  0.59013200  0.16289000  1
  C  C45  1  0.83711000  0.42724200  0.90635100  1
  C  C46  1  0.93075900  0.09364900  0.52089000  1
  C  C47  1  0.16289000  0.06924100  0.59013200  1
  C  C48  1  0.42724200  0.90635100  0.83711000  1
  C  C49  1  0.57275800  0.40986800  0.47911000  1
  C  C50  1  0.47911000  0.57275800  0.40986800  1
  C  C51  1  0.09364900  0.52089000  0.93075900  1
  C  C52  1  0.59013200  0.16289000  0.06924100  1
  C  C53  1  0.90635100  0.83711000  0.42724200  1
  C  C54  1  0.59013200  0.52089000  0.42724200  1
  C  C55  1  0.47911000  0.06924100  0.90635100  1
  C  C56  1  0.93075900  0.40986800  0.83711000  1
  C  C57  1  0.16289000  0.57275800  0.09364900  1
  C  C58  1  0.06924100  0.90635100  0.47911000  1
  C  C59  1  0.83711000  0.93075900  0.40986800  1
  C  C60  1  0.57275800  0.09364900  0.16289000  1
  C  C61  1  0.42724200  0.59013200  0.52089000  1
  C  C62  1  0.52089000  0.42724200  0.59013200  1
  C  C63  1  0.90635100  0.47911000  0.06924100  1
  C  C64  1  0.40986800  0.83711000  0.93075900  1
  C  C65  1  0.09364900  0.16289000  0.57275800  1
