# generated using pymatgen
data_Be2SiO4
_symmetry_space_group_name_H-M   'P 1'
_cell_length_a   6.22049284
_cell_length_b   7.58161593
_cell_length_c   11.86978237
_cell_angle_alpha   97.60728776
_cell_angle_beta   111.19615482
_cell_angle_gamma   75.02505834
_symmetry_Int_Tables_number   1
_chemical_formula_structural   Be2SiO4
_chemical_formula_sum   'Be12 Si6 O24'
_cell_volume   503.72723795
_cell_formula_units_Z   6
loop_
 _symmetry_equiv_pos_site_id
 _symmetry_equiv_pos_as_xyz
  1  'x, y, z'
loop_
 _atom_site_type_symbol
 _atom_site_label
 _atom_site_symmetry_multiplicity
 _atom_site_fract_x
 _atom_site_fract_y
 _atom_site_fract_z
 _atom_site_occupancy
  Be  Be0  1  0.63875100  0.54322400  0.57298100  1
  Be  Be1  1  0.72287100  0.69161600  0.11942100  1
  Be  Be2  1  0.06861700  0.02489900  0.21706500  1
  Be  Be3  1  0.36124900  0.45677600  0.42701900  1
  Be  Be4  1  0.27712900  0.30838400  0.88057900  1
  Be  Be5  1  0.93138300  0.97510100  0.78293500  1
  Be  Be6  1  0.05844500  0.08495600  0.61767500  1
  Be  Be7  1  0.22946600  0.42735600  0.18457400  1
  Be  Be8  1  0.31513300  0.78647200  0.26619200  1
  Be  Be9  1  0.94155500  0.91504400  0.38232500  1
  Be  Be10  1  0.77053400  0.57264400  0.81542600  1
  Be  Be11  1  0.68486700  0.21352800  0.73380800  1
  Si  Si12  1  0.17292400  0.72380300  0.60089300  1
  Si  Si13  1  0.51026800  0.05735700  0.18378400  1
  Si  Si14  1  0.89431100  0.39001400  0.23804600  1
  Si  Si15  1  0.82707600  0.27619700  0.39910700  1
  Si  Si16  1  0.48973200  0.94264300  0.81621600  1
  Si  Si17  1  0.10568900  0.60998600  0.76195400  1
  O  O18  1  0.58628000  0.41643800  0.76488900  1
  O  O19  1  0.35107600  0.10567500  0.88374100  1
  O  O20  1  0.61291100  0.56228200  0.18842300  1
  O  O21  1  0.41372000  0.58356200  0.23511100  1
  O  O22  1  0.64892400  0.89432500  0.11625900  1
  O  O23  1  0.38708900  0.43771800  0.81157700  1
  O  O24  1  0.94452600  0.82339900  0.49036900  1
  O  O25  1  0.63798000  0.39703300  0.46644800  1
  O  O26  1  0.71136400  0.08710500  0.32802000  1
  O  O27  1  0.05547400  0.17660100  0.50963100  1
  O  O28  1  0.36202000  0.60296700  0.53355200  1
  O  O29  1  0.28863600  0.91289500  0.67198000  1
  O  O30  1  0.66939800  0.04203000  0.78405800  1
  O  O31  1  0.89178300  0.19204100  0.16525500  1
  O  O32  1  0.93188900  0.52264600  0.13405900  1
  O  O33  1  0.33060200  0.95797000  0.21594200  1
  O  O34  1  0.10821700  0.80795900  0.83474500  1
  O  O35  1  0.06811100  0.47735400  0.86594100  1
  O  O36  1  0.81124800  0.60631300  0.68334400  1
  O  O37  1  0.09785800  0.86654200  0.30336200  1
  O  O38  1  0.36467200  0.25431300  0.13237800  1
  O  O39  1  0.18875200  0.39368700  0.31665600  1
  O  O40  1  0.90214200  0.13345800  0.69663800  1
  O  O41  1  0.63532800  0.74568700  0.86762200  1
