# generated using pymatgen
data_K6W4CO29
_symmetry_space_group_name_H-M   'P 1'
_cell_length_a   18.95386486
_cell_length_b   13.49838377
_cell_length_c   11.14997517
_cell_angle_alpha   90.00000000
_cell_angle_beta   94.66473400
_cell_angle_gamma   90.00000000
_symmetry_Int_Tables_number   1
_chemical_formula_structural   K6W4CO29
_chemical_formula_sum   'K24 W16 C4 O116'
_cell_volume   2843.23345296
_cell_formula_units_Z   4
loop_
 _symmetry_equiv_pos_site_id
 _symmetry_equiv_pos_as_xyz
  1  'x, y, z'
loop_
 _atom_site_type_symbol
 _atom_site_label
 _atom_site_symmetry_multiplicity
 _atom_site_fract_x
 _atom_site_fract_y
 _atom_site_fract_z
 _atom_site_occupancy
  K  K0  1  0.20637150  0.48863093  0.19712052  1
  K  K1  1  0.70637150  0.01136907  0.69712052  1
  K  K2  1  0.79362850  0.51136907  0.80287948  1
  K  K3  1  0.29362850  0.98863093  0.30287948  1
  K  K4  1  0.13614380  0.48685218  0.54789405  1
  K  K5  1  0.63614380  0.01314782  0.04789405  1
  K  K6  1  0.86385620  0.51314782  0.45210595  1
  K  K7  1  0.36385620  0.98685218  0.95210595  1
  K  K8  1  0.44161567  0.51266617  0.62415945  1
  K  K9  1  0.94161567  0.98733383  0.12415945  1
  K  K10  1  0.55838433  0.48733383  0.37584055  1
  K  K11  1  0.05838433  0.01266617  0.87584055  1
  K  K12  1  0.38244793  0.49080446  0.00346435  1
  K  K13  1  0.88244793  0.00919554  0.50346435  1
  K  K14  1  0.61755207  0.50919554  0.99653565  1
  K  K15  1  0.11755207  0.99080446  0.49653565  1
  K  K16  1  0.10411100  0.75802694  0.22800473  1
  K  K17  1  0.60411100  0.74197306  0.72800473  1
  K  K18  1  0.89588900  0.24197306  0.77199527  1
  K  K19  1  0.39588900  0.25802694  0.27199527  1
  K  K20  1  0.15727061  0.71024119  0.85847096  1
  K  K21  1  0.65727061  0.78975881  0.35847096  1
  K  K22  1  0.84272939  0.28975881  0.14152904  1
  K  K23  1  0.34272939  0.21024119  0.64152904  1
  W  W24  1  0.42226233  0.75216707  0.41983115  1
  W  W25  1  0.92226233  0.74783293  0.91983115  1
  W  W26  1  0.57773767  0.24783293  0.58016885  1
  W  W27  1  0.07773767  0.25216707  0.08016885  1
  W  W28  1  0.25972281  0.73540877  0.50386361  1
  W  W29  1  0.75972281  0.76459123  0.00386361  1
  W  W30  1  0.74027719  0.26459123  0.49613639  1
  W  W31  1  0.24027719  0.23540877  0.99613639  1
  W  W32  1  0.33804962  0.73441016  0.15746682  1
  W  W33  1  0.83804962  0.76558984  0.65746682  1
  W  W34  1  0.66195038  0.26558984  0.84253318  1
  W  W35  1  0.16195038  0.23441016  0.34253318  1
  W  W36  1  0.50270263  0.72570602  0.07985559  1
  W  W37  1  0.00270263  0.77429398  0.57985559  1
  W  W38  1  0.49729737  0.27429398  0.92014441  1
  W  W39  1  0.99729737  0.22570602  0.42014441  1
  C  C40  1  0.38617928  0.53632276  0.30514390  1
  C  C41  1  0.88617928  0.96367724  0.80514390  1
  C  C42  1  0.61382072  0.46367724  0.69485610  1
  C  C43  1  0.11382072  0.03632276  0.19485610  1
  O  O44  1  0.53150627  0.72505451  0.45024377  1
  O  O45  1  0.03150627  0.77494549  0.95024377  1
  O  O46  1  0.46849373  0.27494549  0.54975623  1
  O  O47  1  0.96849373  0.22505451  0.04975623  1
  O  O48  1  0.49409710  0.70526674  0.55261566  1
  O  O49  1  0.99409710  0.79473326  0.05261566  1
  O  O50  1  0.50590290  0.29473326  0.44738434  1
  O  O51  1  0.00590290  0.20526674  0.94738434  1
  O  O52  1  0.25405234  0.58971268  0.45020933  1
  O  O53  1  0.75405234  0.91028732  0.95020933  1
  O  O54  1  0.74594766  0.41028732  0.54979067  1
  O  O55  1  0.24594766  0.08971268  0.04979067  1
  O  O56  1  0.19178123  0.64697876  0.40386467  1
  O  O57  1  0.69178123  0.85302124  0.90386467  1
  O  O58  1  0.80821877  0.35302124  0.59613533  1
  O  O59  1  0.30821877  0.14697876  0.09613533  1
  O  O60  1  0.20363207  0.84844489  0.43264275  1
  O  O61  1  0.70363207  0.65155511  0.93264275  1
  O  O62  1  0.79636793  0.15155511  0.56735725  1
  O  O63  1  0.29636793  0.34844489  0.06735725  1
  O  O64  1  0.26872488  0.88434081  0.50492737  1
  O  O65  1  0.76872488  0.61565919  0.00492737  1
  O  O66  1  0.73127512  0.11565919  0.49507263  1
  O  O67  1  0.23127512  0.38434081  0.99507263  1
  O  O68  1  0.23457065  0.69458206  0.14550937  1
  O  O69  1  0.73457065  0.80541794  0.64550937  1
  O  O70  1  0.76542935  0.30541794  0.85449063  1
  O  O71  1  0.26542935  0.19458206  0.35449063  1
  O  O72  1  0.26819949  0.67273304  0.03435374  1
  O  O73  1  0.76819949  0.82726696  0.53435374  1
  O  O74  1  0.73180051  0.32726696  0.96564626  1
  O  O75  1  0.23180051  0.17273304  0.46564626  1
  O  O76  1  0.50993247  0.58237407  0.13848738  1
  O  O77  1  0.00993247  0.91762593  0.63848738  1
  O  O78  1  0.49006753  0.41762593  0.86151262  1
  O  O79  1  0.99006753  0.08237407  0.36151262  1
  O  O80  1  0.57251171  0.64423935  0.18175007  1
  O  O81  1  0.07251171  0.85576065  0.68175007  1
  O  O82  1  0.42748929  0.35576065  0.81824993  1
  O  O83  1  0.92748829  0.14423935  0.31824993  1
  O  O84  1  0.55759662  0.84634888  0.13506261  1
  O  O85  1  0.05759662  0.65365112  0.63506261  1
  O  O86  1  0.44240338  0.15365112  0.86493739  1
  O  O87  1  0.94240338  0.34634888  0.36493739  1
  O  O88  1  0.48881195  0.87344264  0.06972897  1
  O  O89  1  0.98881195  0.62655736  0.56972897  1
  O  O90  1  0.51118805  0.12655736  0.93027103  1
  O  O91  1  0.01118805  0.37344264  0.43027103  1
  O  O92  1  0.35982704  0.72177162  0.55169372  1
  O  O93  1  0.85982704  0.77822838  0.05169372  1
  O  O94  1  0.64017296  0.27822838  0.44830628  1
  O  O95  1  0.14017296  0.22177162  0.94830628  1
  O  O96  1  0.32316564  0.75268777  0.33529262  1
  O  O97  1  0.82316564  0.74731223  0.83529262  1
  O  O98  1  0.67683436  0.24731223  0.66470738  1
  O  O99  1  0.17683436  0.25268777  0.16470738  1
  O  O100  1  0.43771350  0.74756097  0.24237802  1
  O  O101  1  0.93771350  0.75243903  0.74237802  1
  O  O102  1  0.56228650  0.25243903  0.75762198  1
  O  O103  1  0.06228650  0.24756097  0.25762198  1
  O  O104  1  0.42064213  0.58984177  0.38955742  1
  O  O105  1  0.92064213  0.91015823  0.88955742  1
  O  O106  1  0.57935787  0.41015823  0.61044258  1
  O  O107  1  0.07935787  0.08984177  0.11044258  1
  O  O108  1  0.43064003  0.88031427  0.43847619  1
  O  O109  1  0.93064003  0.61968573  0.93847619  1
  O  O110  1  0.56935997  0.11968573  0.56152381  1
  O  O111  1  0.06935997  0.38031427  0.06152381  1
  O  O112  1  0.22434824  0.71994613  0.64375485  1
  O  O113  1  0.72434824  0.78005387  0.14375485  1
  O  O114  1  0.77565176  0.28005387  0.35624515  1
  O  O115  1  0.27565176  0.21994613  0.85624515  1
  O  O116  1  0.40246669  0.70258436  0.02955072  1
  O  O117  1  0.90246669  0.79741564  0.52955072  1
  O  O118  1  0.59753331  0.29741564  0.97044928  1
  O  O119  1  0.09753331  0.20258436  0.47044928  1
  O  O120  1  0.34998621  0.58037697  0.21387555  1
  O  O121  1  0.84998621  0.91962303  0.71387555  1
  O  O122  1  0.65001379  0.41962303  0.78612445  1
  O  O123  1  0.15001379  0.08037697  0.28612445  1
  O  O124  1  0.32553615  0.86188771  0.12127581  1
  O  O125  1  0.82553615  0.63811229  0.62127581  1
  O  O126  1  0.67446385  0.13811229  0.87872419  1
  O  O127  1  0.17446385  0.36188771  0.37872419  1
  O  O128  1  0.53583628  0.70542969  0.93819379  1
  O  O129  1  0.03583628  0.79457031  0.43819379  1
  O  O130  1  0.46416372  0.29457031  0.06180621  1
  O  O131  1  0.96416372  0.20542969  0.56180621  1
  O  O132  1  0.38835677  0.44342682  0.31001621  1
  O  O133  1  0.88835677  0.05657318  0.81001621  1
  O  O134  1  0.61164323  0.55657318  0.68998379  1
  O  O135  1  0.11164323  0.94342682  0.18998379  1
  O  O136  1  0.27292962  0.52845936  0.75874247  1
  O  O137  1  0.77292962  0.97154064  0.25874247  1
  O  O138  1  0.72707038  0.47154064  0.24125753  1
  O  O139  1  0.22707038  0.02845936  0.74125753  1
  O  O140  1  0.02507705  0.56149017  0.26638423  1
  O  O141  1  0.52507705  0.93850983  0.76638423  1
  O  O142  1  0.97492295  0.43850983  0.73361577  1
  O  O143  1  0.47492295  0.06149017  0.23361577  1
  O  O144  1  0.10256538  0.61572696  0.04433849  1
  O  O145  1  0.60256538  0.88427304  0.54433849  1
  O  O146  1  0.89743462  0.38427304  0.95566151  1
  O  O147  1  0.39743462  0.11572696  0.45566151  1
  O  O148  1  0.68152400  0.59158611  0.41298426  1
  O  O149  1  0.18152400  0.90841389  0.91298426  1
  O  O150  1  0.31847600  0.40841389  0.58701574  1
  O  O151  1  0.81847600  0.09158611  0.08701574  1
  O  O152  1  0.32262272  0.58756742  0.77815827  1
  O  O153  1  0.82262172  0.91243258  0.27815827  1
  O  O154  1  0.67737828  0.41243258  0.22184173  1
  O  O155  1  0.17737828  0.08756742  0.72184173  1
  O  O156  1  0.96506358  0.59600367  0.27096732  1
  O  O157  1  0.46506358  0.90399633  0.77096732  1
  O  O158  1  0.03493642  0.40399633  0.72903268  1
  O  O159  1  0.53493642  0.09600367  0.22903268  1
