# generated using pymatgen
data_Cs
_symmetry_space_group_name_H-M   'P 1'
_cell_length_a   5.34882200
_cell_length_b   9.09334900
_cell_length_c   9.42869000
_cell_angle_alpha   90.00000000
_cell_angle_beta   90.00000000
_cell_angle_gamma   90.00000000
_symmetry_Int_Tables_number   1
_chemical_formula_structural   Cs
_chemical_formula_sum   Cs4
_cell_volume   458.59927319
_cell_formula_units_Z   4
loop_
 _symmetry_equiv_pos_site_id
 _symmetry_equiv_pos_as_xyz
  1  'x, y, z'
loop_
 _atom_site_type_symbol
 _atom_site_label
 _atom_site_symmetry_multiplicity
 _atom_site_fract_x
 _atom_site_fract_y
 _atom_site_fract_z
 _atom_site_occupancy
  Cs  Cs0  1  0.75603600  0.40885600  0.75000000  1
  Cs  Cs1  1  0.24396400  0.59114400  0.25000000  1
  Cs  Cs2  1  0.75603600  0.09114400  0.25000000  1
  Cs  Cs3  1  0.24396400  0.90885600  0.75000000  1
