# generated using pymatgen
data_Ba2YbBiO6
_symmetry_space_group_name_H-M   'P 1'
_cell_length_a   10.36100894
_cell_length_b   8.62245452
_cell_length_c   6.07672703
_cell_angle_alpha   133.19046471
_cell_angle_beta   147.95734191
_cell_angle_gamma   35.38639313
_symmetry_Int_Tables_number   1
_chemical_formula_structural   Ba2YbBiO6
_chemical_formula_sum   'Ba2 Yb1 Bi1 O6'
_cell_volume   166.75248945
_cell_formula_units_Z   1
loop_
 _symmetry_equiv_pos_site_id
 _symmetry_equiv_pos_as_xyz
  1  'x, y, z'
loop_
 _atom_site_type_symbol
 _atom_site_label
 _atom_site_symmetry_multiplicity
 _atom_site_fract_x
 _atom_site_fract_y
 _atom_site_fract_z
 _atom_site_occupancy
  Ba  Ba0  1  0.50992200  0.74543100  0.01942900  1
  Ba  Ba1  1  0.49007800  0.25456900  0.98057100  1
  Yb  Yb2  1  0.00000000  0.50000000  0.00000000  1
  Bi  Bi3  1  0.00000000  0.00000000  0.00000000  1
  O  O4  1  0.92331500  0.77279300  0.87093000  1
  O  O5  1  0.48538000  0.68002200  0.39854500  1
  O  O6  1  0.93431800  0.82510100  0.45664000  1
  O  O7  1  0.07668500  0.22720700  0.12907000  1
  O  O8  1  0.51462000  0.31997800  0.60145500  1
  O  O9  1  0.06568200  0.17489900  0.54336000  1
