# generated using pymatgen
data_Ca13Si10(O17F5)2
_symmetry_space_group_name_H-M   'P 1'
_cell_length_a   9.40278800
_cell_length_b   9.40433097
_cell_length_c   13.87557103
_cell_angle_alpha   70.93384341
_cell_angle_beta   70.95658474
_cell_angle_gamma   60.08963811
_symmetry_Int_Tables_number   1
_chemical_formula_structural   Ca13Si10(O17F5)2
_chemical_formula_sum   'Ca13 Si10 O34 F10'
_cell_volume   985.00929469
_cell_formula_units_Z   1
loop_
 _symmetry_equiv_pos_site_id
 _symmetry_equiv_pos_as_xyz
  1  'x, y, z'
loop_
 _atom_site_type_symbol
 _atom_site_label
 _atom_site_symmetry_multiplicity
 _atom_site_fract_x
 _atom_site_fract_y
 _atom_site_fract_z
 _atom_site_occupancy
  Ca  Ca0  1  0.00000000  0.00000000  0.00000000  1
  Ca  Ca1  1  0.27174000  0.55324400  0.03742400  1
  Ca  Ca2  1  0.13779400  0.27200600  0.03697600  1
  Ca  Ca3  1  0.55351100  0.13675800  0.03836100  1
  Ca  Ca4  1  0.72826000  0.44675600  0.96257600  1
  Ca  Ca5  1  0.86220600  0.72799400  0.96302400  1
  Ca  Ca6  1  0.44648900  0.86324200  0.96163900  1
  Ca  Ca7  1  0.01036800  0.44906200  0.27802600  1
  Ca  Ca8  1  0.26628800  0.01282200  0.27862100  1
  Ca  Ca9  1  0.44876800  0.27070100  0.27604500  1
  Ca  Ca10  1  0.98963200  0.55093800  0.72197400  1
  Ca  Ca11  1  0.73371200  0.98717800  0.72137900  1
  Ca  Ca12  1  0.55123200  0.72929900  0.72395500  1
  Si  Si13  1  0.89182900  0.89299600  0.33530300  1
  Si  Si14  1  0.10817100  0.10700400  0.66469700  1
  Si  Si15  1  0.71458600  0.84441500  0.21260000  1
  Si  Si16  1  0.23356200  0.71689900  0.20982000  1
  Si  Si17  1  0.84310800  0.23401600  0.21090400  1
  Si  Si18  1  0.28541400  0.15558500  0.78740000  1
  Si  Si19  1  0.76643800  0.28310100  0.79018000  1
  Si  Si20  1  0.15689200  0.76598400  0.78909600  1
  Si  Si21  1  0.60406100  0.60505900  0.19009000  1
  Si  Si22  1  0.39593900  0.39494100  0.80991000  1
  O  O23  1  0.86957300  0.85272800  0.45871700  1
  O  O24  1  0.13042700  0.14727200  0.54128300  1
  O  O25  1  0.84960000  0.77851700  0.28927800  1
  O  O26  1  0.08939200  0.85831300  0.28118200  1
  O  O27  1  0.77592700  0.09028500  0.28309200  1
  O  O28  1  0.15040000  0.22148300  0.71072200  1
  O  O29  1  0.91060800  0.14168700  0.71881800  1
  O  O30  1  0.22407300  0.90971500  0.71690800  1
  O  O31  1  0.70223000  0.66339300  0.23729300  1
  O  O32  1  0.40215300  0.70225900  0.23676400  1
  O  O33  1  0.66271100  0.40297800  0.23609500  1
  O  O34  1  0.29777000  0.33660700  0.76270700  1
  O  O35  1  0.59784700  0.29774100  0.76323600  1
  O  O36  1  0.33728900  0.59702200  0.76390500  1
  O  O37  1  0.22593700  0.53914600  0.24067000  1
  O  O38  1  0.99658600  0.22855300  0.24313600  1
  O  O39  1  0.53514600  0.99832300  0.24200200  1
  O  O40  1  0.77406300  0.46085400  0.75933000  1
  O  O41  1  0.00341400  0.77144700  0.75686400  1
  O  O42  1  0.46485400  0.00167700  0.75799800  1
  O  O43  1  0.64473600  0.64651500  0.06461800  1
  O  O44  1  0.35526400  0.35348500  0.93538200  1
  O  O45  1  0.79566800  0.89425600  0.09051000  1
  O  O46  1  0.22449100  0.79519000  0.08718500  1
  O  O47  1  0.89512600  0.22439700  0.08811300  1
  O  O48  1  0.20433200  0.10574400  0.90949000  1
  O  O49  1  0.77550900  0.20481000  0.91281500  1
  O  O50  1  0.10487400  0.77560300  0.91188700  1
  O  O51  1  0.73252600  0.43844000  0.46640900  1
  O  O52  1  0.36636200  0.73629600  0.46591800  1
  O  O53  1  0.43379100  0.35865600  0.46318000  1
  O  O54  1  0.26747400  0.56156000  0.53359100  1
  O  O55  1  0.63363800  0.26370400  0.53408200  1
  O  O56  1  0.56620900  0.64134400  0.53682000  1
  F  F57  1  0.01690400  0.53403500  0.08984600  1
  F  F58  1  0.35934100  0.01758900  0.08911600  1
  F  F59  1  0.53419800  0.36096200  0.08938600  1
  F  F60  1  0.98309600  0.46596500  0.91015400  1
  F  F61  1  0.64065900  0.98241100  0.91088400  1
  F  F62  1  0.46580200  0.63903800  0.91061400  1
  F  F63  1  0.28582700  0.28595700  0.14455800  1
  F  F64  1  0.71417300  0.71404300  0.85544200  1
  F  F65  1  0.22273400  0.22356900  0.34387900  1
  F  F66  1  0.77726600  0.77643100  0.65612100  1
