# generated using pymatgen
data_Ce2S3O16
_symmetry_space_group_name_H-M   'P 1'
_cell_length_a   8.04706000
_cell_length_b   12.74426900
_cell_length_c   17.92477658
_cell_angle_alpha   45.39491617
_cell_angle_beta   90.00000000
_cell_angle_gamma   90.00000000
_symmetry_Int_Tables_number   1
_chemical_formula_structural   Ce2S3O16
_chemical_formula_sum   'Ce8 S12 O64'
_cell_volume   1308.77140357
_cell_formula_units_Z   4
loop_
 _symmetry_equiv_pos_site_id
 _symmetry_equiv_pos_as_xyz
  1  'x, y, z'
loop_
 _atom_site_type_symbol
 _atom_site_label
 _atom_site_symmetry_multiplicity
 _atom_site_fract_x
 _atom_site_fract_y
 _atom_site_fract_z
 _atom_site_occupancy
  Ce  Ce0  1  0.29643700  0.89831900  0.17304900  1
  Ce  Ce1  1  0.79643700  0.10168100  0.32695100  1
  Ce  Ce2  1  0.70356300  0.10168100  0.82695100  1
  Ce  Ce3  1  0.20356300  0.89831900  0.67304900  1
  Ce  Ce4  1  0.27427700  0.58457200  0.15093200  1
  Ce  Ce5  1  0.77427700  0.41542800  0.34906800  1
  Ce  Ce6  1  0.72572300  0.41542800  0.84906800  1
  Ce  Ce7  1  0.22572300  0.58457200  0.65093200  1
  S  S8  1  0.64250500  0.79577900  0.10962600  1
  S  S9  1  0.14250500  0.20422100  0.39037400  1
  S  S10  1  0.35749500  0.20422100  0.89037400  1
  S  S11  1  0.85749500  0.79577900  0.60962600  1
  S  S12  1  0.08054000  0.82617600  0.36721500  1
  S  S13  1  0.58054000  0.17382400  0.13278500  1
  S  S14  1  0.91946000  0.17382400  0.63278500  1
  S  S15  1  0.41946000  0.82617600  0.86721500  1
  S  S16  1  0.30663000  0.52039900  0.35941600  1
  S  S17  1  0.80663000  0.47960100  0.14058400  1
  S  S18  1  0.69337000  0.47960100  0.64058400  1
  S  S19  1  0.19337000  0.52039900  0.85941600  1
  O  O20  1  0.51985900  0.72973500  0.09155800  1
  O  O21  1  0.01985900  0.27026500  0.40844200  1
  O  O22  1  0.48014100  0.27026500  0.90844200  1
  O  O23  1  0.98014100  0.72973500  0.59155800  1
  O  O24  1  0.76219300  0.68573100  0.19219900  1
  O  O25  1  0.26219300  0.31426900  0.30780100  1
  O  O26  1  0.23780700  0.31426900  0.80780100  1
  O  O27  1  0.73780700  0.68573100  0.69219900  1
  O  O28  1  0.55564000  0.86544100  0.13967700  1
  O  O29  1  0.05564000  0.13455900  0.36032300  1
  O  O30  1  0.44436000  0.13455900  0.86032300  1
  O  O31  1  0.94436000  0.86544100  0.63967700  1
  O  O32  1  0.73455400  0.91476300  0.00974700  1
  O  O33  1  0.23455400  0.08523700  0.49025300  1
  O  O34  1  0.26544600  0.08523700  0.99025300  1
  O  O35  1  0.76544600  0.91476300  0.50974700  1
  O  O36  1  0.99792000  0.74052700  0.35326700  1
  O  O37  1  0.49792000  0.25947300  0.14673300  1
  O  O38  1  0.00208000  0.25947300  0.64673300  1
  O  O39  1  0.50208000  0.74052700  0.85326700  1
  O  O40  1  0.96446800  0.92071500  0.36426600  1
  O  O41  1  0.46446800  0.07928500  0.13573400  1
  O  O42  1  0.03553200  0.07928500  0.63573400  1
  O  O43  1  0.53553200  0.92071500  0.86426600  1
  O  O44  1  0.20592500  0.92910300  0.27958700  1
  O  O45  1  0.70592500  0.07089700  0.22041300  1
  O  O46  1  0.79407500  0.07089700  0.72041300  1
  O  O47  1  0.29407500  0.92910300  0.77958700  1
  O  O48  1  0.17764300  0.73486500  0.46789100  1
  O  O49  1  0.67764300  0.26513500  0.03210900  1
  O  O50  1  0.82235700  0.26513500  0.53210900  1
  O  O51  1  0.32235700  0.73486500  0.96789100  1
  O  O52  1  0.27784200  0.39134000  0.46855000  1
  O  O53  1  0.77784200  0.60866000  0.03145000  1
  O  O54  1  0.72215800  0.60866000  0.53145000  1
  O  O55  1  0.22215800  0.39134000  0.96855000  1
  O  O56  1  0.34227700  0.65671500  0.33547100  1
  O  O57  1  0.84227700  0.34328500  0.16452900  1
  O  O58  1  0.65772300  0.34328500  0.66452900  1
  O  O59  1  0.15772300  0.65671500  0.83547100  1
  O  O60  1  0.14654400  0.55213600  0.29781000  1
  O  O61  1  0.64654300  0.44786400  0.20219000  1
  O  O62  1  0.85345600  0.44786400  0.70219000  1
  O  O63  1  0.35345600  0.55213600  0.79781000  1
  O  O64  1  0.43945800  0.50165200  0.31026300  1
  O  O65  1  0.93945800  0.49834800  0.18973700  1
  O  O66  1  0.56054200  0.49834800  0.68973700  1
  O  O67  1  0.06054200  0.50165200  0.81026300  1
  O  O68  1  0.93481400  0.97167000  0.11995400  1
  O  O69  1  0.43481400  0.02833000  0.38004600  1
  O  O70  1  0.06518600  0.02833000  0.88004600  1
  O  O71  1  0.56518600  0.97167000  0.61995400  1
  O  O72  1  0.46488000  0.90321600  0.41892300  1
  O  O73  1  0.96488000  0.09678400  0.08107700  1
  O  O74  1  0.53512000  0.09678400  0.58107700  1
  O  O75  1  0.03512000  0.90321600  0.91892300  1
  O  O76  1  0.74974000  0.52372200  0.39172200  1
  O  O77  1  0.24974000  0.47627800  0.10827800  1
  O  O78  1  0.25026000  0.47627800  0.60827800  1
  O  O79  1  0.75026000  0.52372200  0.89172200  1
  O  O80  1  0.20908200  0.77356700  0.14054300  1
  O  O81  1  0.70908200  0.22643300  0.35945700  1
  O  O82  1  0.79091800  0.22643300  0.85945700  1
  O  O83  1  0.29091800  0.77356700  0.64054300  1
