# generated using pymatgen
data_CaU3(CO10)2
_symmetry_space_group_name_H-M   'P 1'
_cell_length_a   17.25191400
_cell_length_b   7.11528000
_cell_length_c   17.03664738
_cell_angle_alpha   66.29719955
_cell_angle_beta   90.00000000
_cell_angle_gamma   90.00000000
_symmetry_Int_Tables_number   1
_chemical_formula_structural   CaU3(CO10)2
_chemical_formula_sum   'Ca4 U12 C8 O80'
_cell_volume   1914.87120425
_cell_formula_units_Z   4
loop_
 _symmetry_equiv_pos_site_id
 _symmetry_equiv_pos_as_xyz
  1  'x, y, z'
loop_
 _atom_site_type_symbol
 _atom_site_label
 _atom_site_symmetry_multiplicity
 _atom_site_fract_x
 _atom_site_fract_y
 _atom_site_fract_z
 _atom_site_occupancy
  Ca  Ca0  1  0.48131400  0.73620800  0.23472700  1
  Ca  Ca1  1  0.01868600  0.73620800  0.73472700  1
  Ca  Ca2  1  0.51868600  0.26379200  0.76527300  1
  Ca  Ca3  1  0.98131400  0.26379200  0.26527300  1
  U  U4  1  0.75900700  0.36836500  0.16146500  1
  U  U5  1  0.74099300  0.36836500  0.66146500  1
  U  U6  1  0.24099300  0.63163500  0.83853500  1
  U  U7  1  0.25900700  0.63163500  0.33853500  1
  U  U8  1  0.71444800  0.76183000  0.27005500  1
  U  U9  1  0.78555200  0.76183000  0.77005500  1
  U  U10  1  0.28555200  0.23817000  0.72994500  1
  U  U11  1  0.21444800  0.23817000  0.22994500  1
  U  U12  1  0.80160500  0.97499600  0.05266500  1
  U  U13  1  0.69839500  0.97499600  0.55266500  1
  U  U14  1  0.19839500  0.02500400  0.94733500  1
  U  U15  1  0.30160500  0.02500400  0.44733500  1
  C  C16  1  0.68615100  0.19509300  0.33631400  1
  C  C17  1  0.81384900  0.19509300  0.83631400  1
  C  C18  1  0.31384900  0.80490700  0.66368600  1
  C  C19  1  0.18615100  0.80490700  0.16368600  1
  C  C20  1  0.82405700  0.54335400  0.98376100  1
  C  C21  1  0.67594300  0.54335400  0.48376100  1
  C  C22  1  0.17594300  0.45664600  0.01623900  1
  C  C23  1  0.32405700  0.45664600  0.51623900  1
  O  O24  1  0.70682400  0.01034700  0.00398800  1
  O  O25  1  0.79317600  0.01034700  0.50398800  1
  O  O26  1  0.29317600  0.98965300  0.99601200  1
  O  O27  1  0.20682400  0.98965300  0.49601200  1
  O  O28  1  0.65632600  0.62165200  0.40493000  1
  O  O29  1  0.84367400  0.62165200  0.90493000  1
  O  O30  1  0.34367400  0.37834800  0.59507000  1
  O  O31  1  0.15632600  0.37834800  0.09507000  1
  O  O32  1  0.85775400  0.31781300  0.20947700  1
  O  O33  1  0.64224600  0.31781300  0.70947700  1
  O  O34  1  0.14224600  0.68218700  0.79052300  1
  O  O35  1  0.35775400  0.68218700  0.29052300  1
  O  O36  1  0.50315900  0.90609500  0.02162500  1
  O  O37  1  0.99684100  0.90609500  0.52162500  1
  O  O38  1  0.49684100  0.09390500  0.97837500  1
  O  O39  1  0.00315900  0.09390500  0.47837500  1
  O  O40  1  0.61465700  0.79275900  0.22501800  1
  O  O41  1  0.88534300  0.79275900  0.72501800  1
  O  O42  1  0.38534300  0.20724100  0.77498200  1
  O  O43  1  0.11465700  0.20724100  0.27498200  1
  O  O44  1  0.81673100  0.65217300  0.02916300  1
  O  O45  1  0.68326900  0.65217300  0.52916300  1
  O  O46  1  0.18326900  0.34782700  0.97083700  1
  O  O47  1  0.31673100  0.34782700  0.47083700  1
  O  O48  1  0.76255500  0.68805900  0.16406300  1
  O  O49  1  0.73744500  0.68805900  0.66406300  1
  O  O50  1  0.23744500  0.31194100  0.83593700  1
  O  O51  1  0.26255500  0.31194100  0.33593700  1
  O  O52  1  0.84461800  0.12209900  0.91012000  1
  O  O53  1  0.65538200  0.12209900  0.41012000  1
  O  O54  1  0.15538200  0.87790100  0.08988000  1
  O  O55  1  0.34461800  0.87790100  0.58988000  1
  O  O56  1  0.70434100  0.38861000  0.29558800  1
  O  O57  1  0.79565900  0.38861000  0.79558800  1
  O  O58  1  0.29565900  0.61139000  0.70441200  1
  O  O59  1  0.20434100  0.61139000  0.20441200  1
  O  O60  1  0.70098400  0.08397200  0.29299500  1
  O  O61  1  0.79901600  0.08397200  0.79299500  1
  O  O62  1  0.29901600  0.91602800  0.70700500  1
  O  O63  1  0.20098400  0.91602800  0.20700500  1
  O  O64  1  0.75765200  0.04664800  0.16091200  1
  O  O65  1  0.74234800  0.04664800  0.66091200  1
  O  O66  1  0.24234800  0.95335200  0.83908800  1
  O  O67  1  0.25765200  0.95335200  0.33908800  1
  O  O68  1  0.66391300  0.42160300  0.11368000  1
  O  O69  1  0.83608700  0.42160300  0.61368000  1
  O  O70  1  0.33608700  0.57839700  0.88632000  1
  O  O71  1  0.16391300  0.57839700  0.38632000  1
  O  O72  1  0.81030500  0.34850000  0.02594700  1
  O  O73  1  0.68969500  0.34850000  0.52594700  1
  O  O74  1  0.18969500  0.65150000  0.97405300  1
  O  O75  1  0.31030500  0.65150000  0.47405300  1
  O  O76  1  0.90133700  0.95209100  0.08968700  1
  O  O77  1  0.59866300  0.95209100  0.58968700  1
  O  O78  1  0.09866300  0.04790900  0.91031300  1
  O  O79  1  0.40133700  0.04790900  0.41031300  1
  O  O80  1  0.43335400  0.80432600  0.10334900  1
  O  O81  1  0.06664600  0.80432600  0.60334900  1
  O  O82  1  0.56664600  0.19567400  0.89665100  1
  O  O83  1  0.93335400  0.19567400  0.39665100  1
  O  O84  1  0.48761900  0.02653100  0.25875100  1
  O  O85  1  0.01238100  0.02653100  0.75875100  1
  O  O86  1  0.51238100  0.97346900  0.74124900  1
  O  O87  1  0.98761900  0.97346900  0.24124900  1
  O  O88  1  0.43570400  0.08619500  0.13253800  1
  O  O89  1  0.06429600  0.08619500  0.63253800  1
  O  O90  1  0.56429600  0.91380500  0.86746200  1
  O  O91  1  0.93570400  0.91380500  0.36746200  1
  O  O92  1  0.51254900  0.35717900  0.32696300  1
  O  O93  1  0.98745100  0.35717900  0.82696300  1
  O  O94  1  0.48745100  0.64282100  0.67303700  1
  O  O95  1  0.01254900  0.64282100  0.17303700  1
  O  O96  1  0.50992700  0.36877200  0.25195100  1
  O  O97  1  0.99007300  0.36877200  0.75195100  1
  O  O98  1  0.49007300  0.63122800  0.74804900  1
  O  O99  1  0.00992700  0.63122800  0.24804900  1
  O  O100  1  0.80692300  0.71911800  0.32458900  1
  O  O101  1  0.69307700  0.71911800  0.82458900  1
  O  O102  1  0.19307700  0.28088200  0.67541100  1
  O  O103  1  0.30692300  0.28088200  0.17541100  1
