# generated using pymatgen
data_Co3P2O9
_symmetry_space_group_name_H-M   'P 1'
_cell_length_a   10.81192426
_cell_length_b   8.51475400
_cell_length_c   13.03675427
_cell_angle_alpha   90.00000000
_cell_angle_beta   130.05573321
_cell_angle_gamma   90.00000000
_symmetry_Int_Tables_number   1
_chemical_formula_structural   Co3P2O9
_chemical_formula_sum   'Co12 P8 O36'
_cell_volume   918.63654356
_cell_formula_units_Z   4
loop_
 _symmetry_equiv_pos_site_id
 _symmetry_equiv_pos_as_xyz
  1  'x, y, z'
loop_
 _atom_site_type_symbol
 _atom_site_label
 _atom_site_symmetry_multiplicity
 _atom_site_fract_x
 _atom_site_fract_y
 _atom_site_fract_z
 _atom_site_occupancy
  Co  Co0  1  0.26530400  0.48679100  0.56877800  1
  Co  Co1  1  0.73469600  0.98679100  0.93122200  1
  Co  Co2  1  0.73469600  0.51320900  0.43122200  1
  Co  Co3  1  0.26530400  0.01320900  0.06877800  1
  Co  Co4  1  0.09007500  0.35191400  0.68437100  1
  Co  Co5  1  0.90992500  0.85191400  0.81562900  1
  Co  Co6  1  0.90992500  0.64808600  0.31562900  1
  Co  Co7  1  0.09007500  0.14808600  0.18437100  1
  Co  Co8  1  0.60893700  0.23640900  0.58365200  1
  Co  Co9  1  0.39106300  0.73640900  0.91634800  1
  Co  Co10  1  0.39106300  0.76359100  0.41634800  1
  Co  Co11  1  0.60893700  0.26359100  0.08365200  1
  P  P12  1  0.13329400  0.00780500  0.77845400  1
  P  P13  1  0.86670600  0.50780500  0.72154600  1
  P  P14  1  0.86670600  0.99219500  0.22154600  1
  P  P15  1  0.13329400  0.49219500  0.27845400  1
  P  P16  1  0.47938400  0.46125900  0.82420000  1
  P  P17  1  0.52061600  0.96125900  0.67580000  1
  P  P18  1  0.52061600  0.53874100  0.17580000  1
  P  P19  1  0.47938400  0.03874100  0.32420000  1
  O  O20  1  0.12326200  0.13713300  0.68948400  1
  O  O21  1  0.87673800  0.63713300  0.81051600  1
  O  O22  1  0.87673800  0.86286700  0.31051600  1
  O  O23  1  0.12326200  0.36286700  0.18948400  1
  O  O24  1  0.78698700  0.35770700  0.72015300  1
  O  O25  1  0.21301300  0.85770700  0.77984700  1
  O  O26  1  0.21301300  0.64229300  0.27984700  1
  O  O27  1  0.78698700  0.14229300  0.22015300  1
  O  O28  1  0.04113400  0.47193500  0.77726600  1
  O  O29  1  0.95886600  0.97193500  0.72273400  1
  O  O30  1  0.95886600  0.52806500  0.22273400  1
  O  O31  1  0.04113400  0.02806500  0.27726600  1
  O  O32  1  0.24463700  0.07931600  0.92478000  1
  O  O33  1  0.75536300  0.57931600  0.57522000  1
  O  O34  1  0.75536300  0.92068400  0.07522000  1
  O  O35  1  0.24463700  0.42068400  0.42478000  1
  O  O36  1  0.47455600  0.11820000  0.60222600  1
  O  O37  1  0.52544400  0.61820000  0.89777400  1
  O  O38  1  0.52544400  0.88180000  0.39777400  1
  O  O39  1  0.47455600  0.38180000  0.10222600  1
  O  O40  1  0.28246400  0.44959200  0.72417500  1
  O  O41  1  0.71753600  0.94959200  0.77582500  1
  O  O42  1  0.71753600  0.55040800  0.27582500  1
  O  O43  1  0.28246400  0.05040800  0.22417500  1
  O  O44  1  0.49081100  0.46111200  0.71033000  1
  O  O45  1  0.50918900  0.96111200  0.78967000  1
  O  O46  1  0.50918900  0.53888800  0.28967000  1
  O  O47  1  0.49081100  0.03888800  0.21033000  1
  O  O48  1  0.56193500  0.32127200  0.91786100  1
  O  O49  1  0.43806500  0.82127200  0.58213900  1
  O  O50  1  0.43806500  0.67872800  0.08213900  1
  O  O51  1  0.56193500  0.17872800  0.41786100  1
  O  O52  1  0.91126600  0.09534500  0.02051800  1
  O  O53  1  0.08873400  0.59534500  0.47948200  1
  O  O54  1  0.08873400  0.90465500  0.97948200  1
  O  O55  1  0.91126600  0.40465500  0.52051800  1
