# generated using pymatgen
data_Al6B5O18
_symmetry_space_group_name_H-M   'P 1'
_cell_length_a   9.25303803
_cell_length_b   9.25303803
_cell_length_c   8.64065400
_cell_angle_alpha   90.00000000
_cell_angle_beta   90.00000000
_cell_angle_gamma   120.00000018
_symmetry_Int_Tables_number   1
_chemical_formula_structural   Al6B5O18
_chemical_formula_sum   'Al12 B10 O36'
_cell_volume   640.68704089
_cell_formula_units_Z   2
loop_
 _symmetry_equiv_pos_site_id
 _symmetry_equiv_pos_as_xyz
  1  'x, y, z'
loop_
 _atom_site_type_symbol
 _atom_site_label
 _atom_site_symmetry_multiplicity
 _atom_site_fract_x
 _atom_site_fract_y
 _atom_site_fract_z
 _atom_site_occupancy
  Al  Al0  1  0.65623700  0.63988100  0.45502100  1
  Al  Al1  1  0.98364400  0.34376300  0.45502100  1
  Al  Al2  1  0.36011900  0.01635600  0.45502100  1
  Al  Al3  1  0.34376300  0.36011900  0.95502100  1
  Al  Al4  1  0.01635600  0.65623700  0.95502100  1
  Al  Al5  1  0.63988100  0.98364400  0.95502100  1
  Al  Al6  1  0.34376300  0.36011900  0.54497900  1
  Al  Al7  1  0.01635600  0.65623700  0.54497900  1
  Al  Al8  1  0.63988100  0.98364400  0.54497900  1
  Al  Al9  1  0.65623700  0.63988100  0.04497900  1
  Al  Al10  1  0.98364400  0.34376300  0.04497900  1
  Al  Al11  1  0.36011900  0.01635600  0.04497900  1
  B  B12  1  0.15441200  0.87338300  0.75000000  1
  B  B13  1  0.71897100  0.84558800  0.75000000  1
  B  B14  1  0.12661700  0.28102900  0.75000000  1
  B  B15  1  0.84558800  0.12661700  0.25000000  1
  B  B16  1  0.28102900  0.15441200  0.25000000  1
  B  B17  1  0.87338300  0.71897100  0.25000000  1
  B  B18  1  0.33333300  0.66666700  0.45567600  1
  B  B19  1  0.66666700  0.33333300  0.95567600  1
  B  B20  1  0.66666700  0.33333300  0.54432400  1
  B  B21  1  0.33333300  0.66666700  0.04432400  1
  O  O22  1  0.68025700  0.66117400  0.25000000  1
  O  O23  1  0.98091700  0.31974300  0.25000000  1
  O  O24  1  0.33882600  0.01908300  0.25000000  1
  O  O25  1  0.31974300  0.33882600  0.75000000  1
  O  O26  1  0.01908300  0.68025700  0.75000000  1
  O  O27  1  0.66117400  0.98091700  0.75000000  1
  O  O28  1  0.87098200  0.67044600  0.42004800  1
  O  O29  1  0.79946400  0.12901800  0.42004800  1
  O  O30  1  0.32955400  0.20053600  0.42004800  1
  O  O31  1  0.12901800  0.32955400  0.92004800  1
  O  O32  1  0.20053600  0.87098200  0.92004800  1
  O  O33  1  0.67044600  0.79946400  0.92004800  1
  O  O34  1  0.12901800  0.32955400  0.57995200  1
  O  O35  1  0.20053600  0.87098200  0.57995200  1
  O  O36  1  0.67044600  0.79946400  0.57995200  1
  O  O37  1  0.87098200  0.67044600  0.07995200  1
  O  O38  1  0.79946400  0.12901800  0.07995200  1
  O  O39  1  0.32955400  0.20053600  0.07995200  1
  O  O40  1  0.59102000  0.43342700  0.54491600  1
  O  O41  1  0.84240700  0.40898000  0.54491600  1
  O  O42  1  0.56657300  0.15759300  0.54491600  1
  O  O43  1  0.40898000  0.56657300  0.04491600  1
  O  O44  1  0.15759300  0.59102000  0.04491600  1
  O  O45  1  0.43342700  0.84240700  0.04491600  1
  O  O46  1  0.40898000  0.56657300  0.45508400  1
  O  O47  1  0.15759300  0.59102000  0.45508400  1
  O  O48  1  0.43342700  0.84240700  0.45508400  1
  O  O49  1  0.59102000  0.43342700  0.95508400  1
  O  O50  1  0.84240700  0.40898000  0.95508400  1
  O  O51  1  0.56657300  0.15759300  0.95508400  1
  O  O52  1  0.17581800  0.03010300  0.75000000  1
  O  O53  1  0.85428500  0.82418200  0.75000000  1
  O  O54  1  0.96989700  0.14571500  0.75000000  1
  O  O55  1  0.82418200  0.96989700  0.25000000  1
  O  O56  1  0.14571500  0.17581800  0.25000000  1
  O  O57  1  0.03010300  0.85428500  0.25000000  1
