# generated using pymatgen
data_Al2O3
_symmetry_space_group_name_H-M   'P 1'
_cell_length_a   10.34124072
_cell_length_b   5.14639579
_cell_length_c   5.91368023
_cell_angle_alpha   123.46560611
_cell_angle_beta   150.96801121
_cell_angle_gamma   50.89952296
_symmetry_Int_Tables_number   1
_chemical_formula_structural   Al2O3
_chemical_formula_sum   'Al4 O6'
_cell_volume   118.52959257
_cell_formula_units_Z   2
loop_
 _symmetry_equiv_pos_site_id
 _symmetry_equiv_pos_as_xyz
  1  'x, y, z'
loop_
 _atom_site_type_symbol
 _atom_site_label
 _atom_site_symmetry_multiplicity
 _atom_site_fract_x
 _atom_site_fract_y
 _atom_site_fract_z
 _atom_site_occupancy
  Al  Al0  1  0.07274900  0.25031800  0.81477300  1
  Al  Al1  1  0.92725100  0.74968200  0.18522700  1
  Al  Al2  1  0.25797600  0.75031800  0.18522700  1
  Al  Al3  1  0.74202400  0.24968200  0.81477300  1
  O  O4  1  0.18062200  0.78164500  0.78793600  1
  O  O5  1  0.04264200  0.25000000  0.08528400  1
  O  O6  1  0.60731300  0.71835500  0.78793600  1
  O  O7  1  0.81937800  0.21835500  0.21206400  1
  O  O8  1  0.95735800  0.75000000  0.91471600  1
  O  O9  1  0.39268700  0.28164500  0.21206400  1
