# generated using pymatgen
data_Ag2TeO6
_symmetry_space_group_name_H-M   'P 1'
_cell_length_a   9.03229954
_cell_length_b   6.12470557
_cell_length_c   10.04159777
_cell_angle_alpha   62.18340282
_cell_angle_beta   37.26355638
_cell_angle_gamma   80.47591117
_symmetry_Int_Tables_number   1
_chemical_formula_structural   Ag2TeO6
_chemical_formula_sum   'Ag4 Te2 O12'
_cell_volume   274.60890980
_cell_formula_units_Z   2
loop_
 _symmetry_equiv_pos_site_id
 _symmetry_equiv_pos_as_xyz
  1  'x, y, z'
loop_
 _atom_site_type_symbol
 _atom_site_label
 _atom_site_symmetry_multiplicity
 _atom_site_fract_x
 _atom_site_fract_y
 _atom_site_fract_z
 _atom_site_occupancy
  Ag  Ag0  1  0.85427500  0.59885000  0.80190200  1
  Ag  Ag1  1  0.74433100  0.81329800  0.60002100  1
  Ag  Ag2  1  0.44818300  0.50309200  0.39522400  1
  Ag  Ag3  1  0.65263100  0.40835300  0.50394000  1
  Te  Te4  1  0.23481200  0.26056900  0.26889500  1
  Te  Te5  1  0.97809800  0.01812000  0.01825400  1
  O  O6  1  0.59735500  0.26032800  0.99764700  1
  O  O7  1  0.14342800  0.00066600  0.26090300  1
  O  O8  1  0.25413200  0.10303900  0.65607900  1
  O  O9  1  0.98408300  0.65629700  0.10592900  1
  O  O10  1  0.36076600  0.53168200  0.23889200  1
  O  O11  1  0.86614600  0.22872300  0.53340000  1
  O  O12  1  0.00791100  0.38486100  0.89025200  1
  O  O13  1  0.71756300  0.88038900  0.38486800  1
  O  O14  1  0.13889700  0.95923500  0.54658100  1
  O  O15  1  0.36272600  0.53851700  0.96051000  1
  O  O16  1  0.70716900  0.89146000  0.10873100  1
  O  O17  1  0.29411100  0.10935000  0.87970000  1
