# generated using pymatgen
data_AlC7IN
_symmetry_space_group_name_H-M   'P 1'
_cell_length_a   10.59107003
_cell_length_b   10.59107003
_cell_length_c   10.59107003
_cell_angle_alpha   128.60154576
_cell_angle_beta   117.75493099
_cell_angle_gamma   84.85990104
_symmetry_Int_Tables_number   1
_chemical_formula_structural   AlC7IN
_chemical_formula_sum   'Al4 C28 I4 N4'
_cell_volume   786.16551614
_cell_formula_units_Z   4
loop_
 _symmetry_equiv_pos_site_id
 _symmetry_equiv_pos_as_xyz
  1  'x, y, z'
loop_
 _atom_site_type_symbol
 _atom_site_label
 _atom_site_symmetry_multiplicity
 _atom_site_fract_x
 _atom_site_fract_y
 _atom_site_fract_z
 _atom_site_occupancy
  Al  Al0  1  0.08914100  0.10496100  0.28585000  1
  Al  Al1  1  0.91085900  0.19670900  0.01582000  1
  Al  Al2  1  0.18088900  0.69670900  0.78585000  1
  Al  Al3  1  0.81911100  0.60496100  0.51582000  1
  C  C4  1  0.15725000  0.89989700  0.21029200  1
  C  C5  1  0.84275000  0.05304200  0.74264700  1
  C  C6  1  0.31039600  0.55304200  0.71029200  1
  C  C7  1  0.68960400  0.39989700  0.24264700  1
  C  C8  1  0.18490900  0.23117700  0.26025300  1
  C  C9  1  0.81509100  0.07534400  0.04626800  1
  C  C10  1  0.02907700  0.57534400  0.76025300  1
  C  C11  1  0.97092300  0.73117700  0.54626800  1
  C  C12  1  0.18926700  0.01013100  0.40429300  1
  C  C13  1  0.81073300  0.21502600  0.82086400  1
  C  C14  1  0.39416200  0.71502600  0.90429300  1
  C  C15  1  0.60583800  0.51013100  0.32086400  1
  C  C16  1  0.78684200  0.07171500  0.37333000  1
  C  C17  1  0.21315800  0.58648800  0.28487300  1
  C  C18  1  0.30161500  0.08648800  0.87333000  1
  C  C19  1  0.69838500  0.57171500  0.78487300  1
  C  C20  1  0.79530000  0.10869700  0.64145600  1
  C  C21  1  0.20470000  0.84615600  0.31339700  1
  C  C22  1  0.53275900  0.34615600  0.14145600  1
  C  C23  1  0.46724100  0.60869700  0.81339700  1
  C  C24  1  0.76448600  0.07752900  0.48517700  1
  C  C25  1  0.23551400  0.72069000  0.31304300  1
  C  C26  1  0.40764700  0.22069000  0.98517700  1
  C  C27  1  0.59235300  0.57752900  0.81304300  1
  C  C28  1  0.87408400  0.09042100  0.20413400  1
  C  C29  1  0.12591600  0.33005000  0.21633700  1
  C  C30  1  0.11371300  0.83005000  0.70413400  1
  C  C31  1  0.88628700  0.59042100  0.71633700  1
  I  I32  1  0.40944800  0.23136800  0.35205100  1
  I  I33  1  0.59055200  0.94260300  0.82191900  1
  I  I34  1  0.12068400  0.44260300  0.85205100  1
  I  I35  1  0.87931600  0.73136800  0.32191900  1
  N  N36  1  0.79354800  0.06015500  0.25378800  1
  N  N37  1  0.20645200  0.46024000  0.26660700  1
  N  N38  1  0.19363300  0.96024000  0.75378800  1
  N  N39  1  0.80636700  0.56015500  0.76660700  1
