# generated using pymatgen
data_Ag3S(NO)3
_symmetry_space_group_name_H-M   'P 1'
_cell_length_a   6.73820500
_cell_length_b   9.36569000
_cell_length_c   12.16857300
_cell_angle_alpha   90.00000000
_cell_angle_beta   90.00000000
_cell_angle_gamma   90.00000000
_symmetry_Int_Tables_number   1
_chemical_formula_structural   Ag3S(NO)3
_chemical_formula_sum   'Ag12 S4 N12 O12'
_cell_volume   767.93356487
_cell_formula_units_Z   4
loop_
 _symmetry_equiv_pos_site_id
 _symmetry_equiv_pos_as_xyz
  1  'x, y, z'
loop_
 _atom_site_type_symbol
 _atom_site_label
 _atom_site_symmetry_multiplicity
 _atom_site_fract_x
 _atom_site_fract_y
 _atom_site_fract_z
 _atom_site_occupancy
  Ag  Ag0  1  0.25000000  0.75368700  0.74069700  1
  Ag  Ag1  1  0.75000000  0.24631300  0.25930300  1
  Ag  Ag2  1  0.75000000  0.75368700  0.75930300  1
  Ag  Ag3  1  0.25000000  0.24631300  0.24069700  1
  Ag  Ag4  1  0.02654200  0.45766700  0.38588000  1
  Ag  Ag5  1  0.52654200  0.54233300  0.61412000  1
  Ag  Ag6  1  0.97345800  0.45766700  0.11412000  1
  Ag  Ag7  1  0.47345800  0.54233300  0.88588000  1
  Ag  Ag8  1  0.97345800  0.54233300  0.61412000  1
  Ag  Ag9  1  0.47345800  0.45766700  0.38588000  1
  Ag  Ag10  1  0.02654200  0.54233300  0.88588000  1
  Ag  Ag11  1  0.52654200  0.45766700  0.11412000  1
  S  S12  1  0.25000000  0.75761700  0.47892000  1
  S  S13  1  0.75000000  0.24238300  0.52108000  1
  S  S14  1  0.75000000  0.75761700  0.02108000  1
  S  S15  1  0.25000000  0.24238300  0.97892000  1
  N  N16  1  0.25000000  0.64958400  0.58098700  1
  N  N17  1  0.75000000  0.35041600  0.41901300  1
  N  N18  1  0.75000000  0.64958400  0.91901300  1
  N  N19  1  0.25000000  0.35041600  0.08098700  1
  N  N20  1  0.25000000  0.62437800  0.35887800  1
  N  N21  1  0.75000000  0.37562200  0.64112200  1
  N  N22  1  0.75000000  0.62437800  0.14112200  1
  N  N23  1  0.25000000  0.37562200  0.85887800  1
  N  N24  1  0.25000000  0.13534400  0.38162400  1
  N  N25  1  0.75000000  0.86465600  0.61837600  1
  N  N26  1  0.75000000  0.13534400  0.11837600  1
  N  N27  1  0.25000000  0.86465600  0.88162400  1
  O  O28  1  0.06331900  0.83168400  0.46491600  1
  O  O29  1  0.56331900  0.16831600  0.53508400  1
  O  O30  1  0.93668100  0.83168400  0.03508400  1
  O  O31  1  0.43668100  0.16831600  0.96491600  1
  O  O32  1  0.93668100  0.16831600  0.53508400  1
  O  O33  1  0.43668100  0.83168400  0.46491600  1
  O  O34  1  0.06331900  0.16831600  0.96491600  1
  O  O35  1  0.56331900  0.83168400  0.03508400  1
  O  O36  1  0.25000000  0.68022800  0.26612600  1
  O  O37  1  0.75000000  0.31977200  0.73387400  1
  O  O38  1  0.75000000  0.68022800  0.23387400  1
  O  O39  1  0.25000000  0.31977200  0.76612600  1
