# generated using pymatgen
data_Al2SiO5
_symmetry_space_group_name_H-M   'P 1'
_cell_length_a   5.45691194
_cell_length_b   13.81138869
_cell_length_c   10.55905605
_cell_angle_alpha   123.34500352
_cell_angle_beta   93.27897432
_cell_angle_gamma   103.25748100
_symmetry_Int_Tables_number   1
_chemical_formula_structural   Al2SiO5
_chemical_formula_sum   'Al8 Si4 O20'
_cell_volume   630.43517977
_cell_formula_units_Z   4
loop_
 _symmetry_equiv_pos_site_id
 _symmetry_equiv_pos_as_xyz
  1  'x, y, z'
loop_
 _atom_site_type_symbol
 _atom_site_label
 _atom_site_symmetry_multiplicity
 _atom_site_fract_x
 _atom_site_fract_y
 _atom_site_fract_z
 _atom_site_occupancy
  Al  Al0  1  0.68982200  0.80615200  0.30369900  1
  Al  Al1  1  0.14951100  0.10641300  0.85786300  1
  Al  Al2  1  0.77019200  0.21306000  0.83507700  1
  Al  Al3  1  0.22980800  0.78694000  0.16492300  1
  Al  Al4  1  0.96089800  0.82282100  0.61131200  1
  Al  Al5  1  0.85048900  0.89358700  0.14213700  1
  Al  Al6  1  0.03910200  0.17717900  0.38868800  1
  Al  Al7  1  0.31017800  0.19384800  0.69630100  1
  Si  Si8  1  0.35489100  0.73145300  0.41994700  1
  Si  Si9  1  0.96480300  0.55680600  0.44700500  1
  Si  Si10  1  0.03519700  0.44319400  0.55299500  1
  Si  Si11  1  0.64510900  0.26854700  0.58005300  1
  O  O12  1  0.98911200  0.84112000  0.26397100  1
  O  O13  1  0.88784300  0.23727500  0.01211900  1
  O  O14  1  0.31617400  0.20324500  0.53342100  1
  O  O15  1  0.11215700  0.76272500  0.98788100  1
  O  O16  1  0.16778400  0.24320400  0.03783500  1
  O  O17  1  0.34243200  0.70606300  0.24081800  1
  O  O18  1  0.65756800  0.29393700  0.75918200  1
  O  O19  1  0.22182300  0.83290600  0.52136900  1
  O  O20  1  0.01088800  0.15888000  0.73602900  1
  O  O21  1  0.25510900  0.60798300  0.41051600  1
  O  O22  1  0.77817700  0.16709400  0.47863100  1
  O  O23  1  0.00831800  0.04115900  0.21791400  1
  O  O24  1  0.74489100  0.39201700  0.58948400  1
  O  O25  1  0.68382600  0.79675500  0.46657900  1
  O  O26  1  0.83221600  0.75679600  0.96216500  1
  O  O27  1  0.10745800  0.32133100  0.42654200  1
  O  O28  1  0.99168200  0.95884100  0.78208600  1
  O  O29  1  0.89254200  0.67866900  0.57345700  1
  O  O30  1  0.43620100  0.12800500  0.78190800  1
  O  O31  1  0.56379900  0.87199500  0.21809200  1
