# generated using pymatgen
data_AlPO4
_symmetry_space_group_name_H-M   'P 1'
_cell_length_a   8.10360700
_cell_length_b   9.53277632
_cell_length_c   13.55543257
_cell_angle_alpha   90.65064270
_cell_angle_beta   93.79003513
_cell_angle_gamma   108.05736772
_symmetry_Int_Tables_number   1
_chemical_formula_structural   AlPO4
_chemical_formula_sum   'Al8 P8 O32'
_cell_volume   992.84232093
_cell_formula_units_Z   8
loop_
 _symmetry_equiv_pos_site_id
 _symmetry_equiv_pos_as_xyz
  1  'x, y, z'
loop_
 _atom_site_type_symbol
 _atom_site_label
 _atom_site_symmetry_multiplicity
 _atom_site_fract_x
 _atom_site_fract_y
 _atom_site_fract_z
 _atom_site_occupancy
  Al  Al0  1  0.37052000  0.12605700  0.76211500  1
  Al  Al1  1  0.63172500  0.41516700  0.38764600  1
  Al  Al2  1  0.62948000  0.87394300  0.23788500  1
  Al  Al3  1  0.58994300  0.60706000  0.19383900  1
  Al  Al4  1  0.41005700  0.39294000  0.80616100  1
  Al  Al5  1  0.36827500  0.58483300  0.61235400  1
  Al  Al6  1  0.63193200  0.38871600  0.66694700  1
  Al  Al7  1  0.36806800  0.61128400  0.33305300  1
  P  P8  1  0.50395700  0.69344600  0.94199100  1
  P  P9  1  0.96075900  0.50170700  0.26871500  1
  P  P10  1  0.56728500  0.74249400  0.49808400  1
  P  P11  1  0.88821400  0.16715900  0.22967400  1
  P  P12  1  0.03924100  0.49829300  0.73128500  1
  P  P13  1  0.49604300  0.30655400  0.05800900  1
  P  P14  1  0.43271500  0.25750600  0.50191600  1
  P  P15  1  0.11178600  0.83284100  0.77032600  1
  O  O16  1  0.00661200  0.12481300  0.30050700  1
  O  O17  1  0.61815300  0.79768300  0.87586000  1
  O  O18  1  0.75743600  0.77188900  0.19757900  1
  O  O19  1  0.42958400  0.52998300  0.89649500  1
  O  O20  1  0.71265900  0.06172300  0.19065400  1
  O  O21  1  0.97898200  0.05495000  0.00985400  1
  O  O22  1  0.47135600  0.48467700  0.68852100  1
  O  O23  1  0.60153500  0.40935400  0.52443400  1
  O  O24  1  0.91830700  0.32220500  0.19089200  1
  O  O25  1  0.47886000  0.22772400  0.39675700  1
  O  O26  1  0.28734100  0.93827700  0.80934600  1
  O  O27  1  0.14522700  0.51796700  0.31790600  1
  O  O28  1  0.24256400  0.22811100  0.80242100  1
  O  O29  1  0.85477300  0.48203300  0.68209400  1
  O  O30  1  0.56633400  0.29012700  0.77802100  1
  O  O31  1  0.40074800  0.05956300  0.64136600  1
  O  O32  1  0.99338800  0.87518700  0.69949300  1
  O  O33  1  0.52864400  0.51532300  0.31147900  1
  O  O34  1  0.38184700  0.20231700  0.12414000  1
  O  O35  1  0.52114000  0.77227600  0.60324300  1
  O  O36  1  0.57041600  0.47001700  0.10350500  1
  O  O37  1  0.83749000  0.42641800  0.35297100  1
  O  O38  1  0.26101200  0.26512200  0.52470900  1
  O  O39  1  0.59925200  0.94043700  0.35863400  1
  O  O40  1  0.52438100  0.18147700  0.59243400  1
  O  O41  1  0.16251000  0.57358200  0.64702900  1
  O  O42  1  0.43366600  0.70987300  0.22197900  1
  O  O43  1  0.39846500  0.59064600  0.47556600  1
  O  O44  1  0.47561900  0.81852300  0.40756600  1
  O  O45  1  0.08169300  0.67779500  0.80910800  1
  O  O46  1  0.02101800  0.94505000  0.99014600  1
  O  O47  1  0.73898800  0.73487800  0.47529100  1
