# generated using pymatgen
data_AgC2N3
_symmetry_space_group_name_H-M   'P 1'
_cell_length_a   2.74691800
_cell_length_b   8.16202100
_cell_length_c   21.36780400
_cell_angle_alpha   90.00000000
_cell_angle_beta   90.00000000
_cell_angle_gamma   90.00000000
_symmetry_Int_Tables_number   1
_chemical_formula_structural   AgC2N3
_chemical_formula_sum   'Ag4 C8 N12'
_cell_volume   479.07476411
_cell_formula_units_Z   4
loop_
 _symmetry_equiv_pos_site_id
 _symmetry_equiv_pos_as_xyz
  1  'x, y, z'
loop_
 _atom_site_type_symbol
 _atom_site_label
 _atom_site_symmetry_multiplicity
 _atom_site_fract_x
 _atom_site_fract_y
 _atom_site_fract_z
 _atom_site_occupancy
  Ag  Ag0  1  0.25000000  0.50180100  0.15319100  1
  Ag  Ag1  1  0.75000000  0.49819900  0.84680900  1
  Ag  Ag2  1  0.75000000  0.00180100  0.34680900  1
  Ag  Ag3  1  0.25000000  0.99819900  0.65319100  1
  C  C4  1  0.25000000  0.00536300  0.48237500  1
  C  C5  1  0.75000000  0.99463700  0.51762500  1
  C  C6  1  0.75000000  0.50536300  0.01762500  1
  C  C7  1  0.25000000  0.49463700  0.98237500  1
  C  C8  1  0.25000000  0.02357300  0.42036900  1
  C  C9  1  0.75000000  0.97642700  0.57963100  1
  C  C10  1  0.75000000  0.52357300  0.07963100  1
  C  C11  1  0.25000000  0.47642700  0.92036900  1
  N  N12  1  0.25000000  0.86999100  0.90958700  1
  N  N13  1  0.75000000  0.13000900  0.09041300  1
  N  N14  1  0.75000000  0.36999100  0.59041300  1
  N  N15  1  0.25000000  0.63000900  0.40958700  1
  N  N16  1  0.25000000  0.93782200  0.27714100  1
  N  N17  1  0.75000000  0.06217800  0.72285900  1
  N  N18  1  0.75000000  0.43782200  0.22285900  1
  N  N19  1  0.25000000  0.56217800  0.77714100  1
  N  N20  1  0.25000000  0.50874900  0.43339800  1
  N  N21  1  0.75000000  0.49125100  0.56660200  1
  N  N22  1  0.75000000  0.00874900  0.06660200  1
  N  N23  1  0.25000000  0.99125100  0.93339800  1
