# generated using pymatgen
data_Ag3As2C3Se5N
_symmetry_space_group_name_H-M   'P 1'
_cell_length_a   10.58297090
_cell_length_b   12.38368750
_cell_length_c   6.87834525
_cell_angle_alpha   105.28943734
_cell_angle_beta   108.34463950
_cell_angle_gamma   86.85381078
_symmetry_Int_Tables_number   1
_chemical_formula_structural   Ag3As2C3Se5N
_chemical_formula_sum   'Ag6 As4 C6 Se10 N2'
_cell_volume   824.96514339
_cell_formula_units_Z   2
loop_
 _symmetry_equiv_pos_site_id
 _symmetry_equiv_pos_as_xyz
  1  'x, y, z'
loop_
 _atom_site_type_symbol
 _atom_site_label
 _atom_site_symmetry_multiplicity
 _atom_site_fract_x
 _atom_site_fract_y
 _atom_site_fract_z
 _atom_site_occupancy
  Ag  Ag0  1  0.18948300  0.81343300  0.70333100  1
  Ag  Ag1  1  0.81051700  0.18656700  0.29666900  1
  Ag  Ag2  1  0.38074900  0.06143600  0.04670600  1
  Ag  Ag3  1  0.61925100  0.93856400  0.95329400  1
  Ag  Ag4  1  0.06845000  0.81518600  0.15736000  1
  Ag  Ag5  1  0.93155000  0.18481400  0.84264000  1
  As  As6  1  0.41259200  0.88615800  0.39858600  1
  As  As7  1  0.58740800  0.11384200  0.60141400  1
  As  As8  1  0.80850200  0.91419300  0.63469500  1
  As  As9  1  0.19149800  0.08580700  0.36530500  1
  C  C10  1  0.67800000  0.44221200  0.21147200  1
  C  C11  1  0.32200000  0.55778800  0.78852800  1
  C  C12  1  0.75069300  0.62315900  0.18193600  1
  C  C13  1  0.24930700  0.37684100  0.81806400  1
  C  C14  1  0.78590100  0.71653300  0.18512700  1
  C  C15  1  0.21409900  0.28346700  0.81487300  1
  Se  Se16  1  0.27253200  0.73320900  0.37767600  1
  Se  Se17  1  0.72746800  0.26679100  0.62232400  1
  Se  Se18  1  0.96227800  0.77854600  0.75041900  1
  Se  Se19  1  0.03772200  0.22145400  0.24958100  1
  Se  Se20  1  0.41455700  0.84581700  0.03390300  1
  Se  Se21  1  0.58544300  0.15418300  0.96609700  1
  Se  Se22  1  0.38141000  0.20590700  0.42378300  1
  Se  Se23  1  0.61859000  0.79409300  0.57621700  1
  Se  Se24  1  0.17041100  0.13601700  0.75646800  1
  Se  Se25  1  0.82958900  0.86398300  0.24353200  1
  N  N26  1  0.71351400  0.52629800  0.18730400  1
  N  N27  1  0.28648600  0.47370200  0.81269600  1
