# generated using pymatgen
data_Bi2O3
_symmetry_space_group_name_H-M   'P 1'
_cell_length_a   7.85703843
_cell_length_b   7.85703843
_cell_length_c   6.13155200
_cell_angle_alpha   90.00000000
_cell_angle_beta   90.00000000
_cell_angle_gamma   120.00000360
_symmetry_Int_Tables_number   1
_chemical_formula_structural   Bi2O3
_chemical_formula_sum   'Bi8 O12'
_cell_volume   327.80742483
_cell_formula_units_Z   4
loop_
 _symmetry_equiv_pos_site_id
 _symmetry_equiv_pos_as_xyz
  1  'x, y, z'
loop_
 _atom_site_type_symbol
 _atom_site_label
 _atom_site_symmetry_multiplicity
 _atom_site_fract_x
 _atom_site_fract_y
 _atom_site_fract_z
 _atom_site_occupancy
  Bi  Bi0  1  0.80158300  0.14545300  0.74917000  1
  Bi  Bi1  1  0.85454700  0.65613000  0.74917000  1
  Bi  Bi2  1  0.34387000  0.19841700  0.74917000  1
  Bi  Bi3  1  0.14545300  0.80158300  0.24917000  1
  Bi  Bi4  1  0.65613000  0.85454700  0.24917000  1
  Bi  Bi5  1  0.19841700  0.34387000  0.24917000  1
  Bi  Bi6  1  0.33333300  0.66666700  0.74549000  1
  Bi  Bi7  1  0.66666700  0.33333300  0.24549000  1
  O  O8  1  0.57906400  0.07577600  0.44946100  1
  O  O9  1  0.92422400  0.50328800  0.44946100  1
  O  O10  1  0.49671200  0.42093600  0.44946100  1
  O  O11  1  0.07577600  0.57906400  0.94946100  1
  O  O12  1  0.50328800  0.92422400  0.94946100  1
  O  O13  1  0.42093600  0.49671200  0.94946100  1
  O  O14  1  0.13657400  0.88233900  0.62777200  1
  O  O15  1  0.11766100  0.25423500  0.62777200  1
  O  O16  1  0.74576500  0.86342600  0.62777200  1
  O  O17  1  0.88233900  0.13657400  0.12777200  1
  O  O18  1  0.25423500  0.11766100  0.12777200  1
  O  O19  1  0.86342600  0.74576500  0.12777200  1
