# generated using pymatgen
data_Ac2Mg
_symmetry_space_group_name_H-M   'P 1'
_cell_length_a   7.55981667
_cell_length_b   7.55981667
_cell_length_c   8.16461090
_cell_angle_alpha   74.42735254
_cell_angle_beta   74.42735254
_cell_angle_gamma   31.25650950
_symmetry_Int_Tables_number   1
_chemical_formula_structural   Ac2Mg
_chemical_formula_sum   'Ac4 Mg2'
_cell_volume   232.51476541
_cell_formula_units_Z   2
loop_
 _symmetry_equiv_pos_site_id
 _symmetry_equiv_pos_as_xyz
  1  'x, y, z'
loop_
 _atom_site_type_symbol
 _atom_site_label
 _atom_site_symmetry_multiplicity
 _atom_site_fract_x
 _atom_site_fract_y
 _atom_site_fract_z
 _atom_site_occupancy
  Ac  Ac0  1  0.85134300  0.85134300  0.57009600  1
  Ac  Ac1  1  0.14865700  0.14865700  0.42990400  1
  Ac  Ac2  1  0.84307600  0.84307600  0.08216100  1
  Ac  Ac3  1  0.15692400  0.15692400  0.91783900  1
  Mg  Mg4  1  0.49699400  0.49699400  0.76225900  1
  Mg  Mg5  1  0.50300600  0.50300600  0.23774100  1
