# generated using pymatgen
data_Ac3Ho
_symmetry_space_group_name_H-M   'P 1'
_cell_length_a   7.82700820
_cell_length_b   7.82700820
_cell_length_c   6.33781700
_cell_angle_alpha   90.00000000
_cell_angle_beta   90.00000000
_cell_angle_gamma   120.00000173
_symmetry_Int_Tables_number   1
_chemical_formula_structural   Ac3Ho
_chemical_formula_sum   'Ac6 Ho2'
_cell_volume   336.24969367
_cell_formula_units_Z   2
loop_
 _symmetry_equiv_pos_site_id
 _symmetry_equiv_pos_as_xyz
  1  'x, y, z'
loop_
 _atom_site_type_symbol
 _atom_site_label
 _atom_site_symmetry_multiplicity
 _atom_site_fract_x
 _atom_site_fract_y
 _atom_site_fract_z
 _atom_site_occupancy
  Ac  Ac0  1  0.16973700  0.33947400  0.25000000  1
  Ac  Ac1  1  0.66052600  0.83026300  0.25000000  1
  Ac  Ac2  1  0.16973700  0.83026300  0.25000000  1
  Ac  Ac3  1  0.83026300  0.66052600  0.75000000  1
  Ac  Ac4  1  0.33947400  0.16973700  0.75000000  1
  Ac  Ac5  1  0.83026300  0.16973700  0.75000000  1
  Ho  Ho6  1  0.33333300  0.66666700  0.75000000  1
  Ho  Ho7  1  0.66666700  0.33333300  0.25000000  1
