# generated using pymatgen
data_Pb2OF2
_symmetry_space_group_name_H-M   'P 1'
_cell_length_a   8.33921200
_cell_length_b   8.33921200
_cell_length_c   5.88075100
_cell_angle_alpha   90.00000000
_cell_angle_beta   90.00000000
_cell_angle_gamma   90.00000000
_symmetry_Int_Tables_number   1
_chemical_formula_structural   Pb2OF2
_chemical_formula_sum   'Pb8 O4 F8'
_cell_volume   408.96187226
_cell_formula_units_Z   4
loop_
 _symmetry_equiv_pos_site_id
 _symmetry_equiv_pos_as_xyz
  1  'x, y, z'
loop_
 _atom_site_type_symbol
 _atom_site_label
 _atom_site_symmetry_multiplicity
 _atom_site_fract_x
 _atom_site_fract_y
 _atom_site_fract_z
 _atom_site_occupancy
  Pb  Pb0  1  0.00000000  0.25796000  0.79459600  1
  Pb  Pb1  1  0.25796000  0.00000000  0.20540400  1
  Pb  Pb2  1  0.00000000  0.74204000  0.79459600  1
  Pb  Pb3  1  0.74204000  0.00000000  0.20540400  1
  Pb  Pb4  1  0.50000000  0.23761900  0.68781900  1
  Pb  Pb5  1  0.23761900  0.50000000  0.31218100  1
  Pb  Pb6  1  0.50000000  0.76238100  0.68781900  1
  Pb  Pb7  1  0.76238100  0.50000000  0.31218100  1
  O  O8  1  0.00000000  0.00000000  0.00000000  1
  O  O9  1  0.50000000  0.50000000  0.50000000  1
  O  O10  1  0.50000000  0.00000000  0.47495700  1
  O  O11  1  0.00000000  0.50000000  0.52504300  1
  F  F12  1  0.72424100  0.27575900  0.00000000  1
  F  F13  1  0.27575900  0.27575900  0.00000000  1
  F  F14  1  0.27575900  0.72424100  0.00000000  1
  F  F15  1  0.72424100  0.72424100  0.00000000  1
  F  F16  1  0.79431700  0.20568300  0.50000000  1
  F  F17  1  0.20568300  0.20568300  0.50000000  1
  F  F18  1  0.20568300  0.79431700  0.50000000  1
  F  F19  1  0.79431700  0.79431700  0.50000000  1
