# generated using pymatgen
data_AcTh
_symmetry_space_group_name_H-M   'P 1'
_cell_length_a   3.74223600
_cell_length_b   3.74224204
_cell_length_c   6.18960300
_cell_angle_alpha   90.00000000
_cell_angle_beta   90.00000000
_cell_angle_gamma   119.99992889
_symmetry_Int_Tables_number   1
_chemical_formula_structural   AcTh
_chemical_formula_sum   'Ac1 Th1'
_cell_volume   75.06833500
_cell_formula_units_Z   1
loop_
 _symmetry_equiv_pos_site_id
 _symmetry_equiv_pos_as_xyz
  1  'x, y, z'
loop_
 _atom_site_type_symbol
 _atom_site_label
 _atom_site_symmetry_multiplicity
 _atom_site_fract_x
 _atom_site_fract_y
 _atom_site_fract_z
 _atom_site_occupancy
  Ac  Ac0  1  0.66666500  0.33333400  0.75000000  1
  Th  Th1  1  0.33333300  0.66666700  0.25000100  1
