# generated using pymatgen
data_Ag3As
_symmetry_space_group_name_H-M   'P 1'
_cell_length_a   5.94003953
_cell_length_b   5.94003953
_cell_length_c   4.80040700
_cell_angle_alpha   90.00000000
_cell_angle_beta   90.00000000
_cell_angle_gamma   119.99999480
_symmetry_Int_Tables_number   1
_chemical_formula_structural   Ag3As
_chemical_formula_sum   'Ag6 As2'
_cell_volume   146.68556755
_cell_formula_units_Z   2
loop_
 _symmetry_equiv_pos_site_id
 _symmetry_equiv_pos_as_xyz
  1  'x, y, z'
loop_
 _atom_site_type_symbol
 _atom_site_label
 _atom_site_symmetry_multiplicity
 _atom_site_fract_x
 _atom_site_fract_y
 _atom_site_fract_z
 _atom_site_occupancy
  Ag  Ag0  1  0.16659900  0.33319800  0.25000000  1
  Ag  Ag1  1  0.66680200  0.83340100  0.25000000  1
  Ag  Ag2  1  0.16659900  0.83340100  0.25000000  1
  Ag  Ag3  1  0.83340100  0.66680200  0.75000000  1
  Ag  Ag4  1  0.33319800  0.16659900  0.75000000  1
  Ag  Ag5  1  0.83340100  0.16659900  0.75000000  1
  As  As6  1  0.33333300  0.66666700  0.75000000  1
  As  As7  1  0.66666700  0.33333300  0.25000000  1
