# generated using pymatgen
data_Al2Tc2O5
_symmetry_space_group_name_H-M   'P 1'
_cell_length_a   3.57496800
_cell_length_b   3.57496800
_cell_length_c   7.39567900
_cell_angle_alpha   90.00000000
_cell_angle_beta   90.00000000
_cell_angle_gamma   90.00000000
_symmetry_Int_Tables_number   1
_chemical_formula_structural   Al2Tc2O5
_chemical_formula_sum   'Al2 Tc2 O5'
_cell_volume   94.51970780
_cell_formula_units_Z   1
loop_
 _symmetry_equiv_pos_site_id
 _symmetry_equiv_pos_as_xyz
  1  'x, y, z'
loop_
 _atom_site_type_symbol
 _atom_site_label
 _atom_site_symmetry_multiplicity
 _atom_site_fract_x
 _atom_site_fract_y
 _atom_site_fract_z
 _atom_site_occupancy
  Al  Al0  1  0.50000000  0.50000000  0.24808300  1
  Al  Al1  1  0.50000000  0.50000000  0.75191700  1
  Tc  Tc2  1  0.00000000  0.00000000  0.00000000  1
  Tc  Tc3  1  0.00000000  0.00000000  0.50000000  1
  O  O4  1  0.50000000  0.00000000  0.17465300  1
  O  O5  1  0.50000000  0.00000000  0.82534700  1
  O  O6  1  0.00000000  0.50000000  0.17465300  1
  O  O7  1  0.00000000  0.50000000  0.82534700  1
  O  O8  1  0.50000000  0.50000000  0.50000000  1
