# generated using pymatgen
data_Ba3Ce
_symmetry_space_group_name_H-M   'P 1'
_cell_length_a   7.37427181
_cell_length_b   7.37427181
_cell_length_c   7.37427181
_cell_angle_alpha   132.75033623
_cell_angle_beta   132.75033623
_cell_angle_gamma   69.04650299
_symmetry_Int_Tables_number   1
_chemical_formula_structural   Ba3Ce
_chemical_formula_sum   'Ba3 Ce1'
_cell_volume   212.24069344
_cell_formula_units_Z   1
loop_
 _symmetry_equiv_pos_site_id
 _symmetry_equiv_pos_as_xyz
  1  'x, y, z'
loop_
 _atom_site_type_symbol
 _atom_site_label
 _atom_site_symmetry_multiplicity
 _atom_site_fract_x
 _atom_site_fract_y
 _atom_site_fract_z
 _atom_site_occupancy
  Ba  Ba0  1  0.75000000  0.25000000  0.50000000  1
  Ba  Ba1  1  0.25000000  0.75000000  0.50000000  1
  Ba  Ba2  1  0.50000000  0.50000000  0.00000000  1
  Ce  Ce3  1  0.00000000  0.00000000  0.00000000  1
