# generated using pymatgen
data_CdBi3
_symmetry_space_group_name_H-M   'P 1'
_cell_length_a   5.93292043
_cell_length_b   5.93292043
_cell_length_c   5.93292043
_cell_angle_alpha   129.37156750
_cell_angle_beta   129.37156750
_cell_angle_gamma   74.41343617
_symmetry_Int_Tables_number   1
_chemical_formula_structural   CdBi3
_chemical_formula_sum   'Cd1 Bi3'
_cell_volume   121.63769320
_cell_formula_units_Z   1
loop_
 _symmetry_equiv_pos_site_id
 _symmetry_equiv_pos_as_xyz
  1  'x, y, z'
loop_
 _atom_site_type_symbol
 _atom_site_label
 _atom_site_symmetry_multiplicity
 _atom_site_fract_x
 _atom_site_fract_y
 _atom_site_fract_z
 _atom_site_occupancy
  Cd  Cd0  1  0.00000000  0.00000000  0.00000000  1
  Bi  Bi1  1  0.75000000  0.25000000  0.50000000  1
  Bi  Bi2  1  0.25000000  0.75000000  0.50000000  1
  Bi  Bi3  1  0.50000000  0.50000000  0.00000000  1
