# generated using pymatgen
data_Co3Sn
_symmetry_space_group_name_H-M   'P 1'
_cell_length_a   5.31938341
_cell_length_b   5.31938341
_cell_length_c   4.23124800
_cell_angle_alpha   90.00000000
_cell_angle_beta   90.00000000
_cell_angle_gamma   119.99999271
_symmetry_Int_Tables_number   1
_chemical_formula_structural   Co3Sn
_chemical_formula_sum   'Co6 Sn2'
_cell_volume   103.68638519
_cell_formula_units_Z   2
loop_
 _symmetry_equiv_pos_site_id
 _symmetry_equiv_pos_as_xyz
  1  'x, y, z'
loop_
 _atom_site_type_symbol
 _atom_site_label
 _atom_site_symmetry_multiplicity
 _atom_site_fract_x
 _atom_site_fract_y
 _atom_site_fract_z
 _atom_site_occupancy
  Co  Co0  1  0.15798800  0.31597700  0.25000000  1
  Co  Co1  1  0.68402300  0.84201200  0.25000000  1
  Co  Co2  1  0.15798800  0.84201200  0.25000000  1
  Co  Co3  1  0.84201200  0.68402300  0.75000000  1
  Co  Co4  1  0.31597700  0.15798800  0.75000000  1
  Co  Co5  1  0.84201200  0.15798800  0.75000000  1
  Sn  Sn6  1  0.33333300  0.66666700  0.75000000  1
  Sn  Sn7  1  0.66666700  0.33333300  0.25000000  1
