# generated using pymatgen
data_Lu3Tl2Cu5Se8
_symmetry_space_group_name_H-M   'P 1'
_cell_length_a   7.44285986
_cell_length_b   7.44285986
_cell_length_c   14.69692519
_cell_angle_alpha   70.24154046
_cell_angle_beta   70.24154046
_cell_angle_gamma   31.69309133
_symmetry_Int_Tables_number   1
_chemical_formula_structural   Lu3Tl2Cu5Se8
_chemical_formula_sum   'Lu3 Tl2 Cu5 Se8'
_cell_volume   400.45088390
_cell_formula_units_Z   1
loop_
 _symmetry_equiv_pos_site_id
 _symmetry_equiv_pos_as_xyz
  1  'x, y, z'
loop_
 _atom_site_type_symbol
 _atom_site_label
 _atom_site_symmetry_multiplicity
 _atom_site_fract_x
 _atom_site_fract_y
 _atom_site_fract_z
 _atom_site_occupancy
  Lu  Lu0  1  0.03537200  0.03537200  0.59268900  1
  Lu  Lu1  1  0.33632700  0.33632700  0.82576400  1
  Lu  Lu2  1  0.20010000  0.20010000  0.20993300  1
  Tl  Tl3  1  0.00854000  0.00854000  0.00973300  1
  Tl  Tl4  1  0.35875700  0.35875700  0.41533100  1
  Cu  Cu5  1  0.72774800  0.72774800  0.01681100  1
  Cu  Cu6  1  0.65153500  0.65153500  0.40115000  1
  Cu  Cu7  1  0.98297900  0.98297900  0.24059300  1
  Cu  Cu8  1  0.78359800  0.78359800  0.67182200  1
  Cu  Cu9  1  0.58814900  0.58814900  0.74858900  1
  Se  Se10  1  0.57784200  0.57784200  0.16536800  1
  Se  Se11  1  0.32541900  0.32541900  0.01679600  1
  Se  Se12  1  0.69445000  0.69445000  0.85303200  1
  Se  Se13  1  0.80833200  0.80833200  0.25789500  1
  Se  Se14  1  0.05321500  0.05321500  0.39672000  1
  Se  Se15  1  0.67698700  0.67698700  0.56676800  1
  Se  Se16  1  0.38678900  0.38678900  0.62285300  1
  Se  Se17  1  0.98592200  0.98592200  0.79532200  1
