# generated using pymatgen
data_CoBP2HPbO9
_symmetry_space_group_name_H-M   'P 1'
_cell_length_a   5.28189200
_cell_length_b   7.87942435
_cell_length_c   8.48225331
_cell_angle_alpha   89.96251323
_cell_angle_beta   99.77725593
_cell_angle_gamma   92.33928104
_symmetry_Int_Tables_number   1
_chemical_formula_structural   CoBP2HPbO9
_chemical_formula_sum   'Co2 B2 P4 H2 Pb2 O18'
_cell_volume   347.59228590
_cell_formula_units_Z   2
loop_
 _symmetry_equiv_pos_site_id
 _symmetry_equiv_pos_as_xyz
  1  'x, y, z'
loop_
 _atom_site_type_symbol
 _atom_site_label
 _atom_site_symmetry_multiplicity
 _atom_site_fract_x
 _atom_site_fract_y
 _atom_site_fract_z
 _atom_site_occupancy
  Co  Co0  1  0.26681400  0.79846000  0.19911400  1
  Co  Co1  1  0.73318600  0.20154000  0.80088600  1
  B  B2  1  0.11611500  0.75025300  0.54323300  1
  B  B3  1  0.88388500  0.24974700  0.45676700  1
  P  P4  1  0.22876200  0.93442000  0.82234100  1
  P  P5  1  0.77123800  0.06558000  0.17765900  1
  P  P6  1  0.18845800  0.42978400  0.69861100  1
  P  P7  1  0.81154200  0.57021600  0.30138900  1
  H  H8  1  0.46288000  0.85039500  0.49961500  1
  H  H9  1  0.53712000  0.14960500  0.50038500  1
  Pb  Pb10  1  0.72053600  0.69477300  0.91097600  1
  Pb  Pb11  1  0.27946400  0.30522700  0.08902400  1
  O  O12  1  0.50816500  0.97101900  0.79531200  1
  O  O13  1  0.49183500  0.02898100  0.20468800  1
  O  O14  1  0.43333000  0.38149100  0.81276400  1
  O  O15  1  0.56667000  0.61850900  0.18723600  1
  O  O16  1  0.28763200  0.82981700  0.44218800  1
  O  O17  1  0.71236800  0.17018300  0.55781200  1
  O  O18  1  0.25722800  0.60515800  0.62604000  1
  O  O19  1  0.74277200  0.39484200  0.37396000  1
  O  O20  1  0.23337500  0.78674200  0.94607100  1
  O  O21  1  0.76662500  0.21325800  0.05392900  1
  O  O22  1  0.13169200  0.29860000  0.55599000  1
  O  O23  1  0.86830800  0.70140000  0.44401000  1
  O  O24  1  0.09995900  0.09258000  0.87038300  1
  O  O25  1  0.90004100  0.90742000  0.12961700  1
  O  O26  1  0.05110500  0.86624200  0.66473400  1
  O  O27  1  0.94889500  0.13375800  0.33526600  1
  O  O28  1  0.04296600  0.56431900  0.21354700  1
  O  O29  1  0.95703400  0.43568100  0.78645300  1
