# generated using pymatgen
data_CN6Cl
_symmetry_space_group_name_H-M   'P 1'
_cell_length_a   7.70290700
_cell_length_b   6.54120549
_cell_length_c   6.52563522
_cell_angle_alpha   120.75528521
_cell_angle_beta   90.00000000
_cell_angle_gamma   90.00000000
_symmetry_Int_Tables_number   1
_chemical_formula_structural   CN6Cl
_chemical_formula_sum   'C2 N12 Cl2'
_cell_volume   282.55955202
_cell_formula_units_Z   2
loop_
 _symmetry_equiv_pos_site_id
 _symmetry_equiv_pos_as_xyz
  1  'x, y, z'
loop_
 _atom_site_type_symbol
 _atom_site_label
 _atom_site_symmetry_multiplicity
 _atom_site_fract_x
 _atom_site_fract_y
 _atom_site_fract_z
 _atom_site_occupancy
  C  C0  1  0.75000000  0.99733500  0.99989800  1
  C  C1  1  0.25000000  0.00266500  0.00010200  1
  N  N2  1  0.75000000  0.24036500  0.11841300  1
  N  N3  1  0.75000000  0.88306800  0.12721000  1
  N  N4  1  0.75000000  0.86765100  0.75616000  1
  N  N5  1  0.25000000  0.75963500  0.88158700  1
  N  N6  1  0.25000000  0.11693200  0.87279000  1
  N  N7  1  0.25000000  0.13234900  0.24384000  1
  N  N8  1  0.75000000  0.40627100  0.31139200  1
  N  N9  1  0.75000000  0.68927000  0.09354400  1
  N  N10  1  0.75000000  0.89715400  0.59379700  1
  N  N11  1  0.25000000  0.59372900  0.68860800  1
  N  N12  1  0.25000000  0.31073000  0.90645600  1
  N  N13  1  0.25000000  0.10284600  0.40620300  1
  Cl  Cl14  1  0.75000000  0.35094700  0.67403200  1
  Cl  Cl15  1  0.25000000  0.64905300  0.32596800  1
