# generated using pymatgen
data_Eu2Mg
_symmetry_space_group_name_H-M   'P 1'
_cell_length_a   6.74856266
_cell_length_b   6.74856266
_cell_length_c   9.40922401
_cell_angle_alpha   69.04224748
_cell_angle_beta   69.04224748
_cell_angle_gamma   33.74905362
_symmetry_Int_Tables_number   1
_chemical_formula_structural   Eu2Mg
_chemical_formula_sum   'Eu4 Mg2'
_cell_volume   220.81469424
_cell_formula_units_Z   2
loop_
 _symmetry_equiv_pos_site_id
 _symmetry_equiv_pos_as_xyz
  1  'x, y, z'
loop_
 _atom_site_type_symbol
 _atom_site_label
 _atom_site_symmetry_multiplicity
 _atom_site_fract_x
 _atom_site_fract_y
 _atom_site_fract_z
 _atom_site_occupancy
  Eu  Eu0  1  0.83914300  0.83914300  0.09480600  1
  Eu  Eu1  1  0.51015200  0.51015200  0.29543100  1
  Eu  Eu2  1  0.48984800  0.48984800  0.70456900  1
  Eu  Eu3  1  0.16085700  0.16085700  0.90519400  1
  Mg  Mg4  1  0.19527500  0.19527500  0.41690700  1
  Mg  Mg5  1  0.80472500  0.80472500  0.58309300  1
