# generated using pymatgen
data_CsNd
_symmetry_space_group_name_H-M   'P 1'
_cell_length_a   8.03016126
_cell_length_b   8.03016126
_cell_length_c   8.03016110
_cell_angle_alpha   28.17032468
_cell_angle_beta   28.17032468
_cell_angle_gamma   28.17032648
_symmetry_Int_Tables_number   1
_chemical_formula_structural   CsNd
_chemical_formula_sum   'Cs1 Nd1'
_cell_volume   101.95602678
_cell_formula_units_Z   1
loop_
 _symmetry_equiv_pos_site_id
 _symmetry_equiv_pos_as_xyz
  1  'x, y, z'
loop_
 _atom_site_type_symbol
 _atom_site_label
 _atom_site_symmetry_multiplicity
 _atom_site_fract_x
 _atom_site_fract_y
 _atom_site_fract_z
 _atom_site_occupancy
  Cs  Cs0  1  0.00000000  0.00000000  0.00000000  1
  Nd  Nd1  1  0.50000000  0.50000000  0.50000000  1
