# generated using pymatgen
data_GaAg3
_symmetry_space_group_name_H-M   'P 1'
_cell_length_a   5.83994772
_cell_length_b   5.83994772
_cell_length_c   4.86222700
_cell_angle_alpha   90.00000000
_cell_angle_beta   90.00000000
_cell_angle_gamma   119.99999681
_symmetry_Int_Tables_number   1
_chemical_formula_structural   GaAg3
_chemical_formula_sum   'Ga2 Ag6'
_cell_volume   143.60970650
_cell_formula_units_Z   2
loop_
 _symmetry_equiv_pos_site_id
 _symmetry_equiv_pos_as_xyz
  1  'x, y, z'
loop_
 _atom_site_type_symbol
 _atom_site_label
 _atom_site_symmetry_multiplicity
 _atom_site_fract_x
 _atom_site_fract_y
 _atom_site_fract_z
 _atom_site_occupancy
  Ga  Ga0  1  0.33333300  0.66666700  0.75000000  1
  Ga  Ga1  1  0.66666700  0.33333300  0.25000000  1
  Ag  Ag2  1  0.16741400  0.33482900  0.25000000  1
  Ag  Ag3  1  0.66517100  0.83258600  0.25000000  1
  Ag  Ag4  1  0.16741400  0.83258600  0.25000000  1
  Ag  Ag5  1  0.83258600  0.66517100  0.75000000  1
  Ag  Ag6  1  0.33482900  0.16741400  0.75000000  1
  Ag  Ag7  1  0.83258600  0.16741400  0.75000000  1
