# generated using pymatgen
data_CsSr3
_symmetry_space_group_name_H-M   'P 1'
_cell_length_a   7.67871164
_cell_length_b   7.67871164
_cell_length_c   7.67871164
_cell_angle_alpha   130.99383074
_cell_angle_beta   130.99383074
_cell_angle_gamma   71.82288089
_symmetry_Int_Tables_number   1
_chemical_formula_structural   CsSr3
_chemical_formula_sum   'Cs1 Sr3'
_cell_volume   252.30516777
_cell_formula_units_Z   1
loop_
 _symmetry_equiv_pos_site_id
 _symmetry_equiv_pos_as_xyz
  1  'x, y, z'
loop_
 _atom_site_type_symbol
 _atom_site_label
 _atom_site_symmetry_multiplicity
 _atom_site_fract_x
 _atom_site_fract_y
 _atom_site_fract_z
 _atom_site_occupancy
  Cs  Cs0  1  0.00000000  0.00000000  0.00000000  1
  Sr  Sr1  1  0.75000000  0.25000000  0.50000000  1
  Sr  Sr2  1  0.25000000  0.75000000  0.50000000  1
  Sr  Sr3  1  0.50000000  0.50000000  0.00000000  1
