# generated using pymatgen
data_Cs2Hg3H2I8O
_symmetry_space_group_name_H-M   'P 1'
_cell_length_a   7.79957455
_cell_length_b   8.09170250
_cell_length_c   11.99197844
_cell_angle_alpha   84.20170175
_cell_angle_beta   71.02232843
_cell_angle_gamma   71.90094909
_symmetry_Int_Tables_number   1
_chemical_formula_structural   Cs2Hg3H2I8O
_chemical_formula_sum   'Cs2 Hg3 H2 I8 O1'
_cell_volume   680.28614292
_cell_formula_units_Z   1
loop_
 _symmetry_equiv_pos_site_id
 _symmetry_equiv_pos_as_xyz
  1  'x, y, z'
loop_
 _atom_site_type_symbol
 _atom_site_label
 _atom_site_symmetry_multiplicity
 _atom_site_fract_x
 _atom_site_fract_y
 _atom_site_fract_z
 _atom_site_occupancy
  Cs  Cs0  1  0.30268300  0.71053800  0.24856100  1
  Cs  Cs1  1  0.55124400  0.71053800  0.75143900  1
  Hg  Hg2  1  0.87512200  0.34165000  0.38882900  1
  Hg  Hg3  1  0.26395100  0.34165000  0.61117100  1
  Hg  Hg4  1  0.18048600  0.26784800  0.00000000  1
  H  H5  1  0.72771200  0.49237900  0.00000000  1
  H  H6  1  0.58779700  0.39360400  0.00000000  1
  I  I7  1  0.06515000  0.62538000  0.00000000  1
  I  I8  1  0.26689100  0.21000800  0.39009700  1
  I  I9  1  0.65698800  0.21000800  0.60990300  1
  I  I10  1  0.72864700  0.69890200  0.38983800  1
  I  I11  1  0.11848500  0.69890200  0.61016200  1
  I  I12  1  0.88192700  0.15622400  0.19709500  1
  I  I13  1  0.07902100  0.15622400  0.80290500  1
  I  I14  1  0.52678800  0.04244100  0.00000000  1
  O  O15  1  0.59756800  0.51122500  0.00000000  1
