# generated using pymatgen
data_DyY3
_symmetry_space_group_name_H-M   'P 1'
_cell_length_a   7.25721514
_cell_length_b   7.25721514
_cell_length_c   5.76560400
_cell_angle_alpha   90.00000000
_cell_angle_beta   90.00000000
_cell_angle_gamma   120.00001038
_symmetry_Int_Tables_number   1
_chemical_formula_structural   DyY3
_chemical_formula_sum   'Dy2 Y6'
_cell_volume   262.97556226
_cell_formula_units_Z   2
loop_
 _symmetry_equiv_pos_site_id
 _symmetry_equiv_pos_as_xyz
  1  'x, y, z'
loop_
 _atom_site_type_symbol
 _atom_site_label
 _atom_site_symmetry_multiplicity
 _atom_site_fract_x
 _atom_site_fract_y
 _atom_site_fract_z
 _atom_site_occupancy
  Dy  Dy0  1  0.33333300  0.66666700  0.75000000  1
  Dy  Dy1  1  0.66666700  0.33333300  0.25000000  1
  Y  Y2  1  0.16720800  0.33441600  0.25000000  1
  Y  Y3  1  0.66558400  0.83279200  0.25000000  1
  Y  Y4  1  0.16720800  0.83279200  0.25000000  1
  Y  Y5  1  0.83279200  0.66558400  0.75000000  1
  Y  Y6  1  0.33441600  0.16720800  0.75000000  1
  Y  Y7  1  0.83279200  0.16720800  0.75000000  1
