# generated using pymatgen
data_Er3Pb
_symmetry_space_group_name_H-M   'P 1'
_cell_length_a   6.83521850
_cell_length_b   6.83521850
_cell_length_c   5.61769900
_cell_angle_alpha   90.00000000
_cell_angle_beta   90.00000000
_cell_angle_gamma   120.00000479
_symmetry_Int_Tables_number   1
_chemical_formula_structural   Er3Pb
_chemical_formula_sum   'Er6 Pb2'
_cell_volume   227.29709230
_cell_formula_units_Z   2
loop_
 _symmetry_equiv_pos_site_id
 _symmetry_equiv_pos_as_xyz
  1  'x, y, z'
loop_
 _atom_site_type_symbol
 _atom_site_label
 _atom_site_symmetry_multiplicity
 _atom_site_fract_x
 _atom_site_fract_y
 _atom_site_fract_z
 _atom_site_occupancy
  Er  Er0  1  0.83184000  0.16816000  0.75000000  1
  Er  Er1  1  0.33632100  0.16816000  0.75000000  1
  Er  Er2  1  0.83184000  0.66367900  0.75000000  1
  Er  Er3  1  0.16816000  0.83184000  0.25000000  1
  Er  Er4  1  0.66367900  0.83184000  0.25000000  1
  Er  Er5  1  0.16816000  0.33632100  0.25000000  1
  Pb  Pb6  1  0.66666700  0.33333300  0.25000000  1
  Pb  Pb7  1  0.33333300  0.66666700  0.75000000  1
