# generated using pymatgen
data_FeAg3
_symmetry_space_group_name_H-M   'P 1'
_cell_length_a   5.77704635
_cell_length_b   5.77704635
_cell_length_c   4.63966600
_cell_angle_alpha   90.00000000
_cell_angle_beta   90.00000000
_cell_angle_gamma   120.00000402
_symmetry_Int_Tables_number   1
_chemical_formula_structural   FeAg3
_chemical_formula_sum   'Fe2 Ag6'
_cell_volume   134.10007967
_cell_formula_units_Z   2
loop_
 _symmetry_equiv_pos_site_id
 _symmetry_equiv_pos_as_xyz
  1  'x, y, z'
loop_
 _atom_site_type_symbol
 _atom_site_label
 _atom_site_symmetry_multiplicity
 _atom_site_fract_x
 _atom_site_fract_y
 _atom_site_fract_z
 _atom_site_occupancy
  Fe  Fe0  1  0.33333300  0.66666700  0.75000000  1
  Fe  Fe1  1  0.66666700  0.33333300  0.25000000  1
  Ag  Ag2  1  0.16940600  0.33881200  0.25000000  1
  Ag  Ag3  1  0.66118800  0.83059400  0.25000000  1
  Ag  Ag4  1  0.16940600  0.83059400  0.25000000  1
  Ag  Ag5  1  0.83059400  0.66118800  0.75000000  1
  Ag  Ag6  1  0.33881200  0.16940600  0.75000000  1
  Ag  Ag7  1  0.83059400  0.16940600  0.75000000  1
