# generated using pymatgen
data_FeHg3
_symmetry_space_group_name_H-M   'P 1'
_cell_length_a   6.43432533
_cell_length_b   6.43432533
_cell_length_c   4.60834800
_cell_angle_alpha   90.00000000
_cell_angle_beta   90.00000000
_cell_angle_gamma   119.99999312
_symmetry_Int_Tables_number   1
_chemical_formula_structural   FeHg3
_chemical_formula_sum   'Fe2 Hg6'
_cell_volume   165.22735892
_cell_formula_units_Z   2
loop_
 _symmetry_equiv_pos_site_id
 _symmetry_equiv_pos_as_xyz
  1  'x, y, z'
loop_
 _atom_site_type_symbol
 _atom_site_label
 _atom_site_symmetry_multiplicity
 _atom_site_fract_x
 _atom_site_fract_y
 _atom_site_fract_z
 _atom_site_occupancy
  Fe  Fe0  1  0.33333300  0.66666700  0.75000000  1
  Fe  Fe1  1  0.66666700  0.33333300  0.25000000  1
  Hg  Hg2  1  0.17443800  0.34887600  0.25000000  1
  Hg  Hg3  1  0.65112400  0.82556200  0.25000000  1
  Hg  Hg4  1  0.17443800  0.82556200  0.25000000  1
  Hg  Hg5  1  0.82556200  0.65112400  0.75000000  1
  Hg  Hg6  1  0.34887600  0.17443800  0.75000000  1
  Hg  Hg7  1  0.82556200  0.17443800  0.75000000  1
