# generated using pymatgen
data_Cs3Mo2BrO7
_symmetry_space_group_name_H-M   'P 1'
_cell_length_a   6.65636509
_cell_length_b   6.65636509
_cell_length_c   16.94471700
_cell_angle_alpha   90.00000000
_cell_angle_beta   90.00000000
_cell_angle_gamma   119.99999094
_symmetry_Int_Tables_number   1
_chemical_formula_structural   Cs3Mo2BrO7
_chemical_formula_sum   'Cs6 Mo4 Br2 O14'
_cell_volume   650.18846364
_cell_formula_units_Z   2
loop_
 _symmetry_equiv_pos_site_id
 _symmetry_equiv_pos_as_xyz
  1  'x, y, z'
loop_
 _atom_site_type_symbol
 _atom_site_label
 _atom_site_symmetry_multiplicity
 _atom_site_fract_x
 _atom_site_fract_y
 _atom_site_fract_z
 _atom_site_occupancy
  Cs  Cs0  1  0.33333300  0.66666700  0.95437500  1
  Cs  Cs1  1  0.66666700  0.33333300  0.45437500  1
  Cs  Cs2  1  0.66666700  0.33333300  0.04562500  1
  Cs  Cs3  1  0.33333300  0.66666700  0.54562500  1
  Cs  Cs4  1  0.66666700  0.33333300  0.75000000  1
  Cs  Cs5  1  0.33333300  0.66666700  0.25000000  1
  Mo  Mo6  1  0.00000000  0.00000000  0.86319600  1
  Mo  Mo7  1  0.00000000  0.00000000  0.36319600  1
  Mo  Mo8  1  0.00000000  0.00000000  0.13680400  1
  Mo  Mo9  1  0.00000000  0.00000000  0.63680400  1
  Br  Br10  1  0.33333300  0.66666700  0.75000000  1
  Br  Br11  1  0.66666700  0.33333300  0.25000000  1
  O  O12  1  0.00000000  0.00000000  0.75000000  1
  O  O13  1  0.00000000  0.00000000  0.25000000  1
  O  O14  1  0.85480400  0.70960700  0.89972100  1
  O  O15  1  0.14519600  0.29039300  0.39972100  1
  O  O16  1  0.29039300  0.14519600  0.89972100  1
  O  O17  1  0.85480400  0.14519600  0.89972100  1
  O  O18  1  0.14519600  0.85480400  0.39972100  1
  O  O19  1  0.70960700  0.85480400  0.39972100  1
  O  O20  1  0.14519600  0.29039300  0.10027900  1
  O  O21  1  0.14519600  0.85480400  0.10027900  1
  O  O22  1  0.70960700  0.85480400  0.10027900  1
  O  O23  1  0.29039300  0.14519600  0.60027900  1
  O  O24  1  0.85480400  0.14519600  0.60027900  1
  O  O25  1  0.85480400  0.70960700  0.60027900  1
