# generated using pymatgen
data_EuO3
_symmetry_space_group_name_H-M   'P 1'
_cell_length_a   5.01741848
_cell_length_b   5.01741848
_cell_length_c   4.49454300
_cell_angle_alpha   90.00000000
_cell_angle_beta   90.00000000
_cell_angle_gamma   120.00000629
_symmetry_Int_Tables_number   1
_chemical_formula_structural   EuO3
_chemical_formula_sum   'Eu2 O6'
_cell_volume   97.98887994
_cell_formula_units_Z   2
loop_
 _symmetry_equiv_pos_site_id
 _symmetry_equiv_pos_as_xyz
  1  'x, y, z'
loop_
 _atom_site_type_symbol
 _atom_site_label
 _atom_site_symmetry_multiplicity
 _atom_site_fract_x
 _atom_site_fract_y
 _atom_site_fract_z
 _atom_site_occupancy
  Eu  Eu0  1  0.33333300  0.66666700  0.75000000  1
  Eu  Eu1  1  0.66666700  0.33333300  0.25000000  1
  O  O2  1  0.18629200  0.37258400  0.25000000  1
  O  O3  1  0.62741600  0.81370800  0.25000000  1
  O  O4  1  0.18629200  0.81370800  0.25000000  1
  O  O5  1  0.81370800  0.62741600  0.75000000  1
  O  O6  1  0.37258400  0.18629200  0.75000000  1
  O  O7  1  0.81370800  0.18629200  0.75000000  1
