# generated using pymatgen
data_Eu3In
_symmetry_space_group_name_H-M   'P 1'
_cell_length_a   7.44878249
_cell_length_b   7.44878249
_cell_length_c   5.81962200
_cell_angle_alpha   90.00000000
_cell_angle_beta   90.00000000
_cell_angle_gamma   120.00000431
_symmetry_Int_Tables_number   1
_chemical_formula_structural   Eu3In
_chemical_formula_sum   'Eu6 In2'
_cell_volume   279.63786312
_cell_formula_units_Z   2
loop_
 _symmetry_equiv_pos_site_id
 _symmetry_equiv_pos_as_xyz
  1  'x, y, z'
loop_
 _atom_site_type_symbol
 _atom_site_label
 _atom_site_symmetry_multiplicity
 _atom_site_fract_x
 _atom_site_fract_y
 _atom_site_fract_z
 _atom_site_occupancy
  Eu  Eu0  1  0.17508900  0.35017800  0.25000000  1
  Eu  Eu1  1  0.64982200  0.82491100  0.25000000  1
  Eu  Eu2  1  0.17508900  0.82491100  0.25000000  1
  Eu  Eu3  1  0.82491100  0.64982200  0.75000000  1
  Eu  Eu4  1  0.35017800  0.17508900  0.75000000  1
  Eu  Eu5  1  0.82491100  0.17508900  0.75000000  1
  In  In6  1  0.33333300  0.66666700  0.75000000  1
  In  In7  1  0.66666700  0.33333300  0.25000000  1
