# generated using pymatgen
data_GeB
_symmetry_space_group_name_H-M   'P 1'
_cell_length_a   3.35446533
_cell_length_b   3.35446533
_cell_length_c   5.87632300
_cell_angle_alpha   90.00000000
_cell_angle_beta   90.00000000
_cell_angle_gamma   119.99998681
_symmetry_Int_Tables_number   1
_chemical_formula_structural   GeB
_chemical_formula_sum   'Ge2 B2'
_cell_volume   57.26416920
_cell_formula_units_Z   2
loop_
 _symmetry_equiv_pos_site_id
 _symmetry_equiv_pos_as_xyz
  1  'x, y, z'
loop_
 _atom_site_type_symbol
 _atom_site_label
 _atom_site_symmetry_multiplicity
 _atom_site_fract_x
 _atom_site_fract_y
 _atom_site_fract_z
 _atom_site_occupancy
  Ge  Ge0  1  0.66666700  0.33333300  0.86273100  1
  Ge  Ge1  1  0.33333300  0.66666700  0.36273100  1
  B  B2  1  0.66666700  0.33333300  0.51226800  1
  B  B3  1  0.33333300  0.66666700  0.01226800  1
