# generated using pymatgen
data_Tb6Ni2Sn
_symmetry_space_group_name_H-M   'P 1'
_cell_length_a   8.46074232
_cell_length_b   8.46074232
_cell_length_c   8.46074232
_cell_angle_alpha   107.34671715
_cell_angle_beta   109.15133740
_cell_angle_gamma   111.94907123
_symmetry_Int_Tables_number   1
_chemical_formula_structural   Tb6Ni2Sn
_chemical_formula_sum   'Tb12 Ni4 Sn2'
_cell_volume   465.46606959
_cell_formula_units_Z   2
loop_
 _symmetry_equiv_pos_site_id
 _symmetry_equiv_pos_as_xyz
  1  'x, y, z'
loop_
 _atom_site_type_symbol
 _atom_site_label
 _atom_site_symmetry_multiplicity
 _atom_site_fract_x
 _atom_site_fract_y
 _atom_site_fract_z
 _atom_site_occupancy
  Tb  Tb0  1  0.70569500  0.26506900  0.97076400  1
  Tb  Tb1  1  0.29430500  0.73493100  0.02923600  1
  Tb  Tb2  1  0.70569500  0.73493100  0.44062600  1
  Tb  Tb3  1  0.29430500  0.26506900  0.55937400  1
  Tb  Tb4  1  0.81050000  0.13542400  0.32492400  1
  Tb  Tb5  1  0.81050000  0.48557600  0.67507600  1
  Tb  Tb6  1  0.18950000  0.86457600  0.67507600  1
  Tb  Tb7  1  0.18950000  0.51442400  0.32492400  1
  Tb  Tb8  1  0.60487600  0.78600100  0.81887500  1
  Tb  Tb9  1  0.96712700  0.78600100  0.18112500  1
  Tb  Tb10  1  0.03287300  0.21399900  0.81887500  1
  Tb  Tb11  1  0.39512400  0.21399900  0.18112500  1
  Ni  Ni12  1  0.85152500  0.50000000  0.35152500  1
  Ni  Ni13  1  0.14847500  0.50000000  0.64847500  1
  Ni  Ni14  1  0.00000000  0.12171800  0.12171800  1
  Ni  Ni15  1  0.00000000  0.87828200  0.87828200  1
  Sn  Sn16  1  0.50000000  0.50000000  0.00000000  1
  Sn  Sn17  1  0.50000000  0.00000000  0.50000000  1
