# generated using pymatgen
data_HfBi3
_symmetry_space_group_name_H-M   'P 1'
_cell_length_a   6.20042914
_cell_length_b   6.20042914
_cell_length_c   6.20042914
_cell_angle_alpha   136.14464707
_cell_angle_beta   136.14464707
_cell_angle_gamma   63.75678772
_symmetry_Int_Tables_number   1
_chemical_formula_structural   HfBi3
_chemical_formula_sum   'Hf1 Bi3'
_cell_volume   112.91523291
_cell_formula_units_Z   1
loop_
 _symmetry_equiv_pos_site_id
 _symmetry_equiv_pos_as_xyz
  1  'x, y, z'
loop_
 _atom_site_type_symbol
 _atom_site_label
 _atom_site_symmetry_multiplicity
 _atom_site_fract_x
 _atom_site_fract_y
 _atom_site_fract_z
 _atom_site_occupancy
  Hf  Hf0  1  0.00000000  0.00000000  0.00000000  1
  Bi  Bi1  1  0.75000000  0.25000000  0.50000000  1
  Bi  Bi2  1  0.25000000  0.75000000  0.50000000  1
  Bi  Bi3  1  0.50000000  0.50000000  0.00000000  1
