# generated using pymatgen
data_NaMgSO7
_symmetry_space_group_name_H-M   'P 1'
_cell_length_a   7.20641900
_cell_length_b   6.28439500
_cell_length_c   7.52970602
_cell_angle_alpha   69.54521528
_cell_angle_beta   90.00000000
_cell_angle_gamma   90.00000000
_symmetry_Int_Tables_number   1
_chemical_formula_structural   NaMgSO7
_chemical_formula_sum   'Na2 Mg2 S2 O14'
_cell_volume   319.50423298
_cell_formula_units_Z   2
loop_
 _symmetry_equiv_pos_site_id
 _symmetry_equiv_pos_as_xyz
  1  'x, y, z'
loop_
 _atom_site_type_symbol
 _atom_site_label
 _atom_site_symmetry_multiplicity
 _atom_site_fract_x
 _atom_site_fract_y
 _atom_site_fract_z
 _atom_site_occupancy
  Na  Na0  1  0.75000000  0.73573400  0.74733700  1
  Na  Na1  1  0.25000000  0.26426600  0.25266300  1
  Mg  Mg2  1  0.50000000  0.00000000  0.00000000  1
  Mg  Mg3  1  0.00000000  0.00000000  0.00000000  1
  S  S4  1  0.25000000  0.82546400  0.71485600  1
  S  S5  1  0.75000000  0.17453600  0.28514400  1
  O  O6  1  0.07865700  0.80866700  0.83731800  1
  O  O7  1  0.57865700  0.19133300  0.16268200  1
  O  O8  1  0.92134300  0.19133300  0.16268200  1
  O  O9  1  0.42134300  0.80866700  0.83731800  1
  O  O10  1  0.25000000  0.63769100  0.64198700  1
  O  O11  1  0.75000000  0.36230900  0.35801300  1
  O  O12  1  0.25000000  0.05080200  0.56324200  1
  O  O13  1  0.75000000  0.94919800  0.43675800  1
  O  O14  1  0.75000000  0.87254000  0.99307500  1
  O  O15  1  0.25000000  0.12746000  0.00692500  1
  O  O16  1  0.83648100  0.31384200  0.74615200  1
  O  O17  1  0.33648100  0.68615800  0.25384800  1
  O  O18  1  0.16351900  0.68615800  0.25384800  1
  O  O19  1  0.66351900  0.31384200  0.74615200  1
