# generated using pymatgen
data_Eu(Ge3Pt)4
_symmetry_space_group_name_H-M   'P 1'
_cell_length_a   7.63654446
_cell_length_b   7.63654446
_cell_length_c   7.63654446
_cell_angle_alpha   109.47122063
_cell_angle_beta   109.47122063
_cell_angle_gamma   109.47122063
_symmetry_Int_Tables_number   1
_chemical_formula_structural   Eu(Ge3Pt)4
_chemical_formula_sum   'Eu1 Ge12 Pt4'
_cell_volume   342.82206221
_cell_formula_units_Z   1
loop_
 _symmetry_equiv_pos_site_id
 _symmetry_equiv_pos_as_xyz
  1  'x, y, z'
loop_
 _atom_site_type_symbol
 _atom_site_label
 _atom_site_symmetry_multiplicity
 _atom_site_fract_x
 _atom_site_fract_y
 _atom_site_fract_z
 _atom_site_occupancy
  Eu  Eu0  1  0.00000000  0.00000000  0.00000000  1
  Ge  Ge1  1  0.35352800  0.50453600  0.15100800  1
  Ge  Ge2  1  0.64647200  0.79747900  0.15100800  1
  Ge  Ge3  1  0.84899200  0.35352800  0.20252100  1
  Ge  Ge4  1  0.50453600  0.15100800  0.35352800  1
  Ge  Ge5  1  0.20252100  0.84899200  0.35352800  1
  Ge  Ge6  1  0.84899200  0.64647200  0.49546400  1
  Ge  Ge7  1  0.15100800  0.35352800  0.50453600  1
  Ge  Ge8  1  0.79747900  0.15100800  0.64647200  1
  Ge  Ge9  1  0.49546400  0.84899200  0.64647200  1
  Ge  Ge10  1  0.15100800  0.64647200  0.79747900  1
  Ge  Ge11  1  0.35352800  0.20252100  0.84899200  1
  Ge  Ge12  1  0.64647200  0.49546400  0.84899200  1
  Pt  Pt13  1  0.50000000  0.00000000  0.00000000  1
  Pt  Pt14  1  0.00000000  0.50000000  0.00000000  1
  Pt  Pt15  1  0.00000000  0.00000000  0.50000000  1
  Pt  Pt16  1  0.50000000  0.50000000  0.50000000  1
