# generated using pymatgen
data_HoO3
_symmetry_space_group_name_H-M   'P 1'
_cell_length_a   4.64636961
_cell_length_b   4.64636961
_cell_length_c   4.64421200
_cell_angle_alpha   90.00000000
_cell_angle_beta   90.00000000
_cell_angle_gamma   119.99999438
_symmetry_Int_Tables_number   1
_chemical_formula_structural   HoO3
_chemical_formula_sum   'Ho2 O6'
_cell_volume   86.83007978
_cell_formula_units_Z   2
loop_
 _symmetry_equiv_pos_site_id
 _symmetry_equiv_pos_as_xyz
  1  'x, y, z'
loop_
 _atom_site_type_symbol
 _atom_site_label
 _atom_site_symmetry_multiplicity
 _atom_site_fract_x
 _atom_site_fract_y
 _atom_site_fract_z
 _atom_site_occupancy
  Ho  Ho0  1  0.33333300  0.66666700  0.75000000  1
  Ho  Ho1  1  0.66666700  0.33333300  0.25000000  1
  O  O2  1  0.18040300  0.36080600  0.25000000  1
  O  O3  1  0.63919400  0.81959700  0.25000000  1
  O  O4  1  0.18040300  0.81959700  0.25000000  1
  O  O5  1  0.81959700  0.63919400  0.75000000  1
  O  O6  1  0.36080600  0.18040300  0.75000000  1
  O  O7  1  0.81959700  0.18040300  0.75000000  1
