# generated using pymatgen
data_HoNp
_symmetry_space_group_name_H-M   'P 1'
_cell_length_a   3.29711248
_cell_length_b   3.29255932
_cell_length_c   5.81447700
_cell_angle_alpha   90.00014317
_cell_angle_beta   89.99983430
_cell_angle_gamma   119.98350852
_symmetry_Int_Tables_number   1
_chemical_formula_structural   HoNp
_chemical_formula_sum   'Ho1 Np1'
_cell_volume   54.67399470
_cell_formula_units_Z   1
loop_
 _symmetry_equiv_pos_site_id
 _symmetry_equiv_pos_as_xyz
  1  'x, y, z'
loop_
 _atom_site_type_symbol
 _atom_site_label
 _atom_site_symmetry_multiplicity
 _atom_site_fract_x
 _atom_site_fract_y
 _atom_site_fract_z
 _atom_site_occupancy
  Ho  Ho0  1  0.66690900  0.33319200  0.75000000  1
  Np  Np1  1  0.33309000  0.66680800  0.24999900  1
