# generated using pymatgen
data_LaP5
_symmetry_space_group_name_H-M   'P 1'
_cell_length_a   9.73411100
_cell_length_b   5.64307800
_cell_length_c   9.67303791
_cell_angle_alpha   73.28340865
_cell_angle_beta   90.00000000
_cell_angle_gamma   90.00000000
_symmetry_Int_Tables_number   1
_chemical_formula_structural   LaP5
_chemical_formula_sum   'La4 P20'
_cell_volume   508.88836320
_cell_formula_units_Z   4
loop_
 _symmetry_equiv_pos_site_id
 _symmetry_equiv_pos_as_xyz
  1  'x, y, z'
loop_
 _atom_site_type_symbol
 _atom_site_label
 _atom_site_symmetry_multiplicity
 _atom_site_fract_x
 _atom_site_fract_y
 _atom_site_fract_z
 _atom_site_occupancy
  La  La0  1  0.25000000  0.09274500  0.04838500  1
  La  La1  1  0.75000000  0.90725500  0.95161500  1
  La  La2  1  0.25000000  0.12779300  0.52204200  1
  La  La3  1  0.75000000  0.87220700  0.47795800  1
  P  P4  1  0.58604400  0.45467800  0.68915900  1
  P  P5  1  0.08604400  0.54532200  0.31084100  1
  P  P6  1  0.41395600  0.54532200  0.31084100  1
  P  P7  1  0.91395600  0.45467800  0.68915900  1
  P  P8  1  0.54902300  0.13520800  0.13635900  1
  P  P9  1  0.04902300  0.86479200  0.86364100  1
  P  P10  1  0.45097700  0.86479200  0.86364100  1
  P  P11  1  0.95097700  0.13520800  0.13635900  1
  P  P12  1  0.59547600  0.48035600  0.18759200  1
  P  P13  1  0.09547600  0.51964400  0.81240800  1
  P  P14  1  0.40452400  0.51964400  0.81240800  1
  P  P15  1  0.90452400  0.48035600  0.18759200  1
  P  P16  1  0.25000000  0.57594000  0.63647000  1
  P  P17  1  0.75000000  0.42406000  0.36353000  1
  P  P18  1  0.54513400  0.09098400  0.65823600  1
  P  P19  1  0.04513400  0.90901600  0.34176400  1
  P  P20  1  0.45486600  0.90901600  0.34176400  1
  P  P21  1  0.95486600  0.09098400  0.65823600  1
  P  P22  1  0.25000000  0.54523300  0.15039800  1
  P  P23  1  0.75000000  0.45476700  0.84960200  1
