# generated using pymatgen
data_KAuC2N2Cl2O
_symmetry_space_group_name_H-M   'P 1'
_cell_length_a   6.29465557
_cell_length_b   8.12949900
_cell_length_c   9.60724115
_cell_angle_alpha   115.02996687
_cell_angle_beta   102.60547192
_cell_angle_gamma   90.00000000
_symmetry_Int_Tables_number   1
_chemical_formula_structural   KAuC2N2Cl2O
_chemical_formula_sum   'K2 Au2 C4 N4 Cl4 O2'
_cell_volume   432.34150892
_cell_formula_units_Z   2
loop_
 _symmetry_equiv_pos_site_id
 _symmetry_equiv_pos_as_xyz
  1  'x, y, z'
loop_
 _atom_site_type_symbol
 _atom_site_label
 _atom_site_symmetry_multiplicity
 _atom_site_fract_x
 _atom_site_fract_y
 _atom_site_fract_z
 _atom_site_occupancy
  K  K0  1  0.25000000  0.32363600  0.00000000  1
  K  K1  1  0.75000000  0.67636400  0.00000000  1
  Au  Au2  1  0.00000000  0.50000000  0.50000000  1
  Au  Au3  1  0.50000000  0.00000000  0.50000000  1
  C  C4  1  0.80886300  0.47872700  0.29574400  1
  C  C5  1  0.69113700  0.18298300  0.70425600  1
  C  C6  1  0.19113700  0.52127300  0.70425600  1
  C  C7  1  0.30886300  0.81701700  0.29574400  1
  N  N8  1  0.69433300  0.46930000  0.17853400  1
  N  N9  1  0.80566700  0.29076600  0.82146600  1
  N  N10  1  0.30566700  0.53070000  0.82146600  1
  N  N11  1  0.19433300  0.70923400  0.17853400  1
  Cl  Cl12  1  0.24024500  0.32688000  0.35838100  1
  Cl  Cl13  1  0.25975500  0.96849900  0.64161900  1
  Cl  Cl14  1  0.75975500  0.67312000  0.64161900  1
  Cl  Cl15  1  0.74024500  0.03150100  0.35838100  1
  O  O16  1  0.50000000  0.00000000  0.00000000  1
  O  O17  1  0.00000000  0.00000000  0.00000000  1
