# generated using pymatgen
data_Gd(BRh)4
_symmetry_space_group_name_H-M   'P 1'
_cell_length_a   5.35048400
_cell_length_b   5.35048400
_cell_length_c   7.48291600
_cell_angle_alpha   90.00000000
_cell_angle_beta   90.00000000
_cell_angle_gamma   90.00000000
_symmetry_Int_Tables_number   1
_chemical_formula_structural   Gd(BRh)4
_chemical_formula_sum   'Gd2 B8 Rh8'
_cell_volume   214.21851749
_cell_formula_units_Z   2
loop_
 _symmetry_equiv_pos_site_id
 _symmetry_equiv_pos_as_xyz
  1  'x, y, z'
loop_
 _atom_site_type_symbol
 _atom_site_label
 _atom_site_symmetry_multiplicity
 _atom_site_fract_x
 _atom_site_fract_y
 _atom_site_fract_z
 _atom_site_occupancy
  Gd  Gd0  1  0.00000000  0.00000000  0.00000000  1
  Gd  Gd1  1  0.50000000  0.50000000  0.50000000  1
  B  B2  1  0.83114100  0.50000000  0.15165400  1
  B  B3  1  0.16885900  0.50000000  0.15165400  1
  B  B4  1  0.00000000  0.33114100  0.65165400  1
  B  B5  1  0.00000000  0.66885900  0.65165400  1
  B  B6  1  0.66885900  0.00000000  0.34834600  1
  B  B7  1  0.33114100  0.00000000  0.34834600  1
  B  B8  1  0.50000000  0.16885900  0.84834600  1
  B  B9  1  0.50000000  0.83114100  0.84834600  1
  Rh  Rh10  1  0.25120300  0.50000000  0.85610100  1
  Rh  Rh11  1  0.74879700  0.50000000  0.85610100  1
  Rh  Rh12  1  0.00000000  0.75120300  0.35610100  1
  Rh  Rh13  1  0.00000000  0.24879700  0.35610100  1
  Rh  Rh14  1  0.24879700  0.00000000  0.64389900  1
  Rh  Rh15  1  0.75120300  0.00000000  0.64389900  1
  Rh  Rh16  1  0.50000000  0.74879700  0.14389900  1
  Rh  Rh17  1  0.50000000  0.25120300  0.14389900  1
