# generated using pymatgen
data_Fe3O4
_symmetry_space_group_name_H-M   'P 1'
_cell_length_a   6.10603586
_cell_length_b   6.10617309
_cell_length_c   17.06046222
_cell_angle_alpha   90.00232841
_cell_angle_beta   90.10718364
_cell_angle_gamma   90.01992848
_symmetry_Int_Tables_number   1
_chemical_formula_structural   Fe3O4
_chemical_formula_sum   'Fe24 O32'
_cell_volume   636.08985362
_cell_formula_units_Z   8
loop_
 _symmetry_equiv_pos_site_id
 _symmetry_equiv_pos_as_xyz
  1  'x, y, z'
loop_
 _atom_site_type_symbol
 _atom_site_label
 _atom_site_symmetry_multiplicity
 _atom_site_fract_x
 _atom_site_fract_y
 _atom_site_fract_z
 _atom_site_occupancy
  Fe  Fe0  1  0.49882100  0.75053300  0.36906400  1
  Fe  Fe1  1  0.49917500  0.24450000  0.86841100  1
  Fe  Fe2  1  0.00212300  0.25059500  0.12154500  1
  Fe  Fe3  1  0.00025200  0.75575500  0.62412200  1
  Fe  Fe4  1  0.00255200  0.75319000  0.12180700  1
  Fe  Fe5  1  0.00019100  0.25065400  0.62236900  1
  Fe  Fe6  1  0.99558500  0.49559100  0.30917500  1
  Fe  Fe7  1  0.00030800  0.49770500  0.81049400  1
  Fe  Fe8  1  0.24429900  0.49945400  0.99836800  1
  Fe  Fe9  1  0.75078000  0.50023400  0.49591200  1
  Fe  Fe10  1  0.75398400  0.49925900  0.99697000  1
  Fe  Fe11  1  0.24891100  0.50015100  0.49533300  1
  Fe  Fe12  1  0.49942700  0.00089300  0.05579400  1
  Fe  Fe13  1  0.49973500  0.99611500  0.55661700  1
  Fe  Fe14  1  0.50375000  0.50202500  0.18271900  1
  Fe  Fe15  1  0.49994300  0.50540300  0.68214600  1
  Fe  Fe16  1  0.99894100  0.00298100  0.43248100  1
  Fe  Fe17  1  0.00071200  0.99881400  0.93338800  1
  Fe  Fe18  1  0.25142700  0.99873100  0.24456800  1
  Fe  Fe19  1  0.74961400  0.00197700  0.74487900  1
  Fe  Fe20  1  0.75418400  0.99675100  0.24239800  1
  Fe  Fe21  1  0.25018500  0.00128900  0.74448300  1
  Fe  Fe22  1  0.49895200  0.24669100  0.36852900  1
  Fe  Fe23  1  0.49978900  0.75311000  0.87024200  1
  O  O24  1  0.98826000  0.76033700  0.24842000  1
  O  O25  1  0.99983000  0.24221600  0.74612400  1
  O  O26  1  0.51070900  0.24174800  0.25096000  1
  O  O27  1  0.50053500  0.75742000  0.74902700  1
  O  O28  1  0.99241300  0.23317200  0.24720600  1
  O  O29  1  0.00036500  0.74735300  0.74157800  1
  O  O30  1  0.24970100  0.50000600  0.11790200  1
  O  O31  1  0.76117100  0.51056600  0.61492500  1
  O  O32  1  0.75620100  0.50148900  0.11671100  1
  O  O33  1  0.23870100  0.51040900  0.61450300  1
  O  O34  1  0.24410900  0.00050100  0.11872000  1
  O  O35  1  0.76310100  0.99028700  0.61739900  1
  O  O36  1  0.74929500  0.00224100  0.12451000  1
  O  O37  1  0.23807500  0.99000300  0.61771400  1
  O  O38  1  0.50039500  0.72986600  0.99161900  1
  O  O39  1  0.50034100  0.26987300  0.49278700  1
  O  O40  1  0.99939000  0.71838900  0.99658300  1
  O  O41  1  0.99978800  0.27096100  0.49578200  1
  O  O42  1  0.50009300  0.27002000  0.99118900  1
  O  O43  1  0.50008800  0.72716700  0.49411200  1
  O  O44  1  0.99909700  0.28022000  0.99647600  1
  O  O45  1  0.00004100  0.73018500  0.49709500  1
  O  O46  1  0.26013400  0.48894200  0.37488400  1
  O  O47  1  0.73070700  0.50006700  0.87431900  1
  O  O48  1  0.73769200  0.48909100  0.37666500  1
  O  O49  1  0.26903200  0.49975900  0.87478300  1
  O  O50  1  0.26369200  0.01021600  0.37368500  1
  O  O51  1  0.71833000  0.99936000  0.86989400  1
  O  O52  1  0.73724700  0.00961800  0.36867700  1
  O  O53  1  0.28072100  0.99864500  0.86938000  1
  O  O54  1  0.50780300  0.76483900  0.24692800  1
  O  O55  1  0.49928700  0.25260800  0.74761300  1
