# generated using pymatgen
data_LuTa3
_symmetry_space_group_name_H-M   'P 1'
_cell_length_a   6.23925857
_cell_length_b   6.23925845
_cell_length_c   4.99144959
_cell_angle_alpha   90.00000000
_cell_angle_beta   90.00000000
_cell_angle_gamma   119.99999531
_symmetry_Int_Tables_number   1
_chemical_formula_structural   LuTa3
_chemical_formula_sum   'Lu2 Ta6'
_cell_volume   168.27643448
_cell_formula_units_Z   2
loop_
 _symmetry_equiv_pos_site_id
 _symmetry_equiv_pos_as_xyz
  1  'x, y, z'
loop_
 _atom_site_type_symbol
 _atom_site_label
 _atom_site_symmetry_multiplicity
 _atom_site_fract_x
 _atom_site_fract_y
 _atom_site_fract_z
 _atom_site_occupancy
  Lu  Lu0  1  0.33333200  0.66666500  0.75000100  1
  Lu  Lu1  1  0.66666700  0.33333200  0.25000000  1
  Ta  Ta2  1  0.14948701  0.29897303  0.25000000  1
  Ta  Ta3  1  0.70102697  0.85051299  0.25000000  1
  Ta  Ta4  1  0.14948701  0.85051299  0.25000000  1
  Ta  Ta5  1  0.85051299  0.70102697  0.75000100  1
  Ta  Ta6  1  0.29897203  0.14948601  0.75000100  1
  Ta  Ta7  1  0.85051399  0.14948601  0.75000100  1
