# generated using pymatgen
data_LaSe3
_symmetry_space_group_name_H-M   'P 1'
_cell_length_a   6.10154031
_cell_length_b   6.10154031
_cell_length_c   6.05232200
_cell_angle_alpha   90.00000000
_cell_angle_beta   90.00000000
_cell_angle_gamma   120.00000336
_symmetry_Int_Tables_number   1
_chemical_formula_structural   LaSe3
_chemical_formula_sum   'La2 Se6'
_cell_volume   195.13340019
_cell_formula_units_Z   2
loop_
 _symmetry_equiv_pos_site_id
 _symmetry_equiv_pos_as_xyz
  1  'x, y, z'
loop_
 _atom_site_type_symbol
 _atom_site_label
 _atom_site_symmetry_multiplicity
 _atom_site_fract_x
 _atom_site_fract_y
 _atom_site_fract_z
 _atom_site_occupancy
  La  La0  1  0.66666700  0.33333300  0.25000000  1
  La  La1  1  0.33333300  0.66666700  0.75000000  1
  Se  Se2  1  0.82638100  0.17361900  0.75000000  1
  Se  Se3  1  0.34723700  0.17361900  0.75000000  1
  Se  Se4  1  0.82638100  0.65276300  0.75000000  1
  Se  Se5  1  0.17361900  0.82638100  0.25000000  1
  Se  Se6  1  0.65276300  0.82638100  0.25000000  1
  Se  Se7  1  0.17361900  0.34723700  0.25000000  1
