# generated using pymatgen
data_Rb2IO
_symmetry_space_group_name_H-M   'P 1'
_cell_length_a   5.54851000
_cell_length_b   8.07362000
_cell_length_c   12.98309800
_cell_angle_alpha   90.00000000
_cell_angle_beta   90.00000000
_cell_angle_gamma   90.00000000
_symmetry_Int_Tables_number   1
_chemical_formula_structural   Rb2IO
_chemical_formula_sum   'Rb8 I4 O4'
_cell_volume   581.59814550
_cell_formula_units_Z   4
loop_
 _symmetry_equiv_pos_site_id
 _symmetry_equiv_pos_as_xyz
  1  'x, y, z'
loop_
 _atom_site_type_symbol
 _atom_site_label
 _atom_site_symmetry_multiplicity
 _atom_site_fract_x
 _atom_site_fract_y
 _atom_site_fract_z
 _atom_site_occupancy
  Rb  Rb0  1  0.25000000  0.65146000  0.94868400  1
  Rb  Rb1  1  0.25000000  0.15146000  0.55131600  1
  Rb  Rb2  1  0.75000000  0.34854000  0.05131600  1
  Rb  Rb3  1  0.75000000  0.84854000  0.44868400  1
  Rb  Rb4  1  0.25000000  0.60743900  0.27022100  1
  Rb  Rb5  1  0.25000000  0.10743900  0.22977900  1
  Rb  Rb6  1  0.75000000  0.39256100  0.72977900  1
  Rb  Rb7  1  0.75000000  0.89256100  0.77022100  1
  I  I8  1  0.25000000  0.65864000  0.62476800  1
  I  I9  1  0.25000000  0.15864000  0.87523200  1
  I  I10  1  0.75000000  0.34136000  0.37523200  1
  I  I11  1  0.75000000  0.84136000  0.12476800  1
  O  O12  1  0.25000000  0.89950600  0.38979300  1
  O  O13  1  0.25000000  0.39950600  0.11020700  1
  O  O14  1  0.75000000  0.10049400  0.61020700  1
  O  O15  1  0.75000000  0.60049400  0.88979300  1
