# generated using pymatgen
data_Mg16Al12Fe
_symmetry_space_group_name_H-M   'P 1'
_cell_length_a   8.88571625
_cell_length_b   8.88571625
_cell_length_c   8.88571662
_cell_angle_alpha   108.56885578
_cell_angle_beta   108.56885578
_cell_angle_gamma   108.56884970
_symmetry_Int_Tables_number   1
_chemical_formula_structural   Mg16Al12Fe
_chemical_formula_sum   'Mg16 Al12 Fe1'
_cell_volume   557.39014392
_cell_formula_units_Z   1
loop_
 _symmetry_equiv_pos_site_id
 _symmetry_equiv_pos_as_xyz
  1  'x, y, z'
loop_
 _atom_site_type_symbol
 _atom_site_label
 _atom_site_symmetry_multiplicity
 _atom_site_fract_x
 _atom_site_fract_y
 _atom_site_fract_z
 _atom_site_occupancy
  Mg  Mg0  1  0.99622900  0.99622900  0.99622900  1
  Mg  Mg1  1  0.00509200  0.00509200  0.65242100  1
  Mg  Mg2  1  0.31953400  0.31953400  0.72340800  1
  Mg  Mg3  1  0.57579100  0.57579100  0.30195800  1
  Mg  Mg4  1  0.68261000  0.40378000  0.00443700  1
  Mg  Mg5  1  0.57579100  0.30195800  0.57579100  1
  Mg  Mg6  1  0.00443700  0.68261000  0.40378000  1
  Mg  Mg7  1  0.00509200  0.65242100  0.00509200  1
  Mg  Mg8  1  0.40378000  0.00443700  0.68261000  1
  Mg  Mg9  1  0.72340800  0.31953400  0.31953400  1
  Mg  Mg10  1  0.31953400  0.72340800  0.31953400  1
  Mg  Mg11  1  0.00443700  0.40378000  0.68261000  1
  Mg  Mg12  1  0.65242100  0.00509200  0.00509200  1
  Mg  Mg13  1  0.68261000  0.00443700  0.40378000  1
  Mg  Mg14  1  0.30195800  0.57579100  0.57579100  1
  Mg  Mg15  1  0.40378000  0.68261000  0.00443700  1
  Al  Al16  1  0.64633700  0.64633700  0.83643400  1
  Al  Al17  1  0.81246800  0.81246800  0.19318900  1
  Al  Al18  1  0.36641300  0.18713200  0.00848000  1
  Al  Al19  1  0.18713200  0.00848000  0.36641300  1
  Al  Al20  1  0.83643400  0.64633700  0.64633700  1
  Al  Al21  1  0.36641300  0.00848000  0.18713200  1
  Al  Al22  1  0.19318900  0.81246800  0.81246800  1
  Al  Al23  1  0.81246800  0.19318900  0.81246800  1
  Al  Al24  1  0.00848000  0.36641300  0.18713200  1
  Al  Al25  1  0.64633700  0.83643400  0.64633700  1
  Al  Al26  1  0.00848000  0.18713200  0.36641300  1
  Al  Al27  1  0.18713200  0.36641300  0.00848000  1
  Fe  Fe28  1  0.27224000  0.27224000  0.27224000  1
