# generated using pymatgen
data_Mg16Al12Cl
_symmetry_space_group_name_H-M   'P 1'
_cell_length_a   9.16585006
_cell_length_b   9.16585006
_cell_length_c   9.16585006
_cell_angle_alpha   109.47122063
_cell_angle_beta   109.47122063
_cell_angle_gamma   109.47122063
_symmetry_Int_Tables_number   1
_chemical_formula_structural   Mg16Al12Cl
_chemical_formula_sum   'Mg16 Al12 Cl1'
_cell_volume   592.78383898
_cell_formula_units_Z   1
loop_
 _symmetry_equiv_pos_site_id
 _symmetry_equiv_pos_as_xyz
  1  'x, y, z'
loop_
 _atom_site_type_symbol
 _atom_site_label
 _atom_site_symmetry_multiplicity
 _atom_site_fract_x
 _atom_site_fract_y
 _atom_site_fract_z
 _atom_site_occupancy
  Mg  Mg0  1  0.72023200  0.30865900  0.30865900  1
  Mg  Mg1  1  0.30022300  0.30022300  0.30022300  1
  Mg  Mg2  1  0.69977700  0.00000000  0.00000000  1
  Mg  Mg3  1  0.27976800  0.58842700  0.58842700  1
  Mg  Mg4  1  0.00000000  0.69134100  0.41157300  1
  Mg  Mg5  1  0.00000000  0.00000000  0.69977700  1
  Mg  Mg6  1  0.58842700  0.58842700  0.27976800  1
  Mg  Mg7  1  0.41157300  0.00000000  0.69134100  1
  Mg  Mg8  1  0.30865900  0.72023200  0.30865900  1
  Mg  Mg9  1  0.69134100  0.41157300  0.00000000  1
  Mg  Mg10  1  0.69134100  0.00000000  0.41157300  1
  Mg  Mg11  1  0.30865900  0.30865900  0.72023200  1
  Mg  Mg12  1  0.41157300  0.69134100  0.00000000  1
  Mg  Mg13  1  0.58842700  0.27976800  0.58842700  1
  Mg  Mg14  1  0.00000000  0.69977700  0.00000000  1
  Mg  Mg15  1  0.00000000  0.41157300  0.69134100  1
  Al  Al16  1  0.19073500  0.81058200  0.81058200  1
  Al  Al17  1  0.80926500  0.61984700  0.61984700  1
  Al  Al18  1  0.61984700  0.80926500  0.61984700  1
  Al  Al19  1  0.38015300  0.18941800  0.00000000  1
  Al  Al20  1  0.00000000  0.38015300  0.18941800  1
  Al  Al21  1  0.18941800  0.38015300  0.00000000  1
  Al  Al22  1  0.81058200  0.19073500  0.81058200  1
  Al  Al23  1  0.81058200  0.81058200  0.19073500  1
  Al  Al24  1  0.18941800  0.00000000  0.38015300  1
  Al  Al25  1  0.00000000  0.18941800  0.38015300  1
  Al  Al26  1  0.38015300  0.00000000  0.18941800  1
  Al  Al27  1  0.61984700  0.61984700  0.80926500  1
  Cl  Cl28  1  0.00000000  0.00000000  0.00000000  1
