# generated using pymatgen
data_Mg16Al12Zn
_symmetry_space_group_name_H-M   'P 1'
_cell_length_a   9.06426962
_cell_length_b   9.06426962
_cell_length_c   9.06426966
_cell_angle_alpha   109.18325927
_cell_angle_beta   109.18325927
_cell_angle_gamma   109.18326036
_symmetry_Int_Tables_number   1
_chemical_formula_structural   Mg16Al12Zn
_chemical_formula_sum   'Mg16 Al12 Zn1'
_cell_volume   579.32441937
_cell_formula_units_Z   1
loop_
 _symmetry_equiv_pos_site_id
 _symmetry_equiv_pos_as_xyz
  1  'x, y, z'
loop_
 _atom_site_type_symbol
 _atom_site_label
 _atom_site_symmetry_multiplicity
 _atom_site_fract_x
 _atom_site_fract_y
 _atom_site_fract_z
 _atom_site_occupancy
  Mg  Mg0  1  0.40994800  0.40994800  0.70597600  1
  Mg  Mg1  1  0.99724000  0.99724000  0.99724000  1
  Mg  Mg2  1  0.68467000  0.68467000  0.28570400  1
  Mg  Mg3  1  0.99769300  0.99769300  0.34422900  1
  Mg  Mg4  1  0.59731900  0.31783900  0.99881000  1
  Mg  Mg5  1  0.70597600  0.40994800  0.40994800  1
  Mg  Mg6  1  0.31783900  0.99881000  0.59731900  1
  Mg  Mg7  1  0.34422900  0.99769300  0.99769300  1
  Mg  Mg8  1  0.68467000  0.28570400  0.68467000  1
  Mg  Mg9  1  0.99881000  0.59731900  0.31783900  1
  Mg  Mg10  1  0.59731900  0.99881000  0.31783900  1
  Mg  Mg11  1  0.28570400  0.68467000  0.68467000  1
  Mg  Mg12  1  0.99769300  0.34422900  0.99769300  1
  Mg  Mg13  1  0.99881000  0.31783900  0.59731900  1
  Mg  Mg14  1  0.40994800  0.70597600  0.40994800  1
  Mg  Mg15  1  0.31783900  0.59731900  0.99881000  1
  Al  Al16  1  0.35839100  0.35839100  0.17080300  1
  Al  Al17  1  0.18550700  0.18550700  0.81037300  1
  Al  Al18  1  0.81633100  0.63323200  0.00137000  1
  Al  Al19  1  0.00137000  0.81633100  0.63323200  1
  Al  Al20  1  0.35839100  0.17080300  0.35839100  1
  Al  Al21  1  0.00137000  0.63323200  0.81633100  1
  Al  Al22  1  0.18550700  0.81037300  0.18550700  1
  Al  Al23  1  0.81037300  0.18550700  0.18550700  1
  Al  Al24  1  0.63323200  0.00137000  0.81633100  1
  Al  Al25  1  0.17080300  0.35839100  0.35839100  1
  Al  Al26  1  0.81633100  0.00137000  0.63323200  1
  Al  Al27  1  0.63323200  0.81633100  0.00137000  1
  Zn  Zn28  1  0.68345300  0.68345300  0.68345300  1
