# generated using pymatgen
data_Mg16ZrAl12
_symmetry_space_group_name_H-M   'P 1'
_cell_length_a   9.14429888
_cell_length_b   9.14429888
_cell_length_c   8.95854908
_cell_angle_alpha   70.97159723
_cell_angle_beta   70.97159723
_cell_angle_gamma   109.55583309
_symmetry_Int_Tables_number   1
_chemical_formula_structural   Mg16ZrAl12
_chemical_formula_sum   'Mg16 Zr1 Al12'
_cell_volume   582.27420869
_cell_formula_units_Z   1
loop_
 _symmetry_equiv_pos_site_id
 _symmetry_equiv_pos_as_xyz
  1  'x, y, z'
loop_
 _atom_site_type_symbol
 _atom_site_label
 _atom_site_symmetry_multiplicity
 _atom_site_fract_x
 _atom_site_fract_y
 _atom_site_fract_z
 _atom_site_occupancy
  Mg  Mg0  1  0.00495500  0.00495500  0.64650200  1
  Mg  Mg1  1  0.99898300  0.99898300  0.00337000  1
  Mg  Mg2  1  0.40111400  0.40111400  0.27991900  1
  Mg  Mg3  1  0.65519300  0.65519300  0.35147100  1
  Mg  Mg4  1  0.60369100  0.31531000  0.99594700  1
  Mg  Mg5  1  0.71596300  0.39993900  0.60307400  1
  Mg  Mg6  1  0.32037600  0.00104200  0.39378700  1
  Mg  Mg7  1  0.33619800  0.99553200  0.00926100  1
  Mg  Mg8  1  0.68362000  0.28961200  0.31573900  1
  Mg  Mg9  1  0.00150300  0.59791800  0.68555300  1
  Mg  Mg10  1  0.59791800  0.00150300  0.68555300  1
  Mg  Mg11  1  0.28961200  0.68362000  0.31573900  1
  Mg  Mg12  1  0.99553200  0.33619800  0.00926100  1
  Mg  Mg13  1  0.00104200  0.32037600  0.39378700  1
  Mg  Mg14  1  0.39993900  0.71596300  0.60307400  1
  Mg  Mg15  1  0.31531000  0.60369100  0.99594700  1
  Zr  Zr16  1  0.68452800  0.68452800  0.72044500  1
  Al  Al17  1  0.18208400  0.18208400  0.18083900  1
  Al  Al18  1  0.37392200  0.37392200  0.81655500  1
  Al  Al19  1  0.81338900  0.63467700  0.99544200  1
  Al  Al20  1  0.99419300  0.81066500  0.37394600  1
  Al  Al21  1  0.36341500  0.17894000  0.63534900  1
  Al  Al22  1  0.18403300  0.82272500  0.81222000  1
  Al  Al23  1  0.00135500  0.63512600  0.18012800  1
  Al  Al24  1  0.63512600  0.00135500  0.18012800  1
  Al  Al25  1  0.82272500  0.18403300  0.81222000  1
  Al  Al26  1  0.17894000  0.36341500  0.63534900  1
  Al  Al27  1  0.81066500  0.99419300  0.37394600  1
  Al  Al28  1  0.63467700  0.81338900  0.99544200  1
