# generated using pymatgen
data_Mg16NpAl12
_symmetry_space_group_name_H-M   'P 1'
_cell_length_a   9.09268131
_cell_length_b   9.09268131
_cell_length_c   9.09268131
_cell_angle_alpha   109.47122063
_cell_angle_beta   109.47122063
_cell_angle_gamma   109.47122063
_symmetry_Int_Tables_number   1
_chemical_formula_structural   Mg16NpAl12
_chemical_formula_sum   'Mg16 Np1 Al12'
_cell_volume   578.70071370
_cell_formula_units_Z   1
loop_
 _symmetry_equiv_pos_site_id
 _symmetry_equiv_pos_as_xyz
  1  'x, y, z'
loop_
 _atom_site_type_symbol
 _atom_site_label
 _atom_site_symmetry_multiplicity
 _atom_site_fract_x
 _atom_site_fract_y
 _atom_site_fract_z
 _atom_site_occupancy
  Mg  Mg0  1  0.35635700  0.00000000  0.00000000  1
  Mg  Mg1  1  0.00000000  0.35635700  0.00000000  1
  Mg  Mg2  1  0.60510900  0.32163400  0.00000000  1
  Mg  Mg3  1  0.32163400  0.60510900  0.00000000  1
  Mg  Mg4  1  0.39489100  0.39489100  0.71652500  1
  Mg  Mg5  1  0.67836600  0.28347500  0.67836600  1
  Mg  Mg6  1  0.28347500  0.67836600  0.67836600  1
  Mg  Mg7  1  0.64364300  0.64364300  0.64364300  1
  Mg  Mg8  1  0.00000000  0.32163400  0.60510900  1
  Mg  Mg9  1  0.32163400  0.00000000  0.60510900  1
  Mg  Mg10  1  0.71652500  0.39489100  0.39489100  1
  Mg  Mg11  1  0.39489100  0.71652500  0.39489100  1
  Mg  Mg12  1  0.00000000  0.00000000  0.35635700  1
  Mg  Mg13  1  0.60510900  0.00000000  0.32163400  1
  Mg  Mg14  1  0.00000000  0.60510900  0.32163400  1
  Mg  Mg15  1  0.67836600  0.67836600  0.28347500  1
  Np  Np16  1  0.00000000  0.00000000  0.00000000  1
  Al  Al17  1  0.63709200  0.81619000  0.00000000  1
  Al  Al18  1  0.81619000  0.63709200  0.00000000  1
  Al  Al19  1  0.18381000  0.18381000  0.82090200  1
  Al  Al20  1  0.00000000  0.63709200  0.81619000  1
  Al  Al21  1  0.63709200  0.00000000  0.81619000  1
  Al  Al22  1  0.81619000  0.00000000  0.63709200  1
  Al  Al23  1  0.00000000  0.81619000  0.63709200  1
  Al  Al24  1  0.36290800  0.17909800  0.36290800  1
  Al  Al25  1  0.17909800  0.36290800  0.36290800  1
  Al  Al26  1  0.82090200  0.18381000  0.18381000  1
  Al  Al27  1  0.18381000  0.82090200  0.18381000  1
  Al  Al28  1  0.36290800  0.36290800  0.17909800  1
