# generated using pymatgen
data_BrN4
_symmetry_space_group_name_H-M   'P 1'
_cell_length_a   6.59925800
_cell_length_b   6.71963000
_cell_length_c   7.23699500
_cell_angle_alpha   90.00000000
_cell_angle_beta   90.00000000
_cell_angle_gamma   90.00000000
_symmetry_Int_Tables_number   1
_chemical_formula_structural   BrN4
_chemical_formula_sum   'Br4 N16'
_cell_volume   320.92144609
_cell_formula_units_Z   4
loop_
 _symmetry_equiv_pos_site_id
 _symmetry_equiv_pos_as_xyz
  1  'x, y, z'
loop_
 _atom_site_type_symbol
 _atom_site_label
 _atom_site_symmetry_multiplicity
 _atom_site_fract_x
 _atom_site_fract_y
 _atom_site_fract_z
 _atom_site_occupancy
  Br  Br0  1  0.17734700  0.21003100  0.01670400  1
  Br  Br1  1  0.32265300  0.78996900  0.51670400  1
  Br  Br2  1  0.82265300  0.71003100  0.48329600  1
  Br  Br3  1  0.67734700  0.28996900  0.98329600  1
  N  N4  1  0.14842300  0.17132800  0.51015600  1
  N  N5  1  0.35157700  0.82867200  0.01015600  1
  N  N6  1  0.85157700  0.67132800  0.98984400  1
  N  N7  1  0.64842300  0.32867200  0.48984400  1
  N  N8  1  0.31683500  0.29365800  0.50288800  1
  N  N9  1  0.18316500  0.70634200  0.00288800  1
  N  N10  1  0.68316500  0.79365800  0.99711200  1
  N  N11  1  0.81683500  0.20634200  0.49711200  1
  N  N12  1  0.98379700  0.30321300  0.50379100  1
  N  N13  1  0.51620300  0.69678700  0.00379100  1
  N  N14  1  0.01620300  0.80321300  0.99620900  1
  N  N15  1  0.48379700  0.19678700  0.49620900  1
  N  N16  1  0.11467100  0.98150100  0.52157300  1
  N  N17  1  0.38532900  0.01849900  0.02157300  1
  N  N18  1  0.88532900  0.48150100  0.97842700  1
  N  N19  1  0.61467100  0.51849900  0.47842700  1
