# generated using pymatgen
data_Mg2Sc
_symmetry_space_group_name_H-M   'P 1'
_cell_length_a   6.24711988
_cell_length_b   6.24711988
_cell_length_c   7.49758274
_cell_angle_alpha   75.57614203
_cell_angle_beta   75.57614203
_cell_angle_gamma   29.74610811
_symmetry_Int_Tables_number   1
_chemical_formula_structural   Mg2Sc
_chemical_formula_sum   'Mg4 Sc2'
_cell_volume   140.27344163
_cell_formula_units_Z   2
loop_
 _symmetry_equiv_pos_site_id
 _symmetry_equiv_pos_as_xyz
  1  'x, y, z'
loop_
 _atom_site_type_symbol
 _atom_site_label
 _atom_site_symmetry_multiplicity
 _atom_site_fract_x
 _atom_site_fract_y
 _atom_site_fract_z
 _atom_site_occupancy
  Mg  Mg0  1  0.19623000  0.19623000  0.85754000  1
  Mg  Mg1  1  0.85874700  0.85874700  0.53027300  1
  Mg  Mg2  1  0.14125300  0.14125300  0.46972700  1
  Mg  Mg3  1  0.80377000  0.80377000  0.14246000  1
  Sc  Sc4  1  0.47572000  0.47572000  0.80405400  1
  Sc  Sc5  1  0.52428000  0.52428000  0.19594600  1
