# generated using pymatgen
data_Mg2Sc
_symmetry_space_group_name_H-M   'P 1'
_cell_length_a   6.17855272
_cell_length_b   6.17855272
_cell_length_c   7.59898401
_cell_angle_alpha   75.32670661
_cell_angle_beta   75.32670661
_cell_angle_gamma   30.37411928
_symmetry_Int_Tables_number   1
_chemical_formula_structural   Mg2Sc
_chemical_formula_sum   'Mg4 Sc2'
_cell_volume   141.53828041
_cell_formula_units_Z   2
loop_
 _symmetry_equiv_pos_site_id
 _symmetry_equiv_pos_as_xyz
  1  'x, y, z'
loop_
 _atom_site_type_symbol
 _atom_site_label
 _atom_site_symmetry_multiplicity
 _atom_site_fract_x
 _atom_site_fract_y
 _atom_site_fract_z
 _atom_site_occupancy
  Mg  Mg0  1  0.02799000  0.02799000  0.69356500  1
  Mg  Mg1  1  0.30605300  0.30605300  0.63921700  1
  Mg  Mg2  1  0.69394700  0.69394700  0.36078300  1
  Mg  Mg3  1  0.97201000  0.97201000  0.30643500  1
  Sc  Sc4  1  0.36119200  0.36119200  0.02745100  1
  Sc  Sc5  1  0.63880800  0.63880800  0.97254900  1
