# generated using pymatgen
data_Mg3Pb
_symmetry_space_group_name_H-M   'P 1'
_cell_length_a   6.51315106
_cell_length_b   6.51315106
_cell_length_c   5.27305000
_cell_angle_alpha   90.00000000
_cell_angle_beta   90.00000000
_cell_angle_gamma   119.99999041
_symmetry_Int_Tables_number   1
_chemical_formula_structural   Mg3Pb
_chemical_formula_sum   'Mg6 Pb2'
_cell_volume   193.72018018
_cell_formula_units_Z   2
loop_
 _symmetry_equiv_pos_site_id
 _symmetry_equiv_pos_as_xyz
  1  'x, y, z'
loop_
 _atom_site_type_symbol
 _atom_site_label
 _atom_site_symmetry_multiplicity
 _atom_site_fract_x
 _atom_site_fract_y
 _atom_site_fract_z
 _atom_site_occupancy
  Mg  Mg0  1  0.16303700  0.32607400  0.25000000  1
  Mg  Mg1  1  0.16303700  0.83696300  0.25000000  1
  Mg  Mg2  1  0.67392600  0.83696300  0.25000000  1
  Mg  Mg3  1  0.32607400  0.16303700  0.75000000  1
  Mg  Mg4  1  0.83696300  0.16303700  0.75000000  1
  Mg  Mg5  1  0.83696300  0.67392600  0.75000000  1
  Pb  Pb6  1  0.66666700  0.33333300  0.25000000  1
  Pb  Pb7  1  0.33333300  0.66666700  0.75000000  1
