# generated using pymatgen
data_Mg5Hg
_symmetry_space_group_name_H-M   'P 1'
_cell_length_a   6.03467734
_cell_length_b   6.03467734
_cell_length_c   7.32443276
_cell_angle_alpha   76.84876565
_cell_angle_beta   76.84876565
_cell_angle_gamma   31.41782405
_symmetry_Int_Tables_number   1
_chemical_formula_structural   Mg5Hg
_chemical_formula_sum   'Mg5 Hg1'
_cell_volume   135.10363090
_cell_formula_units_Z   1
loop_
 _symmetry_equiv_pos_site_id
 _symmetry_equiv_pos_as_xyz
  1  'x, y, z'
loop_
 _atom_site_type_symbol
 _atom_site_label
 _atom_site_symmetry_multiplicity
 _atom_site_fract_x
 _atom_site_fract_y
 _atom_site_fract_z
 _atom_site_occupancy
  Mg  Mg0  1  0.27905400  0.27905400  0.94586300  1
  Mg  Mg1  1  0.66679800  0.66679800  0.66925700  1
  Mg  Mg2  1  0.94953100  0.94953100  0.59972100  1
  Mg  Mg3  1  0.32658900  0.32658900  0.33380000  1
  Mg  Mg4  1  0.00208600  0.00208600  0.00673100  1
  Hg  Hg5  1  0.60927400  0.60927400  0.27796200  1
