# generated using pymatgen
data_Mg5In
_symmetry_space_group_name_H-M   'P 1'
_cell_length_a   8.49379920
_cell_length_b   8.49379920
_cell_length_c   5.17881000
_cell_angle_alpha   90.00000000
_cell_angle_beta   90.00000000
_cell_angle_gamma   158.15879128
_symmetry_Int_Tables_number   1
_chemical_formula_structural   Mg5In
_chemical_formula_sum   'Mg5 In1'
_cell_volume   139.00114503
_cell_formula_units_Z   1
loop_
 _symmetry_equiv_pos_site_id
 _symmetry_equiv_pos_as_xyz
  1  'x, y, z'
loop_
 _atom_site_type_symbol
 _atom_site_label
 _atom_site_symmetry_multiplicity
 _atom_site_fract_x
 _atom_site_fract_y
 _atom_site_fract_z
 _atom_site_occupancy
  Mg  Mg0  1  0.00060700  0.99939300  0.00000000  1
  Mg  Mg1  1  0.33373000  0.66627000  0.00000000  1
  Mg  Mg2  1  0.66540800  0.33459200  0.00000000  1
  Mg  Mg3  1  0.44538700  0.55461300  0.50000000  1
  Mg  Mg4  1  0.11080800  0.88919200  0.50000000  1
  In  In5  1  0.77739800  0.22260200  0.50000000  1
