# generated using pymatgen
data_Mg5Sc
_symmetry_space_group_name_H-M   'P 1'
_cell_length_a   8.44828235
_cell_length_b   8.44828235
_cell_length_c   5.19069300
_cell_angle_alpha   90.00000000
_cell_angle_beta   90.00000000
_cell_angle_gamma   157.91460375
_symmetry_Int_Tables_number   1
_chemical_formula_structural   Mg5Sc
_chemical_formula_sum   'Mg5 Sc1'
_cell_volume   139.29524012
_cell_formula_units_Z   1
loop_
 _symmetry_equiv_pos_site_id
 _symmetry_equiv_pos_as_xyz
  1  'x, y, z'
loop_
 _atom_site_type_symbol
 _atom_site_label
 _atom_site_symmetry_multiplicity
 _atom_site_fract_x
 _atom_site_fract_y
 _atom_site_fract_z
 _atom_site_occupancy
  Mg  Mg0  1  0.99783200  0.00216800  0.00000000  1
  Mg  Mg1  1  0.33207700  0.66792300  0.00000000  1
  Mg  Mg2  1  0.66787600  0.33212400  0.00000000  1
  Mg  Mg3  1  0.44418100  0.55581900  0.50000000  1
  Mg  Mg4  1  0.11119800  0.88880200  0.50000000  1
  Sc  Sc5  1  0.78016900  0.21983100  0.50000000  1
