# generated using pymatgen
data_Mg5Pb
_symmetry_space_group_name_H-M   'P 1'
_cell_length_a   8.48425318
_cell_length_b   8.48425338
_cell_length_c   5.22556700
_cell_angle_alpha   90.00000000
_cell_angle_beta   90.00000000
_cell_angle_gamma   157.29291870
_symmetry_Int_Tables_number   1
_chemical_formula_structural   Mg5Pb
_chemical_formula_sum   'Mg5 Pb1'
_cell_volume   145.20131242
_cell_formula_units_Z   1
loop_
 _symmetry_equiv_pos_site_id
 _symmetry_equiv_pos_as_xyz
  1  'x, y, z'
loop_
 _atom_site_type_symbol
 _atom_site_label
 _atom_site_symmetry_multiplicity
 _atom_site_fract_x
 _atom_site_fract_y
 _atom_site_fract_z
 _atom_site_occupancy
  Mg  Mg0  1  0.99979200  0.00020800  0.00000000  1
  Mg  Mg1  1  0.33551500  0.66448500  0.00000000  1
  Mg  Mg2  1  0.66277300  0.33722700  0.00000000  1
  Mg  Mg3  1  0.44837300  0.55162700  0.50000000  1
  Mg  Mg4  1  0.10968900  0.89031100  0.50000000  1
  Pb  Pb5  1  0.77719700  0.22280300  0.50000000  1
