# generated using pymatgen
data_MgAg2
_symmetry_space_group_name_H-M   'P 1'
_cell_length_a   7.63283675
_cell_length_b   7.63283675
_cell_length_c   4.77617000
_cell_angle_alpha   90.00000000
_cell_angle_beta   90.00000000
_cell_angle_gamma   156.64195036
_symmetry_Int_Tables_number   1
_chemical_formula_structural   MgAg2
_chemical_formula_sum   'Mg2 Ag4'
_cell_volume   110.32360417
_cell_formula_units_Z   2
loop_
 _symmetry_equiv_pos_site_id
 _symmetry_equiv_pos_as_xyz
  1  'x, y, z'
loop_
 _atom_site_type_symbol
 _atom_site_label
 _atom_site_symmetry_multiplicity
 _atom_site_fract_x
 _atom_site_fract_y
 _atom_site_fract_z
 _atom_site_occupancy
  Mg  Mg0  1  0.60786100  0.39213900  0.25000000  1
  Mg  Mg1  1  0.39213900  0.60786100  0.75000000  1
  Ag  Ag2  1  0.27468300  0.72531700  0.25000000  1
  Ag  Ag3  1  0.94256200  0.05743800  0.25000000  1
  Ag  Ag4  1  0.72531700  0.27468300  0.75000000  1
  Ag  Ag5  1  0.05743800  0.94256200  0.75000000  1
