# generated using pymatgen
data_MgHg2
_symmetry_space_group_name_H-M   'P 1'
_cell_length_a   6.88826513
_cell_length_b   6.88826513
_cell_length_c   6.85966785
_cell_angle_alpha   69.00207356
_cell_angle_beta   69.00207356
_cell_angle_gamma   27.62379968
_symmetry_Int_Tables_number   1
_chemical_formula_structural   MgHg2
_chemical_formula_sum   'Mg2 Hg4'
_cell_volume   140.26261620
_cell_formula_units_Z   2
loop_
 _symmetry_equiv_pos_site_id
 _symmetry_equiv_pos_as_xyz
  1  'x, y, z'
loop_
 _atom_site_type_symbol
 _atom_site_label
 _atom_site_symmetry_multiplicity
 _atom_site_fract_x
 _atom_site_fract_y
 _atom_site_fract_z
 _atom_site_occupancy
  Mg  Mg0  1  0.13908100  0.13908100  0.46535700  1
  Mg  Mg1  1  0.86091900  0.86091900  0.53464300  1
  Hg  Hg2  1  0.19755000  0.19755000  0.84476400  1
  Hg  Hg3  1  0.80245000  0.80245000  0.15523600  1
  Hg  Hg4  1  0.52793300  0.52793300  0.21012800  1
  Hg  Hg5  1  0.47206700  0.47206700  0.78987200  1
