# generated using pymatgen
data_MgGe5
_symmetry_space_group_name_H-M   'P 1'
_cell_length_a   7.90723925
_cell_length_b   7.90723925
_cell_length_c   5.00726500
_cell_angle_alpha   90.00000000
_cell_angle_beta   90.00000000
_cell_angle_gamma   158.41219918
_symmetry_Int_Tables_number   1
_chemical_formula_structural   MgGe5
_chemical_formula_sum   'Mg1 Ge5'
_cell_volume   115.18913036
_cell_formula_units_Z   1
loop_
 _symmetry_equiv_pos_site_id
 _symmetry_equiv_pos_as_xyz
  1  'x, y, z'
loop_
 _atom_site_type_symbol
 _atom_site_label
 _atom_site_symmetry_multiplicity
 _atom_site_fract_x
 _atom_site_fract_y
 _atom_site_fract_z
 _atom_site_occupancy
  Mg  Mg0  1  0.77950200  0.22049800  0.00000000  1
  Ge  Ge1  1  0.33026700  0.66973300  0.50000000  1
  Ge  Ge2  1  0.66337100  0.33662900  0.50000000  1
  Ge  Ge3  1  0.99876900  0.00123100  0.50000000  1
  Ge  Ge4  1  0.44761400  0.55238600  0.00000000  1
  Ge  Ge5  1  0.11381500  0.88618500  0.00000000  1
