# generated using pymatgen
data_MgIn2
_symmetry_space_group_name_H-M   'P 1'
_cell_length_a   6.25929533
_cell_length_b   6.25929533
_cell_length_c   6.25929563
_cell_angle_alpha   54.41936758
_cell_angle_beta   54.41936758
_cell_angle_gamma   54.41937170
_symmetry_Int_Tables_number   1
_chemical_formula_structural   MgIn2
_chemical_formula_sum   'Mg2 In4'
_cell_volume   150.83724572
_cell_formula_units_Z   2
loop_
 _symmetry_equiv_pos_site_id
 _symmetry_equiv_pos_as_xyz
  1  'x, y, z'
loop_
 _atom_site_type_symbol
 _atom_site_label
 _atom_site_symmetry_multiplicity
 _atom_site_fract_x
 _atom_site_fract_y
 _atom_site_fract_z
 _atom_site_occupancy
  Mg  Mg0  1  0.33214600  0.33214600  0.33214600  1
  Mg  Mg1  1  0.66785400  0.66785400  0.66785400  1
  In  In2  1  0.16797500  0.83202500  0.50000000  1
  In  In3  1  0.83202500  0.50000000  0.16797500  1
  In  In4  1  0.50000000  0.16797500  0.83202500  1
  In  In5  1  0.00000000  0.00000000  0.00000000  1
