# generated using pymatgen
data_MgPb2
_symmetry_space_group_name_H-M   'P 1'
_cell_length_a   6.76913429
_cell_length_b   6.76913429
_cell_length_c   7.90281258
_cell_angle_alpha   74.01839509
_cell_angle_beta   74.01839509
_cell_angle_gamma   29.85423060
_symmetry_Int_Tables_number   1
_chemical_formula_structural   MgPb2
_chemical_formula_sum   'Mg2 Pb4'
_cell_volume   172.78682329
_cell_formula_units_Z   2
loop_
 _symmetry_equiv_pos_site_id
 _symmetry_equiv_pos_as_xyz
  1  'x, y, z'
loop_
 _atom_site_type_symbol
 _atom_site_label
 _atom_site_symmetry_multiplicity
 _atom_site_fract_x
 _atom_site_fract_y
 _atom_site_fract_z
 _atom_site_occupancy
  Mg  Mg0  1  0.47126200  0.47126200  0.80294100  1
  Mg  Mg1  1  0.52873800  0.52873800  0.19705900  1
  Pb  Pb2  1  0.17644200  0.17644200  0.87311700  1
  Pb  Pb3  1  0.86683400  0.86683400  0.53181500  1
  Pb  Pb4  1  0.13316600  0.13316600  0.46818500  1
  Pb  Pb5  1  0.82355800  0.82355800  0.12688300  1
