# generated using pymatgen
data_MgSc3
_symmetry_space_group_name_H-M   'P 1'
_cell_length_a   6.18989296
_cell_length_b   6.18989296
_cell_length_c   6.18989296
_cell_angle_alpha   149.30148901
_cell_angle_beta   126.25773176
_cell_angle_gamma   63.17390556
_symmetry_Int_Tables_number   1
_chemical_formula_structural   MgSc3
_chemical_formula_sum   'Mg1 Sc3'
_cell_volume   96.68352126
_cell_formula_units_Z   1
loop_
 _symmetry_equiv_pos_site_id
 _symmetry_equiv_pos_as_xyz
  1  'x, y, z'
loop_
 _atom_site_type_symbol
 _atom_site_label
 _atom_site_symmetry_multiplicity
 _atom_site_fract_x
 _atom_site_fract_y
 _atom_site_fract_z
 _atom_site_occupancy
  Mg  Mg0  1  0.17136300  0.50000000  0.67136300  1
  Sc  Sc1  1  0.75305100  0.75195700  0.00109400  1
  Sc  Sc2  1  0.24913800  0.24804300  0.00109400  1
  Sc  Sc3  1  0.65982900  0.00000000  0.65982900  1
