# generated using pymatgen
data_Mn3Te
_symmetry_space_group_name_H-M   'P 1'
_cell_length_a   5.43711190
_cell_length_b   5.43711190
_cell_length_c   4.36577300
_cell_angle_alpha   90.00000000
_cell_angle_beta   90.00000000
_cell_angle_gamma   119.99999879
_symmetry_Int_Tables_number   1
_chemical_formula_structural   Mn3Te
_chemical_formula_sum   'Mn6 Te2'
_cell_volume   111.77079246
_cell_formula_units_Z   2
loop_
 _symmetry_equiv_pos_site_id
 _symmetry_equiv_pos_as_xyz
  1  'x, y, z'
loop_
 _atom_site_type_symbol
 _atom_site_label
 _atom_site_symmetry_multiplicity
 _atom_site_fract_x
 _atom_site_fract_y
 _atom_site_fract_z
 _atom_site_occupancy
  Mn  Mn0  1  0.15215200  0.30430500  0.25000000  1
  Mn  Mn1  1  0.69569500  0.84784800  0.25000000  1
  Mn  Mn2  1  0.15215200  0.84784800  0.25000000  1
  Mn  Mn3  1  0.84784800  0.69569500  0.75000000  1
  Mn  Mn4  1  0.30430500  0.15215200  0.75000000  1
  Mn  Mn5  1  0.84784800  0.15215200  0.75000000  1
  Te  Te6  1  0.33333300  0.66666700  0.75000000  1
  Te  Te7  1  0.66666700  0.33333300  0.25000000  1
