# generated using pymatgen
data_Na3Dy
_symmetry_space_group_name_H-M   'P 1'
_cell_length_a   7.28741294
_cell_length_b   7.28741294
_cell_length_c   5.84823700
_cell_angle_alpha   90.00000000
_cell_angle_beta   90.00000000
_cell_angle_gamma   120.00000849
_symmetry_Int_Tables_number   1
_chemical_formula_structural   Na3Dy
_chemical_formula_sum   'Na6 Dy2'
_cell_volume   268.96905491
_cell_formula_units_Z   2
loop_
 _symmetry_equiv_pos_site_id
 _symmetry_equiv_pos_as_xyz
  1  'x, y, z'
loop_
 _atom_site_type_symbol
 _atom_site_label
 _atom_site_symmetry_multiplicity
 _atom_site_fract_x
 _atom_site_fract_y
 _atom_site_fract_z
 _atom_site_occupancy
  Na  Na0  1  0.16296400  0.32592900  0.25000000  1
  Na  Na1  1  0.67407100  0.83703600  0.25000000  1
  Na  Na2  1  0.16296400  0.83703600  0.25000000  1
  Na  Na3  1  0.83703600  0.67407100  0.75000000  1
  Na  Na4  1  0.32592900  0.16296400  0.75000000  1
  Na  Na5  1  0.83703600  0.16296400  0.75000000  1
  Dy  Dy6  1  0.33333300  0.66666700  0.75000000  1
  Dy  Dy7  1  0.66666700  0.33333300  0.25000000  1
