# generated using pymatgen
data_Na3Ga
_symmetry_space_group_name_H-M   'P 1'
_cell_length_a   6.86808381
_cell_length_b   6.86808381
_cell_length_c   5.67372600
_cell_angle_alpha   90.00000000
_cell_angle_beta   90.00000000
_cell_angle_gamma   119.99999817
_symmetry_Int_Tables_number   1
_chemical_formula_structural   Na3Ga
_chemical_formula_sum   'Na6 Ga2'
_cell_volume   231.77691108
_cell_formula_units_Z   2
loop_
 _symmetry_equiv_pos_site_id
 _symmetry_equiv_pos_as_xyz
  1  'x, y, z'
loop_
 _atom_site_type_symbol
 _atom_site_label
 _atom_site_symmetry_multiplicity
 _atom_site_fract_x
 _atom_site_fract_y
 _atom_site_fract_z
 _atom_site_occupancy
  Na  Na0  1  0.17413000  0.34826100  0.25000000  1
  Na  Na1  1  0.65173900  0.82587000  0.25000000  1
  Na  Na2  1  0.17413000  0.82587000  0.25000000  1
  Na  Na3  1  0.82587000  0.65173900  0.75000000  1
  Na  Na4  1  0.34826100  0.17413000  0.75000000  1
  Na  Na5  1  0.82587000  0.17413000  0.75000000  1
  Ga  Ga6  1  0.33333300  0.66666700  0.75000000  1
  Ga  Ga7  1  0.66666700  0.33333300  0.25000000  1
