# generated using pymatgen
data_Al2VO7
_symmetry_space_group_name_H-M   'P 1'
_cell_length_a   5.57157104
_cell_length_b   8.19294897
_cell_length_c   8.19294897
_cell_angle_alpha   63.17819700
_cell_angle_beta   71.08490309
_cell_angle_gamma   71.08490309
_symmetry_Int_Tables_number   1
_chemical_formula_structural   Al2VO7
_chemical_formula_sum   'Al4 V2 O14'
_cell_volume   308.64049684
_cell_formula_units_Z   2
loop_
 _symmetry_equiv_pos_site_id
 _symmetry_equiv_pos_as_xyz
  1  'x, y, z'
loop_
 _atom_site_type_symbol
 _atom_site_label
 _atom_site_symmetry_multiplicity
 _atom_site_fract_x
 _atom_site_fract_y
 _atom_site_fract_z
 _atom_site_occupancy
  Al  Al0  1  0.50000000  0.79229600  0.20770400  1
  Al  Al1  1  0.50000000  0.20770400  0.79229600  1
  Al  Al2  1  0.93167400  0.80858100  0.80858100  1
  Al  Al3  1  0.06832600  0.19141900  0.19141900  1
  V  V4  1  0.57972900  0.65317900  0.65317900  1
  V  V5  1  0.42027100  0.34682100  0.34682100  1
  O  O6  1  0.27247900  0.75077800  0.75077800  1
  O  O7  1  0.72752100  0.24922200  0.24922200  1
  O  O8  1  0.81507300  0.70785300  0.70785300  1
  O  O9  1  0.18492700  0.29214700  0.29214700  1
  O  O10  1  0.61329100  0.41330900  0.73997500  1
  O  O11  1  0.61329100  0.73997500  0.41330900  1
  O  O12  1  0.38670900  0.58669100  0.26002500  1
  O  O13  1  0.38670900  0.26002500  0.58669100  1
  O  O14  1  0.52086400  0.07231600  0.07231600  1
  O  O15  1  0.47913600  0.92768400  0.92768400  1
  O  O16  1  0.81468200  0.73839300  0.05548100  1
  O  O17  1  0.81468200  0.05548100  0.73839300  1
  O  O18  1  0.18531800  0.26160700  0.94451900  1
  O  O19  1  0.18531800  0.94451900  0.26160700  1
