# generated using pymatgen
data_Ca2LaSbO6
_symmetry_space_group_name_H-M   'P 1'
_cell_length_a   5.94735100
_cell_length_b   5.77583300
_cell_length_c   10.10790006
_cell_angle_alpha   55.63990443
_cell_angle_beta   90.00000000
_cell_angle_gamma   90.00000000
_symmetry_Int_Tables_number   1
_chemical_formula_structural   Ca2LaSbO6
_chemical_formula_sum   'Ca4 La2 Sb2 O12'
_cell_volume   286.62877020
_cell_formula_units_Z   2
loop_
 _symmetry_equiv_pos_site_id
 _symmetry_equiv_pos_as_xyz
  1  'x, y, z'
loop_
 _atom_site_type_symbol
 _atom_site_label
 _atom_site_symmetry_multiplicity
 _atom_site_fract_x
 _atom_site_fract_y
 _atom_site_fract_z
 _atom_site_occupancy
  Ca  Ca0  1  0.55170900  0.76408300  0.74720500  1
  Ca  Ca1  1  0.94829100  0.76408300  0.24720500  1
  Ca  Ca2  1  0.44829100  0.23591700  0.25279500  1
  Ca  Ca3  1  0.05170900  0.23591700  0.75279500  1
  La  La4  1  0.50000000  0.50000000  0.50000000  1
  La  La5  1  0.00000000  0.50000000  0.00000000  1
  Sb  Sb6  1  0.00000000  0.00000000  0.50000000  1
  Sb  Sb7  1  0.50000000  0.00000000  0.00000000  1
  O  O8  1  0.82783400  0.22382400  0.56212700  1
  O  O9  1  0.67216600  0.22382400  0.06212700  1
  O  O10  1  0.17216600  0.77617600  0.43787300  1
  O  O11  1  0.32783400  0.77617600  0.93787300  1
  O  O12  1  0.78962000  0.90482000  0.93535100  1
  O  O13  1  0.71038000  0.90482000  0.43535100  1
  O  O14  1  0.21038000  0.09518000  0.06464900  1
  O  O15  1  0.28962000  0.09518000  0.56464900  1
  O  O16  1  0.94664500  0.65401700  0.72546400  1
  O  O17  1  0.55335500  0.65401700  0.22546400  1
  O  O18  1  0.05335500  0.34598300  0.27453600  1
  O  O19  1  0.44664500  0.34598300  0.77453600  1
