# generated using pymatgen
data_Nd3I
_symmetry_space_group_name_H-M   'P 1'
_cell_length_a   6.48839677
_cell_length_b   6.48839677
_cell_length_c   6.48839677
_cell_angle_alpha   135.23594448
_cell_angle_beta   135.23594448
_cell_angle_gamma   65.16381536
_symmetry_Int_Tables_number   1
_chemical_formula_structural   Nd3I
_chemical_formula_sum   'Nd3 I1'
_cell_volume   133.49170886
_cell_formula_units_Z   1
loop_
 _symmetry_equiv_pos_site_id
 _symmetry_equiv_pos_as_xyz
  1  'x, y, z'
loop_
 _atom_site_type_symbol
 _atom_site_label
 _atom_site_symmetry_multiplicity
 _atom_site_fract_x
 _atom_site_fract_y
 _atom_site_fract_z
 _atom_site_occupancy
  Nd  Nd0  1  0.75000000  0.25000000  0.50000000  1
  Nd  Nd1  1  0.25000000  0.75000000  0.50000000  1
  Nd  Nd2  1  0.50000000  0.50000000  0.00000000  1
  I  I3  1  0.00000000  0.00000000  0.00000000  1
