# generated using pymatgen
data_Nd3Y
_symmetry_space_group_name_H-M   'P 1'
_cell_length_a   7.37959994
_cell_length_b   7.37959994
_cell_length_c   5.99369500
_cell_angle_alpha   90.00000000
_cell_angle_beta   90.00000000
_cell_angle_gamma   119.99999946
_symmetry_Int_Tables_number   1
_chemical_formula_structural   Nd3Y
_chemical_formula_sum   'Nd6 Y2'
_cell_volume   282.67728448
_cell_formula_units_Z   2
loop_
 _symmetry_equiv_pos_site_id
 _symmetry_equiv_pos_as_xyz
  1  'x, y, z'
loop_
 _atom_site_type_symbol
 _atom_site_label
 _atom_site_symmetry_multiplicity
 _atom_site_fract_x
 _atom_site_fract_y
 _atom_site_fract_z
 _atom_site_occupancy
  Nd  Nd0  1  0.16730200  0.33460300  0.25000000  1
  Nd  Nd1  1  0.66539700  0.83269800  0.25000000  1
  Nd  Nd2  1  0.16730200  0.83269800  0.25000000  1
  Nd  Nd3  1  0.83269800  0.66539700  0.75000000  1
  Nd  Nd4  1  0.33460300  0.16730200  0.75000000  1
  Nd  Nd5  1  0.83269800  0.16730200  0.75000000  1
  Y  Y6  1  0.33333300  0.66666700  0.75000000  1
  Y  Y7  1  0.66666700  0.33333300  0.25000000  1
