# generated using pymatgen
data_Os3O
_symmetry_space_group_name_H-M   'P 1'
_cell_length_a   6.10970324
_cell_length_b   6.10970324
_cell_length_c   3.36812600
_cell_angle_alpha   90.00000000
_cell_angle_beta   90.00000000
_cell_angle_gamma   119.99999181
_symmetry_Int_Tables_number   1
_chemical_formula_structural   Os3O
_chemical_formula_sum   'Os6 O2'
_cell_volume   108.88278743
_cell_formula_units_Z   2
loop_
 _symmetry_equiv_pos_site_id
 _symmetry_equiv_pos_as_xyz
  1  'x, y, z'
loop_
 _atom_site_type_symbol
 _atom_site_label
 _atom_site_symmetry_multiplicity
 _atom_site_fract_x
 _atom_site_fract_y
 _atom_site_fract_z
 _atom_site_occupancy
  Os  Os0  1  0.81584700  0.18415300  0.75000000  1
  Os  Os1  1  0.36830700  0.18415300  0.75000000  1
  Os  Os2  1  0.81584700  0.63169300  0.75000000  1
  Os  Os3  1  0.18415300  0.81584700  0.25000000  1
  Os  Os4  1  0.63169300  0.81584700  0.25000000  1
  Os  Os5  1  0.18415300  0.36830700  0.25000000  1
  O  O6  1  0.66666700  0.33333300  0.25000000  1
  O  O7  1  0.33333300  0.66666700  0.75000000  1
