# generated using pymatgen
data_Zn2SiHO5
_symmetry_space_group_name_H-M   'P 1'
_cell_length_a   5.16575900
_cell_length_b   7.37042620
_cell_length_c   7.37042620
_cell_angle_alpha   70.04176515
_cell_angle_beta   69.48587938
_cell_angle_gamma   69.48587938
_symmetry_Int_Tables_number   1
_chemical_formula_structural   Zn2SiHO5
_chemical_formula_sum   'Zn4 Si2 H2 O10'
_cell_volume   238.39747116
_cell_formula_units_Z   2
loop_
 _symmetry_equiv_pos_site_id
 _symmetry_equiv_pos_as_xyz
  1  'x, y, z'
loop_
 _atom_site_type_symbol
 _atom_site_label
 _atom_site_symmetry_multiplicity
 _atom_site_fract_x
 _atom_site_fract_y
 _atom_site_fract_z
 _atom_site_occupancy
  Zn  Zn0  1  0.15911700  0.63280000  0.04611300  1
  Zn  Zn1  1  0.83803000  0.36720000  0.95388700  1
  Zn  Zn2  1  0.15911700  0.04611300  0.63280000  1
  Zn  Zn3  1  0.83803000  0.95388700  0.36720000  1
  Si  Si4  1  0.63732400  0.85481100  0.85481100  1
  Si  Si5  1  0.34694500  0.14518900  0.14518900  1
  H  H6  1  0.80729700  0.61479400  0.38520600  1
  H  H7  1  0.80729700  0.38520600  0.61479400  1
  O  O8  1  0.56684900  0.63509800  0.95564600  1
  O  O9  1  0.15759300  0.36490200  0.04435400  1
  O  O10  1  0.56684900  0.95564600  0.63509800  1
  O  O11  1  0.15759300  0.04435400  0.36490200  1
  O  O12  1  0.97235100  0.83382300  0.83382300  1
  O  O13  1  0.63999700  0.16617700  0.16617700  1
  O  O14  1  0.94054000  0.69862400  0.30137600  1
  O  O15  1  0.94054000  0.30137600  0.69862400  1
  O  O16  1  0.40790900  0.00000000  0.00000000  1
  O  O17  1  0.51512400  0.50000000  0.50000000  1
