# generated using pymatgen
data_PaSi3
_symmetry_space_group_name_H-M   'P 1'
_cell_length_a   5.91036368
_cell_length_b   5.91036368
_cell_length_c   4.51351100
_cell_angle_alpha   90.00000000
_cell_angle_beta   90.00000000
_cell_angle_gamma   119.99999642
_symmetry_Int_Tables_number   1
_chemical_formula_structural   PaSi3
_chemical_formula_sum   'Pa2 Si6'
_cell_volume   136.54429596
_cell_formula_units_Z   2
loop_
 _symmetry_equiv_pos_site_id
 _symmetry_equiv_pos_as_xyz
  1  'x, y, z'
loop_
 _atom_site_type_symbol
 _atom_site_label
 _atom_site_symmetry_multiplicity
 _atom_site_fract_x
 _atom_site_fract_y
 _atom_site_fract_z
 _atom_site_occupancy
  Pa  Pa0  1  0.66666700  0.33333300  0.25000000  1
  Pa  Pa1  1  0.33333300  0.66666700  0.75000000  1
  Si  Si2  1  0.85613500  0.14386500  0.75000000  1
  Si  Si3  1  0.28773000  0.14386500  0.75000000  1
  Si  Si4  1  0.85613500  0.71227000  0.75000000  1
  Si  Si5  1  0.14386500  0.85613500  0.25000000  1
  Si  Si6  1  0.71227000  0.85613500  0.25000000  1
  Si  Si7  1  0.14386500  0.28773000  0.25000000  1
