# generated using pymatgen
data_PrEu3
_symmetry_space_group_name_H-M   'P 1'
_cell_length_a   7.75304258
_cell_length_b   7.75304258
_cell_length_c   6.25977200
_cell_angle_alpha   90.00000000
_cell_angle_beta   90.00000000
_cell_angle_gamma   120.00000496
_symmetry_Int_Tables_number   1
_chemical_formula_structural   PrEu3
_chemical_formula_sum   'Pr2 Eu6'
_cell_volume   325.86180859
_cell_formula_units_Z   2
loop_
 _symmetry_equiv_pos_site_id
 _symmetry_equiv_pos_as_xyz
  1  'x, y, z'
loop_
 _atom_site_type_symbol
 _atom_site_label
 _atom_site_symmetry_multiplicity
 _atom_site_fract_x
 _atom_site_fract_y
 _atom_site_fract_z
 _atom_site_occupancy
  Pr  Pr0  1  0.33333300  0.66666700  0.75000000  1
  Pr  Pr1  1  0.66666700  0.33333300  0.25000000  1
  Eu  Eu2  1  0.16933600  0.33867300  0.25000000  1
  Eu  Eu3  1  0.66132700  0.83066400  0.25000000  1
  Eu  Eu4  1  0.16933600  0.83066400  0.25000000  1
  Eu  Eu5  1  0.83066400  0.66132700  0.75000000  1
  Eu  Eu6  1  0.33867300  0.16933600  0.75000000  1
  Eu  Eu7  1  0.83066400  0.16933600  0.75000000  1
