# generated using pymatgen
data_CdCl2O
_symmetry_space_group_name_H-M   'P 1'
_cell_length_a   4.21322600
_cell_length_b   7.60407000
_cell_length_c   12.20181800
_cell_angle_alpha   90.00000000
_cell_angle_beta   90.00000000
_cell_angle_gamma   90.00000000
_symmetry_Int_Tables_number   1
_chemical_formula_structural   CdCl2O
_chemical_formula_sum   'Cd4 Cl8 O4'
_cell_volume   390.91776272
_cell_formula_units_Z   4
loop_
 _symmetry_equiv_pos_site_id
 _symmetry_equiv_pos_as_xyz
  1  'x, y, z'
loop_
 _atom_site_type_symbol
 _atom_site_label
 _atom_site_symmetry_multiplicity
 _atom_site_fract_x
 _atom_site_fract_y
 _atom_site_fract_z
 _atom_site_occupancy
  Cd  Cd0  1  0.25000000  0.71203900  0.46982700  1
  Cd  Cd1  1  0.25000000  0.21203900  0.03017300  1
  Cd  Cd2  1  0.75000000  0.28796100  0.53017300  1
  Cd  Cd3  1  0.75000000  0.78796100  0.96982700  1
  Cl  Cl4  1  0.75000000  0.87120400  0.60394500  1
  Cl  Cl5  1  0.75000000  0.37120400  0.89605500  1
  Cl  Cl6  1  0.25000000  0.12879600  0.39605500  1
  Cl  Cl7  1  0.25000000  0.62879600  0.10394500  1
  Cl  Cl8  1  0.75000000  0.53734800  0.38387900  1
  Cl  Cl9  1  0.75000000  0.03734800  0.11612100  1
  Cl  Cl10  1  0.25000000  0.46265200  0.61612100  1
  Cl  Cl11  1  0.25000000  0.96265200  0.88387900  1
  O  O12  1  0.25000000  0.92286100  0.35178000  1
  O  O13  1  0.25000000  0.42286100  0.14822000  1
  O  O14  1  0.75000000  0.07713900  0.64822000  1
  O  O15  1  0.75000000  0.57713900  0.85178000  1
