# generated using pymatgen
data_PmHo3
_symmetry_space_group_name_H-M   'P 1'
_cell_length_a   6.17296162
_cell_length_b   6.17296162
_cell_length_c   6.17296162
_cell_angle_alpha   131.92874101
_cell_angle_beta   131.92874101
_cell_angle_gamma   70.34159602
_symmetry_Int_Tables_number   1
_chemical_formula_structural   PmHo3
_chemical_formula_sum   'Pm1 Ho3'
_cell_volume   127.59527737
_cell_formula_units_Z   1
loop_
 _symmetry_equiv_pos_site_id
 _symmetry_equiv_pos_as_xyz
  1  'x, y, z'
loop_
 _atom_site_type_symbol
 _atom_site_label
 _atom_site_symmetry_multiplicity
 _atom_site_fract_x
 _atom_site_fract_y
 _atom_site_fract_z
 _atom_site_occupancy
  Pm  Pm0  1  0.00000000  0.00000000  0.00000000  1
  Ho  Ho1  1  0.75000000  0.25000000  0.50000000  1
  Ho  Ho2  1  0.25000000  0.75000000  0.50000000  1
  Ho  Ho3  1  0.50000000  0.50000000  0.00000000  1
