# generated using pymatgen
data_Ba2YGaSe5
_symmetry_space_group_name_H-M   'P 1'
_cell_length_a   7.40300500
_cell_length_b   8.78670301
_cell_length_c   9.54020479
_cell_angle_alpha   103.52325304
_cell_angle_beta   103.07385127
_cell_angle_gamma   107.39854701
_symmetry_Int_Tables_number   1
_chemical_formula_structural   Ba2YGaSe5
_chemical_formula_sum   'Ba4 Y2 Ga2 Se10'
_cell_volume   545.64585672
_cell_formula_units_Z   2
loop_
 _symmetry_equiv_pos_site_id
 _symmetry_equiv_pos_as_xyz
  1  'x, y, z'
loop_
 _atom_site_type_symbol
 _atom_site_label
 _atom_site_symmetry_multiplicity
 _atom_site_fract_x
 _atom_site_fract_y
 _atom_site_fract_z
 _atom_site_occupancy
  Ba  Ba0  1  0.63353000  0.97796700  0.28912800  1
  Ba  Ba1  1  0.36647000  0.02203300  0.71087200  1
  Ba  Ba2  1  0.34330600  0.51094300  0.70731800  1
  Ba  Ba3  1  0.65669400  0.48905700  0.29268200  1
  Y  Y4  1  0.99792700  0.72996700  0.99833800  1
  Y  Y5  1  0.00207300  0.27003300  0.00166200  1
  Ga  Ga6  1  0.80572600  0.87179200  0.68764000  1
  Ga  Ga7  1  0.19427400  0.12820800  0.31236000  1
  Se  Se8  1  0.98783700  0.68256300  0.68505700  1
  Se  Se9  1  0.01216300  0.31743700  0.31494300  1
  Se  Se10  1  0.98392900  0.15365900  0.68747500  1
  Se  Se11  1  0.01607100  0.84634100  0.31252500  1
  Se  Se12  1  0.71296900  0.90875600  0.92735000  1
  Se  Se13  1  0.28703100  0.09124400  0.07265000  1
  Se  Se14  1  0.70543100  0.41111300  0.94494000  1
  Se  Se15  1  0.29456900  0.58888700  0.05506000  1
  Se  Se16  1  0.48864500  0.74162600  0.49250300  1
  Se  Se17  1  0.51135500  0.25837400  0.50749700  1
