# generated using pymatgen
data_PmMn3
_symmetry_space_group_name_H-M   'P 1'
_cell_length_a   6.05519192
_cell_length_b   6.05519192
_cell_length_c   4.63874700
_cell_angle_alpha   90.00000000
_cell_angle_beta   90.00000000
_cell_angle_gamma   119.99999908
_symmetry_Int_Tables_number   1
_chemical_formula_structural   PmMn3
_chemical_formula_sum   'Pm2 Mn6'
_cell_volume   147.29470911
_cell_formula_units_Z   2
loop_
 _symmetry_equiv_pos_site_id
 _symmetry_equiv_pos_as_xyz
  1  'x, y, z'
loop_
 _atom_site_type_symbol
 _atom_site_label
 _atom_site_symmetry_multiplicity
 _atom_site_fract_x
 _atom_site_fract_y
 _atom_site_fract_z
 _atom_site_occupancy
  Pm  Pm0  1  0.33333300  0.66666700  0.75000000  1
  Pm  Pm1  1  0.66666700  0.33333300  0.25000000  1
  Mn  Mn2  1  0.14553200  0.29106300  0.25000000  1
  Mn  Mn3  1  0.70893700  0.85446800  0.25000000  1
  Mn  Mn4  1  0.14553200  0.85446800  0.25000000  1
  Mn  Mn5  1  0.85446800  0.70893700  0.75000000  1
  Mn  Mn6  1  0.29106300  0.14553200  0.75000000  1
  Mn  Mn7  1  0.85446800  0.14553200  0.75000000  1
