# generated using pymatgen
data_Pr2Mg
_symmetry_space_group_name_H-M   'P 1'
_cell_length_a   7.16620446
_cell_length_b   7.16620446
_cell_length_c   7.64795418
_cell_angle_alpha   74.68896373
_cell_angle_beta   74.68896373
_cell_angle_gamma   30.82442482
_symmetry_Int_Tables_number   1
_chemical_formula_structural   Pr2Mg
_chemical_formula_sum   'Pr4 Mg2'
_cell_volume   193.55533350
_cell_formula_units_Z   2
loop_
 _symmetry_equiv_pos_site_id
 _symmetry_equiv_pos_as_xyz
  1  'x, y, z'
loop_
 _atom_site_type_symbol
 _atom_site_label
 _atom_site_symmetry_multiplicity
 _atom_site_fract_x
 _atom_site_fract_y
 _atom_site_fract_z
 _atom_site_occupancy
  Pr  Pr0  1  0.84807900  0.84807900  0.57026500  1
  Pr  Pr1  1  0.15192100  0.15192100  0.42973500  1
  Pr  Pr2  1  0.83750500  0.83750500  0.08571300  1
  Pr  Pr3  1  0.16249500  0.16249500  0.91428700  1
  Mg  Mg4  1  0.49699100  0.49699100  0.76367100  1
  Mg  Mg5  1  0.50300900  0.50300900  0.23632900  1
