# generated using pymatgen
data_BiI3
_symmetry_space_group_name_H-M   'P 1'
_cell_length_a   13.27631200
_cell_length_b   8.03166700
_cell_length_c   9.12818286
_cell_angle_alpha   65.74395405
_cell_angle_beta   90.00000000
_cell_angle_gamma   90.00000000
_symmetry_Int_Tables_number   1
_chemical_formula_structural   BiI3
_chemical_formula_sum   'Bi4 I12'
_cell_volume   887.41821240
_cell_formula_units_Z   4
loop_
 _symmetry_equiv_pos_site_id
 _symmetry_equiv_pos_as_xyz
  1  'x, y, z'
loop_
 _atom_site_type_symbol
 _atom_site_label
 _atom_site_symmetry_multiplicity
 _atom_site_fract_x
 _atom_site_fract_y
 _atom_site_fract_z
 _atom_site_occupancy
  Bi  Bi0  1  0.33189600  0.41478200  0.02612100  1
  Bi  Bi1  1  0.83189600  0.08521800  0.97387900  1
  Bi  Bi2  1  0.66810400  0.58521800  0.97387900  1
  Bi  Bi3  1  0.16810400  0.91478200  0.02612100  1
  I  I4  1  0.52939500  0.28442500  0.21992500  1
  I  I5  1  0.02939500  0.21557500  0.78007500  1
  I  I6  1  0.47060500  0.71557500  0.78007500  1
  I  I7  1  0.97060500  0.78442500  0.21992500  1
  I  I8  1  0.34542500  0.17376600  0.83222400  1
  I  I9  1  0.84542500  0.32623400  0.16777600  1
  I  I10  1  0.65457500  0.82623400  0.16777600  1
  I  I11  1  0.15457500  0.67376600  0.83222400  1
  I  I12  1  0.21036400  0.09154900  0.26716200  1
  I  I13  1  0.71036400  0.40845100  0.73283800  1
  I  I14  1  0.78963600  0.90845100  0.73283800  1
  I  I15  1  0.28963600  0.59154900  0.26716200  1
