# generated using pymatgen
data_Pr3Zr
_symmetry_space_group_name_H-M   'P 1'
_cell_length_a   7.16879424
_cell_length_b   7.16879424
_cell_length_c   5.86259700
_cell_angle_alpha   90.00000000
_cell_angle_beta   90.00000000
_cell_angle_gamma   120.00000225
_symmetry_Int_Tables_number   1
_chemical_formula_structural   Pr3Zr
_chemical_formula_sum   'Pr6 Zr2'
_cell_volume   260.92331916
_cell_formula_units_Z   2
loop_
 _symmetry_equiv_pos_site_id
 _symmetry_equiv_pos_as_xyz
  1  'x, y, z'
loop_
 _atom_site_type_symbol
 _atom_site_label
 _atom_site_symmetry_multiplicity
 _atom_site_fract_x
 _atom_site_fract_y
 _atom_site_fract_z
 _atom_site_occupancy
  Pr  Pr0  1  0.17212300  0.34424600  0.25000000  1
  Pr  Pr1  1  0.65575400  0.82787700  0.25000000  1
  Pr  Pr2  1  0.17212300  0.82787700  0.25000000  1
  Pr  Pr3  1  0.82787700  0.65575400  0.75000000  1
  Pr  Pr4  1  0.34424600  0.17212300  0.75000000  1
  Pr  Pr5  1  0.82787700  0.17212300  0.75000000  1
  Zr  Zr6  1  0.33333300  0.66666700  0.75000000  1
  Zr  Zr7  1  0.66666700  0.33333300  0.25000000  1
