# generated using pymatgen
data_Ta2Mo2O5
_symmetry_space_group_name_H-M   'P 1'
_cell_length_a   3.44676700
_cell_length_b   3.44676700
_cell_length_c   8.55685000
_cell_angle_alpha   90.00000000
_cell_angle_beta   90.00000000
_cell_angle_gamma   90.00000000
_symmetry_Int_Tables_number   1
_chemical_formula_structural   Ta2Mo2O5
_chemical_formula_sum   'Ta2 Mo2 O5'
_cell_volume   101.65711292
_cell_formula_units_Z   1
loop_
 _symmetry_equiv_pos_site_id
 _symmetry_equiv_pos_as_xyz
  1  'x, y, z'
loop_
 _atom_site_type_symbol
 _atom_site_label
 _atom_site_symmetry_multiplicity
 _atom_site_fract_x
 _atom_site_fract_y
 _atom_site_fract_z
 _atom_site_occupancy
  Ta  Ta0  1  0.00000000  0.00000000  0.00000000  1
  Ta  Ta1  1  0.00000000  0.00000000  0.50000000  1
  Mo  Mo2  1  0.50000000  0.50000000  0.18771000  1
  Mo  Mo3  1  0.50000000  0.50000000  0.81229000  1
  O  O4  1  0.50000000  0.00000000  0.32050600  1
  O  O5  1  0.50000000  0.00000000  0.67949400  1
  O  O6  1  0.50000000  0.50000000  0.50000000  1
  O  O7  1  0.00000000  0.50000000  0.32050600  1
  O  O8  1  0.00000000  0.50000000  0.67949400  1
