# generated using pymatgen
data_PuMg
_symmetry_space_group_name_H-M   'P 1'
_cell_length_a   5.40784100
_cell_length_b   3.05253600
_cell_length_c   6.13894400
_cell_angle_alpha   90.00000000
_cell_angle_beta   90.00000000
_cell_angle_gamma   90.00000000
_symmetry_Int_Tables_number   1
_chemical_formula_structural   PuMg
_chemical_formula_sum   'Pu2 Mg2'
_cell_volume   101.33941206
_cell_formula_units_Z   2
loop_
 _symmetry_equiv_pos_site_id
 _symmetry_equiv_pos_as_xyz
  1  'x, y, z'
loop_
 _atom_site_type_symbol
 _atom_site_label
 _atom_site_symmetry_multiplicity
 _atom_site_fract_x
 _atom_site_fract_y
 _atom_site_fract_z
 _atom_site_occupancy
  Pu  Pu0  1  0.75000000  0.50000200  0.35994800  1
  Pu  Pu1  1  0.25000000  0.50000200  0.64005200  1
  Mg  Mg2  1  0.25000000  0.00000000  0.13968500  1
  Mg  Mg3  1  0.75000000  0.00000000  0.86031400  1
