# generated using pymatgen
data_Pu3H
_symmetry_space_group_name_H-M   'P 1'
_cell_length_a   6.04569000
_cell_length_b   6.04568989
_cell_length_c   3.35578600
_cell_angle_alpha   90.00000000
_cell_angle_beta   90.00000000
_cell_angle_gamma   120.00000058
_symmetry_Int_Tables_number   1
_chemical_formula_structural   Pu3H
_chemical_formula_sum   'Pu6 H2'
_cell_volume   106.22252683
_cell_formula_units_Z   2
loop_
 _symmetry_equiv_pos_site_id
 _symmetry_equiv_pos_as_xyz
  1  'x, y, z'
loop_
 _atom_site_type_symbol
 _atom_site_label
 _atom_site_symmetry_multiplicity
 _atom_site_fract_x
 _atom_site_fract_y
 _atom_site_fract_z
 _atom_site_occupancy
  Pu  Pu0  1  0.18337300  0.36674700  0.24999800  1
  Pu  Pu1  1  0.63325100  0.81662600  0.24999800  1
  Pu  Pu2  1  0.18337300  0.81662600  0.24999800  1
  Pu  Pu3  1  0.81662700  0.63325400  0.75000200  1
  Pu  Pu4  1  0.36674600  0.18337200  0.75000200  1
  Pu  Pu5  1  0.81662500  0.18337200  0.75000200  1
  H  H6  1  0.33333400  0.66666700  0.75000200  1
  H  H7  1  0.66666700  0.33333300  0.24999800  1
