# generated using pymatgen
data_Rb2Mg
_symmetry_space_group_name_H-M   'P 1'
_cell_length_a   8.03978771
_cell_length_b   8.03978771
_cell_length_c   11.18666095
_cell_angle_alpha   68.97605294
_cell_angle_beta   68.97605294
_cell_angle_gamma   33.59701800
_symmetry_Int_Tables_number   1
_chemical_formula_structural   Rb2Mg
_chemical_formula_sum   'Rb4 Mg2'
_cell_volume   370.95983531
_cell_formula_units_Z   2
loop_
 _symmetry_equiv_pos_site_id
 _symmetry_equiv_pos_as_xyz
  1  'x, y, z'
loop_
 _atom_site_type_symbol
 _atom_site_label
 _atom_site_symmetry_multiplicity
 _atom_site_fract_x
 _atom_site_fract_y
 _atom_site_fract_z
 _atom_site_occupancy
  Rb  Rb0  1  0.17049000  0.17049000  0.86300800  1
  Rb  Rb1  1  0.82951000  0.82951000  0.13699200  1
  Rb  Rb2  1  0.51755800  0.51755800  0.30903700  1
  Rb  Rb3  1  0.48244200  0.48244200  0.69096300  1
  Mg  Mg4  1  0.20183600  0.20183600  0.45697000  1
  Mg  Mg5  1  0.79816400  0.79816400  0.54303000  1
