# generated using pymatgen
data_Pu3I
_symmetry_space_group_name_H-M   'P 1'
_cell_length_a   6.63387228
_cell_length_b   6.63387228
_cell_length_c   5.66887800
_cell_angle_alpha   90.00000000
_cell_angle_beta   90.00000000
_cell_angle_gamma   120.00000279
_symmetry_Int_Tables_number   1
_chemical_formula_structural   Pu3I
_chemical_formula_sum   'Pu6 I2'
_cell_volume   216.05381627
_cell_formula_units_Z   2
loop_
 _symmetry_equiv_pos_site_id
 _symmetry_equiv_pos_as_xyz
  1  'x, y, z'
loop_
 _atom_site_type_symbol
 _atom_site_label
 _atom_site_symmetry_multiplicity
 _atom_site_fract_x
 _atom_site_fract_y
 _atom_site_fract_z
 _atom_site_occupancy
  Pu  Pu0  1  0.16803400  0.33606900  0.25000000  1
  Pu  Pu1  1  0.66393100  0.83196600  0.25000000  1
  Pu  Pu2  1  0.16803400  0.83196600  0.25000000  1
  Pu  Pu3  1  0.83196600  0.66393100  0.75000000  1
  Pu  Pu4  1  0.33606900  0.16803400  0.75000000  1
  Pu  Pu5  1  0.83196600  0.16803400  0.75000000  1
  I  I6  1  0.33333300  0.66666700  0.75000000  1
  I  I7  1  0.66666700  0.33333300  0.25000000  1
