# generated using pymatgen
data_Rb2MgH4
_symmetry_space_group_name_H-M   'P 1'
_cell_length_a   8.21214500
_cell_length_b   8.80249500
_cell_length_c   10.49252900
_cell_angle_alpha   90.00000000
_cell_angle_beta   90.00000000
_cell_angle_gamma   90.00000000
_symmetry_Int_Tables_number   1
_chemical_formula_structural   Rb2MgH4
_chemical_formula_sum   'Rb8 Mg4 H16'
_cell_volume   758.47727676
_cell_formula_units_Z   4
loop_
 _symmetry_equiv_pos_site_id
 _symmetry_equiv_pos_as_xyz
  1  'x, y, z'
loop_
 _atom_site_type_symbol
 _atom_site_label
 _atom_site_symmetry_multiplicity
 _atom_site_fract_x
 _atom_site_fract_y
 _atom_site_fract_z
 _atom_site_occupancy
  Rb  Rb0  1  0.25000000  0.49136000  0.75331400  1
  Rb  Rb1  1  0.25000000  0.99136000  0.74668600  1
  Rb  Rb2  1  0.25000000  0.74312600  0.34082600  1
  Rb  Rb3  1  0.25000000  0.24312600  0.15917400  1
  Rb  Rb4  1  0.75000000  0.75687400  0.84082600  1
  Rb  Rb5  1  0.75000000  0.25687400  0.65917400  1
  Rb  Rb6  1  0.75000000  0.00864000  0.25331400  1
  Rb  Rb7  1  0.75000000  0.50864000  0.24668600  1
  Mg  Mg8  1  0.25000000  0.74344900  0.99440000  1
  Mg  Mg9  1  0.25000000  0.24344900  0.50560000  1
  Mg  Mg10  1  0.75000000  0.75655100  0.49440000  1
  Mg  Mg11  1  0.75000000  0.25655100  0.00560000  1
  H  H12  1  0.08450200  0.74370500  0.87007600  1
  H  H13  1  0.08450200  0.24370500  0.62992400  1
  H  H14  1  0.25000000  0.06633200  0.41192300  1
  H  H15  1  0.25000000  0.41957400  0.41083600  1
  H  H16  1  0.25000000  0.91957400  0.08916400  1
  H  H17  1  0.25000000  0.56633200  0.08807700  1
  H  H18  1  0.41549800  0.74370500  0.87007600  1
  H  H19  1  0.41549800  0.24370500  0.62992400  1
  H  H20  1  0.58450200  0.75629500  0.37007600  1
  H  H21  1  0.58450200  0.25629500  0.12992400  1
  H  H22  1  0.75000000  0.43366800  0.91192300  1
  H  H23  1  0.75000000  0.08042600  0.91083600  1
  H  H24  1  0.75000000  0.58042600  0.58916400  1
  H  H25  1  0.75000000  0.93366800  0.58807700  1
  H  H26  1  0.91549800  0.75629500  0.37007600  1
  H  H27  1  0.91549800  0.25629500  0.12992400  1
