# generated using pymatgen
data_Rb3Yb
_symmetry_space_group_name_H-M   'P 1'
_cell_length_a   7.60602665
_cell_length_b   7.60602665
_cell_length_c   7.60602665
_cell_angle_alpha   121.05345881
_cell_angle_beta   121.05345881
_cell_angle_gamma   88.18483934
_symmetry_Int_Tables_number   1
_chemical_formula_structural   Rb3Yb
_chemical_formula_sum   'Rb3 Yb1'
_cell_volume   306.02088943
_cell_formula_units_Z   1
loop_
 _symmetry_equiv_pos_site_id
 _symmetry_equiv_pos_as_xyz
  1  'x, y, z'
loop_
 _atom_site_type_symbol
 _atom_site_label
 _atom_site_symmetry_multiplicity
 _atom_site_fract_x
 _atom_site_fract_y
 _atom_site_fract_z
 _atom_site_occupancy
  Rb  Rb0  1  0.75000000  0.25000000  0.50000000  1
  Rb  Rb1  1  0.25000000  0.75000000  0.50000000  1
  Rb  Rb2  1  0.50000000  0.50000000  0.00000000  1
  Yb  Yb3  1  0.00000000  0.00000000  0.00000000  1
