# generated using pymatgen
data_RbMg2
_symmetry_space_group_name_H-M   'P 1'
_cell_length_a   13.76015236
_cell_length_b   13.76015236
_cell_length_c   4.83234700
_cell_angle_alpha   90.00000000
_cell_angle_beta   90.00000000
_cell_angle_gamma   163.93726241
_symmetry_Int_Tables_number   1
_chemical_formula_structural   RbMg2
_chemical_formula_sum   'Rb2 Mg4'
_cell_volume   253.16150542
_cell_formula_units_Z   2
loop_
 _symmetry_equiv_pos_site_id
 _symmetry_equiv_pos_as_xyz
  1  'x, y, z'
loop_
 _atom_site_type_symbol
 _atom_site_label
 _atom_site_symmetry_multiplicity
 _atom_site_fract_x
 _atom_site_fract_y
 _atom_site_fract_z
 _atom_site_occupancy
  Rb  Rb0  1  0.32715300  0.67284700  0.75000000  1
  Rb  Rb1  1  0.67284700  0.32715300  0.25000000  1
  Mg  Mg2  1  0.54877600  0.45122400  0.75000000  1
  Mg  Mg3  1  0.95749900  0.04250100  0.75000000  1
  Mg  Mg4  1  0.04250100  0.95749900  0.25000000  1
  Mg  Mg5  1  0.45122400  0.54877600  0.25000000  1
