# generated using pymatgen
data_Sc3Os
_symmetry_space_group_name_H-M   'P 1'
_cell_length_a   6.27574337
_cell_length_b   6.27574337
_cell_length_c   4.64685900
_cell_angle_alpha   90.00000000
_cell_angle_beta   90.00000000
_cell_angle_gamma   119.99999332
_symmetry_Int_Tables_number   1
_chemical_formula_structural   Sc3Os
_chemical_formula_sum   'Sc6 Os2'
_cell_volume   158.49680321
_cell_formula_units_Z   2
loop_
 _symmetry_equiv_pos_site_id
 _symmetry_equiv_pos_as_xyz
  1  'x, y, z'
loop_
 _atom_site_type_symbol
 _atom_site_label
 _atom_site_symmetry_multiplicity
 _atom_site_fract_x
 _atom_site_fract_y
 _atom_site_fract_z
 _atom_site_occupancy
  Sc  Sc0  1  0.82412700  0.17587300  0.75000000  1
  Sc  Sc1  1  0.35174600  0.17587300  0.75000000  1
  Sc  Sc2  1  0.82412700  0.64825400  0.75000000  1
  Sc  Sc3  1  0.17587300  0.82412700  0.25000000  1
  Sc  Sc4  1  0.64825400  0.82412700  0.25000000  1
  Sc  Sc5  1  0.17587300  0.35174600  0.25000000  1
  Os  Os6  1  0.66666700  0.33333300  0.25000000  1
  Os  Os7  1  0.33333300  0.66666700  0.75000000  1
