# generated using pymatgen
data_Na3YN6
_symmetry_space_group_name_H-M   'P 1'
_cell_length_a   12.03860268
_cell_length_b   11.51507015
_cell_length_c   6.22305386
_cell_angle_alpha   79.38707333
_cell_angle_beta   70.07674832
_cell_angle_gamma   30.53617835
_symmetry_Int_Tables_number   1
_chemical_formula_structural   Na3YN6
_chemical_formula_sum   'Na6 Y2 N12'
_cell_volume   401.13791755
_cell_formula_units_Z   2
loop_
 _symmetry_equiv_pos_site_id
 _symmetry_equiv_pos_as_xyz
  1  'x, y, z'
loop_
 _atom_site_type_symbol
 _atom_site_label
 _atom_site_symmetry_multiplicity
 _atom_site_fract_x
 _atom_site_fract_y
 _atom_site_fract_z
 _atom_site_occupancy
  Na  Na0  1  0.50000000  0.50000000  0.50000000  1
  Na  Na1  1  0.75000000  0.75000000  0.75000000  1
  Na  Na2  1  0.83466500  0.83466500  0.16533500  1
  Na  Na3  1  0.16533500  0.16533500  0.83466500  1
  Na  Na4  1  0.41533500  0.41533500  0.08466500  1
  Na  Na5  1  0.08466500  0.08466500  0.41533500  1
  Y  Y6  1  0.00000000  0.00000000  0.00000000  1
  Y  Y7  1  0.25000000  0.25000000  0.25000000  1
  N  N8  1  0.23471300  0.76528700  0.23471300  1
  N  N9  1  0.76528700  0.23471300  0.76528700  1
  N  N10  1  0.01528700  0.48471300  0.01528700  1
  N  N11  1  0.48471300  0.01528700  0.48471300  1
  N  N12  1  0.86757300  0.28277000  0.16034600  1
  N  N13  1  0.68931000  0.16034600  0.28277000  1
  N  N14  1  0.16034600  0.68931000  0.86757300  1
  N  N15  1  0.28277000  0.86757300  0.68931000  1
  N  N16  1  0.38242700  0.96723000  0.08965400  1
  N  N17  1  0.56069000  0.08965400  0.96723000  1
  N  N18  1  0.08965400  0.56069000  0.38242700  1
  N  N19  1  0.96723000  0.38242700  0.56069000  1
