# generated using pymatgen
data_Th3Rh
_symmetry_space_group_name_H-M   'P 1'
_cell_length_a   6.19282951
_cell_length_b   6.19282951
_cell_length_c   6.19282951
_cell_angle_alpha   137.22660462
_cell_angle_beta   137.22660462
_cell_angle_gamma   62.08957865
_symmetry_Int_Tables_number   1
_chemical_formula_structural   Th3Rh
_chemical_formula_sum   'Th3 Rh1'
_cell_volume   108.23469572
_cell_formula_units_Z   1
loop_
 _symmetry_equiv_pos_site_id
 _symmetry_equiv_pos_as_xyz
  1  'x, y, z'
loop_
 _atom_site_type_symbol
 _atom_site_label
 _atom_site_symmetry_multiplicity
 _atom_site_fract_x
 _atom_site_fract_y
 _atom_site_fract_z
 _atom_site_occupancy
  Th  Th0  1  0.75000000  0.25000000  0.50000000  1
  Th  Th1  1  0.25000000  0.75000000  0.50000000  1
  Th  Th2  1  0.50000000  0.50000000  0.00000000  1
  Rh  Rh3  1  0.00000000  0.00000000  0.00000000  1
