# generated using pymatgen
data_Sn3Pb
_symmetry_space_group_name_H-M   'P 1'
_cell_length_a   6.76378780
_cell_length_b   6.76378780
_cell_length_c   5.83899100
_cell_angle_alpha   90.00000000
_cell_angle_beta   90.00000000
_cell_angle_gamma   119.99999802
_symmetry_Int_Tables_number   1
_chemical_formula_structural   Sn3Pb
_chemical_formula_sum   'Sn6 Pb2'
_cell_volume   231.33875498
_cell_formula_units_Z   2
loop_
 _symmetry_equiv_pos_site_id
 _symmetry_equiv_pos_as_xyz
  1  'x, y, z'
loop_
 _atom_site_type_symbol
 _atom_site_label
 _atom_site_symmetry_multiplicity
 _atom_site_fract_x
 _atom_site_fract_y
 _atom_site_fract_z
 _atom_site_occupancy
  Sn  Sn0  1  0.16379000  0.32758100  0.25000000  1
  Sn  Sn1  1  0.67241900  0.83621000  0.25000000  1
  Sn  Sn2  1  0.16379000  0.83621000  0.25000000  1
  Sn  Sn3  1  0.83621000  0.67241900  0.75000000  1
  Sn  Sn4  1  0.32758100  0.16379000  0.75000000  1
  Sn  Sn5  1  0.83621000  0.16379000  0.75000000  1
  Pb  Pb6  1  0.33333300  0.66666700  0.75000000  1
  Pb  Pb7  1  0.66666700  0.33333300  0.25000000  1
