# generated using pymatgen
data_Sr3Nd
_symmetry_space_group_name_H-M   'P 1'
_cell_length_a   8.19144708
_cell_length_b   8.19144708
_cell_length_c   6.58741000
_cell_angle_alpha   90.00000000
_cell_angle_beta   90.00000000
_cell_angle_gamma   119.99999257
_symmetry_Int_Tables_number   1
_chemical_formula_structural   Sr3Nd
_chemical_formula_sum   'Sr6 Nd2'
_cell_volume   382.79531934
_cell_formula_units_Z   2
loop_
 _symmetry_equiv_pos_site_id
 _symmetry_equiv_pos_as_xyz
  1  'x, y, z'
loop_
 _atom_site_type_symbol
 _atom_site_label
 _atom_site_symmetry_multiplicity
 _atom_site_fract_x
 _atom_site_fract_y
 _atom_site_fract_z
 _atom_site_occupancy
  Sr  Sr0  1  0.82816600  0.17183400  0.75000000  1
  Sr  Sr1  1  0.34366800  0.17183400  0.75000000  1
  Sr  Sr2  1  0.82816600  0.65633200  0.75000000  1
  Sr  Sr3  1  0.17183400  0.82816600  0.25000000  1
  Sr  Sr4  1  0.65633200  0.82816600  0.25000000  1
  Sr  Sr5  1  0.17183400  0.34366800  0.25000000  1
  Nd  Nd6  1  0.66666700  0.33333300  0.25000000  1
  Nd  Nd7  1  0.33333300  0.66666700  0.75000000  1
