# generated using pymatgen
data_Sr2FeCu(PbO3)2
_symmetry_space_group_name_H-M   'P 1'
_cell_length_a   5.53221000
_cell_length_b   5.65376100
_cell_length_c   12.33889200
_cell_angle_alpha   90.00000000
_cell_angle_beta   90.00000000
_cell_angle_gamma   90.00000000
_symmetry_Int_Tables_number   1
_chemical_formula_structural   Sr2FeCu(PbO3)2
_chemical_formula_sum   'Sr4 Fe2 Cu2 Pb4 O12'
_cell_volume   385.93331158
_cell_formula_units_Z   2
loop_
 _symmetry_equiv_pos_site_id
 _symmetry_equiv_pos_as_xyz
  1  'x, y, z'
loop_
 _atom_site_type_symbol
 _atom_site_label
 _atom_site_symmetry_multiplicity
 _atom_site_fract_x
 _atom_site_fract_y
 _atom_site_fract_z
 _atom_site_occupancy
  Sr  Sr0  1  0.00000000  0.00313800  0.64341600  1
  Sr  Sr1  1  0.00000000  0.99686200  0.35658400  1
  Sr  Sr2  1  0.50000000  0.49686200  0.64341600  1
  Sr  Sr3  1  0.50000000  0.50313800  0.35658400  1
  Fe  Fe4  1  0.50000000  0.00000000  0.50000000  1
  Fe  Fe5  1  0.00000000  0.50000000  0.50000000  1
  Cu  Cu6  1  0.00000000  0.00000000  0.00000000  1
  Cu  Cu7  1  0.50000000  0.50000000  0.00000000  1
  Pb  Pb8  1  0.00000000  0.51014900  0.85545000  1
  Pb  Pb9  1  0.00000000  0.48985100  0.14455000  1
  Pb  Pb10  1  0.50000000  0.98985100  0.85545000  1
  Pb  Pb11  1  0.50000000  0.01014900  0.14455000  1
  O  O12  1  0.25000000  0.25000000  0.49470600  1
  O  O13  1  0.25000000  0.75000000  0.50529400  1
  O  O14  1  0.75000000  0.25000000  0.49470600  1
  O  O15  1  0.75000000  0.75000000  0.50529400  1
  O  O16  1  0.00000000  0.47817400  0.67884200  1
  O  O17  1  0.00000000  0.52182600  0.32115800  1
  O  O18  1  0.50000000  0.02182600  0.67884200  1
  O  O19  1  0.50000000  0.97817400  0.32115800  1
  O  O20  1  0.00000000  0.92337900  0.85373800  1
  O  O21  1  0.00000000  0.07662100  0.14626200  1
  O  O22  1  0.50000000  0.57662100  0.85373800  1
  O  O23  1  0.50000000  0.42337900  0.14626200  1
