# generated using pymatgen
data_Ta3CrSe6
_symmetry_space_group_name_H-M   'P 1'
_cell_length_a   6.00956615
_cell_length_b   6.00956615
_cell_length_c   12.90058600
_cell_angle_alpha   90.00000000
_cell_angle_beta   90.00000000
_cell_angle_gamma   120.00000170
_symmetry_Int_Tables_number   1
_chemical_formula_structural   Ta3CrSe6
_chemical_formula_sum   'Ta6 Cr2 Se12'
_cell_volume   403.48398659
_cell_formula_units_Z   2
loop_
 _symmetry_equiv_pos_site_id
 _symmetry_equiv_pos_as_xyz
  1  'x, y, z'
loop_
 _atom_site_type_symbol
 _atom_site_label
 _atom_site_symmetry_multiplicity
 _atom_site_fract_x
 _atom_site_fract_y
 _atom_site_fract_z
 _atom_site_occupancy
  Ta  Ta0  1  0.00000000  0.00000000  0.00000000  1
  Ta  Ta1  1  0.66666700  0.33333300  0.99967400  1
  Ta  Ta2  1  0.33333300  0.66666700  0.49967400  1
  Ta  Ta3  1  0.00000000  0.00000000  0.50000000  1
  Ta  Ta4  1  0.33333300  0.66666700  0.00032600  1
  Ta  Ta5  1  0.66666700  0.33333300  0.50032600  1
  Cr  Cr6  1  0.66666700  0.33333300  0.75000000  1
  Cr  Cr7  1  0.33333300  0.66666700  0.25000000  1
  Se  Se8  1  0.67201100  0.66618300  0.13044500  1
  Se  Se9  1  0.32798900  0.33381700  0.63044500  1
  Se  Se10  1  0.66618300  0.67201100  0.86955500  1
  Se  Se11  1  0.32798900  0.99417200  0.86955500  1
  Se  Se12  1  0.00582800  0.67201100  0.63044500  1
  Se  Se13  1  0.00582800  0.33381700  0.86955500  1
  Se  Se14  1  0.99417200  0.66618300  0.36955500  1
  Se  Se15  1  0.33381700  0.32798900  0.36955500  1
  Se  Se16  1  0.67201100  0.00582800  0.36955500  1
  Se  Se17  1  0.99417200  0.32798900  0.13044500  1
  Se  Se18  1  0.66618300  0.99417200  0.63044500  1
  Se  Se19  1  0.33381700  0.00582800  0.13044500  1
