# generated using pymatgen
data_Tb3Bi
_symmetry_space_group_name_H-M   'P 1'
_cell_length_a   6.27681444
_cell_length_b   6.27681444
_cell_length_c   6.27681444
_cell_angle_alpha   135.64332711
_cell_angle_beta   135.64332711
_cell_angle_gamma   64.53224169
_symmetry_Int_Tables_number   1
_chemical_formula_structural   Tb3Bi
_chemical_formula_sum   'Tb3 Bi1'
_cell_volume   119.19110368
_cell_formula_units_Z   1
loop_
 _symmetry_equiv_pos_site_id
 _symmetry_equiv_pos_as_xyz
  1  'x, y, z'
loop_
 _atom_site_type_symbol
 _atom_site_label
 _atom_site_symmetry_multiplicity
 _atom_site_fract_x
 _atom_site_fract_y
 _atom_site_fract_z
 _atom_site_occupancy
  Tb  Tb0  1  0.75000000  0.25000000  0.50000000  1
  Tb  Tb1  1  0.25000000  0.75000000  0.50000000  1
  Tb  Tb2  1  0.50000000  0.50000000  0.00000000  1
  Bi  Bi3  1  0.00000000  0.00000000  0.00000000  1
