# generated using pymatgen
data_TaPb3
_symmetry_space_group_name_H-M   'P 1'
_cell_length_a   6.60887420
_cell_length_b   6.60887420
_cell_length_c   5.55310200
_cell_angle_alpha   90.00000000
_cell_angle_beta   90.00000000
_cell_angle_gamma   120.00000196
_symmetry_Int_Tables_number   1
_chemical_formula_structural   TaPb3
_chemical_formula_sum   'Ta2 Pb6'
_cell_volume   210.04930240
_cell_formula_units_Z   2
loop_
 _symmetry_equiv_pos_site_id
 _symmetry_equiv_pos_as_xyz
  1  'x, y, z'
loop_
 _atom_site_type_symbol
 _atom_site_label
 _atom_site_symmetry_multiplicity
 _atom_site_fract_x
 _atom_site_fract_y
 _atom_site_fract_z
 _atom_site_occupancy
  Ta  Ta0  1  0.33333300  0.66666700  0.75000000  1
  Ta  Ta1  1  0.66666700  0.33333300  0.25000000  1
  Pb  Pb2  1  0.17304500  0.34609000  0.25000000  1
  Pb  Pb3  1  0.65391000  0.82695500  0.25000000  1
  Pb  Pb4  1  0.17304500  0.82695500  0.25000000  1
  Pb  Pb5  1  0.82695500  0.65391000  0.75000000  1
  Pb  Pb6  1  0.34609000  0.17304500  0.75000000  1
  Pb  Pb7  1  0.82695500  0.17304500  0.75000000  1
