# generated using pymatgen
data_Tb3Te
_symmetry_space_group_name_H-M   'P 1'
_cell_length_a   6.22386192
_cell_length_b   6.22386192
_cell_length_c   6.22386192
_cell_angle_alpha   135.98855605
_cell_angle_beta   135.98855605
_cell_angle_gamma   63.99802824
_symmetry_Int_Tables_number   1
_chemical_formula_structural   Tb3Te
_chemical_formula_sum   'Tb3 Te1'
_cell_volume   114.82342373
_cell_formula_units_Z   1
loop_
 _symmetry_equiv_pos_site_id
 _symmetry_equiv_pos_as_xyz
  1  'x, y, z'
loop_
 _atom_site_type_symbol
 _atom_site_label
 _atom_site_symmetry_multiplicity
 _atom_site_fract_x
 _atom_site_fract_y
 _atom_site_fract_z
 _atom_site_occupancy
  Tb  Tb0  1  0.75000000  0.25000000  0.50000000  1
  Tb  Tb1  1  0.25000000  0.75000000  0.50000000  1
  Tb  Tb2  1  0.50000000  0.50000000  0.00000000  1
  Te  Te3  1  0.00000000  0.00000000  0.00000000  1
