# generated using pymatgen
data_Tb3In
_symmetry_space_group_name_H-M   'P 1'
_cell_length_a   6.94638399
_cell_length_b   6.94638399
_cell_length_c   5.52701900
_cell_angle_alpha   90.00000000
_cell_angle_beta   90.00000000
_cell_angle_gamma   119.99999993
_symmetry_Int_Tables_number   1
_chemical_formula_structural   Tb3In
_chemical_formula_sum   'Tb6 In2'
_cell_volume   230.96127267
_cell_formula_units_Z   2
loop_
 _symmetry_equiv_pos_site_id
 _symmetry_equiv_pos_as_xyz
  1  'x, y, z'
loop_
 _atom_site_type_symbol
 _atom_site_label
 _atom_site_symmetry_multiplicity
 _atom_site_fract_x
 _atom_site_fract_y
 _atom_site_fract_z
 _atom_site_occupancy
  Tb  Tb0  1  0.82736500  0.17263500  0.75000000  1
  Tb  Tb1  1  0.34527100  0.17263500  0.75000000  1
  Tb  Tb2  1  0.82736500  0.65472900  0.75000000  1
  Tb  Tb3  1  0.17263500  0.82736500  0.25000000  1
  Tb  Tb4  1  0.65472900  0.82736500  0.25000000  1
  Tb  Tb5  1  0.17263500  0.34527100  0.25000000  1
  In  In6  1  0.66666700  0.33333300  0.25000000  1
  In  In7  1  0.33333300  0.66666700  0.75000000  1
