# generated using pymatgen
data_Tb3Zr
_symmetry_space_group_name_H-M   'P 1'
_cell_length_a   5.97992302
_cell_length_b   5.97992302
_cell_length_c   5.97992302
_cell_angle_alpha   131.65399131
_cell_angle_beta   131.65399131
_cell_angle_gamma   70.77606205
_symmetry_Int_Tables_number   1
_chemical_formula_structural   Tb3Zr
_chemical_formula_sum   'Tb3 Zr1'
_cell_volume   116.93119512
_cell_formula_units_Z   1
loop_
 _symmetry_equiv_pos_site_id
 _symmetry_equiv_pos_as_xyz
  1  'x, y, z'
loop_
 _atom_site_type_symbol
 _atom_site_label
 _atom_site_symmetry_multiplicity
 _atom_site_fract_x
 _atom_site_fract_y
 _atom_site_fract_z
 _atom_site_occupancy
  Tb  Tb0  1  0.75000000  0.25000000  0.50000000  1
  Tb  Tb1  1  0.25000000  0.75000000  0.50000000  1
  Tb  Tb2  1  0.50000000  0.50000000  0.00000000  1
  Zr  Zr3  1  0.00000000  0.00000000  0.00000000  1
