# generated using pymatgen
data_TbNd3
_symmetry_space_group_name_H-M   'P 1'
_cell_length_a   7.32384627
_cell_length_b   7.32384627
_cell_length_c   6.00734700
_cell_angle_alpha   90.00000000
_cell_angle_beta   90.00000000
_cell_angle_gamma   120.00000243
_symmetry_Int_Tables_number   1
_chemical_formula_structural   TbNd3
_chemical_formula_sum   'Tb2 Nd6'
_cell_volume   279.05626622
_cell_formula_units_Z   2
loop_
 _symmetry_equiv_pos_site_id
 _symmetry_equiv_pos_as_xyz
  1  'x, y, z'
loop_
 _atom_site_type_symbol
 _atom_site_label
 _atom_site_symmetry_multiplicity
 _atom_site_fract_x
 _atom_site_fract_y
 _atom_site_fract_z
 _atom_site_occupancy
  Tb  Tb0  1  0.33333300  0.66666700  0.75000000  1
  Tb  Tb1  1  0.66666700  0.33333300  0.25000000  1
  Nd  Nd2  1  0.16727300  0.33454700  0.25000000  1
  Nd  Nd3  1  0.66545300  0.83272700  0.25000000  1
  Nd  Nd4  1  0.16727300  0.83272700  0.25000000  1
  Nd  Nd5  1  0.83272700  0.66545300  0.75000000  1
  Nd  Nd6  1  0.33454700  0.16727300  0.75000000  1
  Nd  Nd7  1  0.83272700  0.16727300  0.75000000  1
