# generated using pymatgen
data_TeS3
_symmetry_space_group_name_H-M   'P 1'
_cell_length_a   7.32809438
_cell_length_b   7.32809438
_cell_length_c   3.71946400
_cell_angle_alpha   90.00000000
_cell_angle_beta   90.00000000
_cell_angle_gamma   120.00000340
_symmetry_Int_Tables_number   1
_chemical_formula_structural   TeS3
_chemical_formula_sum   'Te2 S6'
_cell_volume   172.97888132
_cell_formula_units_Z   2
loop_
 _symmetry_equiv_pos_site_id
 _symmetry_equiv_pos_as_xyz
  1  'x, y, z'
loop_
 _atom_site_type_symbol
 _atom_site_label
 _atom_site_symmetry_multiplicity
 _atom_site_fract_x
 _atom_site_fract_y
 _atom_site_fract_z
 _atom_site_occupancy
  Te  Te0  1  0.33333300  0.66666700  0.75000000  1
  Te  Te1  1  0.66666700  0.33333300  0.25000000  1
  S  S2  1  0.17897200  0.35794400  0.25000000  1
  S  S3  1  0.64205600  0.82102800  0.25000000  1
  S  S4  1  0.17897200  0.82102800  0.25000000  1
  S  S5  1  0.82102800  0.64205600  0.75000000  1
  S  S6  1  0.35794400  0.17897200  0.75000000  1
  S  S7  1  0.82102800  0.17897200  0.75000000  1
