# generated using pymatgen
data_Th3Cr
_symmetry_space_group_name_H-M   'P 1'
_cell_length_a   6.92553677
_cell_length_b   6.92553677
_cell_length_c   5.48144200
_cell_angle_alpha   90.00000000
_cell_angle_beta   90.00000000
_cell_angle_gamma   120.00000736
_symmetry_Int_Tables_number   1
_chemical_formula_structural   Th3Cr
_chemical_formula_sum   'Th6 Cr2'
_cell_volume   227.68388934
_cell_formula_units_Z   2
loop_
 _symmetry_equiv_pos_site_id
 _symmetry_equiv_pos_as_xyz
  1  'x, y, z'
loop_
 _atom_site_type_symbol
 _atom_site_label
 _atom_site_symmetry_multiplicity
 _atom_site_fract_x
 _atom_site_fract_y
 _atom_site_fract_z
 _atom_site_occupancy
  Th  Th0  1  0.17589800  0.35179700  0.25000000  1
  Th  Th1  1  0.64820300  0.82410200  0.25000000  1
  Th  Th2  1  0.17589800  0.82410200  0.25000000  1
  Th  Th3  1  0.82410200  0.64820300  0.75000000  1
  Th  Th4  1  0.35179700  0.17589800  0.75000000  1
  Th  Th5  1  0.82410200  0.17589800  0.75000000  1
  Cr  Cr6  1  0.33333300  0.66666700  0.75000000  1
  Cr  Cr7  1  0.66666700  0.33333300  0.25000000  1
