# generated using pymatgen
data_KAl3(SO7)2
_symmetry_space_group_name_H-M   'P 1'
_cell_length_a   7.42251871
_cell_length_b   7.42251871
_cell_length_c   7.42251817
_cell_angle_alpha   56.28562522
_cell_angle_beta   56.28562522
_cell_angle_gamma   56.28562468
_symmetry_Int_Tables_number   1
_chemical_formula_structural   KAl3(SO7)2
_chemical_formula_sum   'K1 Al3 S2 O14'
_cell_volume   264.31035810
_cell_formula_units_Z   1
loop_
 _symmetry_equiv_pos_site_id
 _symmetry_equiv_pos_as_xyz
  1  'x, y, z'
loop_
 _atom_site_type_symbol
 _atom_site_label
 _atom_site_symmetry_multiplicity
 _atom_site_fract_x
 _atom_site_fract_y
 _atom_site_fract_z
 _atom_site_occupancy
  K  K0  1  0.00000000  0.00000000  0.00000000  1
  Al  Al1  1  0.00000000  0.00000000  0.50000000  1
  Al  Al2  1  0.50000000  0.00000000  0.00000000  1
  Al  Al3  1  0.00000000  0.50000000  0.00000000  1
  S  S4  1  0.70102400  0.70102400  0.70102400  1
  S  S5  1  0.29897600  0.29897600  0.29897600  1
  O  O6  1  0.62425200  0.62425200  0.62425200  1
  O  O7  1  0.37574800  0.37574800  0.37574800  1
  O  O8  1  0.84664500  0.84664500  0.49864900  1
  O  O9  1  0.49864900  0.84664500  0.84664500  1
  O  O10  1  0.84664500  0.49864900  0.84664500  1
  O  O11  1  0.15335500  0.15335500  0.50135100  1
  O  O12  1  0.50135100  0.15335500  0.15335500  1
  O  O13  1  0.15335500  0.50135100  0.15335500  1
  O  O14  1  0.74447000  0.74447000  0.08626100  1
  O  O15  1  0.08626100  0.74447000  0.74447000  1
  O  O16  1  0.74447000  0.08626100  0.74447000  1
  O  O17  1  0.25553000  0.25553000  0.91373900  1
  O  O18  1  0.91373900  0.25553000  0.25553000  1
  O  O19  1  0.25553000  0.91373900  0.25553000  1
