# generated using pymatgen
data_Ti3Si
_symmetry_space_group_name_H-M   'P 1'
_cell_length_a   5.63999530
_cell_length_b   5.63999530
_cell_length_c   4.52892800
_cell_angle_alpha   90.00000000
_cell_angle_beta   90.00000000
_cell_angle_gamma   119.99999174
_symmetry_Int_Tables_number   1
_chemical_formula_structural   Ti3Si
_chemical_formula_sum   'Ti6 Si2'
_cell_volume   124.76235612
_cell_formula_units_Z   2
loop_
 _symmetry_equiv_pos_site_id
 _symmetry_equiv_pos_as_xyz
  1  'x, y, z'
loop_
 _atom_site_type_symbol
 _atom_site_label
 _atom_site_symmetry_multiplicity
 _atom_site_fract_x
 _atom_site_fract_y
 _atom_site_fract_z
 _atom_site_occupancy
  Ti  Ti0  1  0.17126500  0.34253000  0.25000000  1
  Ti  Ti1  1  0.65747000  0.82873500  0.25000000  1
  Ti  Ti2  1  0.17126500  0.82873500  0.25000000  1
  Ti  Ti3  1  0.82873500  0.65747000  0.75000000  1
  Ti  Ti4  1  0.34253000  0.17126500  0.75000000  1
  Ti  Ti5  1  0.82873500  0.17126500  0.75000000  1
  Si  Si6  1  0.66666700  0.33333300  0.25000000  1
  Si  Si7  1  0.33333300  0.66666700  0.75000000  1
