# generated using pymatgen
data_YbMg
_symmetry_space_group_name_H-M   'P 1'
_cell_length_a   3.80958100
_cell_length_b   5.67848100
_cell_length_c   5.70969400
_cell_angle_alpha   90.00000000
_cell_angle_beta   90.00000000
_cell_angle_gamma   90.00000000
_symmetry_Int_Tables_number   1
_chemical_formula_structural   YbMg
_chemical_formula_sum   'Yb2 Mg2'
_cell_volume   123.51571671
_cell_formula_units_Z   2
loop_
 _symmetry_equiv_pos_site_id
 _symmetry_equiv_pos_as_xyz
  1  'x, y, z'
loop_
 _atom_site_type_symbol
 _atom_site_label
 _atom_site_symmetry_multiplicity
 _atom_site_fract_x
 _atom_site_fract_y
 _atom_site_fract_z
 _atom_site_occupancy
  Yb  Yb0  1  0.00000000  0.75000000  0.74009000  1
  Yb  Yb1  1  0.00000000  0.25000000  0.25991000  1
  Mg  Mg2  1  0.50000000  0.75000000  0.23696700  1
  Mg  Mg3  1  0.50000000  0.25000000  0.76303300  1
