# generated using pymatgen
data_TmMg5
_symmetry_space_group_name_H-M   'P 1'
_cell_length_a   8.64847876
_cell_length_b   8.64847876
_cell_length_c   5.37069000
_cell_angle_alpha   90.00000000
_cell_angle_beta   90.00000000
_cell_angle_gamma   158.51901799
_symmetry_Int_Tables_number   1
_chemical_formula_structural   TmMg5
_chemical_formula_sum   'Tm1 Mg5'
_cell_volume   147.10208542
_cell_formula_units_Z   1
loop_
 _symmetry_equiv_pos_site_id
 _symmetry_equiv_pos_as_xyz
  1  'x, y, z'
loop_
 _atom_site_type_symbol
 _atom_site_label
 _atom_site_symmetry_multiplicity
 _atom_site_fract_x
 _atom_site_fract_y
 _atom_site_fract_z
 _atom_site_occupancy
  Tm  Tm0  1  0.22051200  0.77948800  0.50000000  1
  Mg  Mg1  1  0.00150200  0.99849800  0.00000000  1
  Mg  Mg2  1  0.66431000  0.33569000  0.00000000  1
  Mg  Mg3  1  0.33612400  0.66387600  0.00000000  1
  Mg  Mg4  1  0.55211500  0.44788500  0.50000000  1
  Mg  Mg5  1  0.89211000  0.10789000  0.50000000  1
