# generated using pymatgen
data_YbCl3
_symmetry_space_group_name_H-M   'P 1'
_cell_length_a   6.07355755
_cell_length_b   6.07355755
_cell_length_c   5.48142700
_cell_angle_alpha   90.00000000
_cell_angle_beta   90.00000000
_cell_angle_gamma   119.99999510
_symmetry_Int_Tables_number   1
_chemical_formula_structural   YbCl3
_chemical_formula_sum   'Yb2 Cl6'
_cell_volume   175.10985558
_cell_formula_units_Z   2
loop_
 _symmetry_equiv_pos_site_id
 _symmetry_equiv_pos_as_xyz
  1  'x, y, z'
loop_
 _atom_site_type_symbol
 _atom_site_label
 _atom_site_symmetry_multiplicity
 _atom_site_fract_x
 _atom_site_fract_y
 _atom_site_fract_z
 _atom_site_occupancy
  Yb  Yb0  1  0.33333300  0.66666700  0.75000000  1
  Yb  Yb1  1  0.66666700  0.33333300  0.25000000  1
  Cl  Cl2  1  0.17189600  0.34379100  0.25000000  1
  Cl  Cl3  1  0.65620900  0.82810400  0.25000000  1
  Cl  Cl4  1  0.17189600  0.82810400  0.25000000  1
  Cl  Cl5  1  0.82810400  0.65620900  0.75000000  1
  Cl  Cl6  1  0.34379100  0.17189600  0.75000000  1
  Cl  Cl7  1  0.82810400  0.17189600  0.75000000  1
