# generated using pymatgen
data_Xe
_symmetry_space_group_name_H-M   'P 1'
_cell_length_a   12.00515112
_cell_length_b   12.00515112
_cell_length_c   12.00515101
_cell_angle_alpha   23.21798053
_cell_angle_beta   23.21798053
_cell_angle_gamma   23.21798002
_symmetry_Int_Tables_number   1
_chemical_formula_structural   Xe
_chemical_formula_sum   Xe3
_cell_volume   236.06593571
_cell_formula_units_Z   3
loop_
 _symmetry_equiv_pos_site_id
 _symmetry_equiv_pos_as_xyz
  1  'x, y, z'
loop_
 _atom_site_type_symbol
 _atom_site_label
 _atom_site_symmetry_multiplicity
 _atom_site_fract_x
 _atom_site_fract_y
 _atom_site_fract_z
 _atom_site_occupancy
  Xe  Xe0  1  0.00000000  0.00000000  0.00000000  1
  Xe  Xe1  1  0.22229500  0.22229500  0.22229500  1
  Xe  Xe2  1  0.77770500  0.77770500  0.77770500  1
