# generated using pymatgen
data_Yb5Mg
_symmetry_space_group_name_H-M   'P 1'
_cell_length_a   7.22514476
_cell_length_b   7.22514476
_cell_length_c   8.72579766
_cell_angle_alpha   75.39800091
_cell_angle_beta   75.39800091
_cell_angle_gamma   30.77806527
_symmetry_Int_Tables_number   1
_chemical_formula_structural   Yb5Mg
_chemical_formula_sum   'Yb5 Mg1'
_cell_volume   224.98164111
_cell_formula_units_Z   1
loop_
 _symmetry_equiv_pos_site_id
 _symmetry_equiv_pos_as_xyz
  1  'x, y, z'
loop_
 _atom_site_type_symbol
 _atom_site_label
 _atom_site_symmetry_multiplicity
 _atom_site_fract_x
 _atom_site_fract_y
 _atom_site_fract_z
 _atom_site_occupancy
  Yb  Yb0  1  0.00371100  0.00371100  0.02105600  1
  Yb  Yb1  1  0.27958900  0.27958900  0.94762100  1
  Yb  Yb2  1  0.66224400  0.66224400  0.67016400  1
  Yb  Yb3  1  0.95269700  0.95269700  0.58619400  1
  Yb  Yb4  1  0.32080500  0.32080500  0.33567900  1
  Mg  Mg5  1  0.61428400  0.61428400  0.27261700  1
