# generated using pymatgen
data_ZrMn3
_symmetry_space_group_name_H-M   'P 1'
_cell_length_a   5.55997200
_cell_length_b   5.55997200
_cell_length_c   4.37683000
_cell_angle_alpha   90.00000000
_cell_angle_beta   90.00000000
_cell_angle_gamma   120.00000004
_symmetry_Int_Tables_number   1
_chemical_formula_structural   ZrMn3
_chemical_formula_sum   'Zr2 Mn6'
_cell_volume   117.17515038
_cell_formula_units_Z   2
loop_
 _symmetry_equiv_pos_site_id
 _symmetry_equiv_pos_as_xyz
  1  'x, y, z'
loop_
 _atom_site_type_symbol
 _atom_site_label
 _atom_site_symmetry_multiplicity
 _atom_site_fract_x
 _atom_site_fract_y
 _atom_site_fract_z
 _atom_site_occupancy
  Zr  Zr0  1  0.33333300  0.66666700  0.75000000  1
  Zr  Zr1  1  0.66666700  0.33333300  0.25000000  1
  Mn  Mn2  1  0.14878200  0.29756500  0.25000000  1
  Mn  Mn3  1  0.70243500  0.85121800  0.25000000  1
  Mn  Mn4  1  0.14878200  0.85121800  0.25000000  1
  Mn  Mn5  1  0.85121800  0.70243500  0.75000000  1
  Mn  Mn6  1  0.29756500  0.14878200  0.75000000  1
  Mn  Mn7  1  0.85121800  0.14878200  0.75000000  1
