# generated using pymatgen
data_Ba2ErInSe5
_symmetry_space_group_name_H-M   'P 1'
_cell_length_a   9.75317920
_cell_length_b   9.75317920
_cell_length_c   13.49221300
_cell_angle_alpha   90.00000000
_cell_angle_beta   90.00000000
_cell_angle_gamma   154.55977724
_symmetry_Int_Tables_number   1
_chemical_formula_structural   Ba2ErInSe5
_chemical_formula_sum   'Ba4 Er2 In2 Se10'
_cell_volume   551.32630964
_cell_formula_units_Z   2
loop_
 _symmetry_equiv_pos_site_id
 _symmetry_equiv_pos_as_xyz
  1  'x, y, z'
loop_
 _atom_site_type_symbol
 _atom_site_label
 _atom_site_symmetry_multiplicity
 _atom_site_fract_x
 _atom_site_fract_y
 _atom_site_fract_z
 _atom_site_occupancy
  Ba  Ba0  1  0.86705400  0.13294600  0.18683900  1
  Ba  Ba1  1  0.13294600  0.86705400  0.68683900  1
  Ba  Ba2  1  0.88246500  0.11753500  0.81893200  1
  Ba  Ba3  1  0.11753500  0.88246500  0.31893200  1
  Er  Er4  1  0.78840800  0.21159200  0.48190600  1
  Er  Er5  1  0.21159200  0.78840800  0.98190600  1
  In  In6  1  0.55252000  0.44748000  0.06282500  1
  In  In7  1  0.44748000  0.55252000  0.56282500  1
  Se  Se8  1  0.64483600  0.35516400  0.49978200  1
  Se  Se9  1  0.35516400  0.64483600  0.99978200  1
  Se  Se10  1  0.70922100  0.29077900  0.84460200  1
  Se  Se11  1  0.29077900  0.70922100  0.34460200  1
  Se  Se12  1  0.68747800  0.31252200  0.12840000  1
  Se  Se13  1  0.31252200  0.68747800  0.62840000  1
  Se  Se14  1  0.49522800  0.50477200  0.23373400  1
  Se  Se15  1  0.50477200  0.49522800  0.73373400  1
  Se  Se16  1  0.94828700  0.05171300  0.44918200  1
  Se  Se17  1  0.05171300  0.94828700  0.94918200  1
