# generated using pymatgen
data_V5Si3
_symmetry_space_group_name_H-M   'P 1'
_cell_length_a   7.04540586
_cell_length_b   7.04540586
_cell_length_c   7.04540586
_cell_angle_alpha   127.91302548
_cell_angle_beta   127.91302548
_cell_angle_gamma   76.76596575
_symmetry_Int_Tables_number   1
_chemical_formula_structural   V5Si3
_chemical_formula_sum   'V10 Si6'
_cell_volume   211.37847558
_cell_formula_units_Z   2
loop_
 _symmetry_equiv_pos_site_id
 _symmetry_equiv_pos_as_xyz
  1  'x, y, z'
loop_
 _atom_site_type_symbol
 _atom_site_label
 _atom_site_symmetry_multiplicity
 _atom_site_fract_x
 _atom_site_fract_y
 _atom_site_fract_z
 _atom_site_occupancy
  V  V0  1  0.00000000  0.00000000  0.00000000  1
  V  V1  1  0.50000000  0.50000000  0.00000000  1
  V  V2  1  0.01399300  0.51399300  0.83120400  1
  V  V3  1  0.68278900  0.18278900  0.16879600  1
  V  V4  1  0.51399300  0.68278900  0.50000000  1
  V  V5  1  0.18278900  0.01399300  0.50000000  1
  V  V6  1  0.98600700  0.48600700  0.16879600  1
  V  V7  1  0.31721100  0.81721100  0.83120400  1
  V  V8  1  0.48600700  0.31721100  0.50000000  1
  V  V9  1  0.81721100  0.98600700  0.50000000  1
  Si  Si10  1  0.75000000  0.75000000  0.00000000  1
  Si  Si11  1  0.25000000  0.25000000  0.00000000  1
  Si  Si12  1  0.63282600  0.13282600  0.76565100  1
  Si  Si13  1  0.36717400  0.86717400  0.23434900  1
  Si  Si14  1  0.13282600  0.36717400  0.50000000  1
  Si  Si15  1  0.86717400  0.63282600  0.50000000  1
