# generated using pymatgen
data_H2
_symmetry_space_group_name_H-M   'P 1'
_cell_length_a   4.69733700
_cell_length_b   4.95513100
_cell_length_c   5.47736500
_cell_angle_alpha   90.00000000
_cell_angle_beta   90.00000000
_cell_angle_gamma   90.00000000
_symmetry_Int_Tables_number   1
_chemical_formula_structural   H2
_chemical_formula_sum   H16
_cell_volume   127.49071057
_cell_formula_units_Z   8
loop_
 _symmetry_equiv_pos_site_id
 _symmetry_equiv_pos_as_xyz
  1  'x, y, z'
loop_
 _atom_site_type_symbol
 _atom_site_label
 _atom_site_symmetry_multiplicity
 _atom_site_fract_x
 _atom_site_fract_y
 _atom_site_fract_z
 _atom_site_occupancy
  H  H0  1  0.51555000  0.37663500  0.75000000  1
  H  H1  1  0.98445000  0.87663500  0.75000000  1
  H  H2  1  0.48445000  0.62336500  0.25000000  1
  H  H3  1  0.01555000  0.12336500  0.25000000  1
  H  H4  1  0.45721700  0.51621100  0.75000000  1
  H  H5  1  0.04278300  0.01621100  0.75000000  1
  H  H6  1  0.54278300  0.48378900  0.25000000  1
  H  H7  1  0.95721700  0.98378900  0.25000000  1
  H  H8  1  0.94681600  0.47123800  0.95646900  1
  H  H9  1  0.55318400  0.97123800  0.54353100  1
  H  H10  1  0.05318400  0.52876200  0.45646900  1
  H  H11  1  0.44681600  0.02876200  0.04353100  1
  H  H12  1  0.05318400  0.52876200  0.04353100  1
  H  H13  1  0.44681600  0.02876200  0.45646900  1
  H  H14  1  0.94681600  0.47123800  0.54353100  1
  H  H15  1  0.55318400  0.97123800  0.95646900  1
