# generated using pymatgen
data_Yb5Si3
_symmetry_space_group_name_H-M   'P 1'
_cell_length_a   6.46869600
_cell_length_b   8.80917669
_cell_length_c   8.80500240
_cell_angle_alpha   120.01569177
_cell_angle_beta   90.00000000
_cell_angle_gamma   90.00000000
_symmetry_Int_Tables_number   1
_chemical_formula_structural   Yb5Si3
_chemical_formula_sum   'Yb10 Si6'
_cell_volume   434.45368013
_cell_formula_units_Z   2
loop_
 _symmetry_equiv_pos_site_id
 _symmetry_equiv_pos_as_xyz
  1  'x, y, z'
loop_
 _atom_site_type_symbol
 _atom_site_label
 _atom_site_symmetry_multiplicity
 _atom_site_fract_x
 _atom_site_fract_y
 _atom_site_fract_z
 _atom_site_occupancy
  Yb  Yb0  1  0.50000000  0.33331800  0.66663600  1
  Yb  Yb1  1  0.50000000  0.66668200  0.33336400  1
  Yb  Yb2  1  0.00000000  0.66668200  0.33336400  1
  Yb  Yb3  1  0.00000000  0.33331800  0.66663600  1
  Yb  Yb4  1  0.75000600  0.27308500  0.00000000  1
  Yb  Yb5  1  0.74999600  0.72551900  0.72625600  1
  Yb  Yb6  1  0.74999600  0.99926300  0.27374400  1
  Yb  Yb7  1  0.25000600  0.72691500  0.00000000  1
  Yb  Yb8  1  0.24999600  0.27448100  0.27374400  1
  Yb  Yb9  1  0.24999600  0.00073700  0.72625600  1
  Si  Si10  1  0.75000000  0.61224600  0.00000000  1
  Si  Si11  1  0.75000100  0.38653100  0.38665300  1
  Si  Si12  1  0.75000100  0.99987900  0.61334700  1
  Si  Si13  1  0.25000000  0.38775400  0.00000000  1
  Si  Si14  1  0.25000100  0.61346900  0.61334700  1
  Si  Si15  1  0.25000100  0.00012100  0.38665300  1
