# generated using pymatgen
data_Sr3UO6
_symmetry_space_group_name_H-M   'P 1'
_cell_length_a   6.05893718
_cell_length_b   6.26947800
_cell_length_c   8.70635523
_cell_angle_alpha   90.00000000
_cell_angle_beta   90.12459180
_cell_angle_gamma   90.00000000
_symmetry_Int_Tables_number   1
_chemical_formula_structural   Sr3UO6
_chemical_formula_sum   'Sr6 U2 O12'
_cell_volume   330.72207828
_cell_formula_units_Z   2
loop_
 _symmetry_equiv_pos_site_id
 _symmetry_equiv_pos_as_xyz
  1  'x, y, z'
loop_
 _atom_site_type_symbol
 _atom_site_label
 _atom_site_symmetry_multiplicity
 _atom_site_fract_x
 _atom_site_fract_y
 _atom_site_fract_z
 _atom_site_occupancy
  Sr  Sr0  1  0.75123000  0.47797100  0.25054700  1
  Sr  Sr1  1  0.24877000  0.97797100  0.74945300  1
  Sr  Sr2  1  0.74274100  0.92896800  0.00442000  1
  Sr  Sr3  1  0.25725900  0.42896800  0.99558000  1
  Sr  Sr4  1  0.23917400  0.52691700  0.50572400  1
  Sr  Sr5  1  0.76082600  0.02691700  0.49427600  1
  U  U6  1  0.74581100  0.47753700  0.75025300  1
  U  U7  1  0.25418900  0.97753700  0.24974700  1
  O  O8  1  0.36522800  0.92063400  0.47632500  1
  O  O9  1  0.63477200  0.42063400  0.52367500  1
  O  O10  1  0.45821300  0.64578700  0.79762600  1
  O  O11  1  0.54178700  0.14578700  0.20237400  1
  O  O12  1  0.91043300  0.75916700  0.68268000  1
  O  O13  1  0.08956700  0.25916700  0.31732000  1
  O  O14  1  0.86002400  0.53706100  0.97538900  1
  O  O15  1  0.13997600  0.03706100  0.02461100  1
  O  O16  1  0.97036000  0.80473900  0.30185500  1
  O  O17  1  0.02964000  0.30473900  0.69814500  1
  O  O18  1  0.42035000  0.69832000  0.17920700  1
  O  O19  1  0.57965000  0.19832000  0.82079300  1
