# generated using pymatgen
data_Cu3Mo2(HO5)2
_symmetry_space_group_name_H-M   'P 1'
_cell_length_a   5.86853367
_cell_length_b   5.73694314
_cell_length_c   7.85002799
_cell_angle_alpha   103.47643981
_cell_angle_beta   111.61979821
_cell_angle_gamma   94.00059654
_symmetry_Int_Tables_number   1
_chemical_formula_structural   Cu3Mo2(HO5)2
_chemical_formula_sum   'Cu3 Mo2 H2 O10'
_cell_volume   235.36524256
_cell_formula_units_Z   1
loop_
 _symmetry_equiv_pos_site_id
 _symmetry_equiv_pos_as_xyz
  1  'x, y, z'
loop_
 _atom_site_type_symbol
 _atom_site_label
 _atom_site_symmetry_multiplicity
 _atom_site_fract_x
 _atom_site_fract_y
 _atom_site_fract_z
 _atom_site_occupancy
  Cu  Cu0  1  0.24804600  0.08530800  0.13800600  1
  Cu  Cu1  1  0.75195400  0.91469200  0.86199400  1
  Cu  Cu2  1  0.00000000  0.50000000  0.00000000  1
  Mo  Mo3  1  0.67774000  0.70749000  0.30495800  1
  Mo  Mo4  1  0.32226000  0.29251000  0.69504200  1
  H  H5  1  0.94762800  0.70567500  0.66304200  1
  H  H6  1  0.05237200  0.29432500  0.33695800  1
  O  O7  1  0.79125900  0.73403400  0.57015200  1
  O  O8  1  0.20874100  0.26596600  0.42984800  1
  O  O9  1  0.92853400  0.67748600  0.23290300  1
  O  O10  1  0.07146600  0.32251400  0.76709700  1
  O  O11  1  0.55159500  0.97287000  0.26143500  1
  O  O12  1  0.44840500  0.02713000  0.73856500  1
  O  O13  1  0.44217900  0.44735700  0.17754400  1
  O  O14  1  0.55782100  0.55264300  0.82245600  1
  O  O15  1  0.94345900  0.20719800  0.05754700  1
  O  O16  1  0.05654100  0.79280200  0.94245300  1
