# generated using pymatgen
data_MgV2(CuO6)2
_symmetry_space_group_name_H-M   'P 1'
_cell_length_a   5.53622900
_cell_length_b   6.60179070
_cell_length_c   7.50958555
_cell_angle_alpha   106.54384411
_cell_angle_beta   90.00000000
_cell_angle_gamma   114.79024047
_symmetry_Int_Tables_number   1
_chemical_formula_structural   MgV2(CuO6)2
_chemical_formula_sum   'Mg1 V2 Cu2 O12'
_cell_volume   236.60157900
_cell_formula_units_Z   1
loop_
 _symmetry_equiv_pos_site_id
 _symmetry_equiv_pos_as_xyz
  1  'x, y, z'
loop_
 _atom_site_type_symbol
 _atom_site_label
 _atom_site_symmetry_multiplicity
 _atom_site_fract_x
 _atom_site_fract_y
 _atom_site_fract_z
 _atom_site_occupancy
  Mg  Mg0  1  0.00000000  0.00000000  0.00000000  1
  V  V1  1  0.49808000  0.99616100  0.26165400  1
  V  V2  1  0.50192000  0.00383900  0.73834600  1
  Cu  Cu3  1  0.00000000  0.50000000  0.00000000  1
  Cu  Cu4  1  0.50000000  0.50000000  0.00000000  1
  O  O5  1  0.50000000  0.00000000  0.50000000  1
  O  O6  1  0.85294200  0.70588400  0.09330400  1
  O  O7  1  0.14705800  0.29411600  0.90669600  1
  O  O8  1  0.83197000  0.14445600  0.24051300  1
  O  O9  1  0.31248600  0.14445600  0.24051300  1
  O  O10  1  0.16803000  0.85554400  0.75948700  1
  O  O11  1  0.68751400  0.85554400  0.75948700  1
  O  O12  1  0.66924100  0.33848300  0.84450300  1
  O  O13  1  0.33075900  0.66151700  0.15549700  1
  O  O14  1  0.50000000  0.00000000  0.00000000  1
  O  O15  1  0.84418000  0.68836100  0.43830000  1
  O  O16  1  0.15582000  0.31163900  0.56170000  1
