# generated using pymatgen
data_Hg(OF)2
_symmetry_space_group_name_H-M   'P 1'
_cell_length_a   5.28019100
_cell_length_b   5.43479300
_cell_length_c   9.02502100
_cell_angle_alpha   90.00000000
_cell_angle_beta   90.00000000
_cell_angle_gamma   90.00000000
_symmetry_Int_Tables_number   1
_chemical_formula_structural   Hg(OF)2
_chemical_formula_sum   'Hg4 O8 F8'
_cell_volume   258.98872703
_cell_formula_units_Z   4
loop_
 _symmetry_equiv_pos_site_id
 _symmetry_equiv_pos_as_xyz
  1  'x, y, z'
loop_
 _atom_site_type_symbol
 _atom_site_label
 _atom_site_symmetry_multiplicity
 _atom_site_fract_x
 _atom_site_fract_y
 _atom_site_fract_z
 _atom_site_occupancy
  Hg  Hg0  1  0.75000000  0.26243200  0.50000000  1
  Hg  Hg1  1  0.25000000  0.23756800  0.00000000  1
  Hg  Hg2  1  0.25000000  0.73756800  0.50000000  1
  Hg  Hg3  1  0.75000000  0.76243200  0.00000000  1
  O  O4  1  0.40755000  0.39170400  0.63413700  1
  O  O5  1  0.90755000  0.10829600  0.86586300  1
  O  O6  1  0.59245000  0.10829600  0.13413700  1
  O  O7  1  0.09245000  0.39170400  0.36586300  1
  O  O8  1  0.59245000  0.60829600  0.36586300  1
  O  O9  1  0.09245000  0.89170400  0.13413700  1
  O  O10  1  0.40755000  0.89170400  0.86586300  1
  O  O11  1  0.90755000  0.60829600  0.63413700  1
  F  F12  1  0.10563800  0.10609500  0.63492200  1
  F  F13  1  0.60563800  0.39390500  0.86507800  1
  F  F14  1  0.89436200  0.39390500  0.13492200  1
  F  F15  1  0.39436200  0.10609500  0.36507800  1
  F  F16  1  0.89436200  0.89390500  0.36507800  1
  F  F17  1  0.39436200  0.60609500  0.13492200  1
  F  F18  1  0.10563800  0.60609500  0.86507800  1
  F  F19  1  0.60563800  0.89390500  0.63492200  1
