# generated using pymatgen
data_TbMoC2
_symmetry_space_group_name_H-M   'P 1'
_cell_length_a   3.41601100
_cell_length_b   5.71835400
_cell_length_c   10.81560700
_cell_angle_alpha   90.00000000
_cell_angle_beta   90.00000000
_cell_angle_gamma   90.00000000
_symmetry_Int_Tables_number   1
_chemical_formula_structural   TbMoC2
_chemical_formula_sum   'Tb4 Mo4 C8'
_cell_volume   211.27163631
_cell_formula_units_Z   4
loop_
 _symmetry_equiv_pos_site_id
 _symmetry_equiv_pos_as_xyz
  1  'x, y, z'
loop_
 _atom_site_type_symbol
 _atom_site_label
 _atom_site_symmetry_multiplicity
 _atom_site_fract_x
 _atom_site_fract_y
 _atom_site_fract_z
 _atom_site_occupancy
  Tb  Tb0  1  0.25000000  0.08552600  0.86257900  1
  Tb  Tb1  1  0.25000000  0.58552600  0.63742100  1
  Tb  Tb2  1  0.75000000  0.91447400  0.13742100  1
  Tb  Tb3  1  0.75000000  0.41447400  0.36257900  1
  Mo  Mo4  1  0.25000000  0.40354000  0.10925600  1
  Mo  Mo5  1  0.25000000  0.90354000  0.39074400  1
  Mo  Mo6  1  0.75000000  0.59646000  0.89074400  1
  Mo  Mo7  1  0.75000000  0.09646000  0.60925600  1
  C  C8  1  0.25000000  0.15940100  0.24714100  1
  C  C9  1  0.25000000  0.65940100  0.25285900  1
  C  C10  1  0.75000000  0.84059900  0.75285900  1
  C  C11  1  0.75000000  0.34059900  0.74714100  1
  C  C12  1  0.25000000  0.72113300  0.98331100  1
  C  C13  1  0.25000000  0.22113300  0.51668900  1
  C  C14  1  0.75000000  0.27886700  0.01668900  1
  C  C15  1  0.75000000  0.77886700  0.48331100  1
