# generated using pymatgen
data_Zn(CO3)2
_symmetry_space_group_name_H-M   'P 1'
_cell_length_a   5.41015600
_cell_length_b   5.81281388
_cell_length_c   8.21663546
_cell_angle_alpha   83.70058528
_cell_angle_beta   70.77858062
_cell_angle_gamma   62.26617698
_symmetry_Int_Tables_number   1
_chemical_formula_structural   Zn(CO3)2
_chemical_formula_sum   'Zn2 C4 O12'
_cell_volume   215.67106587
_cell_formula_units_Z   2
loop_
 _symmetry_equiv_pos_site_id
 _symmetry_equiv_pos_as_xyz
  1  'x, y, z'
loop_
 _atom_site_type_symbol
 _atom_site_label
 _atom_site_symmetry_multiplicity
 _atom_site_fract_x
 _atom_site_fract_y
 _atom_site_fract_z
 _atom_site_occupancy
  Zn  Zn0  1  0.08651100  0.75000000  0.75000000  1
  Zn  Zn1  1  0.91348900  0.25000000  0.25000000  1
  C  C2  1  0.53647000  0.75140200  0.85184900  1
  C  C3  1  0.63972000  0.74859800  0.64815100  1
  C  C4  1  0.46353000  0.24859800  0.14815100  1
  C  C5  1  0.36028000  0.25140200  0.35184900  1
  O  O6  1  0.71038500  0.74448800  0.92511800  1
  O  O7  1  0.87999100  0.75551200  0.57488200  1
  O  O8  1  0.28961500  0.25551200  0.07488200  1
  O  O9  1  0.12000900  0.24448800  0.42511800  1
  O  O10  1  0.28649300  0.76168100  0.92614600  1
  O  O11  1  0.47431900  0.73831900  0.57385400  1
  O  O12  1  0.71350700  0.23831900  0.07385400  1
  O  O13  1  0.52568100  0.26168100  0.42614600  1
  O  O14  1  0.28388400  0.34878500  0.74144900  1
  O  O15  1  0.87411700  0.15121500  0.75855100  1
  O  O16  1  0.71611600  0.65121500  0.25855100  1
  O  O17  1  0.12588300  0.84878500  0.24144900  1
