# generated using pymatgen
data_SnCl4O5
_symmetry_space_group_name_H-M   'P 1'
_cell_length_a   7.53608683
_cell_length_b   7.53608683
_cell_length_c   9.17582760
_cell_angle_alpha   76.96061276
_cell_angle_beta   76.96061276
_cell_angle_gamma   74.63161621
_symmetry_Int_Tables_number   1
_chemical_formula_structural   SnCl4O5
_chemical_formula_sum   'Sn2 Cl8 O10'
_cell_volume   481.84072546
_cell_formula_units_Z   2
loop_
 _symmetry_equiv_pos_site_id
 _symmetry_equiv_pos_as_xyz
  1  'x, y, z'
loop_
 _atom_site_type_symbol
 _atom_site_label
 _atom_site_symmetry_multiplicity
 _atom_site_fract_x
 _atom_site_fract_y
 _atom_site_fract_z
 _atom_site_occupancy
  Sn  Sn0  1  0.23623100  0.76376900  0.75000000  1
  Sn  Sn1  1  0.76376900  0.23623100  0.25000000  1
  Cl  Cl2  1  0.14798400  0.53885300  0.63232700  1
  Cl  Cl3  1  0.46114700  0.85201600  0.86767300  1
  Cl  Cl4  1  0.85201600  0.46114700  0.36767300  1
  Cl  Cl5  1  0.53885300  0.14798400  0.13232700  1
  Cl  Cl6  1  0.96748300  0.79622200  0.93981600  1
  Cl  Cl7  1  0.20377800  0.03251700  0.56018400  1
  Cl  Cl8  1  0.03251700  0.20377800  0.06018400  1
  Cl  Cl9  1  0.79622200  0.96748300  0.43981600  1
  O  O10  1  0.32536400  0.47078900  0.84317700  1
  O  O11  1  0.52921100  0.67463600  0.65682300  1
  O  O12  1  0.67463600  0.52921100  0.15682300  1
  O  O13  1  0.47078900  0.32536400  0.34317700  1
  O  O14  1  0.28062700  0.56513700  0.20619500  1
  O  O15  1  0.43486300  0.71937300  0.29380500  1
  O  O16  1  0.71937300  0.43486300  0.79380500  1
  O  O17  1  0.56513700  0.28062700  0.70619500  1
  O  O18  1  0.28568100  0.71431900  0.25000000  1
  O  O19  1  0.71431900  0.28568100  0.75000000  1
