# generated using pymatgen
data_TlO2
_symmetry_space_group_name_H-M   'P 1'
_cell_length_a   3.48746900
_cell_length_b   4.84192200
_cell_length_c   17.49085100
_cell_angle_alpha   90.00000000
_cell_angle_beta   90.00000000
_cell_angle_gamma   90.00000000
_symmetry_Int_Tables_number   1
_chemical_formula_structural   TlO2
_chemical_formula_sum   'Tl6 O12'
_cell_volume   295.35143482
_cell_formula_units_Z   6
loop_
 _symmetry_equiv_pos_site_id
 _symmetry_equiv_pos_as_xyz
  1  'x, y, z'
loop_
 _atom_site_type_symbol
 _atom_site_label
 _atom_site_symmetry_multiplicity
 _atom_site_fract_x
 _atom_site_fract_y
 _atom_site_fract_z
 _atom_site_occupancy
  Tl  Tl0  1  0.50000000  0.50000000  0.50000000  1
  Tl  Tl1  1  0.00000000  0.00000000  0.00000000  1
  Tl  Tl2  1  0.50000000  0.05753100  0.17427600  1
  Tl  Tl3  1  0.50000000  0.94246900  0.82572400  1
  Tl  Tl4  1  0.00000000  0.55753100  0.32572400  1
  Tl  Tl5  1  0.00000000  0.44246900  0.67427600  1
  O  O6  1  0.50000000  0.65467000  0.72531500  1
  O  O7  1  0.50000000  0.34533000  0.27468500  1
  O  O8  1  0.00000000  0.15467000  0.77468500  1
  O  O9  1  0.00000000  0.84533000  0.22531500  1
  O  O10  1  0.50000000  0.75208700  0.38727300  1
  O  O11  1  0.50000000  0.24791300  0.61272700  1
  O  O12  1  0.00000000  0.25208700  0.11272700  1
  O  O13  1  0.00000000  0.74791300  0.88727300  1
  O  O14  1  0.50000000  0.80473500  0.05901800  1
  O  O15  1  0.50000000  0.19526500  0.94098200  1
  O  O16  1  0.00000000  0.30473500  0.44098200  1
  O  O17  1  0.00000000  0.69526500  0.55901800  1
