# generated using pymatgen
data_RuN2Cl4O
_symmetry_space_group_name_H-M   'P 1'
_cell_length_a   7.31403500
_cell_length_b   9.13753782
_cell_length_c   8.15871333
_cell_angle_alpha   95.49934854
_cell_angle_beta   116.63046925
_cell_angle_gamma   90.00000000
_symmetry_Int_Tables_number   1
_chemical_formula_structural   RuN2Cl4O
_chemical_formula_sum   'Ru2 N4 Cl8 O2'
_cell_volume   484.61224611
_cell_formula_units_Z   2
loop_
 _symmetry_equiv_pos_site_id
 _symmetry_equiv_pos_as_xyz
  1  'x, y, z'
loop_
 _atom_site_type_symbol
 _atom_site_label
 _atom_site_symmetry_multiplicity
 _atom_site_fract_x
 _atom_site_fract_y
 _atom_site_fract_z
 _atom_site_occupancy
  Ru  Ru0  1  0.10126700  0.90627800  0.20253400  1
  Ru  Ru1  1  0.89873300  0.09372200  0.79746600  1
  N  N2  1  0.00000000  0.00000000  0.00000000  1
  N  N3  1  0.50000000  0.00000000  0.00000000  1
  N  N4  1  0.15653000  0.42957000  0.31306100  1
  N  N5  1  0.84347000  0.57043000  0.68693900  1
  Cl  Cl6  1  0.97774300  0.32954200  0.34054600  1
  Cl  Cl7  1  0.36280300  0.32954200  0.34054600  1
  Cl  Cl8  1  0.02225700  0.67045800  0.65945400  1
  Cl  Cl9  1  0.63719700  0.67045800  0.65945400  1
  Cl  Cl10  1  0.84696700  0.74746800  0.15901500  1
  Cl  Cl11  1  0.31204800  0.74746800  0.15901500  1
  Cl  Cl12  1  0.15303300  0.25253200  0.84098500  1
  Cl  Cl13  1  0.68795200  0.25253200  0.84098500  1
  O  O14  1  0.20595300  0.00686000  0.41190500  1
  O  O15  1  0.79404700  0.99314000  0.58809500  1
