# generated using pymatgen
data_Fe3C
_symmetry_space_group_name_H-M   'P 1'
_cell_length_a   11.87367900
_cell_length_b   14.26661600
_cell_length_c   20.52285800
_cell_angle_alpha   90.00000000
_cell_angle_beta   90.00000000
_cell_angle_gamma   90.00000000
_symmetry_Int_Tables_number   1
_chemical_formula_structural   Fe3C
_chemical_formula_sum   'Fe12 C4'
_cell_volume   3476.51506703
_cell_formula_units_Z   4
loop_
 _symmetry_equiv_pos_site_id
 _symmetry_equiv_pos_as_xyz
  1  'x, y, z'
loop_
 _atom_site_type_symbol
 _atom_site_label
 _atom_site_symmetry_multiplicity
 _atom_site_fract_x
 _atom_site_fract_y
 _atom_site_fract_z
 _atom_site_occupancy
  Fe  Fe0  1  0.16152700  0.66905000  0.06490300  1
  Fe  Fe1  1  0.33847300  0.16905000  0.43509700  1
  Fe  Fe2  1  0.83847300  0.33095000  0.56490300  1
  Fe  Fe3  1  0.66152700  0.83095000  0.93509700  1
  Fe  Fe4  1  0.83847300  0.33095000  0.93509700  1
  Fe  Fe5  1  0.66152700  0.83095000  0.56490300  1
  Fe  Fe6  1  0.16152700  0.66905000  0.43509700  1
  Fe  Fe7  1  0.33847300  0.16905000  0.06490300  1
  Fe  Fe8  1  0.65421000  0.52569100  0.25000000  1
  Fe  Fe9  1  0.84579000  0.02569100  0.25000000  1
  Fe  Fe10  1  0.34579000  0.47430900  0.75000000  1
  Fe  Fe11  1  0.15421000  0.97430900  0.75000000  1
  C  C12  1  0.52460800  0.50453200  0.25000000  1
  C  C13  1  0.97539200  0.00453200  0.25000000  1
  C  C14  1  0.47539200  0.49546800  0.75000000  1
  C  C15  1  0.02460800  0.99546800  0.75000000  1
