# generated using pymatgen
data_ThCrSe3
_symmetry_space_group_name_H-M   'P 1'
_cell_length_a   6.51892700
_cell_length_b   7.75356900
_cell_length_c   9.37690900
_cell_angle_alpha   90.00000000
_cell_angle_beta   90.00000000
_cell_angle_gamma   90.00000000
_symmetry_Int_Tables_number   1
_chemical_formula_structural   ThCrSe3
_chemical_formula_sum   'Th4 Cr4 Se12'
_cell_volume   473.95539938
_cell_formula_units_Z   4
loop_
 _symmetry_equiv_pos_site_id
 _symmetry_equiv_pos_as_xyz
  1  'x, y, z'
loop_
 _atom_site_type_symbol
 _atom_site_label
 _atom_site_symmetry_multiplicity
 _atom_site_fract_x
 _atom_site_fract_y
 _atom_site_fract_z
 _atom_site_occupancy
  Th  Th0  1  0.44343000  0.87898300  0.25000000  1
  Th  Th1  1  0.05657000  0.37898300  0.25000000  1
  Th  Th2  1  0.55657000  0.12101700  0.75000000  1
  Th  Th3  1  0.94343000  0.62101700  0.75000000  1
  Cr  Cr4  1  0.50000000  0.50000000  0.00000000  1
  Cr  Cr5  1  0.00000000  0.00000000  0.50000000  1
  Cr  Cr6  1  0.50000000  0.50000000  0.50000000  1
  Cr  Cr7  1  0.00000000  0.00000000  0.00000000  1
  Se  Se8  1  0.64126500  0.54078500  0.25000000  1
  Se  Se9  1  0.85873500  0.04078500  0.25000000  1
  Se  Se10  1  0.35873500  0.45921500  0.75000000  1
  Se  Se11  1  0.14126500  0.95921500  0.75000000  1
  Se  Se12  1  0.66757900  0.82772400  0.55611900  1
  Se  Se13  1  0.83242100  0.32772400  0.94388100  1
  Se  Se14  1  0.33242100  0.17227600  0.05611900  1
  Se  Se15  1  0.16757900  0.67227600  0.44388100  1
  Se  Se16  1  0.33242100  0.17227600  0.44388100  1
  Se  Se17  1  0.16757900  0.67227600  0.05611900  1
  Se  Se18  1  0.66757900  0.82772400  0.94388100  1
  Se  Se19  1  0.83242100  0.32772400  0.55611900  1
