# generated using pymatgen
data_Na2Pd(C2O5)2
_symmetry_space_group_name_H-M   'P 1'
_cell_length_a   4.06771400
_cell_length_b   7.26461617
_cell_length_c   9.78905568
_cell_angle_alpha   72.67564362
_cell_angle_beta   87.17306762
_cell_angle_gamma   75.24165187
_symmetry_Int_Tables_number   1
_chemical_formula_structural   Na2Pd(C2O5)2
_chemical_formula_sum   'Na2 Pd1 C4 O10'
_cell_volume   266.92658141
_cell_formula_units_Z   1
loop_
 _symmetry_equiv_pos_site_id
 _symmetry_equiv_pos_as_xyz
  1  'x, y, z'
loop_
 _atom_site_type_symbol
 _atom_site_label
 _atom_site_symmetry_multiplicity
 _atom_site_fract_x
 _atom_site_fract_y
 _atom_site_fract_z
 _atom_site_occupancy
  Na  Na0  1  0.37993500  0.29941200  0.41938000  1
  Na  Na1  1  0.62006500  0.70058800  0.58062000  1
  Pd  Pd2  1  0.00000000  0.00000000  0.00000000  1
  C  C3  1  0.74062200  0.02522400  0.73429000  1
  C  C4  1  0.25937800  0.97477600  0.26571000  1
  C  C5  1  0.83293500  0.22666500  0.71511400  1
  C  C6  1  0.16706500  0.77333500  0.28488600  1
  O  O7  1  0.13156300  0.59989200  0.72389800  1
  O  O8  1  0.86843700  0.40010800  0.27610200  1
  O  O9  1  0.82166200  0.89404500  0.85768800  1
  O  O10  1  0.17833800  0.10595500  0.14231200  1
  O  O11  1  0.97159800  0.24087300  0.82646800  1
  O  O12  1  0.02840200  0.75912700  0.17353200  1
  O  O13  1  0.60241700  0.00218700  0.63251100  1
  O  O14  1  0.39758300  0.99781300  0.36748900  1
  O  O15  1  0.77753700  0.35601100  0.59713900  1
  O  O16  1  0.22246300  0.64398900  0.40286100  1
