# generated using pymatgen
data_V5Si2B
_symmetry_space_group_name_H-M   'P 1'
_cell_length_a   6.88814706
_cell_length_b   6.88814706
_cell_length_c   6.88814706
_cell_angle_alpha   127.79439975
_cell_angle_beta   127.79439975
_cell_angle_gamma   76.95832975
_symmetry_Int_Tables_number   1
_chemical_formula_structural   V5Si2B
_chemical_formula_sum   'V10 Si4 B2'
_cell_volume   198.11122022
_cell_formula_units_Z   2
loop_
 _symmetry_equiv_pos_site_id
 _symmetry_equiv_pos_as_xyz
  1  'x, y, z'
loop_
 _atom_site_type_symbol
 _atom_site_label
 _atom_site_symmetry_multiplicity
 _atom_site_fract_x
 _atom_site_fract_y
 _atom_site_fract_z
 _atom_site_occupancy
  V  V0  1  0.00000000  0.00000000  0.00000000  1
  V  V1  1  0.50000000  0.50000000  0.00000000  1
  V  V2  1  0.00914500  0.50914500  0.83568100  1
  V  V3  1  0.67346400  0.17346400  0.16431900  1
  V  V4  1  0.50914500  0.67346400  0.50000000  1
  V  V5  1  0.17346400  0.00914500  0.50000000  1
  V  V6  1  0.99085500  0.49085500  0.16431900  1
  V  V7  1  0.32653600  0.82653600  0.83568100  1
  V  V8  1  0.49085500  0.32653600  0.50000000  1
  V  V9  1  0.82653600  0.99085500  0.50000000  1
  Si  Si10  1  0.63332600  0.13332600  0.76665200  1
  Si  Si11  1  0.36667400  0.86667400  0.23334800  1
  Si  Si12  1  0.13332600  0.36667400  0.50000000  1
  Si  Si13  1  0.86667400  0.63332600  0.50000000  1
  B  B14  1  0.75000000  0.75000000  0.00000000  1
  B  B15  1  0.25000000  0.25000000  0.00000000  1
