# generated using pymatgen
data_AgCS(OF)3
_symmetry_space_group_name_H-M   'P 1'
_cell_length_a   5.47290409
_cell_length_b   5.47290400
_cell_length_c   11.55220863
_cell_angle_alpha   76.29771130
_cell_angle_beta   76.29771270
_cell_angle_gamma   60.00000054
_symmetry_Int_Tables_number   1
_chemical_formula_structural   AgCS(OF)3
_chemical_formula_sum   'Ag2 C2 S2 O6 F6'
_cell_volume   288.23438781
_cell_formula_units_Z   2
loop_
 _symmetry_equiv_pos_site_id
 _symmetry_equiv_pos_as_xyz
  1  'x, y, z'
loop_
 _atom_site_type_symbol
 _atom_site_label
 _atom_site_symmetry_multiplicity
 _atom_site_fract_x
 _atom_site_fract_y
 _atom_site_fract_z
 _atom_site_occupancy
  Ag  Ag0  1  0.66533100  0.66533100  0.00400600  1
  Ag  Ag1  1  0.33466900  0.33466900  0.99599400  1
  C  C2  1  0.11198700  0.11198700  0.66404000  1
  C  C3  1  0.88801300  0.88801300  0.33596000  1
  S  S4  1  0.05541600  0.05541600  0.83375100  1
  S  S5  1  0.94458400  0.94458400  0.16624900  1
  O  O6  1  0.30625600  0.78586100  0.86664000  1
  O  O7  1  0.78586100  0.04124200  0.86664000  1
  O  O8  1  0.04124200  0.30625600  0.86664000  1
  O  O9  1  0.69374400  0.21413900  0.13336000  1
  O  O10  1  0.21413900  0.95875800  0.13336000  1
  O  O11  1  0.95875800  0.69374400  0.13336000  1
  F  F12  1  0.88784400  0.35143700  0.62327600  1
  F  F13  1  0.35143700  0.13744300  0.62327600  1
  F  F14  1  0.13744300  0.88784400  0.62327600  1
  F  F15  1  0.11215600  0.64856300  0.37672500  1
  F  F16  1  0.64856300  0.86255700  0.37672500  1
  F  F17  1  0.86255700  0.11215600  0.37672500  1
