# generated using pymatgen
data_CaCO3
_symmetry_space_group_name_H-M   'P 1'
_cell_length_a   6.26283311
_cell_length_b   6.50302908
_cell_length_c   6.49429440
_cell_angle_alpha   93.05720852
_cell_angle_beta   105.91557045
_cell_angle_gamma   106.76730495
_symmetry_Int_Tables_number   1
_chemical_formula_structural   CaCO3
_chemical_formula_sum   'Ca4 C4 O12'
_cell_volume   241.01004015
_cell_formula_units_Z   4
loop_
 _symmetry_equiv_pos_site_id
 _symmetry_equiv_pos_as_xyz
  1  'x, y, z'
loop_
 _atom_site_type_symbol
 _atom_site_label
 _atom_site_symmetry_multiplicity
 _atom_site_fract_x
 _atom_site_fract_y
 _atom_site_fract_z
 _atom_site_occupancy
  Ca  Ca0  1  0.95307200  0.22177700  0.30965300  1
  Ca  Ca1  1  0.04692800  0.77822300  0.69034700  1
  Ca  Ca2  1  0.45715600  0.66533100  0.23567900  1
  Ca  Ca3  1  0.54284400  0.33466900  0.76432100  1
  C  C4  1  0.51125800  0.77952200  0.74214200  1
  C  C5  1  0.48874200  0.22047800  0.25785800  1
  C  C6  1  0.98970600  0.26795200  0.77278100  1
  C  C7  1  0.01029400  0.73204800  0.22721900  1
  O  O8  1  0.58791300  0.36126500  0.14809600  1
  O  O9  1  0.41208700  0.63873500  0.85190400  1
  O  O10  1  0.88871600  0.83370100  0.30230300  1
  O  O11  1  0.11128400  0.16629900  0.69769700  1
  O  O12  1  0.87966500  0.37617500  0.64022900  1
  O  O13  1  0.12033500  0.62382500  0.35977100  1
  O  O14  1  0.46870900  0.96051600  0.73478700  1
  O  O15  1  0.53129100  0.03948400  0.26521300  1
  O  O16  1  0.63674200  0.72159800  0.63368000  1
  O  O17  1  0.36325800  0.27840200  0.36632000  1
  O  O18  1  0.02800700  0.73813600  0.03723100  1
  O  O19  1  0.97199300  0.26186400  0.96276900  1
