# generated using pymatgen
data_PrMn7O12
_symmetry_space_group_name_H-M   'P 1'
_cell_length_a   6.54894233
_cell_length_b   6.54894233
_cell_length_c   7.57611369
_cell_angle_alpha   54.92291620
_cell_angle_beta   54.92291620
_cell_angle_gamma   70.42794674
_symmetry_Int_Tables_number   1
_chemical_formula_structural   PrMn7O12
_chemical_formula_sum   'Pr1 Mn7 O12'
_cell_volume   217.61437298
_cell_formula_units_Z   1
loop_
 _symmetry_equiv_pos_site_id
 _symmetry_equiv_pos_as_xyz
  1  'x, y, z'
loop_
 _atom_site_type_symbol
 _atom_site_label
 _atom_site_symmetry_multiplicity
 _atom_site_fract_x
 _atom_site_fract_y
 _atom_site_fract_z
 _atom_site_occupancy
  Pr  Pr0  1  0.00000000  0.00000000  0.00000000  1
  Mn  Mn1  1  0.00000000  0.00000000  0.50000000  1
  Mn  Mn2  1  0.50000000  0.50000000  0.50000000  1
  Mn  Mn3  1  0.50000000  0.50000000  0.00000000  1
  Mn  Mn4  1  0.00000000  0.50000000  0.00000000  1
  Mn  Mn5  1  0.50000000  0.00000000  0.00000000  1
  Mn  Mn6  1  0.00000000  0.50000000  0.50000000  1
  Mn  Mn7  1  0.50000000  0.00000000  0.50000000  1
  O  O8  1  0.68511800  0.29974800  0.83364600  1
  O  O9  1  0.70025200  0.31488200  0.16635400  1
  O  O10  1  0.31488200  0.70025200  0.16635400  1
  O  O11  1  0.29974800  0.68511800  0.83364600  1
  O  O12  1  0.17132400  0.17132400  0.13331000  1
  O  O13  1  0.82867600  0.82867600  0.86669000  1
  O  O14  1  0.82229600  0.82229600  0.48681200  1
  O  O15  1  0.17770400  0.17770400  0.51318800  1
  O  O16  1  0.13294100  0.48258100  0.68785300  1
  O  O17  1  0.51741900  0.86705900  0.31214700  1
  O  O18  1  0.86705900  0.51741900  0.31214700  1
  O  O19  1  0.48258100  0.13294100  0.68785300  1
