# generated using pymatgen
data_K2Pt(N2O5)2
_symmetry_space_group_name_H-M   'P 1'
_cell_length_a   6.83844226
_cell_length_b   7.09887543
_cell_length_c   7.28532832
_cell_angle_alpha   118.90483994
_cell_angle_beta   102.50112114
_cell_angle_gamma   93.82945624
_symmetry_Int_Tables_number   1
_chemical_formula_structural   K2Pt(N2O5)2
_chemical_formula_sum   'K2 Pt1 N4 O10'
_cell_volume   296.12736772
_cell_formula_units_Z   1
loop_
 _symmetry_equiv_pos_site_id
 _symmetry_equiv_pos_as_xyz
  1  'x, y, z'
loop_
 _atom_site_type_symbol
 _atom_site_label
 _atom_site_symmetry_multiplicity
 _atom_site_fract_x
 _atom_site_fract_y
 _atom_site_fract_z
 _atom_site_occupancy
  K  K0  1  0.88747000  0.82159900  0.15958800  1
  K  K1  1  0.11253000  0.17840100  0.84041200  1
  Pt  Pt2  1  0.50000000  0.50000000  0.50000000  1
  N  N3  1  0.31503200  0.20000100  0.37646800  1
  N  N4  1  0.68496800  0.79999900  0.62353200  1
  N  N5  1  0.75480200  0.37173500  0.54282500  1
  N  N6  1  0.24519800  0.62826500  0.45717500  1
  O  O7  1  0.22502800  0.09024500  0.17595300  1
  O  O8  1  0.77497200  0.90975500  0.82404700  1
  O  O9  1  0.28631000  0.12997800  0.49800300  1
  O  O10  1  0.71369000  0.87002200  0.50199700  1
  O  O11  1  0.80378400  0.23816500  0.37993300  1
  O  O12  1  0.19621600  0.76183500  0.62006700  1
  O  O13  1  0.85907600  0.43005600  0.73254000  1
  O  O14  1  0.14092400  0.56994400  0.26746000  1
  O  O15  1  0.54824600  0.45671500  0.04795900  1
  O  O16  1  0.45175400  0.54328500  0.95204100  1
