# generated using pymatgen
data_AlC5NCl
_symmetry_space_group_name_H-M   'P 1'
_cell_length_a   7.12509458
_cell_length_b   6.13754445
_cell_length_c   8.36939000
_cell_angle_alpha   90.00000000
_cell_angle_beta   90.00000000
_cell_angle_gamma   122.54015478
_symmetry_Int_Tables_number   1
_chemical_formula_structural   AlC5NCl
_chemical_formula_sum   'Al2 C10 N2 Cl2'
_cell_volume   308.54195541
_cell_formula_units_Z   2
loop_
 _symmetry_equiv_pos_site_id
 _symmetry_equiv_pos_as_xyz
  1  'x, y, z'
loop_
 _atom_site_type_symbol
 _atom_site_label
 _atom_site_symmetry_multiplicity
 _atom_site_fract_x
 _atom_site_fract_y
 _atom_site_fract_z
 _atom_site_occupancy
  Al  Al0  1  0.69853200  0.80161200  0.75000000  1
  Al  Al1  1  0.30146800  0.19838800  0.25000000  1
  C  C2  1  0.77194200  0.16097300  0.75000000  1
  C  C3  1  0.22805800  0.83902700  0.25000000  1
  C  C4  1  0.72980700  0.32758100  0.64991000  1
  C  C5  1  0.27019300  0.67241900  0.14991000  1
  C  C6  1  0.27019300  0.67241900  0.35009000  1
  C  C7  1  0.72980700  0.32758100  0.85009000  1
  C  C8  1  0.83084500  0.61397600  0.66512800  1
  C  C9  1  0.16915500  0.38602400  0.16512800  1
  C  C10  1  0.16915500  0.38602400  0.33487200  1
  C  C11  1  0.83084500  0.61397600  0.83487200  1
  N  N12  1  0.53797600  0.15653500  0.75000000  1
  N  N13  1  0.46202400  0.84346500  0.25000000  1
  Cl  Cl14  1  0.34380800  0.55545200  0.75000000  1
  Cl  Cl15  1  0.65619200  0.44454800  0.25000000  1
