# generated using pymatgen
data_Na3N
_symmetry_space_group_name_H-M   'P 1'
_cell_length_a   5.06461400
_cell_length_b   7.18990200
_cell_length_c   7.70489700
_cell_angle_alpha   90.00000000
_cell_angle_beta   90.00000000
_cell_angle_gamma   90.00000000
_symmetry_Int_Tables_number   1
_chemical_formula_structural   Na3N
_chemical_formula_sum   'Na12 N4'
_cell_volume   280.56672287
_cell_formula_units_Z   4
loop_
 _symmetry_equiv_pos_site_id
 _symmetry_equiv_pos_as_xyz
  1  'x, y, z'
loop_
 _atom_site_type_symbol
 _atom_site_label
 _atom_site_symmetry_multiplicity
 _atom_site_fract_x
 _atom_site_fract_y
 _atom_site_fract_z
 _atom_site_occupancy
  Na  Na0  1  0.58707700  0.53003200  0.25000000  1
  Na  Na1  1  0.91292300  0.03003200  0.25000000  1
  Na  Na2  1  0.41292300  0.46996800  0.75000000  1
  Na  Na3  1  0.08707700  0.96996800  0.75000000  1
  Na  Na4  1  0.11751100  0.65887600  0.06621500  1
  Na  Na5  1  0.38248900  0.15887600  0.43378500  1
  Na  Na6  1  0.88248900  0.34112400  0.56621500  1
  Na  Na7  1  0.61751100  0.84112400  0.93378500  1
  Na  Na8  1  0.88248900  0.34112400  0.93378500  1
  Na  Na9  1  0.61751100  0.84112400  0.56621500  1
  Na  Na10  1  0.11751100  0.65887600  0.43378500  1
  Na  Na11  1  0.38248900  0.15887600  0.06621500  1
  N  N12  1  0.44114100  0.86382100  0.25000000  1
  N  N13  1  0.05885900  0.36382100  0.25000000  1
  N  N14  1  0.55885900  0.13617900  0.75000000  1
  N  N15  1  0.94114100  0.63617900  0.75000000  1
