# generated using pymatgen
data_Ca10Ge16(B2O17)3
_symmetry_space_group_name_H-M   'P 1'
_cell_length_a   4.78334100
_cell_length_b   15.28853400
_cell_length_c   26.68680400
_cell_angle_alpha   90.00000000
_cell_angle_beta   90.00000000
_cell_angle_gamma   90.00000000
_symmetry_Int_Tables_number   1
_chemical_formula_structural   Ca10Ge16(B2O17)3
_chemical_formula_sum   'Ca20 Ge32 B12 O102'
_cell_volume   1951.61322231
_cell_formula_units_Z   2
loop_
 _symmetry_equiv_pos_site_id
 _symmetry_equiv_pos_as_xyz
  1  'x, y, z'
loop_
 _atom_site_type_symbol
 _atom_site_label
 _atom_site_symmetry_multiplicity
 _atom_site_fract_x
 _atom_site_fract_y
 _atom_site_fract_z
 _atom_site_occupancy
  Ca  Ca0  1  0.50538800  0.86103900  0.35335800  1
  Ca  Ca1  1  0.50538800  0.13896100  0.64664200  1
  Ca  Ca2  1  0.50538800  0.63896100  0.85335800  1
  Ca  Ca3  1  0.50538800  0.36103900  0.14664200  1
  Ca  Ca4  1  0.53713400  0.25573900  0.42407000  1
  Ca  Ca5  1  0.53713400  0.74426100  0.57593000  1
  Ca  Ca6  1  0.53713400  0.24426100  0.92407000  1
  Ca  Ca7  1  0.53713400  0.75573900  0.07593000  1
  Ca  Ca8  1  0.51764700  0.38431000  0.29560800  1
  Ca  Ca9  1  0.51764700  0.61569000  0.70439200  1
  Ca  Ca10  1  0.51764700  0.11569000  0.79560800  1
  Ca  Ca11  1  0.51764700  0.88431000  0.20439200  1
  Ca  Ca12  1  0.51949100  0.14628100  0.22332900  1
  Ca  Ca13  1  0.51949100  0.85371900  0.77667100  1
  Ca  Ca14  1  0.51949100  0.35371900  0.72332900  1
  Ca  Ca15  1  0.51949100  0.64628100  0.27667100  1
  Ca  Ca16  1  0.50681600  0.50697600  0.40042700  1
  Ca  Ca17  1  0.50681600  0.49302400  0.59957300  1
  Ca  Ca18  1  0.50681600  0.99302400  0.90042700  1
  Ca  Ca19  1  0.50681600  0.00697600  0.09957300  1
  Ge  Ge20  1  0.02668600  0.04110800  0.42244200  1
  Ge  Ge21  1  0.02668600  0.95889200  0.57755800  1
  Ge  Ge22  1  0.02668600  0.45889200  0.92244200  1
  Ge  Ge23  1  0.02668600  0.54110800  0.07755800  1
  Ge  Ge24  1  0.52662500  0.08058300  0.34627400  1
  Ge  Ge25  1  0.52662500  0.91941700  0.65372600  1
  Ge  Ge26  1  0.52662500  0.41941700  0.84627400  1
  Ge  Ge27  1  0.52662500  0.58058300  0.15372600  1
  Ge  Ge28  1  0.03090500  0.21493100  0.32302700  1
  Ge  Ge29  1  0.03090500  0.78506900  0.67697300  1
  Ge  Ge30  1  0.03090500  0.28506900  0.82302700  1
  Ge  Ge31  1  0.03090500  0.71493100  0.17697300  1
  Ge  Ge32  1  0.52520300  0.71534100  0.45075600  1
  Ge  Ge33  1  0.52520300  0.28465900  0.54924400  1
  Ge  Ge34  1  0.52520300  0.78465900  0.95075600  1
  Ge  Ge35  1  0.52520300  0.21534100  0.04924400  1
  Ge  Ge36  1  0.01866600  0.99079300  0.28446700  1
  Ge  Ge37  1  0.01866600  0.00920700  0.71553300  1
  Ge  Ge38  1  0.01866600  0.50920700  0.78446700  1
  Ge  Ge39  1  0.01866600  0.49079300  0.21553300  1
  Ge  Ge40  1  0.02311800  0.85321000  0.47482900  1
  Ge  Ge41  1  0.02311800  0.14679000  0.52517100  1
  Ge  Ge42  1  0.02311800  0.64679000  0.97482900  1
  Ge  Ge43  1  0.02311800  0.35321000  0.02517100  1
  Ge  Ge44  1  0.02557800  0.68850200  0.37039100  1
  Ge  Ge45  1  0.02557800  0.31149800  0.62960900  1
  Ge  Ge46  1  0.02557800  0.81149800  0.87039100  1
  Ge  Ge47  1  0.02557800  0.18850200  0.12960900  1
  Ge  Ge48  1  0.01770200  0.39271700  0.49394100  1
  Ge  Ge49  1  0.01770200  0.60728300  0.50605900  1
  Ge  Ge50  1  0.01770200  0.10728300  0.99394100  1
  Ge  Ge51  1  0.01770200  0.89271700  0.00605900  1
  B  B52  1  0.05501600  0.79926200  0.27721900  1
  B  B53  1  0.05501600  0.20073800  0.72278100  1
  B  B54  1  0.05501600  0.70073800  0.77721900  1
  B  B55  1  0.05501600  0.29926200  0.22278100  1
  B  B56  1  0.98878300  0.01932000  0.17809100  1
  B  B57  1  0.98878300  0.98068000  0.82190900  1
  B  B58  1  0.98878300  0.48068000  0.67809100  1
  B  B59  1  0.98878300  0.51932000  0.32190900  1
  B  B60  1  0.99814000  0.37665000  0.38100000  1
  B  B61  1  0.99814000  0.62335000  0.61900000  1
  B  B62  1  0.99814000  0.12335000  0.88100000  1
  B  B63  1  0.99814000  0.87665000  0.11900000  1
  O  O64  1  0.76016700  0.98190900  0.33177300  1
  O  O65  1  0.76016700  0.01809100  0.66822700  1
  O  O66  1  0.76016700  0.51809100  0.83177300  1
  O  O67  1  0.76016700  0.48190900  0.16822700  1
  O  O68  1  0.29634800  0.17717200  0.36391700  1
  O  O69  1  0.29634800  0.82282800  0.63608300  1
  O  O70  1  0.29634800  0.32282800  0.86391700  1
  O  O71  1  0.29634800  0.67717200  0.13608300  1
  O  O72  1  0.75789800  0.14699700  0.30125200  1
  O  O73  1  0.75789800  0.85300300  0.69874800  1
  O  O74  1  0.75789800  0.35300300  0.80125200  1
  O  O75  1  0.75789800  0.64699700  0.19874800  1
  O  O76  1  0.19116600  0.10648000  0.46990400  1
  O  O77  1  0.19116600  0.89352000  0.53009600  1
  O  O78  1  0.19116600  0.39352000  0.96990400  1
  O  O79  1  0.19116600  0.60648000  0.03009600  1
  O  O80  1  0.29607900  0.31552900  0.49336500  1
  O  O81  1  0.29607900  0.68447100  0.50663500  1
  O  O82  1  0.29607900  0.18447100  0.99336500  1
  O  O83  1  0.29607900  0.81552900  0.00663500  1
  O  O84  1  0.75747000  0.75468400  0.39629900  1
  O  O85  1  0.75747000  0.24531600  0.60370100  1
  O  O86  1  0.75747000  0.74531600  0.89629900  1
  O  O87  1  0.75747000  0.25468400  0.10370100  1
  O  O88  1  0.29333000  0.06771300  0.28854800  1
  O  O89  1  0.29333000  0.93228700  0.71145200  1
  O  O90  1  0.29333000  0.43228700  0.78854800  1
  O  O91  1  0.29333000  0.56771300  0.21145200  1
  O  O92  1  0.83232600  0.00525700  0.22807700  1
  O  O93  1  0.83232600  0.99474300  0.77192300  1
  O  O94  1  0.83232600  0.49474300  0.72807700  1
  O  O95  1  0.83232600  0.50525700  0.27192300  1
  O  O96  1  0.20222100  0.26128200  0.26966800  1
  O  O97  1  0.20222100  0.73871800  0.73033200  1
  O  O98  1  0.20222100  0.23871800  0.76966800  1
  O  O99  1  0.20222100  0.76128200  0.23033200  1
  O  O100  1  0.18276100  0.50000000  0.50000000  1
  O  O101  1  0.18276100  0.00000000  0.00000000  1
  O  O102  1  0.75609700  0.11153900  0.40090100  1
  O  O103  1  0.75609700  0.88846100  0.59909900  1
  O  O104  1  0.75609700  0.38846100  0.90090100  1
  O  O105  1  0.75609700  0.61153900  0.09909900  1
  O  O106  1  0.29583300  0.00171300  0.38226700  1
  O  O107  1  0.29583300  0.99828700  0.61773300  1
  O  O108  1  0.29583300  0.49828700  0.88226700  1
  O  O109  1  0.29583300  0.50171300  0.11773300  1
  O  O110  1  0.29156500  0.81313400  0.43455700  1
  O  O111  1  0.29156500  0.18686600  0.56544300  1
  O  O112  1  0.29156500  0.68686600  0.93455700  1
  O  O113  1  0.29156500  0.31313400  0.06544300  1
  O  O114  1  0.75756500  0.77924200  0.49580200  1
  O  O115  1  0.75756500  0.22075800  0.50419800  1
  O  O116  1  0.75756500  0.72075800  0.99580200  1
  O  O117  1  0.75756500  0.27924200  0.00419800  1
  O  O118  1  0.85149700  0.38370700  0.43441100  1
  O  O119  1  0.85149700  0.61629300  0.56558900  1
  O  O120  1  0.85149700  0.11629300  0.93441100  1
  O  O121  1  0.85149700  0.88370700  0.06558900  1
  O  O122  1  0.29463400  0.64429700  0.40845500  1
  O  O123  1  0.29463400  0.35570300  0.59154500  1
  O  O124  1  0.29463400  0.85570300  0.90845500  1
  O  O125  1  0.29463400  0.14429700  0.09154500  1
  O  O126  1  0.20021800  0.74758500  0.32144300  1
  O  O127  1  0.20021800  0.25241500  0.67855700  1
  O  O128  1  0.20021800  0.75241500  0.82144300  1
  O  O129  1  0.20021800  0.24758500  0.17855700  1
  O  O130  1  0.20181800  0.88866200  0.28172700  1
  O  O131  1  0.20181800  0.11133800  0.71827300  1
  O  O132  1  0.20181800  0.61133800  0.78172700  1
  O  O133  1  0.20181800  0.38866200  0.21827300  1
  O  O134  1  0.86002400  0.94331700  0.44416600  1
  O  O135  1  0.86002400  0.05668300  0.55583400  1
  O  O136  1  0.86002400  0.55668300  0.94416600  1
  O  O137  1  0.86002400  0.44331700  0.05583400  1
  O  O138  1  0.83895900  0.60266300  0.34140100  1
  O  O139  1  0.83895900  0.39733700  0.65859900  1
  O  O140  1  0.83895900  0.89733700  0.84140100  1
  O  O141  1  0.83895900  0.10266300  0.15859900  1
  O  O142  1  0.84880600  0.29695300  0.35752800  1
  O  O143  1  0.84880600  0.70304700  0.64247200  1
  O  O144  1  0.84880600  0.20304700  0.85752800  1
  O  O145  1  0.84880600  0.79695300  0.14247200  1
  O  O146  1  0.75435300  0.38880400  0.54104400  1
  O  O147  1  0.75435300  0.61119600  0.45895600  1
  O  O148  1  0.75435300  0.11119600  0.04104400  1
  O  O149  1  0.75435300  0.88880400  0.95895600  1
  O  O150  1  0.76552800  0.79908400  0.27758700  1
  O  O151  1  0.76552800  0.20091600  0.72241300  1
  O  O152  1  0.76552800  0.70091600  0.77758700  1
  O  O153  1  0.76552800  0.29908400  0.22241300  1
  O  O154  1  0.28034900  0.02463700  0.18114800  1
  O  O155  1  0.28034900  0.97536300  0.81885200  1
  O  O156  1  0.28034900  0.47536300  0.68114800  1
  O  O157  1  0.28034900  0.52463700  0.31885200  1
  O  O158  1  0.86838900  0.95011900  0.14595500  1
  O  O159  1  0.86838900  0.04988100  0.85404500  1
  O  O160  1  0.86838900  0.54988100  0.64595500  1
  O  O161  1  0.86838900  0.45011900  0.35404500  1
  O  O162  1  0.28968000  0.37162400  0.38202400  1
  O  O163  1  0.28968000  0.62837600  0.61797600  1
  O  O164  1  0.28968000  0.12837600  0.88202400  1
  O  O165  1  0.28968000  0.87162400  0.11797600  1
