# generated using pymatgen
data_K3YbN6
_symmetry_space_group_name_H-M   'P 1'
_cell_length_a   7.87616856
_cell_length_b   7.87616856
_cell_length_c   7.87616903
_cell_angle_alpha   85.76939864
_cell_angle_beta   85.76939864
_cell_angle_gamma   85.76939161
_symmetry_Int_Tables_number   1
_chemical_formula_structural   K3YbN6
_chemical_formula_sum   'K6 Yb2 N12'
_cell_volume   484.78336836
_cell_formula_units_Z   2
loop_
 _symmetry_equiv_pos_site_id
 _symmetry_equiv_pos_as_xyz
  1  'x, y, z'
loop_
 _atom_site_type_symbol
 _atom_site_label
 _atom_site_symmetry_multiplicity
 _atom_site_fract_x
 _atom_site_fract_y
 _atom_site_fract_z
 _atom_site_occupancy
  K  K0  1  0.66267900  0.00000000  0.33732100  1
  K  K1  1  0.33732100  0.66267900  0.00000000  1
  K  K2  1  0.00000000  0.33732100  0.66267900  1
  K  K3  1  0.84360600  0.50000000  0.15639400  1
  K  K4  1  0.15639400  0.84360600  0.50000000  1
  K  K5  1  0.50000000  0.15639400  0.84360600  1
  Yb  Yb6  1  0.74699400  0.74699400  0.74699400  1
  Yb  Yb7  1  0.25300600  0.25300600  0.25300600  1
  N  N8  1  0.67980300  0.46138100  0.84678300  1
  N  N9  1  0.84678300  0.67980300  0.46138100  1
  N  N10  1  0.46138100  0.84678300  0.67980300  1
  N  N11  1  0.15321700  0.53861900  0.32019700  1
  N  N12  1  0.53861900  0.32019700  0.15321700  1
  N  N13  1  0.32019700  0.15321700  0.53861900  1
  N  N14  1  0.64033000  0.83553700  0.02111500  1
  N  N15  1  0.02111500  0.64033000  0.83553700  1
  N  N16  1  0.83553700  0.02111500  0.64033000  1
  N  N17  1  0.97888500  0.16446300  0.35967000  1
  N  N18  1  0.16446300  0.35967000  0.97888500  1
  N  N19  1  0.35967000  0.97888500  0.16446300  1
