# generated using pymatgen
data_Ho5Ni2Bi
_symmetry_space_group_name_H-M   'P 1'
_cell_length_a   8.65119250
_cell_length_b   8.65119250
_cell_length_c   8.65119250
_cell_angle_alpha   127.44625893
_cell_angle_beta   127.44625893
_cell_angle_gamma   77.52379975
_symmetry_Int_Tables_number   1
_chemical_formula_structural   Ho5Ni2Bi
_chemical_formula_sum   'Ho10 Ni4 Bi2'
_cell_volume   395.80656699
_cell_formula_units_Z   2
loop_
 _symmetry_equiv_pos_site_id
 _symmetry_equiv_pos_as_xyz
  1  'x, y, z'
loop_
 _atom_site_type_symbol
 _atom_site_label
 _atom_site_symmetry_multiplicity
 _atom_site_fract_x
 _atom_site_fract_y
 _atom_site_fract_z
 _atom_site_occupancy
  Ho  Ho0  1  0.00000000  0.00000000  0.00000000  1
  Ho  Ho1  1  0.50000000  0.50000000  0.00000000  1
  Ho  Ho2  1  0.01994400  0.51994400  0.80984400  1
  Ho  Ho3  1  0.71010000  0.21010000  0.19015600  1
  Ho  Ho4  1  0.51994400  0.71010000  0.50000000  1
  Ho  Ho5  1  0.21010000  0.01994400  0.50000000  1
  Ho  Ho6  1  0.98005600  0.48005600  0.19015600  1
  Ho  Ho7  1  0.28990000  0.78990000  0.80984400  1
  Ho  Ho8  1  0.48005600  0.28990000  0.50000000  1
  Ho  Ho9  1  0.78990000  0.98005600  0.50000000  1
  Ni  Ni10  1  0.36816000  0.86816000  0.23631900  1
  Ni  Ni11  1  0.63184000  0.13184000  0.76368100  1
  Ni  Ni12  1  0.86816000  0.63184000  0.50000000  1
  Ni  Ni13  1  0.13184000  0.36816000  0.50000000  1
  Bi  Bi14  1  0.75000000  0.75000000  0.00000000  1
  Bi  Bi15  1  0.25000000  0.25000000  0.00000000  1
