# generated using pymatgen
data_Eu3FeO6
_symmetry_space_group_name_H-M   'P 1'
_cell_length_a   5.58978500
_cell_length_b   7.39187929
_cell_length_c   7.39187929
_cell_angle_alpha   102.91997192
_cell_angle_beta   90.00000000
_cell_angle_gamma   90.00000000
_symmetry_Int_Tables_number   1
_chemical_formula_structural   Eu3FeO6
_chemical_formula_sum   'Eu6 Fe2 O12'
_cell_volume   297.69282571
_cell_formula_units_Z   2
loop_
 _symmetry_equiv_pos_site_id
 _symmetry_equiv_pos_as_xyz
  1  'x, y, z'
loop_
 _atom_site_type_symbol
 _atom_site_label
 _atom_site_symmetry_multiplicity
 _atom_site_fract_x
 _atom_site_fract_y
 _atom_site_fract_z
 _atom_site_occupancy
  Eu  Eu0  1  0.46155300  0.19963000  0.41445700  1
  Eu  Eu1  1  0.46155300  0.58554300  0.80037000  1
  Eu  Eu2  1  0.96155300  0.80037000  0.58554300  1
  Eu  Eu3  1  0.96155300  0.41445700  0.19963000  1
  Eu  Eu4  1  0.50052200  0.10490100  0.89509900  1
  Eu  Eu5  1  0.00052200  0.89509900  0.10490100  1
  Fe  Fe6  1  0.92505400  0.30820400  0.69179600  1
  Fe  Fe7  1  0.42505400  0.69179600  0.30820400  1
  O  O8  1  0.22829400  0.85451300  0.82535100  1
  O  O9  1  0.22829400  0.17464900  0.14548700  1
  O  O10  1  0.72829400  0.14548700  0.17464900  1
  O  O11  1  0.72829400  0.82535100  0.85451300  1
  O  O12  1  0.25161300  0.91616100  0.39059200  1
  O  O13  1  0.25161300  0.60940800  0.08383900  1
  O  O14  1  0.75161300  0.08383900  0.60940800  1
  O  O15  1  0.75161300  0.39059200  0.91616100  1
  O  O16  1  0.28358700  0.54435600  0.45564400  1
  O  O17  1  0.78358700  0.45564400  0.54435600  1
  O  O18  1  0.25922600  0.28715800  0.71284200  1
  O  O19  1  0.75922600  0.71284200  0.28715800  1
