# generated using pymatgen
data_KNaW(OF2)2
_symmetry_space_group_name_H-M   'P 1'
_cell_length_a   6.16968900
_cell_length_b   6.16968900
_cell_length_c   8.39346200
_cell_angle_alpha   90.00000000
_cell_angle_beta   90.00000000
_cell_angle_gamma   90.00000000
_symmetry_Int_Tables_number   1
_chemical_formula_structural   KNaW(OF2)2
_chemical_formula_sum   'K2 Na2 W2 O4 F8'
_cell_volume   319.49765442
_cell_formula_units_Z   2
loop_
 _symmetry_equiv_pos_site_id
 _symmetry_equiv_pos_as_xyz
  1  'x, y, z'
loop_
 _atom_site_type_symbol
 _atom_site_label
 _atom_site_symmetry_multiplicity
 _atom_site_fract_x
 _atom_site_fract_y
 _atom_site_fract_z
 _atom_site_occupancy
  K  K0  1  0.50000000  0.50000000  0.00000000  1
  K  K1  1  0.00000000  0.00000000  0.00000000  1
  Na  Na2  1  0.00000000  0.50000000  0.72628300  1
  Na  Na3  1  0.50000000  0.00000000  0.27371700  1
  W  W4  1  0.00000000  0.50000000  0.24113100  1
  W  W5  1  0.50000000  0.00000000  0.75886900  1
  O  O6  1  0.00000000  0.50000000  0.45572300  1
  O  O7  1  0.50000000  0.00000000  0.54427700  1
  O  O8  1  0.00000000  0.50000000  0.01832800  1
  O  O9  1  0.50000000  0.00000000  0.98167200  1
  F  F10  1  0.22616800  0.27383200  0.23232100  1
  F  F11  1  0.77383200  0.27383200  0.23232100  1
  F  F12  1  0.22616800  0.72616800  0.23232100  1
  F  F13  1  0.77383200  0.72616800  0.23232100  1
  F  F14  1  0.27383200  0.22616800  0.76767900  1
  F  F15  1  0.72616800  0.22616800  0.76767900  1
  F  F16  1  0.27383200  0.77383200  0.76767900  1
  F  F17  1  0.72616800  0.77383200  0.76767900  1
