# generated using pymatgen
data_MgAlO2F5
_symmetry_space_group_name_H-M   'P 1'
_cell_length_a   7.16949590
_cell_length_b   7.16949590
_cell_length_c   7.16949590
_cell_angle_alpha   121.15112882
_cell_angle_beta   120.77259372
_cell_angle_gamma   88.34224954
_symmetry_Int_Tables_number   1
_chemical_formula_structural   MgAlO2F5
_chemical_formula_sum   'Mg2 Al2 O4 F10'
_cell_volume   256.67709865
_cell_formula_units_Z   2
loop_
 _symmetry_equiv_pos_site_id
 _symmetry_equiv_pos_as_xyz
  1  'x, y, z'
loop_
 _atom_site_type_symbol
 _atom_site_label
 _atom_site_symmetry_multiplicity
 _atom_site_fract_x
 _atom_site_fract_y
 _atom_site_fract_z
 _atom_site_occupancy
  Mg  Mg0  1  0.00000000  0.50000000  0.50000000  1
  Mg  Mg1  1  0.50000000  0.00000000  0.50000000  1
  Al  Al2  1  0.00000000  0.00000000  0.50000000  1
  Al  Al3  1  0.00000000  0.50000000  0.00000000  1
  O  O4  1  0.64618900  0.88572000  0.76046900  1
  O  O5  1  0.35381100  0.11428000  0.23953100  1
  O  O6  1  0.62525100  0.38572000  0.23953100  1
  O  O7  1  0.37474900  0.61428000  0.76046900  1
  F  F8  1  0.95379200  0.17968800  0.37952000  1
  F  F9  1  0.04620800  0.42572800  0.22589700  1
  F  F10  1  0.30016800  0.67968800  0.22589700  1
  F  F11  1  0.69983200  0.92572800  0.37952000  1
  F  F12  1  0.04620800  0.82031200  0.62048000  1
  F  F13  1  0.95379200  0.57427200  0.77410300  1
  F  F14  1  0.69983200  0.32031200  0.77410300  1
  F  F15  1  0.30016800  0.07427200  0.62048000  1
  F  F16  1  0.07495500  0.25000000  0.82495500  1
  F  F17  1  0.92504500  0.75000000  0.17504500  1
