# generated using pymatgen
data_As2O3
_symmetry_space_group_name_H-M   'P 1'
_cell_length_a   7.02500300
_cell_length_b   7.02500300
_cell_length_c   8.22195800
_cell_angle_alpha   90.00000000
_cell_angle_beta   90.00000000
_cell_angle_gamma   90.00000000
_symmetry_Int_Tables_number   1
_chemical_formula_structural   As2O3
_chemical_formula_sum   'As8 O12'
_cell_volume   405.75911258
_cell_formula_units_Z   4
loop_
 _symmetry_equiv_pos_site_id
 _symmetry_equiv_pos_as_xyz
  1  'x, y, z'
loop_
 _atom_site_type_symbol
 _atom_site_label
 _atom_site_symmetry_multiplicity
 _atom_site_fract_x
 _atom_site_fract_y
 _atom_site_fract_z
 _atom_site_occupancy
  As  As0  1  0.77427200  0.45241000  0.10480500  1
  As  As1  1  0.22572800  0.54759000  0.10480500  1
  As  As2  1  0.27427200  0.95241000  0.39519500  1
  As  As3  1  0.72572800  0.04759000  0.39519500  1
  As  As4  1  0.45241000  0.22572800  0.89519500  1
  As  As5  1  0.54759000  0.77427200  0.89519500  1
  As  As6  1  0.95241000  0.72572800  0.60480500  1
  As  As7  1  0.04759000  0.27427200  0.60480500  1
  O  O8  1  0.68307100  0.34174300  0.91827400  1
  O  O9  1  0.31692900  0.65825700  0.91827400  1
  O  O10  1  0.18307100  0.84174300  0.58172600  1
  O  O11  1  0.81692900  0.15825700  0.58172600  1
  O  O12  1  0.34174300  0.31692900  0.08172600  1
  O  O13  1  0.65825700  0.68307100  0.08172600  1
  O  O14  1  0.84174300  0.81692900  0.41827400  1
  O  O15  1  0.15825700  0.18307100  0.41827400  1
  O  O16  1  0.00000000  0.50000000  0.50148700  1
  O  O17  1  0.50000000  0.00000000  0.99851300  1
  O  O18  1  0.50000000  0.00000000  0.49851300  1
  O  O19  1  0.00000000  0.50000000  0.00148700  1
