# generated using pymatgen
data_ZrP2N4(O4F)2
_symmetry_space_group_name_H-M   'P 1'
_cell_length_a   5.51649570
_cell_length_b   6.17282424
_cell_length_c   10.38506720
_cell_angle_alpha   82.41010283
_cell_angle_beta   75.67980745
_cell_angle_gamma   65.91496916
_symmetry_Int_Tables_number   1
_chemical_formula_structural   ZrP2N4(O4F)2
_chemical_formula_sum   'Zr1 P2 N4 O8 F2'
_cell_volume   312.62347037
_cell_formula_units_Z   1
loop_
 _symmetry_equiv_pos_site_id
 _symmetry_equiv_pos_as_xyz
  1  'x, y, z'
loop_
 _atom_site_type_symbol
 _atom_site_label
 _atom_site_symmetry_multiplicity
 _atom_site_fract_x
 _atom_site_fract_y
 _atom_site_fract_z
 _atom_site_occupancy
  Zr  Zr0  1  0.50000000  0.00000000  0.00000000  1
  P  P1  1  0.00209000  0.18615600  0.79296600  1
  P  P2  1  0.99791000  0.81384400  0.20703400  1
  N  N3  1  0.74813100  0.81384800  0.60731700  1
  N  N4  1  0.25186900  0.18615200  0.39268300  1
  N  N5  1  0.27411300  0.61447100  0.77133500  1
  N  N6  1  0.72588700  0.38552900  0.22866500  1
  O  O7  1  0.74838400  0.13711900  0.84762400  1
  O  O8  1  0.25161600  0.86288100  0.15237600  1
  O  O9  1  0.19243100  0.11590700  0.88762800  1
  O  O10  1  0.80756900  0.88409300  0.11237200  1
  O  O11  1  0.03990600  0.32295100  0.66856500  1
  O  O12  1  0.96009400  0.67704900  0.33143500  1
  O  O13  1  0.24394800  0.77856100  0.69766700  1
  O  O14  1  0.75605200  0.22143900  0.30233300  1
  F  F15  1  0.67597600  0.68479200  0.91759900  1
  F  F16  1  0.32402400  0.31520800  0.08240100  1
