# generated using pymatgen
data_Tl4CO5
_symmetry_space_group_name_H-M   'P 1'
_cell_length_a   8.04881886
_cell_length_b   8.04881886
_cell_length_c   8.33291900
_cell_angle_alpha   90.00000000
_cell_angle_beta   90.00000000
_cell_angle_gamma   101.36950973
_symmetry_Int_Tables_number   1
_chemical_formula_structural   Tl4CO5
_chemical_formula_sum   'Tl8 C2 O10'
_cell_volume   529.24192014
_cell_formula_units_Z   2
loop_
 _symmetry_equiv_pos_site_id
 _symmetry_equiv_pos_as_xyz
  1  'x, y, z'
loop_
 _atom_site_type_symbol
 _atom_site_label
 _atom_site_symmetry_multiplicity
 _atom_site_fract_x
 _atom_site_fract_y
 _atom_site_fract_z
 _atom_site_occupancy
  Tl  Tl0  1  0.18640800  0.32951300  0.56622100  1
  Tl  Tl1  1  0.67048700  0.81359200  0.56622100  1
  Tl  Tl2  1  0.81359200  0.67048700  0.06622100  1
  Tl  Tl3  1  0.32951300  0.18640800  0.06622100  1
  Tl  Tl4  1  0.23655000  0.76345000  0.95525700  1
  Tl  Tl5  1  0.76345000  0.23655000  0.45525700  1
  Tl  Tl6  1  0.78070600  0.21929400  0.84310200  1
  Tl  Tl7  1  0.21929400  0.78070600  0.34310200  1
  C  C8  1  0.06260600  0.93739400  0.74655800  1
  C  C9  1  0.93739400  0.06260600  0.24655800  1
  O  O10  1  0.91590900  0.40025500  0.61805400  1
  O  O11  1  0.59974500  0.08409100  0.61805400  1
  O  O12  1  0.08409100  0.59974500  0.11805400  1
  O  O13  1  0.40025500  0.91590900  0.11805400  1
  O  O14  1  0.97635500  0.02364500  0.66179800  1
  O  O15  1  0.02364500  0.97635500  0.16179800  1
  O  O16  1  0.99738500  0.78186300  0.79096800  1
  O  O17  1  0.21813700  0.00261500  0.79096800  1
  O  O18  1  0.00261500  0.21813700  0.29096800  1
  O  O19  1  0.78186300  0.99738500  0.29096800  1
