# generated using pymatgen
data_K2AlOF5
_symmetry_space_group_name_H-M   'P 1'
_cell_length_a   6.16752071
_cell_length_b   6.16752071
_cell_length_c   7.52640600
_cell_angle_alpha   90.00000000
_cell_angle_beta   90.00000000
_cell_angle_gamma   100.75033303
_symmetry_Int_Tables_number   1
_chemical_formula_structural   K2AlOF5
_chemical_formula_sum   'K4 Al2 O2 F10'
_cell_volume   281.26716066
_cell_formula_units_Z   2
loop_
 _symmetry_equiv_pos_site_id
 _symmetry_equiv_pos_as_xyz
  1  'x, y, z'
loop_
 _atom_site_type_symbol
 _atom_site_label
 _atom_site_symmetry_multiplicity
 _atom_site_fract_x
 _atom_site_fract_y
 _atom_site_fract_z
 _atom_site_occupancy
  K  K0  1  0.03943000  0.50179200  0.25000000  1
  K  K1  1  0.49820800  0.96057000  0.75000000  1
  K  K2  1  0.96057000  0.49820800  0.75000000  1
  K  K3  1  0.50179200  0.03943000  0.25000000  1
  Al  Al4  1  0.00000000  0.00000000  0.50000000  1
  Al  Al5  1  0.00000000  0.00000000  0.00000000  1
  O  O6  1  0.54415500  0.54415500  0.25000000  1
  O  O7  1  0.45584500  0.45584500  0.75000000  1
  F  F8  1  0.80850500  0.19149500  0.50000000  1
  F  F9  1  0.80850500  0.19149500  0.00000000  1
  F  F10  1  0.19149500  0.80850500  0.50000000  1
  F  F11  1  0.19149500  0.80850500  0.00000000  1
  F  F12  1  0.22888800  0.22888800  0.52509200  1
  F  F13  1  0.77111200  0.77111200  0.47490800  1
  F  F14  1  0.22888800  0.22888800  0.97490800  1
  F  F15  1  0.77111200  0.77111200  0.02509200  1
  F  F16  1  0.03376000  0.03376000  0.25000000  1
  F  F17  1  0.96624000  0.96624000  0.75000000  1
