# generated using pymatgen
data_Th2FeSe5
_symmetry_space_group_name_H-M   'P 1'
_cell_length_a   8.52325786
_cell_length_b   8.52325786
_cell_length_c   7.57634252
_cell_angle_alpha   83.35569763
_cell_angle_beta   83.35569763
_cell_angle_gamma   46.39923237
_symmetry_Int_Tables_number   1
_chemical_formula_structural   Th2FeSe5
_chemical_formula_sum   'Th4 Fe2 Se10'
_cell_volume   395.40148152
_cell_formula_units_Z   2
loop_
 _symmetry_equiv_pos_site_id
 _symmetry_equiv_pos_as_xyz
  1  'x, y, z'
loop_
 _atom_site_type_symbol
 _atom_site_label
 _atom_site_symmetry_multiplicity
 _atom_site_fract_x
 _atom_site_fract_y
 _atom_site_fract_z
 _atom_site_occupancy
  Th  Th0  1  0.11042800  0.67561900  0.08136300  1
  Th  Th1  1  0.32438100  0.88957200  0.41863700  1
  Th  Th2  1  0.88957200  0.32438100  0.91863700  1
  Th  Th3  1  0.67561900  0.11042800  0.58136300  1
  Fe  Fe4  1  0.00000000  0.50000000  0.50000000  1
  Fe  Fe5  1  0.50000000  0.00000000  0.00000000  1
  Se  Se6  1  0.91938000  0.08062000  0.25000000  1
  Se  Se7  1  0.08062000  0.91938000  0.75000000  1
  Se  Se8  1  0.28892900  0.53178700  0.42990300  1
  Se  Se9  1  0.46821300  0.71107100  0.07009700  1
  Se  Se10  1  0.71107100  0.46821300  0.57009700  1
  Se  Se11  1  0.53178700  0.28892900  0.92990300  1
  Se  Se12  1  0.14116100  0.30018100  0.18849200  1
  Se  Se13  1  0.69981900  0.85883900  0.31150800  1
  Se  Se14  1  0.85883900  0.69981900  0.81150800  1
  Se  Se15  1  0.30018100  0.14116100  0.68849200  1
