# generated using pymatgen
data_EuAl
_symmetry_space_group_name_H-M   'P 1'
_cell_length_a   5.75454300
_cell_length_b   9.39735800
_cell_length_c   9.98065900
_cell_angle_alpha   90.00000000
_cell_angle_beta   90.00000000
_cell_angle_gamma   90.00000000
_symmetry_Int_Tables_number   1
_chemical_formula_structural   EuAl
_chemical_formula_sum   'Eu10 Al10'
_cell_volume   539.72909403
_cell_formula_units_Z   10
loop_
 _symmetry_equiv_pos_site_id
 _symmetry_equiv_pos_as_xyz
  1  'x, y, z'
loop_
 _atom_site_type_symbol
 _atom_site_label
 _atom_site_symmetry_multiplicity
 _atom_site_fract_x
 _atom_site_fract_y
 _atom_site_fract_z
 _atom_site_occupancy
  Eu  Eu0  1  0.50000000  0.81764600  0.91492900  1
  Eu  Eu1  1  0.50000000  0.18235400  0.91492900  1
  Eu  Eu2  1  0.00000000  0.68235400  0.08507100  1
  Eu  Eu3  1  0.00000000  0.31764600  0.08507100  1
  Eu  Eu4  1  0.50000000  0.69863200  0.31061200  1
  Eu  Eu5  1  0.50000000  0.30136800  0.31061200  1
  Eu  Eu6  1  0.00000000  0.80136800  0.68938800  1
  Eu  Eu7  1  0.00000000  0.19863200  0.68938800  1
  Eu  Eu8  1  0.50000000  0.00000000  0.50632900  1
  Eu  Eu9  1  0.00000000  0.50000000  0.49367100  1
  Al  Al10  1  0.74053100  0.00000000  0.18324300  1
  Al  Al11  1  0.25946900  0.00000000  0.18324300  1
  Al  Al12  1  0.75946900  0.50000000  0.81675700  1
  Al  Al13  1  0.24053100  0.50000000  0.81675700  1
  Al  Al14  1  0.50000000  0.64440200  0.62765900  1
  Al  Al15  1  0.50000000  0.35559800  0.62765900  1
  Al  Al16  1  0.00000000  0.85559800  0.37234100  1
  Al  Al17  1  0.00000000  0.14440200  0.37234100  1
  Al  Al18  1  0.50000000  0.50000000  0.04568400  1
  Al  Al19  1  0.00000000  0.00000000  0.95431600  1
