# generated using pymatgen
data_Ba2SmGaTe5
_symmetry_space_group_name_H-M   'P 1'
_cell_length_a   7.90462000
_cell_length_b   9.39831903
_cell_length_c   10.23434201
_cell_angle_alpha   103.44527948
_cell_angle_beta   102.82994656
_cell_angle_gamma   107.37647969
_symmetry_Int_Tables_number   1
_chemical_formula_structural   Ba2SmGaTe5
_chemical_formula_sum   'Ba4 Sm2 Ga2 Te10'
_cell_volume   670.02104176
_cell_formula_units_Z   2
loop_
 _symmetry_equiv_pos_site_id
 _symmetry_equiv_pos_as_xyz
  1  'x, y, z'
loop_
 _atom_site_type_symbol
 _atom_site_label
 _atom_site_symmetry_multiplicity
 _atom_site_fract_x
 _atom_site_fract_y
 _atom_site_fract_z
 _atom_site_occupancy
  Ba  Ba0  1  0.35337400  0.51392800  0.71081800  1
  Ba  Ba1  1  0.64662600  0.48607200  0.28918200  1
  Ba  Ba2  1  0.63904500  0.98095700  0.29272500  1
  Ba  Ba3  1  0.36095500  0.01904300  0.70727500  1
  Sm  Sm4  1  0.99879000  0.73380700  0.99845300  1
  Sm  Sm5  1  0.00121000  0.26619300  0.00154700  1
  Ga  Ga6  1  0.80857900  0.87376100  0.68845400  1
  Ga  Ga7  1  0.19142100  0.12623900  0.31154600  1
  Te  Te8  1  0.48436200  0.74113400  0.49142700  1
  Te  Te9  1  0.51563800  0.25886600  0.50857300  1
  Te  Te10  1  0.98642500  0.67467100  0.67783600  1
  Te  Te11  1  0.01357500  0.32532900  0.32216400  1
  Te  Te12  1  0.98555600  0.15829400  0.68096000  1
  Te  Te13  1  0.01444400  0.84170600  0.31904000  1
  Te  Te14  1  0.69501900  0.40748400  0.94129100  1
  Te  Te15  1  0.30498100  0.59251600  0.05870900  1
  Te  Te16  1  0.70362000  0.90821600  0.92891800  1
  Te  Te17  1  0.29638000  0.09178400  0.07108200  1
