# generated using pymatgen
data_CePN(O2F)2
_symmetry_space_group_name_H-M   'P 1'
_cell_length_a   5.89263000
_cell_length_b   6.74505998
_cell_length_c   7.38462390
_cell_angle_alpha   113.19252401
_cell_angle_beta   90.00000000
_cell_angle_gamma   90.00000000
_symmetry_Int_Tables_number   1
_chemical_formula_structural   CePN(O2F)2
_chemical_formula_sum   'Ce2 P2 N2 O8 F4'
_cell_volume   269.79078848
_cell_formula_units_Z   2
loop_
 _symmetry_equiv_pos_site_id
 _symmetry_equiv_pos_as_xyz
  1  'x, y, z'
loop_
 _atom_site_type_symbol
 _atom_site_label
 _atom_site_symmetry_multiplicity
 _atom_site_fract_x
 _atom_site_fract_y
 _atom_site_fract_z
 _atom_site_occupancy
  Ce  Ce0  1  0.75000000  0.88177000  0.31564400  1
  Ce  Ce1  1  0.25000000  0.11823000  0.68435600  1
  P  P2  1  0.75000000  0.26988400  0.03955400  1
  P  P3  1  0.25000000  0.73011600  0.96044600  1
  N  N4  1  0.75000000  0.56179900  0.67992700  1
  N  N5  1  0.25000000  0.43820100  0.32007300  1
  O  O6  1  0.75000000  0.49834300  0.20487800  1
  O  O7  1  0.25000000  0.50165700  0.79512200  1
  O  O8  1  0.46425400  0.76125600  0.08958700  1
  O  O9  1  0.96425400  0.23874400  0.91041300  1
  O  O10  1  0.53574600  0.23874400  0.91041300  1
  O  O11  1  0.03574600  0.76125600  0.08958700  1
  O  O12  1  0.75000000  0.10065300  0.13061700  1
  O  O13  1  0.25000000  0.89934700  0.86938300  1
  F  F14  1  0.50074600  0.83406000  0.53357300  1
  F  F15  1  0.00074600  0.16594000  0.46642700  1
  F  F16  1  0.49925400  0.16594000  0.46642700  1
  F  F17  1  0.99925400  0.83406000  0.53357300  1
