# generated using pymatgen
data_CuN2(Cl2O)2
_symmetry_space_group_name_H-M   'P 1'
_cell_length_a   6.44577000
_cell_length_b   6.44577000
_cell_length_c   8.36734700
_cell_angle_alpha   90.00000000
_cell_angle_beta   90.00000000
_cell_angle_gamma   90.00000000
_symmetry_Int_Tables_number   1
_chemical_formula_structural   CuN2(Cl2O)2
_chemical_formula_sum   'Cu2 N4 Cl8 O4'
_cell_volume   347.64612226
_cell_formula_units_Z   2
loop_
 _symmetry_equiv_pos_site_id
 _symmetry_equiv_pos_as_xyz
  1  'x, y, z'
loop_
 _atom_site_type_symbol
 _atom_site_label
 _atom_site_symmetry_multiplicity
 _atom_site_fract_x
 _atom_site_fract_y
 _atom_site_fract_z
 _atom_site_occupancy
  Cu  Cu0  1  0.50000000  0.50000000  0.50000000  1
  Cu  Cu1  1  0.00000000  0.00000000  0.00000000  1
  N  N2  1  0.00000000  0.50000000  0.25000000  1
  N  N3  1  0.50000000  0.00000000  0.75000000  1
  N  N4  1  0.00000000  0.50000000  0.75000000  1
  N  N5  1  0.50000000  0.00000000  0.25000000  1
  Cl  Cl6  1  0.26801600  0.73198400  0.25380200  1
  Cl  Cl7  1  0.73198400  0.26801600  0.25380200  1
  Cl  Cl8  1  0.23198400  0.23198400  0.75380200  1
  Cl  Cl9  1  0.76801600  0.76801600  0.75380200  1
  Cl  Cl10  1  0.73198400  0.26801600  0.74619800  1
  Cl  Cl11  1  0.26801600  0.73198400  0.74619800  1
  Cl  Cl12  1  0.76801600  0.76801600  0.24619800  1
  Cl  Cl13  1  0.23198400  0.23198400  0.24619800  1
  O  O14  1  0.50000000  0.50000000  0.28207100  1
  O  O15  1  0.00000000  0.00000000  0.78207100  1
  O  O16  1  0.50000000  0.50000000  0.71792900  1
  O  O17  1  0.00000000  0.00000000  0.21792900  1
