# generated using pymatgen
data_Th2Ni7
_symmetry_space_group_name_H-M   'P 1'
_cell_length_a   4.97627786
_cell_length_b   4.97627800
_cell_length_c   12.73928880
_cell_angle_alpha   78.73703579
_cell_angle_beta   78.73703458
_cell_angle_gamma   59.99999905
_symmetry_Int_Tables_number   1
_chemical_formula_structural   Th2Ni7
_chemical_formula_sum   'Th4 Ni14'
_cell_volume   266.16419549
_cell_formula_units_Z   2
loop_
 _symmetry_equiv_pos_site_id
 _symmetry_equiv_pos_as_xyz
  1  'x, y, z'
loop_
 _atom_site_type_symbol
 _atom_site_label
 _atom_site_symmetry_multiplicity
 _atom_site_fract_x
 _atom_site_fract_y
 _atom_site_fract_z
 _atom_site_occupancy
  Th  Th0  1  0.95005800  0.95005800  0.14982700  1
  Th  Th1  1  0.04994200  0.04994200  0.85017300  1
  Th  Th2  1  0.85498600  0.85498600  0.43504300  1
  Th  Th3  1  0.14501400  0.14501400  0.56495700  1
  Ni  Ni4  1  0.38951900  0.38951900  0.32861700  1
  Ni  Ni5  1  0.89234500  0.38951900  0.32861700  1
  Ni  Ni6  1  0.38951900  0.89234500  0.32861700  1
  Ni  Ni7  1  0.61048100  0.61048100  0.67138300  1
  Ni  Ni8  1  0.10765500  0.61048100  0.67138300  1
  Ni  Ni9  1  0.61048100  0.10765500  0.67138300  1
  Ni  Ni10  1  0.00000000  0.50000000  0.00000000  1
  Ni  Ni11  1  0.50000000  0.00000000  0.00000000  1
  Ni  Ni12  1  0.50000000  0.50000000  0.00000000  1
  Ni  Ni13  1  0.72154300  0.72154300  0.83537000  1
  Ni  Ni14  1  0.27845700  0.27845700  0.16463000  1
  Ni  Ni15  1  0.61167100  0.61167100  0.16498800  1
  Ni  Ni16  1  0.38832900  0.38832900  0.83501200  1
  Ni  Ni17  1  0.50000000  0.50000000  0.50000000  1
