# generated using pymatgen
data_TlCl3
_symmetry_space_group_name_H-M   'P 1'
_cell_length_a   7.36852400
_cell_length_b   11.15181500
_cell_length_c   13.01900300
_cell_angle_alpha   90.00000000
_cell_angle_beta   90.00000000
_cell_angle_gamma   90.00000000
_symmetry_Int_Tables_number   1
_chemical_formula_structural   TlCl3
_chemical_formula_sum   'Tl4 Cl12'
_cell_volume   1069.80293655
_cell_formula_units_Z   4
loop_
 _symmetry_equiv_pos_site_id
 _symmetry_equiv_pos_as_xyz
  1  'x, y, z'
loop_
 _atom_site_type_symbol
 _atom_site_label
 _atom_site_symmetry_multiplicity
 _atom_site_fract_x
 _atom_site_fract_y
 _atom_site_fract_z
 _atom_site_occupancy
  Tl  Tl0  1  0.17300600  0.75000000  0.24848000  1
  Tl  Tl1  1  0.32699400  0.75000000  0.74848000  1
  Tl  Tl2  1  0.82699400  0.25000000  0.75152000  1
  Tl  Tl3  1  0.67300600  0.25000000  0.25152000  1
  Cl  Cl4  1  0.32219800  0.75000000  0.08610400  1
  Cl  Cl5  1  0.17780200  0.75000000  0.58610400  1
  Cl  Cl6  1  0.67780200  0.25000000  0.91389600  1
  Cl  Cl7  1  0.82219800  0.25000000  0.41389600  1
  Cl  Cl8  1  0.08724800  0.93170400  0.33374700  1
  Cl  Cl9  1  0.41275200  0.56829600  0.83374700  1
  Cl  Cl10  1  0.91275200  0.43170400  0.66625300  1
  Cl  Cl11  1  0.58724800  0.06829600  0.16625300  1
  Cl  Cl12  1  0.91275200  0.06829600  0.66625300  1
  Cl  Cl13  1  0.58724800  0.43170400  0.16625300  1
  Cl  Cl14  1  0.08724800  0.56829600  0.33374700  1
  Cl  Cl15  1  0.41275200  0.93170400  0.83374700  1
