# generated using pymatgen
data_C2NCl
_symmetry_space_group_name_H-M   'P 1'
_cell_length_a   8.79269041
_cell_length_b   8.79269041
_cell_length_c   8.79268970
_cell_angle_alpha   128.54642057
_cell_angle_beta   111.90226929
_cell_angle_gamma   90.21926540
_symmetry_Int_Tables_number   1
_chemical_formula_structural   C2NCl
_chemical_formula_sum   'C8 N4 Cl4'
_cell_volume   466.39954352
_cell_formula_units_Z   4
loop_
 _symmetry_equiv_pos_site_id
 _symmetry_equiv_pos_as_xyz
  1  'x, y, z'
loop_
 _atom_site_type_symbol
 _atom_site_label
 _atom_site_symmetry_multiplicity
 _atom_site_fract_x
 _atom_site_fract_y
 _atom_site_fract_z
 _atom_site_occupancy
  C  C0  1  0.01589400  0.19429800  0.38242800  1
  C  C1  1  0.18813000  0.80570200  0.82159700  1
  C  C2  1  0.31187000  0.63346600  0.11757200  1
  C  C3  1  0.48410600  0.36653400  0.67840300  1
  C  C4  1  0.98410600  0.80570200  0.61757200  1
  C  C5  1  0.81187000  0.19429800  0.17840300  1
  C  C6  1  0.68813000  0.36653400  0.88242800  1
  C  C7  1  0.51589400  0.63346600  0.32159700  1
  N  N8  1  0.85215600  0.08568000  0.23352400  1
  N  N9  1  0.14784400  0.91432000  0.76647600  1
  N  N10  1  0.35215600  0.61863100  0.26647600  1
  N  N11  1  0.64784400  0.38136900  0.73352400  1
  Cl  Cl12  1  0.56654900  0.80130800  0.23476000  1
  Cl  Cl13  1  0.43345100  0.19869200  0.76524000  1
  Cl  Cl14  1  0.06654900  0.33178900  0.26524000  1
  Cl  Cl15  1  0.93345100  0.66821100  0.73476000  1
