# generated using pymatgen
data_Tl2Hg3Te4
_symmetry_space_group_name_H-M   'P 1'
_cell_length_a   7.60165461
_cell_length_b   7.60165461
_cell_length_c   13.35042796
_cell_angle_alpha   97.06729262
_cell_angle_beta   98.84898873
_cell_angle_gamma   120.91419284
_symmetry_Int_Tables_number   1
_chemical_formula_structural   Tl2Hg3Te4
_chemical_formula_sum   'Tl4 Hg6 Te8'
_cell_volume   635.13334385
_cell_formula_units_Z   2
loop_
 _symmetry_equiv_pos_site_id
 _symmetry_equiv_pos_as_xyz
  1  'x, y, z'
loop_
 _atom_site_type_symbol
 _atom_site_label
 _atom_site_symmetry_multiplicity
 _atom_site_fract_x
 _atom_site_fract_y
 _atom_site_fract_z
 _atom_site_occupancy
  Tl  Tl0  1  0.92692200  0.70012900  0.45346700  1
  Tl  Tl1  1  0.24666300  0.97345600  0.04653300  1
  Tl  Tl2  1  0.07307800  0.29987100  0.54653300  1
  Tl  Tl3  1  0.75333700  0.02654400  0.95346700  1
  Hg  Hg4  1  0.86184700  0.61184700  0.75000000  1
  Hg  Hg5  1  0.13815300  0.38815300  0.25000000  1
  Hg  Hg6  1  0.45119000  0.97065100  0.65160500  1
  Hg  Hg7  1  0.31904600  0.29958500  0.84839500  1
  Hg  Hg8  1  0.54881000  0.02934900  0.34839500  1
  Hg  Hg9  1  0.68095400  0.70041500  0.15160500  1
  Te  Te10  1  0.27963500  0.67755900  0.76641600  1
  Te  Te11  1  0.91114200  0.01321800  0.73358400  1
  Te  Te12  1  0.72036500  0.32244100  0.23358400  1
  Te  Te13  1  0.08885800  0.98678200  0.26641600  1
  Te  Te14  1  0.73906100  0.46609600  0.93452800  1
  Te  Te15  1  0.53156800  0.30453300  0.56547200  1
  Te  Te16  1  0.26093900  0.53390400  0.06547200  1
  Te  Te17  1  0.46843200  0.69546700  0.43452800  1
