# generated using pymatgen
data_SrHgAs2O7
_symmetry_space_group_name_H-M   'P 1'
_cell_length_a   5.92815000
_cell_length_b   7.42187090
_cell_length_c   7.68147209
_cell_angle_alpha   101.71003440
_cell_angle_beta   90.07302322
_cell_angle_gamma   98.74083705
_symmetry_Int_Tables_number   1
_chemical_formula_structural   SrHgAs2O7
_chemical_formula_sum   'Sr2 Hg2 As4 O14'
_cell_volume   326.91138168
_cell_formula_units_Z   2
loop_
 _symmetry_equiv_pos_site_id
 _symmetry_equiv_pos_as_xyz
  1  'x, y, z'
loop_
 _atom_site_type_symbol
 _atom_site_label
 _atom_site_symmetry_multiplicity
 _atom_site_fract_x
 _atom_site_fract_y
 _atom_site_fract_z
 _atom_site_occupancy
  Sr  Sr0  1  0.68905500  0.27313800  0.93708000  1
  Sr  Sr1  1  0.31094500  0.72686200  0.06292000  1
  Hg  Hg2  1  0.31133100  0.82698500  0.59515900  1
  Hg  Hg3  1  0.68866900  0.17301500  0.40484100  1
  As  As4  1  0.81487700  0.77531700  0.81704400  1
  As  As5  1  0.18512300  0.22468300  0.18295600  1
  As  As6  1  0.78963600  0.66756800  0.38051000  1
  As  As7  1  0.21036400  0.33243200  0.61949000  1
  O  O8  1  0.94007500  0.22460400  0.65034900  1
  O  O9  1  0.05992500  0.77539600  0.34965100  1
  O  O10  1  0.76366000  0.63078600  0.96202000  1
  O  O11  1  0.23634000  0.36921400  0.03798000  1
  O  O12  1  0.78638100  0.62109600  0.60125400  1
  O  O13  1  0.21361900  0.37890400  0.39874600  1
  O  O14  1  0.60829200  0.91562200  0.82509600  1
  O  O15  1  0.39170800  0.08437800  0.17490400  1
  O  O16  1  0.58336300  0.80708300  0.36588300  1
  O  O17  1  0.41663700  0.19291700  0.63411700  1
  O  O18  1  0.28207000  0.55147100  0.73951600  1
  O  O19  1  0.71793000  0.44852900  0.26048400  1
  O  O20  1  0.08930700  0.89287200  0.84122800  1
  O  O21  1  0.91069300  0.10712800  0.15877200  1
