# generated using pymatgen
data_Er2CoTe2(SO7)2
_symmetry_space_group_name_H-M   'P 1'
_cell_length_a   5.27300100
_cell_length_b   7.87340896
_cell_length_c   8.15422299
_cell_angle_alpha   64.14671053
_cell_angle_beta   73.14980189
_cell_angle_gamma   85.55056676
_symmetry_Int_Tables_number   1
_chemical_formula_structural   Er2CoTe2(SO7)2
_chemical_formula_sum   'Er2 Co1 Te2 S2 O14'
_cell_volume   291.10319074
_cell_formula_units_Z   1
loop_
 _symmetry_equiv_pos_site_id
 _symmetry_equiv_pos_as_xyz
  1  'x, y, z'
loop_
 _atom_site_type_symbol
 _atom_site_label
 _atom_site_symmetry_multiplicity
 _atom_site_fract_x
 _atom_site_fract_y
 _atom_site_fract_z
 _atom_site_occupancy
  Er  Er0  1  0.91721800  0.74725800  0.98341500  1
  Er  Er1  1  0.08278200  0.25274200  0.01658500  1
  Co  Co2  1  0.00000000  0.00000000  0.50000000  1
  Te  Te3  1  0.48384200  0.72558800  0.66407700  1
  Te  Te4  1  0.51615800  0.27441200  0.33592300  1
  S  S5  1  0.23614200  0.75548300  0.24730400  1
  S  S6  1  0.76385800  0.24451700  0.75269600  1
  O  O7  1  0.09981700  0.59498900  0.25116800  1
  O  O8  1  0.90018300  0.40501100  0.74883200  1
  O  O9  1  0.13387400  0.77201600  0.42863400  1
  O  O10  1  0.86612600  0.22798400  0.57136600  1
  O  O11  1  0.52628500  0.73057200  0.21141800  1
  O  O12  1  0.47371500  0.26942800  0.78858200  1
  O  O13  1  0.17639800  0.92693600  0.08592000  1
  O  O14  1  0.82360200  0.07306400  0.91408000  1
  O  O15  1  0.24417100  0.56018200  0.89820500  1
  O  O16  1  0.75582900  0.43981800  0.10179500  1
  O  O17  1  0.72483200  0.80698700  0.75332500  1
  O  O18  1  0.27516800  0.19301300  0.24667500  1
  O  O19  1  0.24684500  0.92184800  0.67052400  1
  O  O20  1  0.75315500  0.07815200  0.32947600  1
