# generated using pymatgen
data_Ba3Sn2
_symmetry_space_group_name_H-M   'P 1'
_cell_length_a   6.72637500
_cell_length_b   6.72637500
_cell_length_c   18.11405000
_cell_angle_alpha   90.00000000
_cell_angle_beta   90.00000000
_cell_angle_gamma   90.00000000
_symmetry_Int_Tables_number   1
_chemical_formula_structural   Ba3Sn2
_chemical_formula_sum   'Ba12 Sn8'
_cell_volume   819.55426349
_cell_formula_units_Z   4
loop_
 _symmetry_equiv_pos_site_id
 _symmetry_equiv_pos_as_xyz
  1  'x, y, z'
loop_
 _atom_site_type_symbol
 _atom_site_label
 _atom_site_symmetry_multiplicity
 _atom_site_fract_x
 _atom_site_fract_y
 _atom_site_fract_z
 _atom_site_occupancy
  Ba  Ba0  1  0.34134500  0.91438700  0.13714600  1
  Ba  Ba1  1  0.65865500  0.08561300  0.63714600  1
  Ba  Ba2  1  0.41438700  0.15865500  0.38714600  1
  Ba  Ba3  1  0.58561300  0.84134500  0.88714600  1
  Ba  Ba4  1  0.08561300  0.65865500  0.36285400  1
  Ba  Ba5  1  0.91438700  0.34134500  0.86285400  1
  Ba  Ba6  1  0.15865500  0.41438700  0.61285400  1
  Ba  Ba7  1  0.84134500  0.58561300  0.11285400  1
  Ba  Ba8  1  0.82770700  0.17229300  0.25000000  1
  Ba  Ba9  1  0.17229300  0.82770700  0.75000000  1
  Ba  Ba10  1  0.67229300  0.67229300  0.50000000  1
  Ba  Ba11  1  0.32770700  0.32770700  0.00000000  1
  Sn  Sn12  1  0.33057100  0.41195900  0.20228900  1
  Sn  Sn13  1  0.66942900  0.58804100  0.70228900  1
  Sn  Sn14  1  0.91195900  0.16942900  0.45228900  1
  Sn  Sn15  1  0.08804100  0.83057100  0.95228900  1
  Sn  Sn16  1  0.58804100  0.66942900  0.29771100  1
  Sn  Sn17  1  0.41195900  0.33057100  0.79771100  1
  Sn  Sn18  1  0.16942900  0.91195900  0.54771100  1
  Sn  Sn19  1  0.83057100  0.08804100  0.04771100  1
