# generated using pymatgen
data_ZrO2
_symmetry_space_group_name_H-M   'P 1'
_cell_length_a   5.16361100
_cell_length_b   5.33505800
_cell_length_c   10.21395300
_cell_angle_alpha   90.00000000
_cell_angle_beta   90.00000000
_cell_angle_gamma   90.00000000
_symmetry_Int_Tables_number   1
_chemical_formula_structural   ZrO2
_chemical_formula_sum   'Zr8 O16'
_cell_volume   281.37565411
_cell_formula_units_Z   8
loop_
 _symmetry_equiv_pos_site_id
 _symmetry_equiv_pos_as_xyz
  1  'x, y, z'
loop_
 _atom_site_type_symbol
 _atom_site_label
 _atom_site_symmetry_multiplicity
 _atom_site_fract_x
 _atom_site_fract_y
 _atom_site_fract_z
 _atom_site_occupancy
  Zr  Zr0  1  0.75230700  0.96511300  0.38448000  1
  Zr  Zr1  1  0.24769300  0.53488700  0.88448000  1
  Zr  Zr2  1  0.74769300  0.46511300  0.61552000  1
  Zr  Zr3  1  0.25230700  0.03488700  0.11552000  1
  Zr  Zr4  1  0.24769300  0.03488700  0.61552000  1
  Zr  Zr5  1  0.75230700  0.46511300  0.11552000  1
  Zr  Zr6  1  0.25230700  0.53488700  0.38448000  1
  Zr  Zr7  1  0.74769300  0.96511300  0.88448000  1
  O  O8  1  0.99839400  0.26115600  0.47830200  1
  O  O9  1  0.00160600  0.23884400  0.97830200  1
  O  O10  1  0.50160600  0.76115600  0.52169800  1
  O  O11  1  0.49839400  0.73884400  0.02169800  1
  O  O12  1  0.00160600  0.73884400  0.52169800  1
  O  O13  1  0.99839400  0.76115600  0.02169800  1
  O  O14  1  0.49839400  0.23884400  0.47830200  1
  O  O15  1  0.50160600  0.26115600  0.97830200  1
  O  O16  1  0.62511400  0.62774200  0.28878800  1
  O  O17  1  0.37488600  0.87225800  0.78878800  1
  O  O18  1  0.87488600  0.12774200  0.71121200  1
  O  O19  1  0.12511400  0.37225800  0.21121200  1
  O  O20  1  0.37488600  0.37225800  0.71121200  1
  O  O21  1  0.62511400  0.12774200  0.21121200  1
  O  O22  1  0.12511400  0.87225800  0.28878800  1
  O  O23  1  0.87488600  0.62774200  0.78878800  1
