# generated using pymatgen
data_BH8N
_symmetry_space_group_name_H-M   'P 1'
_cell_length_a   4.08989600
_cell_length_b   4.14256900
_cell_length_c   8.64049200
_cell_angle_alpha   90.00000000
_cell_angle_beta   90.00000000
_cell_angle_gamma   90.00000000
_symmetry_Int_Tables_number   1
_chemical_formula_structural   BH8N
_chemical_formula_sum   'B2 H16 N2'
_cell_volume   146.39305974
_cell_formula_units_Z   2
loop_
 _symmetry_equiv_pos_site_id
 _symmetry_equiv_pos_as_xyz
  1  'x, y, z'
loop_
 _atom_site_type_symbol
 _atom_site_label
 _atom_site_symmetry_multiplicity
 _atom_site_fract_x
 _atom_site_fract_y
 _atom_site_fract_z
 _atom_site_occupancy
  B  B0  1  0.52424300  0.45462900  0.25000000  1
  B  B1  1  0.52424300  0.54537100  0.75000000  1
  H  H2  1  0.89982700  0.84985500  0.56583400  1
  H  H3  1  0.89982700  0.15014500  0.43416600  1
  H  H4  1  0.89982700  0.84985500  0.93416600  1
  H  H5  1  0.89982700  0.15014500  0.06583400  1
  H  H6  1  0.19133200  0.13730900  0.57315200  1
  H  H7  1  0.19133200  0.86269100  0.42684800  1
  H  H8  1  0.19133200  0.13730900  0.92684800  1
  H  H9  1  0.19133200  0.86269100  0.07315200  1
  H  H10  1  0.64972700  0.57286900  0.13473100  1
  H  H11  1  0.64972700  0.42713100  0.86526900  1
  H  H12  1  0.64972700  0.57286900  0.36526900  1
  H  H13  1  0.64972700  0.42713100  0.63473100  1
  H  H14  1  0.57102900  0.16070600  0.25000000  1
  H  H15  1  0.57102900  0.83929400  0.75000000  1
  H  H16  1  0.22842600  0.50488900  0.25000000  1
  H  H17  1  0.22842600  0.49511100  0.75000000  1
  N  N18  1  0.04653000  0.00000000  0.50000000  1
  N  N19  1  0.04653000  0.00000000  0.00000000  1
