# generated using pymatgen
data_DyGa3
_symmetry_space_group_name_H-M   'P 1'
_cell_length_a   9.97121356
_cell_length_b   9.97121356
_cell_length_c   9.97121333
_cell_angle_alpha   36.32624080
_cell_angle_beta   36.32624080
_cell_angle_gamma   36.32623546
_symmetry_Int_Tables_number   1
_chemical_formula_structural   DyGa3
_chemical_formula_sum   'Dy4 Ga12'
_cell_volume   311.34530922
_cell_formula_units_Z   4
loop_
 _symmetry_equiv_pos_site_id
 _symmetry_equiv_pos_as_xyz
  1  'x, y, z'
loop_
 _atom_site_type_symbol
 _atom_site_label
 _atom_site_symmetry_multiplicity
 _atom_site_fract_x
 _atom_site_fract_y
 _atom_site_fract_z
 _atom_site_occupancy
  Dy  Dy0  1  0.87046300  0.87046300  0.87046300  1
  Dy  Dy1  1  0.12953700  0.12953700  0.12953700  1
  Dy  Dy2  1  0.71215100  0.71215100  0.71215100  1
  Dy  Dy3  1  0.28784900  0.28784900  0.28784900  1
  Ga  Ga4  1  0.39765300  0.83125600  0.39765300  1
  Ga  Ga5  1  0.39765300  0.39765300  0.83125600  1
  Ga  Ga6  1  0.83125600  0.39765300  0.39765300  1
  Ga  Ga7  1  0.60234700  0.16874400  0.60234700  1
  Ga  Ga8  1  0.60234700  0.60234700  0.16874400  1
  Ga  Ga9  1  0.16874400  0.60234700  0.60234700  1
  Ga  Ga10  1  0.20773600  0.70993200  0.20773600  1
  Ga  Ga11  1  0.20773600  0.20773600  0.70993200  1
  Ga  Ga12  1  0.70993200  0.20773600  0.20773600  1
  Ga  Ga13  1  0.79226400  0.29006800  0.79226400  1
  Ga  Ga14  1  0.79226400  0.79226400  0.29006800  1
  Ga  Ga15  1  0.29006800  0.79226400  0.79226400  1
