# generated using pymatgen
data_NaB3H8
_symmetry_space_group_name_H-M   'P 1'
_cell_length_a   4.68484600
_cell_length_b   5.75012000
_cell_length_c   8.15083700
_cell_angle_alpha   90.00000000
_cell_angle_beta   90.00000000
_cell_angle_gamma   90.00000000
_symmetry_Int_Tables_number   1
_chemical_formula_structural   NaB3H8
_chemical_formula_sum   'Na2 B6 H16'
_cell_volume   219.57072492
_cell_formula_units_Z   2
loop_
 _symmetry_equiv_pos_site_id
 _symmetry_equiv_pos_as_xyz
  1  'x, y, z'
loop_
 _atom_site_type_symbol
 _atom_site_label
 _atom_site_symmetry_multiplicity
 _atom_site_fract_x
 _atom_site_fract_y
 _atom_site_fract_z
 _atom_site_occupancy
  Na  Na0  1  0.59010600  0.54905100  0.50000000  1
  Na  Na1  1  0.09010600  0.45094900  0.00000000  1
  B  B2  1  0.09584700  0.25724600  0.60912500  1
  B  B3  1  0.09584700  0.25724600  0.39087500  1
  B  B4  1  0.59584700  0.74275400  0.89087500  1
  B  B5  1  0.59584700  0.74275400  0.10912500  1
  B  B6  1  0.19328700  0.99985700  0.50000000  1
  B  B7  1  0.69328700  0.00014300  0.00000000  1
  H  H8  1  0.85886300  0.28597300  0.66500000  1
  H  H9  1  0.85886300  0.28597300  0.33500000  1
  H  H10  1  0.35886300  0.71402700  0.83500000  1
  H  H11  1  0.35886300  0.71402700  0.16500000  1
  H  H12  1  0.27680100  0.38005600  0.67094100  1
  H  H13  1  0.27680100  0.38005600  0.32905900  1
  H  H14  1  0.77680100  0.61994400  0.82905900  1
  H  H15  1  0.77680100  0.61994400  0.17094100  1
  H  H16  1  0.15966300  0.05981300  0.66988300  1
  H  H17  1  0.15966300  0.05981300  0.33011700  1
  H  H18  1  0.65966300  0.94018700  0.83011700  1
  H  H19  1  0.65966300  0.94018700  0.16988300  1
  H  H20  1  0.44493000  0.95195600  0.50000000  1
  H  H21  1  0.94493000  0.04804400  0.00000000  1
  H  H22  1  0.03289000  0.83428000  0.50000000  1
  H  H23  1  0.53289000  0.16572000  0.00000000  1
