# generated using pymatgen
data_BaVSi2O7
_symmetry_space_group_name_H-M   'P 1'
_cell_length_a   5.42748400
_cell_length_b   7.19005800
_cell_length_c   8.21206300
_cell_angle_alpha   90.00000000
_cell_angle_beta   109.29657721
_cell_angle_gamma   90.00000000
_symmetry_Int_Tables_number   1
_chemical_formula_structural   BaVSi2O7
_chemical_formula_sum   'Ba2 V2 Si4 O14'
_cell_volume   302.46331895
_cell_formula_units_Z   2
loop_
 _symmetry_equiv_pos_site_id
 _symmetry_equiv_pos_as_xyz
  1  'x, y, z'
loop_
 _atom_site_type_symbol
 _atom_site_label
 _atom_site_symmetry_multiplicity
 _atom_site_fract_x
 _atom_site_fract_y
 _atom_site_fract_z
 _atom_site_occupancy
  Ba  Ba0  1  0.81032000  0.75000000  0.58743700  1
  Ba  Ba1  1  0.22288300  0.25000000  0.41256300  1
  V  V2  1  0.11749800  0.75000000  0.21225800  1
  V  V3  1  0.90524000  0.25000000  0.78774200  1
  Si  Si4  1  0.41138000  0.52394700  0.79306400  1
  Si  Si5  1  0.61831700  0.47605300  0.20693600  1
  Si  Si6  1  0.41138000  0.97605300  0.79306400  1
  Si  Si7  1  0.61831700  0.02394700  0.20693600  1
  O  O8  1  0.11865400  0.43803600  0.70807200  1
  O  O9  1  0.41058200  0.56196400  0.29192800  1
  O  O10  1  0.11865400  0.06196400  0.70807200  1
  O  O11  1  0.41058200  0.93803600  0.29192800  1
  O  O12  1  0.51717500  0.50000000  0.00000000  1
  O  O13  1  0.51717500  0.00000000  0.00000000  1
  O  O14  1  0.99768400  0.75000000  0.00074600  1
  O  O15  1  0.99693700  0.25000000  0.99925400  1
  O  O16  1  0.38312700  0.75000000  0.73973800  1
  O  O17  1  0.64338900  0.25000000  0.26026200  1
  O  O18  1  0.61256700  0.43909900  0.70178100  1
  O  O19  1  0.91078600  0.56090100  0.29821900  1
  O  O20  1  0.61256700  0.06090100  0.70178100  1
  O  O21  1  0.91078600  0.93909900  0.29821900  1
