# generated using pymatgen
data_CaWO4
_symmetry_space_group_name_H-M   'P 1'
_cell_length_a   7.79125449
_cell_length_b   7.79125449
_cell_length_c   5.36212200
_cell_angle_alpha   90.00000000
_cell_angle_beta   90.00000000
_cell_angle_gamma   120.19025862
_symmetry_Int_Tables_number   1
_chemical_formula_structural   CaWO4
_chemical_formula_sum   'Ca4 W4 O16'
_cell_volume   281.34959170
_cell_formula_units_Z   4
loop_
 _symmetry_equiv_pos_site_id
 _symmetry_equiv_pos_as_xyz
  1  'x, y, z'
loop_
 _atom_site_type_symbol
 _atom_site_label
 _atom_site_symmetry_multiplicity
 _atom_site_fract_x
 _atom_site_fract_y
 _atom_site_fract_z
 _atom_site_occupancy
  Ca  Ca0  1  0.58764400  0.91235600  0.75000000  1
  Ca  Ca1  1  0.91235600  0.58764400  0.25000000  1
  Ca  Ca2  1  0.41235600  0.08764400  0.25000000  1
  Ca  Ca3  1  0.08764400  0.41235600  0.75000000  1
  W  W4  1  0.40938300  0.59061700  0.20826400  1
  W  W5  1  0.59061700  0.40938300  0.79173600  1
  W  W6  1  0.09061700  0.90938300  0.70826400  1
  W  W7  1  0.90938300  0.09061700  0.29173600  1
  O  O8  1  0.39706700  0.10293300  0.75000000  1
  O  O9  1  0.10293300  0.39706700  0.25000000  1
  O  O10  1  0.60293300  0.89706700  0.25000000  1
  O  O11  1  0.89706700  0.60293300  0.75000000  1
  O  O12  1  0.19884100  0.80115900  0.49776000  1
  O  O13  1  0.80115900  0.19884100  0.50224000  1
  O  O14  1  0.30115900  0.69884100  0.99776000  1
  O  O15  1  0.69884100  0.30115900  0.00224000  1
  O  O16  1  0.14995300  0.14995300  0.50000000  1
  O  O17  1  0.64995300  0.64995300  0.00000000  1
  O  O18  1  0.85004700  0.85004700  0.50000000  1
  O  O19  1  0.35004700  0.35004700  0.00000000  1
  O  O20  1  0.09209700  0.90790300  0.05511000  1
  O  O21  1  0.90790300  0.09209700  0.94489000  1
  O  O22  1  0.40790300  0.59209700  0.55511000  1
  O  O23  1  0.59209700  0.40790300  0.44489000  1
