# generated using pymatgen
data_PbAu2
_symmetry_space_group_name_H-M   'P 1'
_cell_length_a   5.68957400
_cell_length_b   8.33321700
_cell_length_c   11.37394800
_cell_angle_alpha   90.00000000
_cell_angle_beta   90.00000000
_cell_angle_gamma   90.00000000
_symmetry_Int_Tables_number   1
_chemical_formula_structural   PbAu2
_chemical_formula_sum   'Pb8 Au16'
_cell_volume   539.26679522
_cell_formula_units_Z   8
loop_
 _symmetry_equiv_pos_site_id
 _symmetry_equiv_pos_as_xyz
  1  'x, y, z'
loop_
 _atom_site_type_symbol
 _atom_site_label
 _atom_site_symmetry_multiplicity
 _atom_site_fract_x
 _atom_site_fract_y
 _atom_site_fract_z
 _atom_site_occupancy
  Pb  Pb0  1  0.50785500  0.87298100  0.12596700  1
  Pb  Pb1  1  0.99214500  0.62701900  0.62596700  1
  Pb  Pb2  1  0.99214500  0.37298100  0.87403300  1
  Pb  Pb3  1  0.50785500  0.12701900  0.37403300  1
  Pb  Pb4  1  0.49214500  0.12701900  0.87403300  1
  Pb  Pb5  1  0.00785500  0.37298100  0.37403300  1
  Pb  Pb6  1  0.00785500  0.62701900  0.12596700  1
  Pb  Pb7  1  0.49214500  0.87298100  0.62596700  1
  Au  Au8  1  0.48331300  0.50000000  0.25000000  1
  Au  Au9  1  0.01668700  0.00000000  0.75000000  1
  Au  Au10  1  0.51668700  0.50000000  0.75000000  1
  Au  Au11  1  0.98331300  0.00000000  0.25000000  1
  Au  Au12  1  0.28644500  0.77230900  0.37478300  1
  Au  Au13  1  0.21355500  0.72769100  0.87478300  1
  Au  Au14  1  0.21355500  0.27230900  0.62521700  1
  Au  Au15  1  0.28644500  0.22769100  0.12521700  1
  Au  Au16  1  0.71355500  0.22769100  0.62521700  1
  Au  Au17  1  0.78644500  0.27230900  0.12521700  1
  Au  Au18  1  0.78644500  0.72769100  0.37478300  1
  Au  Au19  1  0.71355500  0.77230900  0.87478300  1
  Au  Au20  1  0.50000000  0.50000000  0.00000000  1
  Au  Au21  1  0.00000000  0.00000000  0.50000000  1
  Au  Au22  1  0.00000000  0.00000000  0.00000000  1
  Au  Au23  1  0.50000000  0.50000000  0.50000000  1
