# generated using pymatgen
data_NaAsO6
_symmetry_space_group_name_H-M   'P 1'
_cell_length_a   4.60354000
_cell_length_b   6.23772811
_cell_length_c   8.64056072
_cell_angle_alpha   81.57983005
_cell_angle_beta   90.00000000
_cell_angle_gamma   90.00000000
_symmetry_Int_Tables_number   1
_chemical_formula_structural   NaAsO6
_chemical_formula_sum   'Na2 As2 O12'
_cell_volume   245.44463755
_cell_formula_units_Z   2
loop_
 _symmetry_equiv_pos_site_id
 _symmetry_equiv_pos_as_xyz
  1  'x, y, z'
loop_
 _atom_site_type_symbol
 _atom_site_label
 _atom_site_symmetry_multiplicity
 _atom_site_fract_x
 _atom_site_fract_y
 _atom_site_fract_z
 _atom_site_occupancy
  Na  Na0  1  0.08829400  0.73432600  0.04946000  1
  Na  Na1  1  0.58829400  0.26567400  0.95054000  1
  As  As2  1  0.35816600  0.86502800  0.42672300  1
  As  As3  1  0.85816600  0.13497200  0.57327700  1
  O  O4  1  0.30969000  0.94879500  0.21948300  1
  O  O5  1  0.80969000  0.05120500  0.78051700  1
  O  O6  1  0.48847200  0.10854100  0.50402400  1
  O  O7  1  0.98847200  0.89145900  0.49597600  1
  O  O8  1  0.10531900  0.29689100  0.05382500  1
  O  O9  1  0.60531900  0.70310900  0.94617500  1
  O  O10  1  0.01652900  0.12115200  0.14532900  1
  O  O11  1  0.51652900  0.87884800  0.85467100  1
  O  O12  1  0.10315000  0.50820400  0.75841100  1
  O  O13  1  0.60315000  0.49179600  0.24158900  1
  O  O14  1  0.86438000  0.49379100  0.28432500  1
  O  O15  1  0.36438000  0.50620900  0.71567500  1
