# generated using pymatgen
data_Ba5Cr5O14
_symmetry_space_group_name_H-M   'P 1'
_cell_length_a   5.83895745
_cell_length_b   5.82273661
_cell_length_c   12.24024669
_cell_angle_alpha   89.99999904
_cell_angle_beta   90.21453954
_cell_angle_gamma   119.90815454
_symmetry_Int_Tables_number   1
_chemical_formula_structural   Ba5Cr5O14
_chemical_formula_sum   'Ba5 Cr5 O14'
_cell_volume   360.72845419
_cell_formula_units_Z   1
loop_
 _symmetry_equiv_pos_site_id
 _symmetry_equiv_pos_as_xyz
  1  'x, y, z'
loop_
 _atom_site_type_symbol
 _atom_site_label
 _atom_site_symmetry_multiplicity
 _atom_site_fract_x
 _atom_site_fract_y
 _atom_site_fract_z
 _atom_site_occupancy
  Ba  Ba0  1  0.00000000  0.00000000  0.00000000  1
  Ba  Ba1  1  0.33407600  0.66703800  0.77044500  1
  Ba  Ba2  1  0.66592400  0.33296200  0.22955500  1
  Ba  Ba3  1  0.33466900  0.66733500  0.42321700  1
  Ba  Ba4  1  0.66533100  0.33266500  0.57678300  1
  Cr  Cr5  1  0.33346000  0.66673000  0.13399500  1
  Cr  Cr6  1  0.66654000  0.33327000  0.86600500  1
  Cr  Cr7  1  0.00305200  0.00152600  0.28884700  1
  Cr  Cr8  1  0.99694800  0.99847400  0.71115300  1
  Cr  Cr9  1  0.00000000  0.00000000  0.50000000  1
  O  O10  1  0.33311200  0.66655600  0.99381100  1
  O  O11  1  0.66688800  0.33344400  0.00618900  1
  O  O12  1  0.66858700  0.83429400  0.19207200  1
  O  O13  1  0.16525600  0.83436600  0.19168600  1
  O  O14  1  0.16525600  0.33089100  0.19168600  1
  O  O15  1  0.33141300  0.16570600  0.80792800  1
  O  O16  1  0.83474400  0.16563400  0.80831400  1
  O  O17  1  0.83474400  0.66910900  0.80831400  1
  O  O18  1  0.69746400  0.84873200  0.60302000  1
  O  O19  1  0.14848700  0.85186400  0.60099200  1
  O  O20  1  0.14848700  0.29662300  0.60099200  1
  O  O21  1  0.30253600  0.15126800  0.39698000  1
  O  O22  1  0.85151300  0.14813600  0.39900800  1
  O  O23  1  0.85151300  0.70337700  0.39900800  1
