# generated using pymatgen
data_TbPO4
_symmetry_space_group_name_H-M   'P 1'
_cell_length_a   6.85090400
_cell_length_b   6.33737600
_cell_length_c   8.01161933
_cell_angle_alpha   53.97319027
_cell_angle_beta   90.00000000
_cell_angle_gamma   90.00000000
_symmetry_Int_Tables_number   1
_chemical_formula_structural   TbPO4
_chemical_formula_sum   'Tb4 P4 O16'
_cell_volume   281.31156734
_cell_formula_units_Z   4
loop_
 _symmetry_equiv_pos_site_id
 _symmetry_equiv_pos_as_xyz
  1  'x, y, z'
loop_
 _atom_site_type_symbol
 _atom_site_label
 _atom_site_symmetry_multiplicity
 _atom_site_fract_x
 _atom_site_fract_y
 _atom_site_fract_z
 _atom_site_occupancy
  Tb  Tb0  1  0.34680000  0.81130900  0.78373900  1
  Tb  Tb1  1  0.15320000  0.81130900  0.28373900  1
  Tb  Tb2  1  0.65320000  0.18869100  0.21626100  1
  Tb  Tb3  1  0.84680000  0.18869100  0.71626100  1
  P  P4  1  0.33871900  0.31082500  0.80216200  1
  P  P5  1  0.16128100  0.31082500  0.30216200  1
  P  P6  1  0.66128100  0.68917500  0.19783800  1
  P  P7  1  0.83871900  0.68917500  0.69783800  1
  O  O8  1  0.49868800  0.18312800  0.75145100  1
  O  O9  1  0.00131200  0.18312800  0.25145100  1
  O  O10  1  0.50131200  0.81687200  0.24854900  1
  O  O11  1  0.99868800  0.81687200  0.74854900  1
  O  O12  1  0.16272300  0.11782400  0.88431500  1
  O  O13  1  0.33727700  0.11782400  0.38431500  1
  O  O14  1  0.83727700  0.88217600  0.11568500  1
  O  O15  1  0.66272300  0.88217600  0.61568500  1
  O  O16  1  0.39852600  0.34406900  0.97225200  1
  O  O17  1  0.10147400  0.34406900  0.47225200  1
  O  O18  1  0.60147400  0.65593100  0.02774800  1
  O  O19  1  0.89852600  0.65593100  0.52774800  1
  O  O20  1  0.28974600  0.59381300  0.62024200  1
  O  O21  1  0.21025400  0.59381300  0.12024200  1
  O  O22  1  0.71025400  0.40618700  0.37975800  1
  O  O23  1  0.78974600  0.40618700  0.87975800  1
