# generated using pymatgen
data_Mg2ClO3
_symmetry_space_group_name_H-M   'P 1'
_cell_length_a   6.51254600
_cell_length_b   7.47197400
_cell_length_c   8.58556200
_cell_angle_alpha   90.00000000
_cell_angle_beta   90.00000000
_cell_angle_gamma   90.00000000
_symmetry_Int_Tables_number   1
_chemical_formula_structural   Mg2ClO3
_chemical_formula_sum   'Mg8 Cl4 O12'
_cell_volume   417.78696391
_cell_formula_units_Z   4
loop_
 _symmetry_equiv_pos_site_id
 _symmetry_equiv_pos_as_xyz
  1  'x, y, z'
loop_
 _atom_site_type_symbol
 _atom_site_label
 _atom_site_symmetry_multiplicity
 _atom_site_fract_x
 _atom_site_fract_y
 _atom_site_fract_z
 _atom_site_occupancy
  Mg  Mg0  1  0.00000000  0.50000000  0.50000000  1
  Mg  Mg1  1  0.50000000  0.00000000  0.00000000  1
  Mg  Mg2  1  0.50000000  0.50000000  0.50000000  1
  Mg  Mg3  1  0.00000000  0.00000000  0.00000000  1
  Mg  Mg4  1  0.75000000  0.27656200  0.75022600  1
  Mg  Mg5  1  0.75000000  0.77656200  0.74977400  1
  Mg  Mg6  1  0.25000000  0.72343800  0.24977400  1
  Mg  Mg7  1  0.25000000  0.22343800  0.25022600  1
  Cl  Cl8  1  0.25000000  0.24350300  0.55883700  1
  Cl  Cl9  1  0.25000000  0.74350300  0.94116300  1
  Cl  Cl10  1  0.75000000  0.75649700  0.44116300  1
  Cl  Cl11  1  0.75000000  0.25649700  0.05883700  1
  O  O12  1  0.75000000  0.33583200  0.51069100  1
  O  O13  1  0.75000000  0.83583200  0.98930900  1
  O  O14  1  0.25000000  0.66416800  0.48930900  1
  O  O15  1  0.25000000  0.16416800  0.01069100  1
  O  O16  1  0.87177300  0.02814500  0.77308700  1
  O  O17  1  0.62822700  0.52814500  0.72691300  1
  O  O18  1  0.37177300  0.97185500  0.22691300  1
  O  O19  1  0.12822700  0.47185500  0.27308700  1
  O  O20  1  0.12822700  0.97185500  0.22691300  1
  O  O21  1  0.37177300  0.47185500  0.27308700  1
  O  O22  1  0.62822700  0.02814500  0.77308700  1
  O  O23  1  0.87177300  0.52814500  0.72691300  1
