# generated using pymatgen
data_CaAl2(OF3)2
_symmetry_space_group_name_H-M   'P 1'
_cell_length_a   6.56324703
_cell_length_b   6.56324703
_cell_length_c   7.63179269
_cell_angle_alpha   88.09424561
_cell_angle_beta   88.09424561
_cell_angle_gamma   118.27657512
_symmetry_Int_Tables_number   1
_chemical_formula_structural   CaAl2(OF3)2
_chemical_formula_sum   'Ca2 Al4 O4 F12'
_cell_volume   288.91044565
_cell_formula_units_Z   2
loop_
 _symmetry_equiv_pos_site_id
 _symmetry_equiv_pos_as_xyz
  1  'x, y, z'
loop_
 _atom_site_type_symbol
 _atom_site_label
 _atom_site_symmetry_multiplicity
 _atom_site_fract_x
 _atom_site_fract_y
 _atom_site_fract_z
 _atom_site_occupancy
  Ca  Ca0  1  0.03353000  0.96647000  0.25000000  1
  Ca  Ca1  1  0.96647000  0.03353000  0.75000000  1
  Al  Al2  1  0.50000000  0.00000000  0.50000000  1
  Al  Al3  1  0.00000000  0.50000000  0.00000000  1
  Al  Al4  1  0.36793100  0.63206900  0.25000000  1
  Al  Al5  1  0.63206900  0.36793100  0.75000000  1
  O  O6  1  0.40767000  0.94560800  0.26125900  1
  O  O7  1  0.05439200  0.59233000  0.23874100  1
  O  O8  1  0.59233000  0.05439200  0.73874100  1
  O  O9  1  0.94560800  0.40767000  0.76125900  1
  F  F10  1  0.38420300  0.68460900  0.49409800  1
  F  F11  1  0.31539100  0.61579700  0.00590200  1
  F  F12  1  0.61579700  0.31539100  0.50590200  1
  F  F13  1  0.68460900  0.38420300  0.99409800  1
  F  F14  1  0.79793500  0.04600700  0.46302800  1
  F  F15  1  0.95399300  0.20206500  0.03697200  1
  F  F16  1  0.20206500  0.95399300  0.53697200  1
  F  F17  1  0.04600700  0.79793500  0.96302800  1
  F  F18  1  0.27207600  0.33797700  0.29228100  1
  F  F19  1  0.66202300  0.72792400  0.20771900  1
  F  F20  1  0.72792400  0.66202300  0.70771900  1
  F  F21  1  0.33797700  0.27207600  0.79228100  1
