# generated using pymatgen
data_Mn2ClO3
_symmetry_space_group_name_H-M   'P 1'
_cell_length_a   5.93588000
_cell_length_b   6.68543300
_cell_length_c   8.50239300
_cell_angle_alpha   90.00000000
_cell_angle_beta   90.00000000
_cell_angle_gamma   90.00000000
_symmetry_Int_Tables_number   1
_chemical_formula_structural   Mn2ClO3
_chemical_formula_sum   'Mn8 Cl4 O12'
_cell_volume   337.40835195
_cell_formula_units_Z   4
loop_
 _symmetry_equiv_pos_site_id
 _symmetry_equiv_pos_as_xyz
  1  'x, y, z'
loop_
 _atom_site_type_symbol
 _atom_site_label
 _atom_site_symmetry_multiplicity
 _atom_site_fract_x
 _atom_site_fract_y
 _atom_site_fract_z
 _atom_site_occupancy
  Mn  Mn0  1  0.50000000  0.00000000  0.50000000  1
  Mn  Mn1  1  0.00000000  0.50000000  0.00000000  1
  Mn  Mn2  1  0.50000000  0.50000000  0.50000000  1
  Mn  Mn3  1  0.00000000  0.00000000  0.00000000  1
  Mn  Mn4  1  0.69441000  0.25000000  0.24886700  1
  Mn  Mn5  1  0.19441000  0.25000000  0.25113300  1
  Mn  Mn6  1  0.30559000  0.75000000  0.75113300  1
  Mn  Mn7  1  0.80559000  0.75000000  0.74886700  1
  Cl  Cl8  1  0.83586000  0.75000000  0.47130800  1
  Cl  Cl9  1  0.33586000  0.75000000  0.02869200  1
  Cl  Cl10  1  0.16414000  0.25000000  0.52869200  1
  Cl  Cl11  1  0.66414000  0.25000000  0.97130800  1
  O  O12  1  0.68038500  0.25000000  0.47694900  1
  O  O13  1  0.18038500  0.25000000  0.02305100  1
  O  O14  1  0.31961500  0.75000000  0.52305100  1
  O  O15  1  0.81961500  0.75000000  0.97694900  1
  O  O16  1  0.94823400  0.05990700  0.22567400  1
  O  O17  1  0.44823400  0.44009300  0.27432600  1
  O  O18  1  0.05176600  0.55990700  0.77432600  1
  O  O19  1  0.55176600  0.94009300  0.72567400  1
  O  O20  1  0.05176600  0.94009300  0.77432600  1
  O  O21  1  0.55176600  0.55990700  0.72567400  1
  O  O22  1  0.94823400  0.44009300  0.22567400  1
  O  O23  1  0.44823400  0.05990700  0.27432600  1
