# generated using pymatgen
data_KCuAg2(CN)4
_symmetry_space_group_name_H-M   'P 1'
_cell_length_a   7.92983300
_cell_length_b   7.57407200
_cell_length_c   7.65042040
_cell_angle_alpha   90.00000000
_cell_angle_beta   102.22462361
_cell_angle_gamma   90.00000000
_symmetry_Int_Tables_number   1
_chemical_formula_structural   KCuAg2(CN)4
_chemical_formula_sum   'K2 Cu2 Ag4 C8 N8'
_cell_volume   449.07385654
_cell_formula_units_Z   2
loop_
 _symmetry_equiv_pos_site_id
 _symmetry_equiv_pos_as_xyz
  1  'x, y, z'
loop_
 _atom_site_type_symbol
 _atom_site_label
 _atom_site_symmetry_multiplicity
 _atom_site_fract_x
 _atom_site_fract_y
 _atom_site_fract_z
 _atom_site_occupancy
  K  K0  1  0.50000000  0.75212900  0.75000000  1
  K  K1  1  0.50000000  0.24787100  0.25000000  1
  Cu  Cu2  1  0.50000000  0.74436600  0.25000000  1
  Cu  Cu3  1  0.50000000  0.25563400  0.75000000  1
  Ag  Ag4  1  0.00000000  0.00000000  0.50000000  1
  Ag  Ag5  1  0.00000000  0.00000000  0.00000000  1
  Ag  Ag6  1  0.00000000  0.56748700  0.75000000  1
  Ag  Ag7  1  0.00000000  0.43251300  0.25000000  1
  C  C8  1  0.21806200  0.92514700  0.41553400  1
  C  C9  1  0.78193800  0.92514700  0.08446600  1
  C  C10  1  0.78193800  0.07485300  0.58446600  1
  C  C11  1  0.21806200  0.07485300  0.91553400  1
  C  C12  1  0.21619700  0.58278300  0.95089700  1
  C  C13  1  0.78380300  0.58278300  0.54910300  1
  C  C14  1  0.78380300  0.41721700  0.04910300  1
  C  C15  1  0.21619700  0.41721700  0.45089700  1
  N  N16  1  0.34049900  0.87731600  0.36495400  1
  N  N17  1  0.65950100  0.87731600  0.13504600  1
  N  N18  1  0.65950100  0.12268400  0.63504600  1
  N  N19  1  0.34049900  0.12268400  0.86495400  1
  N  N20  1  0.33900500  0.61007300  0.06416900  1
  N  N21  1  0.66099500  0.61007300  0.43583100  1
  N  N22  1  0.66099500  0.38992700  0.93583100  1
  N  N23  1  0.33900500  0.38992700  0.56416900  1
