# generated using pymatgen
data_Ce2Fe17H3
_symmetry_space_group_name_H-M   'P 1'
_cell_length_a   6.43642970
_cell_length_b   6.43642970
_cell_length_c   6.43642926
_cell_angle_alpha   83.88173704
_cell_angle_beta   83.88173704
_cell_angle_gamma   83.88172833
_symmetry_Int_Tables_number   1
_chemical_formula_structural   Ce2Fe17H3
_chemical_formula_sum   'Ce2 Fe17 H3'
_cell_volume   262.39142354
_cell_formula_units_Z   1
loop_
 _symmetry_equiv_pos_site_id
 _symmetry_equiv_pos_as_xyz
  1  'x, y, z'
loop_
 _atom_site_type_symbol
 _atom_site_label
 _atom_site_symmetry_multiplicity
 _atom_site_fract_x
 _atom_site_fract_y
 _atom_site_fract_z
 _atom_site_occupancy
  Ce  Ce0  1  0.65887500  0.65887500  0.65887500  1
  Ce  Ce1  1  0.34112500  0.34112500  0.34112500  1
  Fe  Fe2  1  0.00000000  0.00000000  0.50000000  1
  Fe  Fe3  1  0.50000000  0.00000000  0.00000000  1
  Fe  Fe4  1  0.00000000  0.50000000  0.00000000  1
  Fe  Fe5  1  0.71662200  0.28337800  0.00000000  1
  Fe  Fe6  1  0.00000000  0.71662200  0.28337800  1
  Fe  Fe7  1  0.28337800  0.00000000  0.71662200  1
  Fe  Fe8  1  0.00000000  0.28337800  0.71662200  1
  Fe  Fe9  1  0.71662200  0.00000000  0.28337800  1
  Fe  Fe10  1  0.28337800  0.71662200  0.00000000  1
  Fe  Fe11  1  0.34342200  0.34342200  0.84694100  1
  Fe  Fe12  1  0.84694100  0.34342200  0.34342200  1
  Fe  Fe13  1  0.34342200  0.84694100  0.34342200  1
  Fe  Fe14  1  0.65657800  0.65657800  0.15305900  1
  Fe  Fe15  1  0.15305900  0.65657800  0.65657800  1
  Fe  Fe16  1  0.65657800  0.15305900  0.65657800  1
  Fe  Fe17  1  0.90413900  0.90413900  0.90413900  1
  Fe  Fe18  1  0.09586100  0.09586100  0.09586100  1
  H  H19  1  0.50000000  0.50000000  0.00000000  1
  H  H20  1  0.00000000  0.50000000  0.50000000  1
  H  H21  1  0.50000000  0.00000000  0.50000000  1
