# generated using pymatgen
data_K2RuNO2F5
_symmetry_space_group_name_H-M   'P 1'
_cell_length_a   6.30837500
_cell_length_b   6.42086300
_cell_length_c   9.89469989
_cell_angle_alpha   71.06715788
_cell_angle_beta   90.00000000
_cell_angle_gamma   90.00000000
_symmetry_Int_Tables_number   1
_chemical_formula_structural   K2RuNO2F5
_chemical_formula_sum   'K4 Ru2 N2 O4 F10'
_cell_volume   379.10415367
_cell_formula_units_Z   2
loop_
 _symmetry_equiv_pos_site_id
 _symmetry_equiv_pos_as_xyz
  1  'x, y, z'
loop_
 _atom_site_type_symbol
 _atom_site_label
 _atom_site_symmetry_multiplicity
 _atom_site_fract_x
 _atom_site_fract_y
 _atom_site_fract_z
 _atom_site_occupancy
  K  K0  1  0.25000000  0.60951100  0.78097800  1
  K  K1  1  0.75000000  0.39048900  0.21902200  1
  K  K2  1  0.25000000  0.24901200  0.50197600  1
  K  K3  1  0.75000000  0.75098800  0.49802400  1
  Ru  Ru4  1  0.25000000  0.85936200  0.28127700  1
  Ru  Ru5  1  0.75000000  0.14063800  0.71872300  1
  N  N6  1  0.25000000  0.95223900  0.09552100  1
  N  N7  1  0.75000000  0.04776100  0.90447900  1
  O  O8  1  0.25000000  0.01481500  0.97037100  1
  O  O9  1  0.75000000  0.98518500  0.02962900  1
  O  O10  1  0.75000000  0.53416800  0.93166400  1
  O  O11  1  0.25000000  0.46583200  0.06833600  1
  F  F12  1  0.25000000  0.75499800  0.49000500  1
  F  F13  1  0.75000000  0.24500200  0.50999500  1
  F  F14  1  0.46978900  0.63243600  0.30246900  1
  F  F15  1  0.53021100  0.93490500  0.69753100  1
  F  F16  1  0.03021100  0.63243600  0.30246900  1
  F  F17  1  0.96978900  0.93490500  0.69753100  1
  F  F18  1  0.53021100  0.36756400  0.69753100  1
  F  F19  1  0.46978900  0.06509500  0.30246900  1
  F  F20  1  0.96978900  0.36756400  0.69753100  1
  F  F21  1  0.03021100  0.06509500  0.30246900  1
