# generated using pymatgen
data_LaS2
_symmetry_space_group_name_H-M   'P 1'
_cell_length_a   4.15752600
_cell_length_b   8.17193300
_cell_length_c   16.42150400
_cell_angle_alpha   90.00000000
_cell_angle_beta   90.00000000
_cell_angle_gamma   90.00000000
_symmetry_Int_Tables_number   1
_chemical_formula_structural   LaS2
_chemical_formula_sum   'La8 S16'
_cell_volume   557.92099117
_cell_formula_units_Z   8
loop_
 _symmetry_equiv_pos_site_id
 _symmetry_equiv_pos_as_xyz
  1  'x, y, z'
loop_
 _atom_site_type_symbol
 _atom_site_label
 _atom_site_symmetry_multiplicity
 _atom_site_fract_x
 _atom_site_fract_y
 _atom_site_fract_z
 _atom_site_occupancy
  La  La0  1  0.28070900  0.63916600  0.14151100  1
  La  La1  1  0.71929100  0.36083400  0.64151100  1
  La  La2  1  0.78070900  0.86083400  0.64151100  1
  La  La3  1  0.21929100  0.13916600  0.14151100  1
  La  La4  1  0.78124300  0.87082500  0.36429300  1
  La  La5  1  0.21875700  0.12917500  0.86429300  1
  La  La6  1  0.28124300  0.62917500  0.86429300  1
  La  La7  1  0.71875700  0.37082500  0.36429300  1
  S  S8  1  0.35578000  0.89710900  0.00331900  1
  S  S9  1  0.64422000  0.10289100  0.50331900  1
  S  S10  1  0.85578000  0.60289100  0.50331900  1
  S  S11  1  0.14422000  0.39710900  0.00331900  1
  S  S12  1  0.83793100  0.60364500  0.00279000  1
  S  S13  1  0.16206900  0.39635500  0.50279000  1
  S  S14  1  0.33793100  0.89635500  0.50279000  1
  S  S15  1  0.66206900  0.10364500  0.00279000  1
  S  S16  1  0.26042500  0.62768800  0.32035900  1
  S  S17  1  0.73957500  0.37231200  0.82035900  1
  S  S18  1  0.76042500  0.87231200  0.82035900  1
  S  S19  1  0.23957500  0.12768800  0.32035900  1
  S  S20  1  0.76302300  0.88337300  0.18572700  1
  S  S21  1  0.23697700  0.11662700  0.68572700  1
  S  S22  1  0.26302300  0.61662700  0.68572700  1
  S  S23  1  0.73697700  0.38337300  0.18572700  1
