# generated using pymatgen
data_PrF3
_symmetry_space_group_name_H-M   'P 1'
_cell_length_a   7.15700239
_cell_length_b   7.15700239
_cell_length_c   7.14711100
_cell_angle_alpha   90.00000000
_cell_angle_beta   90.00000000
_cell_angle_gamma   120.00000363
_symmetry_Int_Tables_number   1
_chemical_formula_structural   PrF3
_chemical_formula_sum   'Pr6 F18'
_cell_volume   317.04686827
_cell_formula_units_Z   6
loop_
 _symmetry_equiv_pos_site_id
 _symmetry_equiv_pos_as_xyz
  1  'x, y, z'
loop_
 _atom_site_type_symbol
 _atom_site_label
 _atom_site_symmetry_multiplicity
 _atom_site_fract_x
 _atom_site_fract_y
 _atom_site_fract_z
 _atom_site_occupancy
  Pr  Pr0  1  0.33011700  0.00000000  0.50000000  1
  Pr  Pr1  1  0.00000000  0.33011700  0.50000000  1
  Pr  Pr2  1  0.66988300  0.66988300  0.50000000  1
  Pr  Pr3  1  0.66988300  0.00000000  0.00000000  1
  Pr  Pr4  1  0.00000000  0.66988300  0.00000000  1
  Pr  Pr5  1  0.33011700  0.33011700  0.00000000  1
  F  F6  1  0.34924200  0.33925100  0.33460300  1
  F  F7  1  0.66074900  0.00999000  0.33460300  1
  F  F8  1  0.99001000  0.65075800  0.33460300  1
  F  F9  1  0.33925100  0.34924200  0.66539700  1
  F  F10  1  0.00999000  0.66074900  0.66539700  1
  F  F11  1  0.65075800  0.99001000  0.66539700  1
  F  F12  1  0.65075800  0.66074900  0.83460300  1
  F  F13  1  0.33925100  0.99001000  0.83460300  1
  F  F14  1  0.00999000  0.34924200  0.83460300  1
  F  F15  1  0.66074900  0.65075800  0.16539700  1
  F  F16  1  0.99001000  0.33925100  0.16539700  1
  F  F17  1  0.34924200  0.00999000  0.16539700  1
  F  F18  1  0.33333300  0.66666700  0.47712300  1
  F  F19  1  0.66666700  0.33333300  0.52287700  1
  F  F20  1  0.66666700  0.33333300  0.97712300  1
  F  F21  1  0.33333300  0.66666700  0.02287700  1
  F  F22  1  0.00000000  0.00000000  0.25000000  1
  F  F23  1  0.00000000  0.00000000  0.75000000  1
