# generated using pymatgen
data_Co(SeO4)2
_symmetry_space_group_name_H-M   'P 1'
_cell_length_a   6.88716000
_cell_length_b   6.99580500
_cell_length_c   7.57626117
_cell_angle_alpha   68.55695079
_cell_angle_beta   90.00000000
_cell_angle_gamma   90.00000000
_symmetry_Int_Tables_number   1
_chemical_formula_structural   Co(SeO4)2
_chemical_formula_sum   'Co2 Se4 O16'
_cell_volume   339.76645797
_cell_formula_units_Z   2
loop_
 _symmetry_equiv_pos_site_id
 _symmetry_equiv_pos_as_xyz
  1  'x, y, z'
loop_
 _atom_site_type_symbol
 _atom_site_label
 _atom_site_symmetry_multiplicity
 _atom_site_fract_x
 _atom_site_fract_y
 _atom_site_fract_z
 _atom_site_occupancy
  Co  Co0  1  0.50000000  0.00000000  0.50000000  1
  Co  Co1  1  0.00000000  0.00000000  0.00000000  1
  Se  Se2  1  0.74096200  0.36367200  0.04698100  1
  Se  Se3  1  0.24096200  0.63632800  0.45301900  1
  Se  Se4  1  0.25903800  0.63632800  0.95301900  1
  Se  Se5  1  0.75903800  0.36367200  0.54698100  1
  O  O6  1  0.70549300  0.04258600  0.26844800  1
  O  O7  1  0.20549300  0.95741400  0.23155200  1
  O  O8  1  0.29450700  0.95741400  0.73155200  1
  O  O9  1  0.79450700  0.04258600  0.76844800  1
  O  O10  1  0.94605900  0.28639900  0.96469000  1
  O  O11  1  0.44605900  0.71360100  0.53531000  1
  O  O12  1  0.05394100  0.71360100  0.03531000  1
  O  O13  1  0.55394100  0.28639900  0.46469000  1
  O  O14  1  0.56170400  0.34291200  0.91053200  1
  O  O15  1  0.06170400  0.65708800  0.58946800  1
  O  O16  1  0.43829600  0.65708800  0.08946800  1
  O  O17  1  0.93829600  0.34291200  0.41053200  1
  O  O18  1  0.28717500  0.09751000  0.28524700  1
  O  O19  1  0.78717500  0.90249000  0.21475300  1
  O  O20  1  0.71282500  0.90249000  0.71475300  1
  O  O21  1  0.21282500  0.09751000  0.78524700  1
