# generated using pymatgen
data_HgNCl
_symmetry_space_group_name_H-M   'P 1'
_cell_length_a   6.84425300
_cell_length_b   7.70085700
_cell_length_c   10.68850600
_cell_angle_alpha   90.00000000
_cell_angle_beta   90.00000000
_cell_angle_gamma   90.00000000
_symmetry_Int_Tables_number   1
_chemical_formula_structural   HgNCl
_chemical_formula_sum   'Hg8 N8 Cl8'
_cell_volume   563.35495597
_cell_formula_units_Z   8
loop_
 _symmetry_equiv_pos_site_id
 _symmetry_equiv_pos_as_xyz
  1  'x, y, z'
loop_
 _atom_site_type_symbol
 _atom_site_label
 _atom_site_symmetry_multiplicity
 _atom_site_fract_x
 _atom_site_fract_y
 _atom_site_fract_z
 _atom_site_occupancy
  Hg  Hg0  1  0.00000000  0.50000000  0.50000000  1
  Hg  Hg1  1  0.50000000  0.00000000  0.00000000  1
  Hg  Hg2  1  0.50000000  0.50000000  0.50000000  1
  Hg  Hg3  1  0.00000000  0.00000000  0.00000000  1
  Hg  Hg4  1  0.00000000  0.50000000  0.00000000  1
  Hg  Hg5  1  0.50000000  0.00000000  0.50000000  1
  Hg  Hg6  1  0.50000000  0.50000000  0.00000000  1
  Hg  Hg7  1  0.00000000  0.00000000  0.50000000  1
  N  N8  1  0.25000000  0.62728100  0.42759300  1
  N  N9  1  0.25000000  0.12728100  0.07240700  1
  N  N10  1  0.75000000  0.37271900  0.57240700  1
  N  N11  1  0.75000000  0.87271900  0.92759300  1
  N  N12  1  0.25000000  0.95436500  0.61109500  1
  N  N13  1  0.25000000  0.45436500  0.88890500  1
  N  N14  1  0.75000000  0.04563500  0.38890500  1
  N  N15  1  0.75000000  0.54563500  0.11109500  1
  Cl  Cl16  1  0.25000000  0.61491600  0.26145700  1
  Cl  Cl17  1  0.25000000  0.11491600  0.23854300  1
  Cl  Cl18  1  0.75000000  0.38508400  0.73854300  1
  Cl  Cl19  1  0.75000000  0.88508400  0.76145700  1
  Cl  Cl20  1  0.25000000  0.61282400  0.76606400  1
  Cl  Cl21  1  0.25000000  0.11282400  0.73393600  1
  Cl  Cl22  1  0.75000000  0.38717600  0.23393600  1
  Cl  Cl23  1  0.75000000  0.88717600  0.26606400  1
