# generated using pymatgen
data_NpH3
_symmetry_space_group_name_H-M   'P 1'
_cell_length_a   6.34747919
_cell_length_b   6.34747919
_cell_length_c   6.62244100
_cell_angle_alpha   90.00000000
_cell_angle_beta   90.00000000
_cell_angle_gamma   119.99999161
_symmetry_Int_Tables_number   1
_chemical_formula_structural   NpH3
_chemical_formula_sum   'Np6 H18'
_cell_volume   231.07413625
_cell_formula_units_Z   6
loop_
 _symmetry_equiv_pos_site_id
 _symmetry_equiv_pos_as_xyz
  1  'x, y, z'
loop_
 _atom_site_type_symbol
 _atom_site_label
 _atom_site_symmetry_multiplicity
 _atom_site_fract_x
 _atom_site_fract_y
 _atom_site_fract_z
 _atom_site_occupancy
  Np  Np0  1  0.66337500  0.00000000  0.75000000  1
  Np  Np1  1  0.33662500  0.33662500  0.75000000  1
  Np  Np2  1  0.00000000  0.66337500  0.75000000  1
  Np  Np3  1  0.66337500  0.66337500  0.25000000  1
  Np  Np4  1  0.00000000  0.33662500  0.25000000  1
  Np  Np5  1  0.33662500  0.00000000  0.25000000  1
  H  H6  1  0.00000000  0.00000000  0.75000000  1
  H  H7  1  0.00000000  0.00000000  0.25000000  1
  H  H8  1  0.66666700  0.33333300  0.83507200  1
  H  H9  1  0.66666700  0.33333300  0.33507200  1
  H  H10  1  0.33333300  0.66666700  0.16492800  1
  H  H11  1  0.33333300  0.66666700  0.66492800  1
  H  H12  1  0.32530000  0.98519600  0.90656700  1
  H  H13  1  0.65989600  0.67470000  0.90656700  1
  H  H14  1  0.01480400  0.34010400  0.90656700  1
  H  H15  1  0.32530000  0.34010400  0.40656700  1
  H  H16  1  0.01480400  0.67470000  0.40656700  1
  H  H17  1  0.65989600  0.98519600  0.40656700  1
  H  H18  1  0.67470000  0.01480400  0.09343300  1
  H  H19  1  0.34010400  0.32530000  0.09343300  1
  H  H20  1  0.98519600  0.65989600  0.09343300  1
  H  H21  1  0.67470000  0.65989600  0.59343300  1
  H  H22  1  0.98519600  0.32530000  0.59343300  1
  H  H23  1  0.34010400  0.01480400  0.59343300  1
