# generated using pymatgen
data_VZn2IO7
_symmetry_space_group_name_H-M   'P 1'
_cell_length_a   10.18096700
_cell_length_b   5.34606800
_cell_length_c   5.60723737
_cell_angle_alpha   78.47427760
_cell_angle_beta   90.00000000
_cell_angle_gamma   90.00000000
_symmetry_Int_Tables_number   1
_chemical_formula_structural   VZn2IO7
_chemical_formula_sum   'V2 Zn4 I2 O14'
_cell_volume   299.03735546
_cell_formula_units_Z   2
loop_
 _symmetry_equiv_pos_site_id
 _symmetry_equiv_pos_as_xyz
  1  'x, y, z'
loop_
 _atom_site_type_symbol
 _atom_site_label
 _atom_site_symmetry_multiplicity
 _atom_site_fract_x
 _atom_site_fract_y
 _atom_site_fract_z
 _atom_site_occupancy
  V  V0  1  0.64402100  0.74093900  0.10621000  1
  V  V1  1  0.35597900  0.74093900  0.60621000  1
  Zn  Zn2  1  0.56120300  0.23840000  0.58611000  1
  Zn  Zn3  1  0.43879700  0.23840000  0.08611000  1
  Zn  Zn4  1  0.86535100  0.60563900  0.63514700  1
  Zn  Zn5  1  0.13464900  0.60563900  0.13514700  1
  I  I6  1  0.86953900  0.17863100  0.31652400  1
  I  I7  1  0.13046100  0.17863100  0.81652400  1
  O  O8  1  0.75214500  0.62468500  0.92445300  1
  O  O9  1  0.24785500  0.62468500  0.42445300  1
  O  O10  1  0.73480900  0.83762800  0.34424000  1
  O  O11  1  0.26519100  0.83762800  0.84424000  1
  O  O12  1  0.56201500  0.01295300  0.94012800  1
  O  O13  1  0.43798500  0.01295300  0.44012800  1
  O  O14  1  0.46210800  0.49225800  0.73876500  1
  O  O15  1  0.53789200  0.49225800  0.23876500  1
  O  O16  1  0.75779800  0.28433100  0.54504400  1
  O  O17  1  0.24220200  0.28433100  0.04504400  1
  O  O18  1  0.98192000  0.44361400  0.36398100  1
  O  O19  1  0.01808000  0.44361400  0.86398100  1
  O  O20  1  0.96230400  0.94432200  0.53832900  1
  O  O21  1  0.03769600  0.94432200  0.03832900  1
