# generated using pymatgen
data_Tm2Co7B3
_symmetry_space_group_name_H-M   'P 1'
_cell_length_a   4.99613180
_cell_length_b   4.99613180
_cell_length_c   12.83764700
_cell_angle_alpha   90.00000000
_cell_angle_beta   90.00000000
_cell_angle_gamma   119.99999733
_symmetry_Int_Tables_number   1
_chemical_formula_structural   Tm2Co7B3
_chemical_formula_sum   'Tm4 Co14 B6'
_cell_volume   277.51332835
_cell_formula_units_Z   2
loop_
 _symmetry_equiv_pos_site_id
 _symmetry_equiv_pos_as_xyz
  1  'x, y, z'
loop_
 _atom_site_type_symbol
 _atom_site_label
 _atom_site_symmetry_multiplicity
 _atom_site_fract_x
 _atom_site_fract_y
 _atom_site_fract_z
 _atom_site_occupancy
  Tm  Tm0  1  0.00000000  0.00000000  0.00000000  1
  Tm  Tm1  1  0.00000000  0.00000000  0.50000000  1
  Tm  Tm2  1  0.00000000  0.00000000  0.73919200  1
  Tm  Tm3  1  0.00000000  0.00000000  0.26080800  1
  Co  Co4  1  0.66666700  0.33333300  0.00000000  1
  Co  Co5  1  0.33333300  0.66666700  0.00000000  1
  Co  Co6  1  0.50000000  0.50000000  0.84592300  1
  Co  Co7  1  0.50000000  0.00000000  0.84592300  1
  Co  Co8  1  0.00000000  0.50000000  0.84592300  1
  Co  Co9  1  0.50000000  0.50000000  0.15407700  1
  Co  Co10  1  0.50000000  0.00000000  0.15407700  1
  Co  Co11  1  0.00000000  0.50000000  0.15407700  1
  Co  Co12  1  0.50000000  0.50000000  0.61533400  1
  Co  Co13  1  0.50000000  0.00000000  0.61533400  1
  Co  Co14  1  0.00000000  0.50000000  0.61533400  1
  Co  Co15  1  0.50000000  0.50000000  0.38466600  1
  Co  Co16  1  0.50000000  0.00000000  0.38466600  1
  Co  Co17  1  0.00000000  0.50000000  0.38466600  1
  B  B18  1  0.66666700  0.33333300  0.50000000  1
  B  B19  1  0.33333300  0.66666700  0.50000000  1
  B  B20  1  0.66666700  0.33333300  0.73196300  1
  B  B21  1  0.33333300  0.66666700  0.73196300  1
  B  B22  1  0.33333300  0.66666700  0.26803700  1
  B  B23  1  0.66666700  0.33333300  0.26803700  1
