# generated using pymatgen
data_CoB4O7
_symmetry_space_group_name_H-M   'P 1'
_cell_length_a   6.37051618
_cell_length_b   8.23336530
_cell_length_c   8.23327836
_cell_angle_alpha   78.61365058
_cell_angle_beta   111.55118232
_cell_angle_gamma   111.54955725
_symmetry_Int_Tables_number   1
_chemical_formula_structural   CoB4O7
_chemical_formula_sum   'Co4 B16 O28'
_cell_volume   372.60012111
_cell_formula_units_Z   4
loop_
 _symmetry_equiv_pos_site_id
 _symmetry_equiv_pos_as_xyz
  1  'x, y, z'
loop_
 _atom_site_type_symbol
 _atom_site_label
 _atom_site_symmetry_multiplicity
 _atom_site_fract_x
 _atom_site_fract_y
 _atom_site_fract_z
 _atom_site_occupancy
  Co  Co0  1  0.24195000  0.49609600  0.74585700  1
  Co  Co1  1  0.75805000  0.50390100  0.25414700  1
  Co  Co2  1  0.24191200  0.99588400  0.24604500  1
  Co  Co3  1  0.75808700  0.00411300  0.75395800  1
  B  B4  1  0.29698600  0.10149100  0.60150800  1
  B  B5  1  0.29695900  0.60152800  0.10150400  1
  B  B6  1  0.29687800  0.35142900  0.35148300  1
  B  B7  1  0.29705400  0.85159000  0.85154300  1
  B  B8  1  0.70301400  0.89850900  0.39849200  1
  B  B9  1  0.70304300  0.39847300  0.89849700  1
  B  B10  1  0.70294500  0.14841000  0.14845700  1
  B  B11  1  0.70312100  0.64857200  0.64851700  1
  B  B12  1  0.07510300  0.77978900  0.52963000  1
  B  B13  1  0.07500100  0.27953700  0.02969200  1
  B  B14  1  0.69058700  0.33738100  0.58753000  1
  B  B15  1  0.69076500  0.83756700  0.08742200  1
  B  B16  1  0.92489600  0.22021100  0.47036900  1
  B  B17  1  0.92499900  0.72046300  0.97030800  1
  B  B18  1  0.30941300  0.66261900  0.41246900  1
  B  B19  1  0.30923500  0.16243400  0.91257700  1
  O  O20  1  0.92092700  0.33543300  0.58548300  1
  O  O21  1  0.92105500  0.83554300  0.08550500  1
  O  O22  1  0.07907300  0.66456800  0.41451400  1
  O  O23  1  0.07894500  0.16445900  0.91449400  1
  O  O24  1  0.19544500  0.25245000  0.50248500  1
  O  O25  1  0.19550100  0.75248000  0.00245000  1
  O  O26  1  0.24504300  0.02727200  0.77723900  1
  O  O27  1  0.24508400  0.52726200  0.27728800  1
  O  O28  1  0.80455500  0.74755000  0.49751600  1
  O  O29  1  0.80450000  0.24752000  0.99755000  1
  O  O30  1  0.75495700  0.97272900  0.22276100  1
  O  O31  1  0.75491600  0.47273800  0.72271200  1
  O  O32  1  0.18903900  0.96153700  0.48420800  1
  O  O33  1  0.18902700  0.46145400  0.98424200  1
  O  O34  1  0.55424500  0.16681100  0.64413800  1
  O  O35  1  0.55430400  0.66688000  0.14409000  1
  O  O36  1  0.18902000  0.73425700  0.71150200  1
  O  O37  1  0.18904100  0.23416700  0.21151100  1
  O  O38  1  0.55423700  0.39409500  0.41686600  1
  O  O39  1  0.55431100  0.89415800  0.91680900  1
  O  O40  1  0.81096100  0.03846300  0.51579300  1
  O  O41  1  0.81097300  0.53854600  0.01575900  1
  O  O42  1  0.44575600  0.83318900  0.35586100  1
  O  O43  1  0.44569800  0.33312000  0.85591000  1
  O  O44  1  0.81098000  0.26574200  0.28849800  1
  O  O45  1  0.81095900  0.76583200  0.78848900  1
  O  O46  1  0.44576300  0.60590600  0.58313400  1
  O  O47  1  0.44568800  0.10584200  0.08319100  1
