# generated using pymatgen
data_Mn2BrO3
_symmetry_space_group_name_H-M   'P 1'
_cell_length_a   5.99729100
_cell_length_b   6.75421000
_cell_length_c   8.58650300
_cell_angle_alpha   90.00000000
_cell_angle_beta   90.00000000
_cell_angle_gamma   90.00000000
_symmetry_Int_Tables_number   1
_chemical_formula_structural   Mn2BrO3
_chemical_formula_sum   'Mn8 Br4 O12'
_cell_volume   347.81315799
_cell_formula_units_Z   4
loop_
 _symmetry_equiv_pos_site_id
 _symmetry_equiv_pos_as_xyz
  1  'x, y, z'
loop_
 _atom_site_type_symbol
 _atom_site_label
 _atom_site_symmetry_multiplicity
 _atom_site_fract_x
 _atom_site_fract_y
 _atom_site_fract_z
 _atom_site_occupancy
  Mn  Mn0  1  0.50000000  0.00000000  0.50000000  1
  Mn  Mn1  1  0.00000000  0.50000000  0.00000000  1
  Mn  Mn2  1  0.50000000  0.50000000  0.50000000  1
  Mn  Mn3  1  0.00000000  0.00000000  0.00000000  1
  Mn  Mn4  1  0.69304100  0.25000000  0.25075600  1
  Mn  Mn5  1  0.19304100  0.25000000  0.24924400  1
  Mn  Mn6  1  0.30695900  0.75000000  0.74924400  1
  Mn  Mn7  1  0.80695900  0.75000000  0.75075600  1
  Br  Br8  1  0.84957300  0.75000000  0.45915500  1
  Br  Br9  1  0.34957300  0.75000000  0.04084500  1
  Br  Br10  1  0.15042700  0.25000000  0.54084500  1
  Br  Br11  1  0.65042700  0.25000000  0.95915500  1
  O  O12  1  0.67504500  0.25000000  0.47921700  1
  O  O13  1  0.17504500  0.25000000  0.02078300  1
  O  O14  1  0.32495500  0.75000000  0.52078300  1
  O  O15  1  0.82495500  0.75000000  0.97921700  1
  O  O16  1  0.94717700  0.06271300  0.22354900  1
  O  O17  1  0.44717700  0.43728700  0.27645100  1
  O  O18  1  0.05282300  0.56271300  0.77645100  1
  O  O19  1  0.55282300  0.93728700  0.72354900  1
  O  O20  1  0.05282300  0.93728700  0.77645100  1
  O  O21  1  0.55282300  0.56271300  0.72354900  1
  O  O22  1  0.94717700  0.43728700  0.22354900  1
  O  O23  1  0.44717700  0.06271300  0.27645100  1
