# generated using pymatgen
data_Ga9Rh2
_symmetry_space_group_name_H-M   'P 1'
_cell_length_a   6.39641200
_cell_length_b   6.47251400
_cell_length_c   8.99635279
_cell_angle_alpha   86.62320419
_cell_angle_beta   90.00000000
_cell_angle_gamma   90.00000000
_symmetry_Int_Tables_number   1
_chemical_formula_structural   Ga9Rh2
_chemical_formula_sum   'Ga18 Rh4'
_cell_volume   371.81012549
_cell_formula_units_Z   2
loop_
 _symmetry_equiv_pos_site_id
 _symmetry_equiv_pos_as_xyz
  1  'x, y, z'
loop_
 _atom_site_type_symbol
 _atom_site_label
 _atom_site_symmetry_multiplicity
 _atom_site_fract_x
 _atom_site_fract_y
 _atom_site_fract_z
 _atom_site_occupancy
  Ga  Ga0  1  0.50000000  0.00000000  0.50000000  1
  Ga  Ga1  1  0.00000000  0.00000000  0.00000000  1
  Ga  Ga2  1  0.51838100  0.40037600  0.23320100  1
  Ga  Ga3  1  0.01838100  0.59962400  0.26679900  1
  Ga  Ga4  1  0.48161900  0.59962400  0.76679900  1
  Ga  Ga5  1  0.98161900  0.40037600  0.73320100  1
  Ga  Ga6  1  0.21807900  0.09962300  0.27332700  1
  Ga  Ga7  1  0.71807900  0.90037700  0.22667300  1
  Ga  Ga8  1  0.78192100  0.90037700  0.72667300  1
  Ga  Ga9  1  0.28192100  0.09962300  0.77332700  1
  Ga  Ga10  1  0.29846300  0.38830900  0.50050700  1
  Ga  Ga11  1  0.79846300  0.61169100  0.99949300  1
  Ga  Ga12  1  0.70153700  0.61169100  0.49949300  1
  Ga  Ga13  1  0.20153700  0.38830900  0.00050700  1
  Ga  Ga14  1  0.89605100  0.21427000  0.45730300  1
  Ga  Ga15  1  0.39605100  0.78573000  0.04269700  1
  Ga  Ga16  1  0.10394900  0.78573000  0.54269700  1
  Ga  Ga17  1  0.60394900  0.21427000  0.95730300  1
  Rh  Rh18  1  0.87706600  0.26132600  0.16719300  1
  Rh  Rh19  1  0.37706600  0.73867400  0.33280700  1
  Rh  Rh20  1  0.12293400  0.73867400  0.83280700  1
  Rh  Rh21  1  0.62293400  0.26132600  0.66719300  1
