# generated using pymatgen
data_NaFe(MoO4)2
_symmetry_space_group_name_H-M   'P 1'
_cell_length_a   5.39348101
_cell_length_b   5.69040972
_cell_length_c   14.00232461
_cell_angle_alpha   90.01653964
_cell_angle_beta   89.99423616
_cell_angle_gamma   118.29307208
_symmetry_Int_Tables_number   1
_chemical_formula_structural   NaFe(MoO4)2
_chemical_formula_sum   'Na2 Fe2 Mo4 O16'
_cell_volume   378.40709947
_cell_formula_units_Z   2
loop_
 _symmetry_equiv_pos_site_id
 _symmetry_equiv_pos_as_xyz
  1  'x, y, z'
loop_
 _atom_site_type_symbol
 _atom_site_label
 _atom_site_symmetry_multiplicity
 _atom_site_fract_x
 _atom_site_fract_y
 _atom_site_fract_z
 _atom_site_occupancy
  Na  Na0  1  0.92692600  0.99993900  0.24998600  1
  Na  Na1  1  0.07298000  0.00007900  0.75001900  1
  Fe  Fe2  1  0.00002900  0.99992700  0.99986100  1
  Fe  Fe3  1  0.00007000  0.00002100  0.50014400  1
  Mo  Mo4  1  0.70736000  0.34822100  0.61778300  1
  Mo  Mo5  1  0.35927400  0.65190200  0.88223900  1
  Mo  Mo6  1  0.29271100  0.65188500  0.38237800  1
  Mo  Mo7  1  0.64072400  0.34798300  0.11759500  1
  O  O8  1  0.58921400  0.80050400  0.46134900  1
  O  O9  1  0.78866000  0.19941500  0.03861800  1
  O  O10  1  0.41101600  0.19967000  0.53874000  1
  O  O11  1  0.21141600  0.80041200  0.96128700  1
  O  O12  1  0.05992100  0.30592100  0.41545500  1
  O  O13  1  0.75383800  0.69394300  0.08452600  1
  O  O14  1  0.94023700  0.69423600  0.58477900  1
  O  O15  1  0.24616000  0.30590600  0.91524900  1
  O  O16  1  0.10211500  0.84575700  0.38471600  1
  O  O17  1  0.25621700  0.15410200  0.11530100  1
  O  O18  1  0.89790400  0.15429800  0.61550400  1
  O  O19  1  0.74377800  0.84585800  0.88448300  1
  O  O20  1  0.42797800  0.66673600  0.26766400  1
  O  O21  1  0.76118200  0.33316600  0.23229200  1
  O  O22  1  0.57173700  0.33332400  0.73241900  1
  O  O23  1  0.23855300  0.66679600  0.76761400  1
