# generated using pymatgen
data_Co3Te2(PO7)2
_symmetry_space_group_name_H-M   'P 1'
_cell_length_a   10.03650738
_cell_length_b   10.03650738
_cell_length_c   4.80835055
_cell_angle_alpha   77.47535644
_cell_angle_beta   77.47535644
_cell_angle_gamma   34.70113329
_symmetry_Int_Tables_number   1
_chemical_formula_structural   Co3Te2(PO7)2
_chemical_formula_sum   'Co3 Te2 P2 O14'
_cell_volume   268.52875727
_cell_formula_units_Z   1
loop_
 _symmetry_equiv_pos_site_id
 _symmetry_equiv_pos_as_xyz
  1  'x, y, z'
loop_
 _atom_site_type_symbol
 _atom_site_label
 _atom_site_symmetry_multiplicity
 _atom_site_fract_x
 _atom_site_fract_y
 _atom_site_fract_z
 _atom_site_occupancy
  Co  Co0  1  0.50000000  0.00000000  0.00000000  1
  Co  Co1  1  0.00000000  0.50000000  0.00000000  1
  Co  Co2  1  0.50000000  0.50000000  0.00000000  1
  Te  Te3  1  0.90340600  0.90340600  0.03266000  1
  Te  Te4  1  0.09659400  0.09659400  0.96734000  1
  P  P5  1  0.33788200  0.33788200  0.40781500  1
  P  P6  1  0.66211800  0.66211800  0.59218500  1
  O  O7  1  0.41906800  0.41906800  0.34809900  1
  O  O8  1  0.58093200  0.58093200  0.65190100  1
  O  O9  1  0.19748200  0.70719800  0.82612200  1
  O  O10  1  0.70719800  0.19748200  0.82612200  1
  O  O11  1  0.80251800  0.29280200  0.17387800  1
  O  O12  1  0.29280200  0.80251800  0.17387800  1
  O  O13  1  0.30442700  0.30442700  0.73805800  1
  O  O14  1  0.69557300  0.69557300  0.26194200  1
  O  O15  1  0.52031300  0.09935600  0.27543400  1
  O  O16  1  0.09935600  0.52031300  0.27543400  1
  O  O17  1  0.47968700  0.90064400  0.72456600  1
  O  O18  1  0.90064400  0.47968700  0.72456600  1
  O  O19  1  0.82096500  0.82096500  0.85036000  1
  O  O20  1  0.17903500  0.17903500  0.14964000  1
