# generated using pymatgen
data_Tb8Rh5C12
_symmetry_space_group_name_H-M   'P 1'
_cell_length_a   3.58714000
_cell_length_b   7.45170488
_cell_length_c   14.11697064
_cell_angle_alpha   93.65584647
_cell_angle_beta   97.29919249
_cell_angle_gamma   90.00000000
_symmetry_Int_Tables_number   1
_chemical_formula_structural   Tb8Rh5C12
_chemical_formula_sum   'Tb8 Rh5 C12'
_cell_volume   373.51884159
_cell_formula_units_Z   1
loop_
 _symmetry_equiv_pos_site_id
 _symmetry_equiv_pos_as_xyz
  1  'x, y, z'
loop_
 _atom_site_type_symbol
 _atom_site_label
 _atom_site_symmetry_multiplicity
 _atom_site_fract_x
 _atom_site_fract_y
 _atom_site_fract_z
 _atom_site_occupancy
  Tb  Tb0  1  0.29387800  0.88360900  0.58775600  1
  Tb  Tb1  1  0.70612200  0.11639100  0.41224400  1
  Tb  Tb2  1  0.30066900  0.39069900  0.60133800  1
  Tb  Tb3  1  0.69933100  0.60930100  0.39866200  1
  Tb  Tb4  1  0.41187400  0.17175900  0.82374700  1
  Tb  Tb5  1  0.58812600  0.82824100  0.17625300  1
  Tb  Tb6  1  0.45306400  0.70334000  0.90612700  1
  Tb  Tb7  1  0.54693600  0.29666000  0.09387300  1
  Rh  Rh8  1  0.00000000  0.00000000  0.00000000  1
  Rh  Rh9  1  0.10964800  0.49104200  0.21929700  1
  Rh  Rh10  1  0.89035200  0.50895800  0.78070300  1
  Rh  Rh11  1  0.11681200  0.12771300  0.23362400  1
  Rh  Rh12  1  0.88318800  0.87228700  0.76637600  1
  C  C13  1  0.02269600  0.75568100  0.04539100  1
  C  C14  1  0.97730400  0.24431900  0.95460900  1
  C  C15  1  0.04795800  0.61470000  0.09591600  1
  C  C16  1  0.95204200  0.38530000  0.90408400  1
  C  C17  1  0.16817400  0.34741100  0.33634700  1
  C  C18  1  0.83182600  0.65258900  0.66365300  1
  C  C19  1  0.21617800  0.36495100  0.43235500  1
  C  C20  1  0.78382200  0.63504900  0.56764500  1
  C  C21  1  0.15883500  0.87523800  0.31767000  1
  C  C22  1  0.84116500  0.12476200  0.68233000  1
  C  C23  1  0.20698600  0.86927000  0.41397200  1
  C  C24  1  0.79301400  0.13073000  0.58602800  1
