# generated using pymatgen
data_CsY(MoO4)2
_symmetry_space_group_name_H-M   'P 1'
_cell_length_a   5.11195400
_cell_length_b   8.35068900
_cell_length_c   9.78968675
_cell_angle_alpha   87.95552797
_cell_angle_beta   90.00000000
_cell_angle_gamma   90.00000000
_symmetry_Int_Tables_number   1
_chemical_formula_structural   CsY(MoO4)2
_chemical_formula_sum   'Cs2 Y2 Mo4 O16'
_cell_volume   417.63943420
_cell_formula_units_Z   2
loop_
 _symmetry_equiv_pos_site_id
 _symmetry_equiv_pos_as_xyz
  1  'x, y, z'
loop_
 _atom_site_type_symbol
 _atom_site_label
 _atom_site_symmetry_multiplicity
 _atom_site_fract_x
 _atom_site_fract_y
 _atom_site_fract_z
 _atom_site_occupancy
  Cs  Cs0  1  0.03685100  0.25000000  0.50000000  1
  Cs  Cs1  1  0.96314900  0.75000000  0.50000000  1
  Y  Y2  1  0.00007800  0.25000000  0.00000000  1
  Y  Y3  1  0.99992200  0.75000000  0.00000000  1
  Mo  Mo4  1  0.47482700  0.49213400  0.19023200  1
  Mo  Mo5  1  0.47482700  0.00786600  0.80976800  1
  Mo  Mo6  1  0.52517300  0.50786600  0.80976800  1
  Mo  Mo7  1  0.52517300  0.99213400  0.19023200  1
  O  O8  1  0.61121800  0.48369500  0.35514500  1
  O  O9  1  0.61121800  0.01630500  0.64485500  1
  O  O10  1  0.38878200  0.51630500  0.64485500  1
  O  O11  1  0.38878200  0.98369500  0.35514500  1
  O  O12  1  0.26014600  0.32045900  0.17858300  1
  O  O13  1  0.26014600  0.17954100  0.82141700  1
  O  O14  1  0.73985400  0.67954100  0.82141700  1
  O  O15  1  0.73985400  0.82045900  0.17858300  1
  O  O16  1  0.26008200  0.66454900  0.17923700  1
  O  O17  1  0.26008200  0.83545100  0.82076300  1
  O  O18  1  0.73991800  0.33545100  0.82076300  1
  O  O19  1  0.73991800  0.16454900  0.17923700  1
  O  O20  1  0.24943500  0.99784800  0.06674700  1
  O  O21  1  0.24943500  0.50215200  0.93325300  1
  O  O22  1  0.75056500  0.00215200  0.93325300  1
  O  O23  1  0.75056500  0.49784800  0.06674700  1
