# generated using pymatgen
data_CrPb6(Cl3O4)2
_symmetry_space_group_name_H-M   'P 1'
_cell_length_a   8.31746458
_cell_length_b   8.31746458
_cell_length_c   8.31746449
_cell_angle_alpha   108.50198785
_cell_angle_beta   108.50198785
_cell_angle_gamma   108.50198444
_symmetry_Int_Tables_number   1
_chemical_formula_structural   CrPb6(Cl3O4)2
_chemical_formula_sum   'Cr1 Pb6 Cl6 O8'
_cell_volume   458.15200665
_cell_formula_units_Z   1
loop_
 _symmetry_equiv_pos_site_id
 _symmetry_equiv_pos_as_xyz
  1  'x, y, z'
loop_
 _atom_site_type_symbol
 _atom_site_label
 _atom_site_symmetry_multiplicity
 _atom_site_fract_x
 _atom_site_fract_y
 _atom_site_fract_z
 _atom_site_occupancy
  Cr  Cr0  1  0.50000000  0.50000000  0.50000000  1
  Pb  Pb1  1  0.89320700  0.77928200  0.54070200  1
  Pb  Pb2  1  0.54070200  0.89320700  0.77928200  1
  Pb  Pb3  1  0.77928200  0.54070200  0.89320700  1
  Pb  Pb4  1  0.10679300  0.22071800  0.45929800  1
  Pb  Pb5  1  0.45929800  0.10679300  0.22071800  1
  Pb  Pb6  1  0.22071800  0.45929800  0.10679300  1
  Cl  Cl7  1  0.20701600  0.72013400  0.83584800  1
  Cl  Cl8  1  0.83584800  0.20701600  0.72013400  1
  Cl  Cl9  1  0.72013400  0.83584800  0.20701600  1
  Cl  Cl10  1  0.79298400  0.27986600  0.16415200  1
  Cl  Cl11  1  0.16415200  0.79298400  0.27986600  1
  Cl  Cl12  1  0.27986600  0.16415200  0.79298400  1
  O  O13  1  0.47288600  0.40273600  0.25365600  1
  O  O14  1  0.25365600  0.47288600  0.40273600  1
  O  O15  1  0.40273600  0.25365600  0.47288600  1
  O  O16  1  0.52711400  0.59726400  0.74634400  1
  O  O17  1  0.74634400  0.52711400  0.59726400  1
  O  O18  1  0.59726400  0.74634400  0.52711400  1
  O  O19  1  0.92747700  0.92747700  0.92747700  1
  O  O20  1  0.07252300  0.07252300  0.07252300  1
