# generated using pymatgen
data_KCdCl3O
_symmetry_space_group_name_H-M   'P 1'
_cell_length_a   4.02254500
_cell_length_b   7.96916500
_cell_length_c   19.18657900
_cell_angle_alpha   90.00000000
_cell_angle_beta   90.00000000
_cell_angle_gamma   90.00000000
_symmetry_Int_Tables_number   1
_chemical_formula_structural   KCdCl3O
_chemical_formula_sum   'K4 Cd4 Cl12 O4'
_cell_volume   615.05120870
_cell_formula_units_Z   4
loop_
 _symmetry_equiv_pos_site_id
 _symmetry_equiv_pos_as_xyz
  1  'x, y, z'
loop_
 _atom_site_type_symbol
 _atom_site_label
 _atom_site_symmetry_multiplicity
 _atom_site_fract_x
 _atom_site_fract_y
 _atom_site_fract_z
 _atom_site_occupancy
  K  K0  1  0.25000000  0.40433100  0.80376200  1
  K  K1  1  0.25000000  0.90433100  0.69623800  1
  K  K2  1  0.75000000  0.59566900  0.19623800  1
  K  K3  1  0.75000000  0.09566900  0.30376200  1
  Cd  Cd4  1  0.75000000  0.95806900  0.90988400  1
  Cd  Cd5  1  0.75000000  0.45806900  0.59011600  1
  Cd  Cd6  1  0.25000000  0.04193100  0.09011600  1
  Cd  Cd7  1  0.25000000  0.54193100  0.40988400  1
  Cl  Cl8  1  0.75000000  0.10731600  0.79165000  1
  Cl  Cl9  1  0.75000000  0.60731600  0.70835000  1
  Cl  Cl10  1  0.25000000  0.89268400  0.20835000  1
  Cl  Cl11  1  0.25000000  0.39268400  0.29165000  1
  Cl  Cl12  1  0.25000000  0.75755200  0.87361100  1
  Cl  Cl13  1  0.25000000  0.25755200  0.62638900  1
  Cl  Cl14  1  0.75000000  0.24244800  0.12638900  1
  Cl  Cl15  1  0.75000000  0.74244800  0.37361100  1
  Cl  Cl16  1  0.75000000  0.83721000  0.04104900  1
  Cl  Cl17  1  0.75000000  0.33721000  0.45895100  1
  Cl  Cl18  1  0.25000000  0.16279000  0.95895100  1
  Cl  Cl19  1  0.25000000  0.66279000  0.54104900  1
  O  O20  1  0.75000000  0.47176300  0.91854700  1
  O  O21  1  0.75000000  0.97176300  0.58145300  1
  O  O22  1  0.25000000  0.52823700  0.08145300  1
  O  O23  1  0.25000000  0.02823700  0.41854700  1
