# generated using pymatgen
data_Mg3MnNi2
_symmetry_space_group_name_H-M   'P 1'
_cell_length_a   8.09500510
_cell_length_b   8.09500510
_cell_length_c   8.09500510
_cell_angle_alpha   60.00000000
_cell_angle_beta   60.00000000
_cell_angle_gamma   60.00000000
_symmetry_Int_Tables_number   1
_chemical_formula_structural   Mg3MnNi2
_chemical_formula_sum   'Mg12 Mn4 Ni8'
_cell_volume   375.09077419
_cell_formula_units_Z   4
loop_
 _symmetry_equiv_pos_site_id
 _symmetry_equiv_pos_as_xyz
  1  'x, y, z'
loop_
 _atom_site_type_symbol
 _atom_site_label
 _atom_site_symmetry_multiplicity
 _atom_site_fract_x
 _atom_site_fract_y
 _atom_site_fract_z
 _atom_site_occupancy
  Mg  Mg0  1  0.80093200  0.80093200  0.19906800  1
  Mg  Mg1  1  0.19906800  0.19906800  0.80093200  1
  Mg  Mg2  1  0.80093200  0.19906800  0.80093200  1
  Mg  Mg3  1  0.19906800  0.80093200  0.19906800  1
  Mg  Mg4  1  0.19906800  0.80093200  0.80093200  1
  Mg  Mg5  1  0.80093200  0.19906800  0.19906800  1
  Mg  Mg6  1  0.44906800  0.44906800  0.05093200  1
  Mg  Mg7  1  0.05093200  0.05093200  0.44906800  1
  Mg  Mg8  1  0.44906800  0.05093200  0.44906800  1
  Mg  Mg9  1  0.05093200  0.44906800  0.05093200  1
  Mg  Mg10  1  0.05093200  0.44906800  0.44906800  1
  Mg  Mg11  1  0.44906800  0.05093200  0.05093200  1
  Mn  Mn12  1  0.12500000  0.62500000  0.62500000  1
  Mn  Mn13  1  0.62500000  0.12500000  0.62500000  1
  Mn  Mn14  1  0.62500000  0.62500000  0.12500000  1
  Mn  Mn15  1  0.62500000  0.62500000  0.62500000  1
  Ni  Ni16  1  0.73979500  0.42006800  0.42006800  1
  Ni  Ni17  1  0.42006800  0.73979500  0.42006800  1
  Ni  Ni18  1  0.42006800  0.42006800  0.73979500  1
  Ni  Ni19  1  0.42006800  0.42006800  0.42006800  1
  Ni  Ni20  1  0.51020500  0.82993200  0.82993200  1
  Ni  Ni21  1  0.82993200  0.51020500  0.82993200  1
  Ni  Ni22  1  0.82993200  0.82993200  0.51020500  1
  Ni  Ni23  1  0.82993200  0.82993200  0.82993200  1
