# generated using pymatgen
data_La3YbBeS7
_symmetry_space_group_name_H-M   'P 1'
_cell_length_a   10.34578100
_cell_length_b   10.34578197
_cell_length_c   5.96330700
_cell_angle_alpha   90.00000000
_cell_angle_beta   90.00000000
_cell_angle_gamma   120.00000009
_symmetry_Int_Tables_number   1
_chemical_formula_structural   La3YbBeS7
_chemical_formula_sum   'La6 Yb2 Be2 S14'
_cell_volume   552.76992002
_cell_formula_units_Z   2
loop_
 _symmetry_equiv_pos_site_id
 _symmetry_equiv_pos_as_xyz
  1  'x, y, z'
loop_
 _atom_site_type_symbol
 _atom_site_label
 _atom_site_symmetry_multiplicity
 _atom_site_fract_x
 _atom_site_fract_y
 _atom_site_fract_z
 _atom_site_occupancy
  La  La0  1  0.74827200  0.13451700  0.24990600  1
  La  La1  1  0.38624500  0.25172800  0.24990600  1
  La  La2  1  0.86548300  0.61375500  0.24990600  1
  La  La3  1  0.25172800  0.86548300  0.74990600  1
  La  La4  1  0.61375500  0.74827200  0.74990600  1
  La  La5  1  0.13451700  0.38624500  0.74990600  1
  Yb  Yb6  1  0.00000000  0.00000000  0.01746400  1
  Yb  Yb7  1  0.00000000  0.00000000  0.51746400  1
  Be  Be8  1  0.66666700  0.33333300  0.65807300  1
  Be  Be9  1  0.33333300  0.66666700  0.15807300  1
  S  S10  1  0.83458700  0.08473900  0.76721100  1
  S  S11  1  0.25015300  0.16541300  0.76721100  1
  S  S12  1  0.91526100  0.74984700  0.76721100  1
  S  S13  1  0.16541300  0.91526100  0.26721100  1
  S  S14  1  0.74984700  0.83458700  0.26721100  1
  S  S15  1  0.08473900  0.25015300  0.26721100  1
  S  S16  1  0.88335900  0.40429600  0.52965800  1
  S  S17  1  0.52093700  0.11664100  0.52965800  1
  S  S18  1  0.59570400  0.47906300  0.52965800  1
  S  S19  1  0.11664100  0.59570400  0.02965800  1
  S  S20  1  0.47906300  0.88335900  0.02965800  1
  S  S21  1  0.40429600  0.52093700  0.02965800  1
  S  S22  1  0.66666700  0.33333300  0.01611300  1
  S  S23  1  0.33333300  0.66666700  0.51611300  1
