# generated using pymatgen
data_CsMg(BrO2)3
_symmetry_space_group_name_H-M   'P 1'
_cell_length_a   7.49142572
_cell_length_b   7.49142572
_cell_length_c   12.50875570
_cell_angle_alpha   71.48795552
_cell_angle_beta   71.48795552
_cell_angle_gamma   55.96037730
_symmetry_Int_Tables_number   1
_chemical_formula_structural   CsMg(BrO2)3
_chemical_formula_sum   'Cs2 Mg2 Br6 O12'
_cell_volume   542.82325295
_cell_formula_units_Z   2
loop_
 _symmetry_equiv_pos_site_id
 _symmetry_equiv_pos_as_xyz
  1  'x, y, z'
loop_
 _atom_site_type_symbol
 _atom_site_label
 _atom_site_symmetry_multiplicity
 _atom_site_fract_x
 _atom_site_fract_y
 _atom_site_fract_z
 _atom_site_occupancy
  Cs  Cs0  1  0.14148300  0.85851700  0.25000000  1
  Cs  Cs1  1  0.85851700  0.14148300  0.75000000  1
  Mg  Mg2  1  0.00000000  0.50000000  0.00000000  1
  Mg  Mg3  1  0.50000000  0.00000000  0.50000000  1
  Br  Br4  1  0.50000000  0.00000000  0.00000000  1
  Br  Br5  1  0.00000000  0.50000000  0.50000000  1
  Br  Br6  1  0.30481800  0.25183000  0.25817200  1
  Br  Br7  1  0.74817000  0.69518200  0.24182800  1
  Br  Br8  1  0.69518200  0.74817000  0.74182800  1
  Br  Br9  1  0.25183000  0.30481800  0.75817200  1
  O  O10  1  0.20545600  0.20388500  0.06926300  1
  O  O11  1  0.79611500  0.79454400  0.43073700  1
  O  O12  1  0.79454400  0.79611500  0.93073700  1
  O  O13  1  0.20388500  0.20545600  0.56926300  1
  O  O14  1  0.97924600  0.62442300  0.13218400  1
  O  O15  1  0.37557700  0.02075400  0.36781600  1
  O  O16  1  0.02075400  0.37557700  0.86781600  1
  O  O17  1  0.62442300  0.97924600  0.63218400  1
  O  O18  1  0.46486200  0.73757800  0.80977300  1
  O  O19  1  0.26242200  0.53513800  0.69022700  1
  O  O20  1  0.53513800  0.26242200  0.19022700  1
  O  O21  1  0.73757800  0.46486200  0.30977300  1
