# generated using pymatgen
data_CuBH4ClO4
_symmetry_space_group_name_H-M   'P 1'
_cell_length_a   5.77568600
_cell_length_b   6.18841000
_cell_length_c   6.18841000
_cell_angle_alpha   90.00000000
_cell_angle_beta   90.00000000
_cell_angle_gamma   90.00000000
_symmetry_Int_Tables_number   1
_chemical_formula_structural   CuBH4ClO4
_chemical_formula_sum   'Cu2 B2 H8 Cl2 O8'
_cell_volume   221.18808719
_cell_formula_units_Z   2
loop_
 _symmetry_equiv_pos_site_id
 _symmetry_equiv_pos_as_xyz
  1  'x, y, z'
loop_
 _atom_site_type_symbol
 _atom_site_label
 _atom_site_symmetry_multiplicity
 _atom_site_fract_x
 _atom_site_fract_y
 _atom_site_fract_z
 _atom_site_occupancy
  Cu  Cu0  1  0.61734300  0.00000000  0.50000000  1
  Cu  Cu1  1  0.38265700  0.50000000  0.00000000  1
  B  B2  1  0.50000000  0.50000000  0.50000000  1
  B  B3  1  0.50000000  0.00000000  0.00000000  1
  H  H4  1  0.75039600  0.65419600  0.32411100  1
  H  H5  1  0.75039600  0.34580400  0.67588900  1
  H  H6  1  0.24960400  0.15419600  0.82411100  1
  H  H7  1  0.24960400  0.84580400  0.17588900  1
  H  H8  1  0.24960400  0.32411100  0.34580400  1
  H  H9  1  0.24960400  0.67588900  0.65419600  1
  H  H10  1  0.75039600  0.82411100  0.84580400  1
  H  H11  1  0.75039600  0.17588900  0.15419600  1
  Cl  Cl12  1  0.15013000  0.00000000  0.50000000  1
  Cl  Cl13  1  0.84987000  0.50000000  0.00000000  1
  O  O14  1  0.65219500  0.04948700  0.18555000  1
  O  O15  1  0.65219500  0.95051300  0.81445000  1
  O  O16  1  0.34780500  0.54948700  0.68555000  1
  O  O17  1  0.34780500  0.45051300  0.31445000  1
  O  O18  1  0.34780500  0.18555000  0.95051300  1
  O  O19  1  0.34780500  0.81445000  0.04948700  1
  O  O20  1  0.65219500  0.68555000  0.45051300  1
  O  O21  1  0.65219500  0.31445000  0.54948700  1
