# generated using pymatgen
data_Nd5Co19
_symmetry_space_group_name_H-M   'P 1'
_cell_length_a   5.03170135
_cell_length_b   5.03170135
_cell_length_c   16.46640810
_cell_angle_alpha   81.21153425
_cell_angle_beta   81.21153425
_cell_angle_gamma   60.00000861
_symmetry_Int_Tables_number   1
_chemical_formula_structural   Nd5Co19
_chemical_formula_sum   'Nd5 Co19'
_cell_volume   355.38009963
_cell_formula_units_Z   1
loop_
 _symmetry_equiv_pos_site_id
 _symmetry_equiv_pos_as_xyz
  1  'x, y, z'
loop_
 _atom_site_type_symbol
 _atom_site_label
 _atom_site_symmetry_multiplicity
 _atom_site_fract_x
 _atom_site_fract_y
 _atom_site_fract_z
 _atom_site_occupancy
  Nd  Nd0  1  0.00000000  0.00000000  0.00000000  1
  Nd  Nd1  1  0.07903200  0.07903200  0.76290300  1
  Nd  Nd2  1  0.92096800  0.92096800  0.23709700  1
  Nd  Nd3  1  0.15271400  0.15271400  0.54185900  1
  Nd  Nd4  1  0.84728600  0.84728600  0.45814100  1
  Co  Co5  1  0.50000000  0.50000000  0.50000000  1
  Co  Co6  1  0.25120600  0.25120600  0.24638300  1
  Co  Co7  1  0.74879400  0.74879400  0.75361700  1
  Co  Co8  1  0.33368700  0.33368700  0.99893900  1
  Co  Co9  1  0.66631300  0.66631300  0.00106100  1
  Co  Co10  1  0.41470300  0.41470300  0.75589100  1
  Co  Co11  1  0.58529700  0.58529700  0.24410900  1
  Co  Co12  1  0.12578800  0.61986800  0.63447600  1
  Co  Co13  1  0.61986800  0.61986800  0.63447600  1
  Co  Co14  1  0.61986800  0.12578800  0.63447600  1
  Co  Co15  1  0.87421200  0.38013200  0.36552400  1
  Co  Co16  1  0.38013200  0.38013200  0.36552400  1
  Co  Co17  1  0.38013200  0.87421200  0.36552400  1
  Co  Co18  1  0.03999600  0.54091600  0.87817200  1
  Co  Co19  1  0.54091600  0.54091600  0.87817200  1
  Co  Co20  1  0.54091600  0.03999600  0.87817200  1
  Co  Co21  1  0.96000400  0.45908400  0.12182800  1
  Co  Co22  1  0.45908400  0.45908400  0.12182800  1
  Co  Co23  1  0.45908400  0.96000400  0.12182800  1
