# generated using pymatgen
data_K2Fe(PSe3)2
_symmetry_space_group_name_H-M   'P 1'
_cell_length_a   13.03962600
_cell_length_b   6.43313300
_cell_length_c   8.90250687
_cell_angle_alpha   57.83600378
_cell_angle_beta   90.00000000
_cell_angle_gamma   90.00000000
_symmetry_Int_Tables_number   1
_chemical_formula_structural   K2Fe(PSe3)2
_chemical_formula_sum   'K4 Fe2 P4 Se12'
_cell_volume   632.18070064
_cell_formula_units_Z   2
loop_
 _symmetry_equiv_pos_site_id
 _symmetry_equiv_pos_as_xyz
  1  'x, y, z'
loop_
 _atom_site_type_symbol
 _atom_site_label
 _atom_site_symmetry_multiplicity
 _atom_site_fract_x
 _atom_site_fract_y
 _atom_site_fract_z
 _atom_site_occupancy
  K  K0  1  0.30667000  0.81936900  0.45584600  1
  K  K1  1  0.19333000  0.81936900  0.95584600  1
  K  K2  1  0.69333000  0.18063100  0.54415400  1
  K  K3  1  0.80667000  0.18063100  0.04415400  1
  Fe  Fe4  1  0.00000000  0.50000000  0.50000000  1
  Fe  Fe5  1  0.50000000  0.50000000  0.00000000  1
  P  P6  1  0.96696000  0.85155000  0.63177400  1
  P  P7  1  0.53304000  0.85155000  0.13177400  1
  P  P8  1  0.03304000  0.14845000  0.36822600  1
  P  P9  1  0.46696000  0.14845000  0.86822600  1
  Se  Se10  1  0.83296900  0.70742100  0.56517300  1
  Se  Se11  1  0.66703100  0.70742100  0.06517300  1
  Se  Se12  1  0.16703100  0.29257900  0.43482700  1
  Se  Se13  1  0.33296900  0.29257900  0.93482700  1
  Se  Se14  1  0.08309900  0.55728000  0.74690000  1
  Se  Se15  1  0.41690100  0.55728000  0.24690000  1
  Se  Se16  1  0.91690100  0.44272000  0.25310000  1
  Se  Se17  1  0.58309900  0.44272000  0.75310000  1
  Se  Se18  1  0.94350400  0.06314700  0.76007200  1
  Se  Se19  1  0.55649600  0.06314700  0.26007200  1
  Se  Se20  1  0.05649600  0.93685300  0.23992800  1
  Se  Se21  1  0.44350400  0.93685300  0.73992800  1
