# generated using pymatgen
data_NaSi2BO7
_symmetry_space_group_name_H-M   'P 1'
_cell_length_a   4.95336198
_cell_length_b   7.22164700
_cell_length_c   8.17830028
_cell_angle_alpha   90.00000000
_cell_angle_beta   93.35210048
_cell_angle_gamma   90.00000000
_symmetry_Int_Tables_number   1
_chemical_formula_structural   NaSi2BO7
_chemical_formula_sum   'Na2 Si4 B2 O14'
_cell_volume   292.04897492
_cell_formula_units_Z   2
loop_
 _symmetry_equiv_pos_site_id
 _symmetry_equiv_pos_as_xyz
  1  'x, y, z'
loop_
 _atom_site_type_symbol
 _atom_site_label
 _atom_site_symmetry_multiplicity
 _atom_site_fract_x
 _atom_site_fract_y
 _atom_site_fract_z
 _atom_site_occupancy
  Na  Na0  1  0.98600300  0.49578000  0.44206100  1
  Na  Na1  1  0.01399700  0.99578000  0.55793900  1
  Si  Si2  1  0.21266200  0.90803100  0.13262400  1
  Si  Si3  1  0.78733800  0.40803100  0.86737600  1
  Si  Si4  1  0.30518700  0.48462400  0.08085600  1
  Si  Si5  1  0.69481300  0.98462400  0.91914400  1
  B  B6  1  0.38297800  0.20277900  0.33909600  1
  B  B7  1  0.61702200  0.70277900  0.66090400  1
  O  O8  1  0.24695500  0.68568700  0.16429500  1
  O  O9  1  0.75304500  0.18568700  0.83570500  1
  O  O10  1  0.89581800  0.95164200  0.08149900  1
  O  O11  1  0.10418200  0.45164200  0.91850100  1
  O  O12  1  0.25678600  0.33224700  0.22014900  1
  O  O13  1  0.74321400  0.83224700  0.77985100  1
  O  O14  1  0.30078100  0.01191200  0.30331400  1
  O  O15  1  0.69921900  0.51191200  0.69668600  1
  O  O16  1  0.61317500  0.47901800  0.01948700  1
  O  O17  1  0.38682500  0.97901800  0.98051300  1
  O  O18  1  0.67094200  0.22383200  0.37977800  1
  O  O19  1  0.32905800  0.72383200  0.62022200  1
  O  O20  1  0.67631600  0.74955000  0.49387400  1
  O  O21  1  0.32368400  0.24955000  0.50612600  1
