# generated using pymatgen
data_Sr3ZnCoO6
_symmetry_space_group_name_H-M   'P 1'
_cell_length_a   6.64992242
_cell_length_b   6.64992242
_cell_length_c   6.64992344
_cell_angle_alpha   92.68864290
_cell_angle_beta   92.68864290
_cell_angle_gamma   92.68864423
_symmetry_Int_Tables_number   1
_chemical_formula_structural   Sr3ZnCoO6
_chemical_formula_sum   'Sr6 Zn2 Co2 O12'
_cell_volume   293.06670831
_cell_formula_units_Z   2
loop_
 _symmetry_equiv_pos_site_id
 _symmetry_equiv_pos_as_xyz
  1  'x, y, z'
loop_
 _atom_site_type_symbol
 _atom_site_label
 _atom_site_symmetry_multiplicity
 _atom_site_fract_x
 _atom_site_fract_y
 _atom_site_fract_z
 _atom_site_occupancy
  Sr  Sr0  1  0.88431700  0.61568300  0.25000000  1
  Sr  Sr1  1  0.25000000  0.88431700  0.61568300  1
  Sr  Sr2  1  0.61568300  0.25000000  0.88431700  1
  Sr  Sr3  1  0.75000000  0.11568300  0.38431700  1
  Sr  Sr4  1  0.38431700  0.75000000  0.11568300  1
  Sr  Sr5  1  0.11568300  0.38431700  0.75000000  1
  Zn  Zn6  1  0.25000000  0.25000000  0.25000000  1
  Zn  Zn7  1  0.75000000  0.75000000  0.75000000  1
  Co  Co8  1  0.50000000  0.50000000  0.50000000  1
  Co  Co9  1  0.00000000  0.00000000  0.00000000  1
  O  O10  1  0.22328400  0.54124200  0.41421100  1
  O  O11  1  0.41421100  0.22328400  0.54124200  1
  O  O12  1  0.54124200  0.41421100  0.22328400  1
  O  O13  1  0.91421100  0.04124200  0.72328400  1
  O  O14  1  0.72328400  0.91421100  0.04124200  1
  O  O15  1  0.04124200  0.72328400  0.91421100  1
  O  O16  1  0.77671600  0.45875800  0.58578900  1
  O  O17  1  0.58578900  0.77671600  0.45875800  1
  O  O18  1  0.45875800  0.58578900  0.77671600  1
  O  O19  1  0.08578900  0.95875800  0.27671600  1
  O  O20  1  0.27671600  0.08578900  0.95875800  1
  O  O21  1  0.95875800  0.27671600  0.08578900  1
