# generated using pymatgen
data_YW2O9
_symmetry_space_group_name_H-M   'P 1'
_cell_length_a   6.04140836
_cell_length_b   6.81775312
_cell_length_c   8.66390700
_cell_angle_alpha   90.00000000
_cell_angle_beta   90.00000000
_cell_angle_gamma   102.19398317
_symmetry_Int_Tables_number   1
_chemical_formula_structural   YW2O9
_chemical_formula_sum   'Y2 W4 O18'
_cell_volume   348.80483798
_cell_formula_units_Z   2
loop_
 _symmetry_equiv_pos_site_id
 _symmetry_equiv_pos_as_xyz
  1  'x, y, z'
loop_
 _atom_site_type_symbol
 _atom_site_label
 _atom_site_symmetry_multiplicity
 _atom_site_fract_x
 _atom_site_fract_y
 _atom_site_fract_z
 _atom_site_occupancy
  Y  Y0  1  0.30559000  0.74538500  0.25000000  1
  Y  Y1  1  0.69441000  0.25461500  0.75000000  1
  W  W2  1  0.18116600  0.18944700  0.43509000  1
  W  W3  1  0.81883400  0.81055300  0.93509000  1
  W  W4  1  0.81883400  0.81055300  0.56491000  1
  W  W5  1  0.18116600  0.18944700  0.06491000  1
  O  O6  1  0.04164400  0.82595300  0.75000000  1
  O  O7  1  0.95835600  0.17404700  0.25000000  1
  O  O8  1  0.35459300  0.12429300  0.25000000  1
  O  O9  1  0.64540700  0.87570700  0.75000000  1
  O  O10  1  0.22437100  0.46553800  0.41377700  1
  O  O11  1  0.77562900  0.53446200  0.91377700  1
  O  O12  1  0.77562900  0.53446200  0.58622300  1
  O  O13  1  0.22437100  0.46553800  0.08622300  1
  O  O14  1  0.07606000  0.87016500  0.42765300  1
  O  O15  1  0.92394000  0.12983500  0.92765300  1
  O  O16  1  0.92394000  0.12983500  0.57234700  1
  O  O17  1  0.07606000  0.87016500  0.07234700  1
  O  O18  1  0.40910900  0.19089600  0.57098800  1
  O  O19  1  0.59089100  0.80910400  0.07098800  1
  O  O20  1  0.59089100  0.80910400  0.42901200  1
  O  O21  1  0.40910900  0.19089600  0.92901200  1
  O  O22  1  0.94982100  0.48325800  0.25000000  1
  O  O23  1  0.05017900  0.51674200  0.75000000  1
