# generated using pymatgen
data_TiVO4
_symmetry_space_group_name_H-M   'P 1'
_cell_length_a   4.71060100
_cell_length_b   7.44694384
_cell_length_c   7.70055527
_cell_angle_alpha   99.76784920
_cell_angle_beta   90.00072550
_cell_angle_gamma   90.00043980
_symmetry_Int_Tables_number   1
_chemical_formula_structural   TiVO4
_chemical_formula_sum   'Ti4 V4 O16'
_cell_volume   266.21621476
_cell_formula_units_Z   4
loop_
 _symmetry_equiv_pos_site_id
 _symmetry_equiv_pos_as_xyz
  1  'x, y, z'
loop_
 _atom_site_type_symbol
 _atom_site_label
 _atom_site_symmetry_multiplicity
 _atom_site_fract_x
 _atom_site_fract_y
 _atom_site_fract_z
 _atom_site_occupancy
  Ti  Ti0  1  0.52676100  0.41646800  0.31535900  1
  Ti  Ti1  1  0.02675700  0.08352900  0.18464700  1
  Ti  Ti2  1  0.47324000  0.58352800  0.68464200  1
  Ti  Ti3  1  0.97324500  0.91647500  0.81535300  1
  V  V4  1  0.50651400  0.28762200  0.91976200  1
  V  V5  1  0.00651000  0.21237700  0.58024500  1
  V  V6  1  0.49349400  0.71237700  0.08023000  1
  V  V7  1  0.99349700  0.78762300  0.41976200  1
  O  O8  1  0.28597200  0.25960700  0.14427600  1
  O  O9  1  0.78597000  0.24039600  0.35572400  1
  O  O10  1  0.71402000  0.74039900  0.85572400  1
  O  O11  1  0.21402300  0.75959800  0.64427600  1
  O  O12  1  0.24725900  0.15595800  0.77748000  1
  O  O13  1  0.74725500  0.34404600  0.72252600  1
  O  O14  1  0.75274000  0.84404200  0.22252700  1
  O  O15  1  0.25274600  0.65595500  0.27746700  1
  O  O16  1  0.18547900  0.02345700  0.39469100  1
  O  O17  1  0.68548100  0.47654400  0.10530900  1
  O  O18  1  0.81452000  0.97654300  0.60531200  1
  O  O19  1  0.31451800  0.52345700  0.89468900  1
  O  O20  1  0.21761900  0.89272900  0.01970100  1
  O  O21  1  0.71761500  0.60727000  0.48029800  1
  O  O22  1  0.78238000  0.10728200  0.98030600  1
  O  O23  1  0.28238500  0.39271800  0.51969500  1
