# generated using pymatgen
data_UVB4
_symmetry_space_group_name_H-M   'P 1'
_cell_length_a   3.54850200
_cell_length_b   5.91210000
_cell_length_c   11.43931300
_cell_angle_alpha   90.00000000
_cell_angle_beta   90.00000000
_cell_angle_gamma   90.00000000
_symmetry_Int_Tables_number   1
_chemical_formula_structural   UVB4
_chemical_formula_sum   'U4 V4 B16'
_cell_volume   239.98647619
_cell_formula_units_Z   4
loop_
 _symmetry_equiv_pos_site_id
 _symmetry_equiv_pos_as_xyz
  1  'x, y, z'
loop_
 _atom_site_type_symbol
 _atom_site_label
 _atom_site_symmetry_multiplicity
 _atom_site_fract_x
 _atom_site_fract_y
 _atom_site_fract_z
 _atom_site_occupancy
  U  U0  1  0.00000000  0.62502400  0.34888300  1
  U  U1  1  0.00000000  0.37497600  0.65111700  1
  U  U2  1  0.00000000  0.12502400  0.15111700  1
  U  U3  1  0.00000000  0.87497600  0.84888300  1
  V  V4  1  0.00000000  0.62758000  0.08458600  1
  V  V5  1  0.00000000  0.37242000  0.91541400  1
  V  V6  1  0.00000000  0.12758000  0.41541400  1
  V  V7  1  0.00000000  0.87242000  0.58458600  1
  B  B8  1  0.50000000  0.78462700  0.18679200  1
  B  B9  1  0.50000000  0.21537300  0.81320800  1
  B  B10  1  0.50000000  0.28462700  0.31320800  1
  B  B11  1  0.50000000  0.71537300  0.68679200  1
  B  B12  1  0.50000000  0.86613900  0.03306200  1
  B  B13  1  0.50000000  0.13386100  0.96693800  1
  B  B14  1  0.50000000  0.36613900  0.46693800  1
  B  B15  1  0.50000000  0.63386100  0.53306200  1
  B  B16  1  0.50000000  0.88492600  0.45318200  1
  B  B17  1  0.50000000  0.11507400  0.54681800  1
  B  B18  1  0.50000000  0.38492600  0.04681800  1
  B  B19  1  0.50000000  0.61507400  0.95318200  1
  B  B20  1  0.50000000  0.97223600  0.30743600  1
  B  B21  1  0.50000000  0.02776400  0.69256400  1
  B  B22  1  0.50000000  0.47223600  0.19256400  1
  B  B23  1  0.50000000  0.52776400  0.80743600  1
