# generated using pymatgen
data_MnSeO4
_symmetry_space_group_name_H-M   'P 1'
_cell_length_a   4.92070100
_cell_length_b   5.81733600
_cell_length_c   12.77676900
_cell_angle_alpha   90.00000000
_cell_angle_beta   90.00000000
_cell_angle_gamma   90.00000000
_symmetry_Int_Tables_number   1
_chemical_formula_structural   MnSeO4
_chemical_formula_sum   'Mn4 Se4 O16'
_cell_volume   365.73975373
_cell_formula_units_Z   4
loop_
 _symmetry_equiv_pos_site_id
 _symmetry_equiv_pos_as_xyz
  1  'x, y, z'
loop_
 _atom_site_type_symbol
 _atom_site_label
 _atom_site_symmetry_multiplicity
 _atom_site_fract_x
 _atom_site_fract_y
 _atom_site_fract_z
 _atom_site_occupancy
  Mn  Mn0  1  0.60700600  0.75000000  0.77181600  1
  Mn  Mn1  1  0.89299400  0.75000000  0.27181600  1
  Mn  Mn2  1  0.39299400  0.25000000  0.22818400  1
  Mn  Mn3  1  0.10700600  0.25000000  0.72818400  1
  Se  Se4  1  0.94468000  0.25000000  0.39726300  1
  Se  Se5  1  0.55532000  0.25000000  0.89726300  1
  Se  Se6  1  0.05532000  0.75000000  0.60273700  1
  Se  Se7  1  0.44468000  0.75000000  0.10273700  1
  O  O8  1  0.61450200  0.25000000  0.35966000  1
  O  O9  1  0.88549800  0.25000000  0.85966000  1
  O  O10  1  0.38549800  0.75000000  0.64034000  1
  O  O11  1  0.11450200  0.75000000  0.14034000  1
  O  O12  1  0.60448400  0.53348100  0.17685700  1
  O  O13  1  0.89551600  0.96651900  0.67685700  1
  O  O14  1  0.39551600  0.03348100  0.82314300  1
  O  O15  1  0.10448400  0.46651900  0.32314300  1
  O  O16  1  0.39551600  0.46651900  0.82314300  1
  O  O17  1  0.10448400  0.03348100  0.32314300  1
  O  O18  1  0.60448400  0.96651900  0.17685700  1
  O  O19  1  0.89551600  0.53348100  0.67685700  1
  O  O20  1  0.82326200  0.75000000  0.88000300  1
  O  O21  1  0.67673800  0.75000000  0.38000300  1
  O  O22  1  0.17673800  0.25000000  0.11999700  1
  O  O23  1  0.32326200  0.25000000  0.61999700  1
