# generated using pymatgen
data_Na2Al(P2O7)2
_symmetry_space_group_name_H-M   'P 1'
_cell_length_a   4.95291500
_cell_length_b   7.54943006
_cell_length_c   8.34735789
_cell_angle_alpha   65.98783872
_cell_angle_beta   81.35438160
_cell_angle_gamma   80.84400401
_symmetry_Int_Tables_number   1
_chemical_formula_structural   Na2Al(P2O7)2
_chemical_formula_sum   'Na2 Al1 P4 O14'
_cell_volume   280.20782379
_cell_formula_units_Z   1
loop_
 _symmetry_equiv_pos_site_id
 _symmetry_equiv_pos_as_xyz
  1  'x, y, z'
loop_
 _atom_site_type_symbol
 _atom_site_label
 _atom_site_symmetry_multiplicity
 _atom_site_fract_x
 _atom_site_fract_y
 _atom_site_fract_z
 _atom_site_occupancy
  Na  Na0  1  0.09978200  0.78047500  0.71079500  1
  Na  Na1  1  0.90021800  0.21952500  0.28920500  1
  Al  Al2  1  0.00000000  0.00000000  0.00000000  1
  P  P3  1  0.55113300  0.07926300  0.73543100  1
  P  P4  1  0.44886700  0.92073700  0.26456900  1
  P  P5  1  0.71472100  0.42255000  0.77188100  1
  P  P6  1  0.28527900  0.57745000  0.22811900  1
  O  O7  1  0.25349900  0.03853200  0.79154400  1
  O  O8  1  0.74650100  0.96146800  0.20845600  1
  O  O9  1  0.87802300  0.27115400  0.91786700  1
  O  O10  1  0.12197700  0.72884600  0.08213300  1
  O  O11  1  0.74327200  0.95728200  0.87919100  1
  O  O12  1  0.25672800  0.04271800  0.12080900  1
  O  O13  1  0.56049500  0.30794200  0.69237300  1
  O  O14  1  0.43950500  0.69205800  0.30762700  1
  O  O15  1  0.66627300  0.04689600  0.56680300  1
  O  O16  1  0.33372700  0.95310400  0.43319700  1
  O  O17  1  0.88618500  0.57046400  0.62455100  1
  O  O18  1  0.11381500  0.42953600  0.37544900  1
  O  O19  1  0.49719600  0.56269600  0.82372800  1
  O  O20  1  0.50280400  0.43730400  0.17627200  1
