# generated using pymatgen
data_K2Cr4CdO16
_symmetry_space_group_name_H-M   'P 1'
_cell_length_a   6.90251175
_cell_length_b   7.62125000
_cell_length_c   8.06565313
_cell_angle_alpha   88.14742344
_cell_angle_beta   82.07371626
_cell_angle_gamma   68.13451181
_symmetry_Int_Tables_number   1
_chemical_formula_structural   K2Cr4CdO16
_chemical_formula_sum   'K2 Cr4 Cd1 O16'
_cell_volume   389.93045858
_cell_formula_units_Z   1
loop_
 _symmetry_equiv_pos_site_id
 _symmetry_equiv_pos_as_xyz
  1  'x, y, z'
loop_
 _atom_site_type_symbol
 _atom_site_label
 _atom_site_symmetry_multiplicity
 _atom_site_fract_x
 _atom_site_fract_y
 _atom_site_fract_z
 _atom_site_occupancy
  K  K0  1  0.28026000  0.76225400  0.83315500  1
  K  K1  1  0.71974000  0.23774600  0.16684500  1
  Cr  Cr2  1  0.29181800  0.97699900  0.32534500  1
  Cr  Cr3  1  0.70818200  0.02300100  0.67465500  1
  Cr  Cr4  1  0.74110200  0.70389600  0.14768900  1
  Cr  Cr5  1  0.25889800  0.29610400  0.85231100  1
  Cd  Cd6  1  0.00000000  0.50000000  0.50000000  1
  O  O7  1  0.55929100  0.92875500  0.23671800  1
  O  O8  1  0.44070900  0.07124500  0.76328200  1
  O  O9  1  0.19893600  0.18717800  0.41508500  1
  O  O10  1  0.80106400  0.81282200  0.58491500  1
  O  O11  1  0.28383000  0.81516700  0.46661400  1
  O  O12  1  0.71617000  0.18483300  0.53338600  1
  O  O13  1  0.15717700  0.96836800  0.17943800  1
  O  O14  1  0.84282300  0.03163200  0.82056200  1
  O  O15  1  0.78850600  0.54168700  0.29572800  1
  O  O16  1  0.21149400  0.45831300  0.70427200  1
  O  O17  1  0.63739600  0.64126000  0.00298700  1
  O  O18  1  0.36260400  0.35874000  0.99701300  1
  O  O19  1  0.04279400  0.27044600  0.92925400  1
  O  O20  1  0.95720600  0.72955400  0.07074600  1
  O  O21  1  0.72382600  0.42668700  0.65494200  1
  O  O22  1  0.27617400  0.57331300  0.34505800  1
