# generated using pymatgen
data_InTeBrO3
_symmetry_space_group_name_H-M   'P 1'
_cell_length_a   7.04515900
_cell_length_b   7.30185000
_cell_length_c   8.79728813
_cell_angle_alpha   76.98434002
_cell_angle_beta   90.00000000
_cell_angle_gamma   90.00000000
_symmetry_Int_Tables_number   1
_chemical_formula_structural   InTeBrO3
_chemical_formula_sum   'In4 Te4 Br4 O12'
_cell_volume   440.92937622
_cell_formula_units_Z   4
loop_
 _symmetry_equiv_pos_site_id
 _symmetry_equiv_pos_as_xyz
  1  'x, y, z'
loop_
 _atom_site_type_symbol
 _atom_site_label
 _atom_site_symmetry_multiplicity
 _atom_site_fract_x
 _atom_site_fract_y
 _atom_site_fract_z
 _atom_site_occupancy
  In  In0  1  0.74946000  0.29702500  0.32853300  1
  In  In1  1  0.24946000  0.20297500  0.67146700  1
  In  In2  1  0.25054000  0.70297500  0.67146700  1
  In  In3  1  0.75054000  0.79702500  0.32853300  1
  Te  Te4  1  0.22340600  0.55274000  0.30659100  1
  Te  Te5  1  0.72340600  0.94726000  0.69340900  1
  Te  Te6  1  0.77659400  0.44726000  0.69340900  1
  Te  Te7  1  0.27659400  0.05274000  0.30659100  1
  Br  Br8  1  0.70540400  0.61251000  0.09116000  1
  Br  Br9  1  0.20540400  0.88749000  0.90884000  1
  Br  Br10  1  0.29459600  0.38749000  0.90884000  1
  Br  Br11  1  0.79459600  0.11251000  0.09116000  1
  O  O12  1  0.28207500  0.49159000  0.52918200  1
  O  O13  1  0.78207500  0.00841000  0.47081800  1
  O  O14  1  0.71792500  0.50841000  0.47081800  1
  O  O15  1  0.21792500  0.99159000  0.52918200  1
  O  O16  1  0.05465700  0.75249300  0.32481200  1
  O  O17  1  0.55465700  0.74750700  0.67518800  1
  O  O18  1  0.94534300  0.24750700  0.67518800  1
  O  O19  1  0.44534300  0.25249300  0.32481200  1
  O  O20  1  0.05338700  0.34517400  0.32096600  1
  O  O21  1  0.55338700  0.15482600  0.67903400  1
  O  O22  1  0.94661300  0.65482600  0.67903400  1
  O  O23  1  0.44661300  0.84517400  0.32096600  1
