# generated using pymatgen
data_CaB2H3
_symmetry_space_group_name_H-M   'P 1'
_cell_length_a   3.63970700
_cell_length_b   3.54837387
_cell_length_c   16.44897779
_cell_angle_alpha   90.92026841
_cell_angle_beta   90.00000000
_cell_angle_gamma   90.00000000
_symmetry_Int_Tables_number   1
_chemical_formula_structural   CaB2H3
_chemical_formula_sum   'Ca4 B8 H12'
_cell_volume   212.41182421
_cell_formula_units_Z   4
loop_
 _symmetry_equiv_pos_site_id
 _symmetry_equiv_pos_as_xyz
  1  'x, y, z'
loop_
 _atom_site_type_symbol
 _atom_site_label
 _atom_site_symmetry_multiplicity
 _atom_site_fract_x
 _atom_site_fract_y
 _atom_site_fract_z
 _atom_site_occupancy
  Ca  Ca0  1  0.52497200  0.74074300  0.38401000  1
  Ca  Ca1  1  0.02497200  0.25925700  0.11599000  1
  Ca  Ca2  1  0.47502800  0.25925700  0.61599000  1
  Ca  Ca3  1  0.97502800  0.74074300  0.88401000  1
  B  B4  1  0.05657100  0.75029200  0.51058500  1
  B  B5  1  0.55657100  0.24970800  0.98941500  1
  B  B6  1  0.94342900  0.24970800  0.48941500  1
  B  B7  1  0.44342900  0.75029200  0.01058500  1
  B  B8  1  0.55728100  0.61100900  0.74943000  1
  B  B9  1  0.05728100  0.38899100  0.75057000  1
  B  B10  1  0.44271900  0.38899100  0.25057000  1
  B  B11  1  0.94271900  0.61100900  0.24943000  1
  H  H12  1  0.53709100  0.87988200  0.79715300  1
  H  H13  1  0.03709100  0.12011800  0.70284700  1
  H  H14  1  0.46290900  0.12011800  0.20284700  1
  H  H15  1  0.96290900  0.87988200  0.29715300  1
  H  H16  1  0.37063600  0.75374100  0.53846000  1
  H  H17  1  0.87063600  0.24625900  0.96154000  1
  H  H18  1  0.62936400  0.24625900  0.46154000  1
  H  H19  1  0.12936400  0.75374100  0.03846000  1
  H  H20  1  0.40419100  0.22813100  0.31711100  1
  H  H21  1  0.90419100  0.77186900  0.18288900  1
  H  H22  1  0.59580900  0.77186900  0.68288900  1
  H  H23  1  0.09580900  0.22813100  0.81711100  1
