# generated using pymatgen
data_Rb4Sn(Te2O)2
_symmetry_space_group_name_H-M   'P 1'
_cell_length_a   10.11625266
_cell_length_b   10.11625266
_cell_length_c   15.26475090
_cell_angle_alpha   56.39710875
_cell_angle_beta   56.39710875
_cell_angle_gamma   44.33426169
_symmetry_Int_Tables_number   1
_chemical_formula_structural   Rb4Sn(Te2O)2
_chemical_formula_sum   'Rb8 Sn2 Te8 O4'
_cell_volume   875.32650611
_cell_formula_units_Z   2
loop_
 _symmetry_equiv_pos_site_id
 _symmetry_equiv_pos_as_xyz
  1  'x, y, z'
loop_
 _atom_site_type_symbol
 _atom_site_label
 _atom_site_symmetry_multiplicity
 _atom_site_fract_x
 _atom_site_fract_y
 _atom_site_fract_z
 _atom_site_occupancy
  Rb  Rb0  1  0.59633400  0.81612300  0.67735400  1
  Rb  Rb1  1  0.18387700  0.40366600  0.82264600  1
  Rb  Rb2  1  0.40366600  0.18387700  0.32264600  1
  Rb  Rb3  1  0.81612300  0.59633400  0.17735400  1
  Rb  Rb4  1  0.70692200  0.11887100  0.00450700  1
  Rb  Rb5  1  0.88112900  0.29307800  0.49549300  1
  Rb  Rb6  1  0.29307800  0.88112900  0.99549300  1
  Rb  Rb7  1  0.11887100  0.70692200  0.50450700  1
  Sn  Sn8  1  0.12553500  0.87446500  0.75000000  1
  Sn  Sn9  1  0.87446500  0.12553500  0.25000000  1
  Te  Te10  1  0.04532000  0.22770600  0.72641400  1
  Te  Te11  1  0.77229400  0.95468000  0.77358600  1
  Te  Te12  1  0.95468000  0.77229400  0.27358600  1
  Te  Te13  1  0.22770600  0.04532000  0.22641400  1
  Te  Te14  1  0.24329000  0.61554700  0.93925300  1
  Te  Te15  1  0.38445300  0.75671000  0.56074700  1
  Te  Te16  1  0.75671000  0.38445300  0.06074700  1
  Te  Te17  1  0.61554700  0.24329000  0.43925300  1
  O  O18  1  0.88392300  0.74771700  0.72096400  1
  O  O19  1  0.25228300  0.11607700  0.77903600  1
  O  O20  1  0.11607700  0.25228300  0.27903600  1
  O  O21  1  0.74771700  0.88392300  0.22096400  1
