# generated using pymatgen
data_Hf2Os
_symmetry_space_group_name_H-M   'P 1'
_cell_length_a   8.73601861
_cell_length_b   8.73601861
_cell_length_c   8.73601861
_cell_angle_alpha   60.00000000
_cell_angle_beta   60.00000000
_cell_angle_gamma   60.00000000
_symmetry_Int_Tables_number   1
_chemical_formula_structural   Hf2Os
_chemical_formula_sum   'Hf16 Os8'
_cell_volume   471.43915949
_cell_formula_units_Z   8
loop_
 _symmetry_equiv_pos_site_id
 _symmetry_equiv_pos_as_xyz
  1  'x, y, z'
loop_
 _atom_site_type_symbol
 _atom_site_label
 _atom_site_symmetry_multiplicity
 _atom_site_fract_x
 _atom_site_fract_y
 _atom_site_fract_z
 _atom_site_occupancy
  Hf  Hf0  1  0.12500000  0.62500000  0.62500000  1
  Hf  Hf1  1  0.62500000  0.12500000  0.62500000  1
  Hf  Hf2  1  0.62500000  0.62500000  0.12500000  1
  Hf  Hf3  1  0.62500000  0.62500000  0.62500000  1
  Hf  Hf4  1  0.81107400  0.81107400  0.18892600  1
  Hf  Hf5  1  0.18892600  0.18892600  0.81107400  1
  Hf  Hf6  1  0.81107400  0.18892600  0.81107400  1
  Hf  Hf7  1  0.18892600  0.81107400  0.18892600  1
  Hf  Hf8  1  0.18892600  0.81107400  0.81107400  1
  Hf  Hf9  1  0.81107400  0.18892600  0.18892600  1
  Hf  Hf10  1  0.43892600  0.43892600  0.06107400  1
  Hf  Hf11  1  0.06107400  0.06107400  0.43892600  1
  Hf  Hf12  1  0.43892600  0.06107400  0.43892600  1
  Hf  Hf13  1  0.06107400  0.43892600  0.06107400  1
  Hf  Hf14  1  0.06107400  0.43892600  0.43892600  1
  Hf  Hf15  1  0.43892600  0.06107400  0.06107400  1
  Os  Os16  1  0.76895200  0.41034900  0.41034900  1
  Os  Os17  1  0.41034900  0.76895200  0.41034900  1
  Os  Os18  1  0.41034900  0.41034900  0.76895200  1
  Os  Os19  1  0.41034900  0.41034900  0.41034900  1
  Os  Os20  1  0.48104800  0.83965100  0.83965100  1
  Os  Os21  1  0.83965100  0.48104800  0.83965100  1
  Os  Os22  1  0.83965100  0.83965100  0.48104800  1
  Os  Os23  1  0.83965100  0.83965100  0.83965100  1
