# generated using pymatgen
data_BaNb6O17
_symmetry_space_group_name_H-M   'P 1'
_cell_length_a   11.70129156
_cell_length_b   11.70129156
_cell_length_c   11.70129156
_cell_angle_alpha   160.99848239
_cell_angle_beta   135.53826721
_cell_angle_gamma   48.75894948
_symmetry_Int_Tables_number   1
_chemical_formula_structural   BaNb6O17
_chemical_formula_sum   'Ba1 Nb6 O17'
_cell_volume   364.52287073
_cell_formula_units_Z   1
loop_
 _symmetry_equiv_pos_site_id
 _symmetry_equiv_pos_as_xyz
  1  'x, y, z'
loop_
 _atom_site_type_symbol
 _atom_site_label
 _atom_site_symmetry_multiplicity
 _atom_site_fract_x
 _atom_site_fract_y
 _atom_site_fract_z
 _atom_site_occupancy
  Ba  Ba0  1  0.00000000  0.00000000  0.00000000  1
  Nb  Nb1  1  0.17956800  0.37266600  0.80690200  1
  Nb  Nb2  1  0.43423600  0.62733400  0.80690200  1
  Nb  Nb3  1  0.56576400  0.37266600  0.19309800  1
  Nb  Nb4  1  0.82043200  0.62733400  0.19309800  1
  Nb  Nb5  1  0.74011900  0.24011900  0.50000000  1
  Nb  Nb6  1  0.25988100  0.75988100  0.50000000  1
  O  O7  1  0.18575800  0.84823400  0.33752400  1
  O  O8  1  0.48929000  0.15176600  0.33752400  1
  O  O9  1  0.51071000  0.84823400  0.66247600  1
  O  O10  1  0.81424200  0.15176600  0.66247600  1
  O  O11  1  0.09884500  0.43301100  0.66583500  1
  O  O12  1  0.23282400  0.56698900  0.66583500  1
  O  O13  1  0.76717600  0.43301100  0.33416500  1
  O  O14  1  0.90115500  0.56698900  0.33416500  1
  O  O15  1  0.95398200  0.29519200  0.65879000  1
  O  O16  1  0.36359800  0.70480800  0.65879000  1
  O  O17  1  0.63640200  0.29519200  0.34121000  1
  O  O18  1  0.04601800  0.70480800  0.34121000  1
  O  O19  1  0.28824800  0.28824800  0.00000000  1
  O  O20  1  0.71175200  0.71175200  0.00000000  1
  O  O21  1  0.41836900  0.41836900  0.00000000  1
  O  O22  1  0.58163100  0.58163100  0.00000000  1
  O  O23  1  0.50000000  0.00000000  0.50000000  1
