# generated using pymatgen
data_FeH10S2(NO2)4
_symmetry_space_group_name_H-M   'P 1'
_cell_length_a   5.41458059
_cell_length_b   5.95366971
_cell_length_c   7.56683212
_cell_angle_alpha   91.32666811
_cell_angle_beta   105.15502784
_cell_angle_gamma   99.70425184
_symmetry_Int_Tables_number   1
_chemical_formula_structural   FeH10S2(NO2)4
_chemical_formula_sum   'Fe1 H10 S2 N4 O8'
_cell_volume   231.49677983
_cell_formula_units_Z   1
loop_
 _symmetry_equiv_pos_site_id
 _symmetry_equiv_pos_as_xyz
  1  'x, y, z'
loop_
 _atom_site_type_symbol
 _atom_site_label
 _atom_site_symmetry_multiplicity
 _atom_site_fract_x
 _atom_site_fract_y
 _atom_site_fract_z
 _atom_site_occupancy
  Fe  Fe0  1  0.00000000  0.00000000  0.00000000  1
  H  H1  1  0.87157500  0.06134700  0.63286900  1
  H  H2  1  0.12842500  0.93865300  0.36713100  1
  H  H3  1  0.10910400  0.27358600  0.73315400  1
  H  H4  1  0.89089600  0.72641400  0.26684600  1
  H  H5  1  0.72861700  0.39729700  0.58185900  1
  H  H6  1  0.27138300  0.60270300  0.41814100  1
  H  H7  1  0.57326300  0.23266700  0.71703000  1
  H  H8  1  0.42673700  0.76733300  0.28297000  1
  H  H9  1  0.80734000  0.46264500  0.81396600  1
  H  H10  1  0.19266000  0.53735500  0.18603400  1
  S  S11  1  0.36814800  0.76151300  0.77902500  1
  S  S12  1  0.63185200  0.23848700  0.22097500  1
  N  N13  1  0.93624800  0.17884200  0.74391400  1
  N  N14  1  0.06375200  0.82115800  0.25608600  1
  N  N15  1  0.74996200  0.33170400  0.71216200  1
  N  N16  1  0.25003800  0.66829600  0.28783800  1
  O  O17  1  0.63913600  0.77316600  0.89974900  1
  O  O18  1  0.36086400  0.22683400  0.10025100  1
  O  O19  1  0.18197900  0.74118700  0.89624700  1
  O  O20  1  0.81802100  0.25881300  0.10375300  1
  O  O21  1  0.35050200  0.96698500  0.67215100  1
  O  O22  1  0.64949800  0.03301500  0.32784900  1
  O  O23  1  0.30135200  0.55215200  0.65110600  1
  O  O24  1  0.69864800  0.44784800  0.34889400  1
