# generated using pymatgen
data_Na2TiH4O5
_symmetry_space_group_name_H-M   'P 1'
_cell_length_a   3.05704700
_cell_length_b   4.22234350
_cell_length_c   21.69545200
_cell_angle_alpha   92.29929623
_cell_angle_beta   92.50896832
_cell_angle_gamma   90.12775849
_symmetry_Int_Tables_number   1
_chemical_formula_structural   Na2TiH4O5
_chemical_formula_sum   'Na4 Ti2 H8 O10'
_cell_volume   279.54684709
_cell_formula_units_Z   2
loop_
 _symmetry_equiv_pos_site_id
 _symmetry_equiv_pos_as_xyz
  1  'x, y, z'
loop_
 _atom_site_type_symbol
 _atom_site_label
 _atom_site_symmetry_multiplicity
 _atom_site_fract_x
 _atom_site_fract_y
 _atom_site_fract_z
 _atom_site_occupancy
  Na  Na0  1  0.52544700  0.01776200  0.57901100  1
  Na  Na1  1  0.47455300  0.98223800  0.42098900  1
  Na  Na2  1  0.47456000  0.48459200  0.92102800  1
  Na  Na3  1  0.52544000  0.51540800  0.07897200  1
  Ti  Ti4  1  0.00000000  0.00000000  0.00000000  1
  Ti  Ti5  1  0.00000000  0.50000000  0.50000000  1
  H  H6  1  0.83813900  0.49647300  0.80316900  1
  H  H7  1  0.16186100  0.50352700  0.19683100  1
  H  H8  1  0.16217300  0.96407800  0.69619000  1
  H  H9  1  0.83782700  0.03592200  0.30381000  1
  H  H10  1  0.47594800  0.18899800  0.73810600  1
  H  H11  1  0.52405200  0.81100200  0.26189400  1
  H  H12  1  0.51535900  0.69434100  0.76182200  1
  H  H13  1  0.48464100  0.30565900  0.23817800  1
  O  O14  1  0.00000000  0.50000000  0.00000000  1
  O  O15  1  0.00000000  0.00000000  0.50000000  1
  O  O16  1  0.51878100  0.51346500  0.55973100  1
  O  O17  1  0.48121900  0.48653500  0.44026900  1
  O  O18  1  0.48119800  0.98845600  0.94028200  1
  O  O19  1  0.51880200  0.01154400  0.05971800  1
  O  O20  1  0.53129100  0.50251500  0.78786800  1
  O  O21  1  0.46870900  0.49748500  0.21213200  1
  O  O22  1  0.46723700  0.98741800  0.71180200  1
  O  O23  1  0.53276300  0.01258200  0.28819800  1
