# generated using pymatgen
data_Cs3Te22
_symmetry_space_group_name_H-M   'P 1'
_cell_length_a   12.42412620
_cell_length_b   12.42412620
_cell_length_c   12.42412620
_cell_angle_alpha   134.13846724
_cell_angle_beta   134.13846724
_cell_angle_gamma   66.87181487
_symmetry_Int_Tables_number   1
_chemical_formula_structural   Cs3Te22
_chemical_formula_sum   'Cs3 Te22'
_cell_volume   971.77237958
_cell_formula_units_Z   1
loop_
 _symmetry_equiv_pos_site_id
 _symmetry_equiv_pos_as_xyz
  1  'x, y, z'
loop_
 _atom_site_type_symbol
 _atom_site_label
 _atom_site_symmetry_multiplicity
 _atom_site_fract_x
 _atom_site_fract_y
 _atom_site_fract_z
 _atom_site_occupancy
  Cs  Cs0  1  0.50000000  0.50000000  0.00000000  1
  Cs  Cs1  1  0.82711200  0.82711200  0.00000000  1
  Cs  Cs2  1  0.17288800  0.17288800  0.00000000  1
  Te  Te3  1  0.39366100  0.59486800  0.60304700  1
  Te  Te4  1  0.99182200  0.79061400  0.39695300  1
  Te  Te5  1  0.79061400  0.39366100  0.79879300  1
  Te  Te6  1  0.59486800  0.99182200  0.20120700  1
  Te  Te7  1  0.60633900  0.40513200  0.39695300  1
  Te  Te8  1  0.00817800  0.20938600  0.60304700  1
  Te  Te9  1  0.20938600  0.60633900  0.20120700  1
  Te  Te10  1  0.40513200  0.00817800  0.79879300  1
  Te  Te11  1  0.33108900  0.75957900  0.85733800  1
  Te  Te12  1  0.90224100  0.47375100  0.14266200  1
  Te  Te13  1  0.47375100  0.33108900  0.57151000  1
  Te  Te14  1  0.75957900  0.90224100  0.42849000  1
  Te  Te15  1  0.66891100  0.24042100  0.14266200  1
  Te  Te16  1  0.09775900  0.52624900  0.85733800  1
  Te  Te17  1  0.52624900  0.66891100  0.42849000  1
  Te  Te18  1  0.24042100  0.09775900  0.57151000  1
  Te  Te19  1  0.19497500  0.89832800  0.09330200  1
  Te  Te20  1  0.80502500  0.10167200  0.90669800  1
  Te  Te21  1  0.10167200  0.19497500  0.29664700  1
  Te  Te22  1  0.89832800  0.80502500  0.70335300  1
  Te  Te23  1  0.50000000  0.00000000  0.50000000  1
  Te  Te24  1  0.00000000  0.50000000  0.50000000  1
