# generated using pymatgen
data_La3BeSbS7
_symmetry_space_group_name_H-M   'P 1'
_cell_length_a   10.29499508
_cell_length_b   10.29499508
_cell_length_c   6.25311800
_cell_angle_alpha   90.00000000
_cell_angle_beta   90.00000000
_cell_angle_gamma   119.99999406
_symmetry_Int_Tables_number   1
_chemical_formula_structural   La3BeSbS7
_chemical_formula_sum   'La6 Be2 Sb2 S14'
_cell_volume   573.95727929
_cell_formula_units_Z   2
loop_
 _symmetry_equiv_pos_site_id
 _symmetry_equiv_pos_as_xyz
  1  'x, y, z'
loop_
 _atom_site_type_symbol
 _atom_site_label
 _atom_site_symmetry_multiplicity
 _atom_site_fract_x
 _atom_site_fract_y
 _atom_site_fract_z
 _atom_site_occupancy
  La  La0  1  0.74056700  0.13690100  0.74583000  1
  La  La1  1  0.39633400  0.25943300  0.74583000  1
  La  La2  1  0.86309900  0.60366600  0.74583000  1
  La  La3  1  0.25943300  0.86309900  0.24583000  1
  La  La4  1  0.60366600  0.74056700  0.24583000  1
  La  La5  1  0.13690100  0.39633400  0.24583000  1
  Be  Be6  1  0.66666700  0.33333300  0.15967300  1
  Be  Be7  1  0.33333300  0.66666700  0.65967300  1
  Sb  Sb8  1  0.00000000  0.00000000  0.48935700  1
  Sb  Sb9  1  0.00000000  0.00000000  0.98935700  1
  S  S10  1  0.83727900  0.08792600  0.28601500  1
  S  S11  1  0.25064700  0.16272100  0.28601500  1
  S  S12  1  0.91207400  0.74935300  0.28601500  1
  S  S13  1  0.16272100  0.91207400  0.78601500  1
  S  S14  1  0.74935300  0.83727900  0.78601500  1
  S  S15  1  0.08792600  0.25064700  0.78601500  1
  S  S16  1  0.88355100  0.40366000  0.02684200  1
  S  S17  1  0.52010900  0.11644900  0.02684200  1
  S  S18  1  0.59634000  0.47989100  0.02684200  1
  S  S19  1  0.11644900  0.59634000  0.52684200  1
  S  S20  1  0.47989100  0.88355100  0.52684200  1
  S  S21  1  0.40366000  0.52010900  0.52684200  1
  S  S22  1  0.66666700  0.33333300  0.50690500  1
  S  S23  1  0.33333300  0.66666700  0.00690500  1
