# generated using pymatgen
data_Ce2B8O15
_symmetry_space_group_name_H-M   'P 1'
_cell_length_a   4.24397300
_cell_length_b   9.21382300
_cell_length_c   12.57220205
_cell_angle_alpha   63.47053208
_cell_angle_beta   90.00000000
_cell_angle_gamma   90.00000000
_symmetry_Int_Tables_number   1
_chemical_formula_structural   Ce2B8O15
_chemical_formula_sum   'Ce4 B16 O30'
_cell_volume   439.84896722
_cell_formula_units_Z   2
loop_
 _symmetry_equiv_pos_site_id
 _symmetry_equiv_pos_as_xyz
  1  'x, y, z'
loop_
 _atom_site_type_symbol
 _atom_site_label
 _atom_site_symmetry_multiplicity
 _atom_site_fract_x
 _atom_site_fract_y
 _atom_site_fract_z
 _atom_site_occupancy
  Ce  Ce0  1  0.26432900  0.85779400  0.94768700  1
  Ce  Ce1  1  0.26432900  0.14220600  0.55231300  1
  Ce  Ce2  1  0.73567100  0.14220600  0.05231300  1
  Ce  Ce3  1  0.73567100  0.85779400  0.44768700  1
  B  B4  1  0.21522300  0.89273700  0.20438300  1
  B  B5  1  0.21522300  0.10726300  0.29561700  1
  B  B6  1  0.78477700  0.10726300  0.79561700  1
  B  B7  1  0.78477700  0.89273700  0.70438300  1
  B  B8  1  0.73099400  0.71627900  0.23436500  1
  B  B9  1  0.73099400  0.28372100  0.26563500  1
  B  B10  1  0.26900600  0.28372100  0.76563500  1
  B  B11  1  0.26900600  0.71627900  0.73436500  1
  B  B12  1  0.21693300  0.40545300  0.12673300  1
  B  B13  1  0.21693300  0.59454700  0.37326700  1
  B  B14  1  0.78306700  0.59454700  0.87326700  1
  B  B15  1  0.78306700  0.40545300  0.62673300  1
  B  B16  1  0.70811800  0.58600200  0.08597000  1
  B  B17  1  0.70811800  0.41399800  0.41403000  1
  B  B18  1  0.29188200  0.41399800  0.91403000  1
  B  B19  1  0.29188200  0.58600200  0.58597000  1
  O  O20  1  0.25973500  0.97148800  0.07846200  1
  O  O21  1  0.25973500  0.02851200  0.42153800  1
  O  O22  1  0.74026500  0.02851200  0.92153800  1
  O  O23  1  0.74026500  0.97148800  0.57846200  1
  O  O24  1  0.87946100  0.85925500  0.23553400  1
  O  O25  1  0.87946100  0.14074500  0.26446600  1
  O  O26  1  0.12053900  0.14074500  0.76446600  1
  O  O27  1  0.12053900  0.85925500  0.73553400  1
  O  O28  1  0.61856800  0.72375700  0.76380100  1
  O  O29  1  0.61856800  0.27624300  0.73619900  1
  O  O30  1  0.38143200  0.27624300  0.23619900  1
  O  O31  1  0.38143200  0.72375700  0.26380100  1
  O  O32  1  0.77457600  0.71303400  0.12215700  1
  O  O33  1  0.77457600  0.28696600  0.37784300  1
  O  O34  1  0.22542400  0.28696600  0.87784300  1
  O  O35  1  0.22542400  0.71303400  0.62215700  1
  O  O36  1  0.81055300  0.66117400  0.95991700  1
  O  O37  1  0.81055300  0.33882600  0.54008300  1
  O  O38  1  0.18944700  0.33882600  0.04008300  1
  O  O39  1  0.18944700  0.66117400  0.45991700  1
  O  O40  1  0.87780100  0.42731100  0.16132200  1
  O  O41  1  0.87780100  0.57268900  0.33867800  1
  O  O42  1  0.12219900  0.57268900  0.83867800  1
  O  O43  1  0.12219900  0.42731100  0.66132200  1
  O  O44  1  0.37196500  0.55643500  0.09018200  1
  O  O45  1  0.37196500  0.44356500  0.40981800  1
  O  O46  1  0.62803500  0.44356500  0.90981800  1
  O  O47  1  0.62803500  0.55643500  0.59018200  1
  O  O48  1  0.35091200  0.00000000  0.25000000  1
  O  O49  1  0.64908800  0.00000000  0.75000000  1
