# generated using pymatgen
data_MnSeO4
_symmetry_space_group_name_H-M   'P 1'
_cell_length_a   13.37692200
_cell_length_b   4.96111800
_cell_length_c   7.60670637
_cell_angle_alpha   49.13682252
_cell_angle_beta   90.00000000
_cell_angle_gamma   90.00000000
_symmetry_Int_Tables_number   1
_chemical_formula_structural   MnSeO4
_chemical_formula_sum   'Mn4 Se4 O16'
_cell_volume   381.77864315
_cell_formula_units_Z   4
loop_
 _symmetry_equiv_pos_site_id
 _symmetry_equiv_pos_as_xyz
  1  'x, y, z'
loop_
 _atom_site_type_symbol
 _atom_site_label
 _atom_site_symmetry_multiplicity
 _atom_site_fract_x
 _atom_site_fract_y
 _atom_site_fract_z
 _atom_site_occupancy
  Mn  Mn0  1  0.76791400  0.15874700  0.24193300  1
  Mn  Mn1  1  0.73208600  0.15874700  0.74193300  1
  Mn  Mn2  1  0.23208600  0.84125300  0.75806700  1
  Mn  Mn3  1  0.26791400  0.84125300  0.25806700  1
  Se  Se4  1  0.89181700  0.66895900  0.77546800  1
  Se  Se5  1  0.60818300  0.66895900  0.27546800  1
  Se  Se6  1  0.10818300  0.33104100  0.22453200  1
  Se  Se7  1  0.39181700  0.33104100  0.72453200  1
  O  O8  1  0.88706700  0.01486600  0.19247100  1
  O  O9  1  0.61293300  0.01486600  0.69247100  1
  O  O10  1  0.11293300  0.98513400  0.80752900  1
  O  O11  1  0.38706700  0.98513400  0.30752900  1
  O  O12  1  0.83881000  0.05369100  0.52796700  1
  O  O13  1  0.66119000  0.05369100  0.02796700  1
  O  O14  1  0.16119000  0.94630900  0.47203300  1
  O  O15  1  0.33881000  0.94630900  0.97203300  1
  O  O16  1  0.80150800  0.65394500  0.95493200  1
  O  O17  1  0.69849200  0.65394500  0.45493200  1
  O  O18  1  0.19849200  0.34605500  0.04506800  1
  O  O19  1  0.30150800  0.34605500  0.54506800  1
  O  O20  1  0.85686300  0.33459200  0.77723100  1
  O  O21  1  0.64313700  0.33459200  0.27723100  1
  O  O22  1  0.14313700  0.66540800  0.22276900  1
  O  O23  1  0.35686300  0.66540800  0.72276900  1
