# generated using pymatgen
data_Mo2N2O7
_symmetry_space_group_name_H-M   'P 1'
_cell_length_a   7.25905800
_cell_length_b   7.61226534
_cell_length_c   8.13805772
_cell_angle_alpha   100.18958416
_cell_angle_beta   88.09758206
_cell_angle_gamma   104.64302518
_symmetry_Int_Tables_number   1
_chemical_formula_structural   Mo2N2O7
_chemical_formula_sum   'Mo4 N4 O14'
_cell_volume   428.19199594
_cell_formula_units_Z   2
loop_
 _symmetry_equiv_pos_site_id
 _symmetry_equiv_pos_as_xyz
  1  'x, y, z'
loop_
 _atom_site_type_symbol
 _atom_site_label
 _atom_site_symmetry_multiplicity
 _atom_site_fract_x
 _atom_site_fract_y
 _atom_site_fract_z
 _atom_site_occupancy
  Mo  Mo0  1  0.22224600  0.07732500  0.66101000  1
  Mo  Mo1  1  0.77775400  0.92267500  0.33899000  1
  Mo  Mo2  1  0.26833100  0.30340200  0.07578400  1
  Mo  Mo3  1  0.73166900  0.69659800  0.92421600  1
  N  N4  1  0.77673800  0.47456600  0.40545600  1
  N  N5  1  0.22326200  0.52543400  0.59454400  1
  N  N6  1  0.74090800  0.06497700  0.83946400  1
  N  N7  1  0.25909200  0.93502300  0.16053600  1
  O  O8  1  0.17645500  0.25212800  0.84853300  1
  O  O9  1  0.82354500  0.74787200  0.15146700  1
  O  O10  1  0.29731100  0.92292600  0.75615400  1
  O  O11  1  0.70268900  0.07707400  0.24384600  1
  O  O12  1  0.41375400  0.18430900  0.55571200  1
  O  O13  1  0.58624600  0.81569100  0.44428800  1
  O  O14  1  0.17310000  0.46451300  0.19956100  1
  O  O15  1  0.82690000  0.53548700  0.80043900  1
  O  O16  1  0.82176600  0.93589200  0.83798100  1
  O  O17  1  0.17823400  0.06410800  0.16201900  1
  O  O18  1  0.97220300  0.09175500  0.50546000  1
  O  O19  1  0.02779700  0.90824500  0.49454000  1
  O  O20  1  0.51288100  0.36470000  0.09053400  1
  O  O21  1  0.48711900  0.63530000  0.90946600  1
