# generated using pymatgen
data_CuH2PbSO6
_symmetry_space_group_name_H-M   'P 1'
_cell_length_a   5.73465000
_cell_length_b   4.75796000
_cell_length_c   9.97868650
_cell_angle_alpha   76.01175650
_cell_angle_beta   90.00000000
_cell_angle_gamma   90.00000000
_symmetry_Int_Tables_number   1
_chemical_formula_structural   CuH2PbSO6
_chemical_formula_sum   'Cu2 H4 Pb2 S2 O12'
_cell_volume   264.19671251
_cell_formula_units_Z   2
loop_
 _symmetry_equiv_pos_site_id
 _symmetry_equiv_pos_as_xyz
  1  'x, y, z'
loop_
 _atom_site_type_symbol
 _atom_site_label
 _atom_site_symmetry_multiplicity
 _atom_site_fract_x
 _atom_site_fract_y
 _atom_site_fract_z
 _atom_site_occupancy
  Cu  Cu0  1  0.50000000  0.00000000  0.00000000  1
  Cu  Cu1  1  0.00000000  0.00000000  0.00000000  1
  H  H2  1  0.25000000  0.60865800  0.94272300  1
  H  H3  1  0.75000000  0.39134200  0.05727700  1
  H  H4  1  0.25000000  0.25286300  0.13188300  1
  H  H5  1  0.75000000  0.74713700  0.86811700  1
  Pb  Pb6  1  0.25000000  0.02201500  0.65880500  1
  Pb  Pb7  1  0.75000000  0.97798500  0.34119500  1
  S  S8  1  0.25000000  0.55395600  0.33329100  1
  S  S9  1  0.75000000  0.44604400  0.66670900  1
  O  O10  1  0.25000000  0.59318000  0.47567700  1
  O  O11  1  0.75000000  0.40682000  0.52432300  1
  O  O12  1  0.25000000  0.23962700  0.33300400  1
  O  O13  1  0.75000000  0.76037300  0.66699600  1
  O  O14  1  0.96324000  0.31022200  0.74445400  1
  O  O15  1  0.46324000  0.68977800  0.25554600  1
  O  O16  1  0.03676000  0.68977800  0.25554600  1
  O  O17  1  0.53676000  0.31022200  0.74445400  1
  O  O18  1  0.25000000  0.25433700  0.03303300  1
  O  O19  1  0.75000000  0.74566300  0.96696700  1
  O  O20  1  0.25000000  0.82581300  0.90608800  1
  O  O21  1  0.75000000  0.17418700  0.09391200  1
