# generated using pymatgen
data_YF3
_symmetry_space_group_name_H-M   'P 1'
_cell_length_a   6.85759124
_cell_length_b   6.85759124
_cell_length_c   7.02504400
_cell_angle_alpha   90.00000000
_cell_angle_beta   90.00000000
_cell_angle_gamma   119.99999264
_symmetry_Int_Tables_number   1
_chemical_formula_structural   YF3
_chemical_formula_sum   'Y6 F18'
_cell_volume   286.10332260
_cell_formula_units_Z   6
loop_
 _symmetry_equiv_pos_site_id
 _symmetry_equiv_pos_as_xyz
  1  'x, y, z'
loop_
 _atom_site_type_symbol
 _atom_site_label
 _atom_site_symmetry_multiplicity
 _atom_site_fract_x
 _atom_site_fract_y
 _atom_site_fract_z
 _atom_site_occupancy
  Y  Y0  1  0.65483900  0.00000000  0.75000000  1
  Y  Y1  1  0.34516100  0.34516100  0.75000000  1
  Y  Y2  1  0.00000000  0.65483900  0.75000000  1
  Y  Y3  1  0.65483900  0.65483900  0.25000000  1
  Y  Y4  1  0.00000000  0.34516100  0.25000000  1
  Y  Y5  1  0.34516100  0.00000000  0.25000000  1
  F  F6  1  0.30643100  0.93242100  0.92193400  1
  F  F7  1  0.62599000  0.69356900  0.92193400  1
  F  F8  1  0.06757900  0.37401000  0.92193400  1
  F  F9  1  0.30643100  0.37401000  0.42193400  1
  F  F10  1  0.06757900  0.69356900  0.42193400  1
  F  F11  1  0.62599000  0.93242100  0.42193400  1
  F  F12  1  0.69356900  0.06757900  0.07806600  1
  F  F13  1  0.37401000  0.30643100  0.07806600  1
  F  F14  1  0.93242100  0.62599000  0.07806600  1
  F  F15  1  0.69356900  0.62599000  0.57806600  1
  F  F16  1  0.93242100  0.30643100  0.57806600  1
  F  F17  1  0.37401000  0.06757900  0.57806600  1
  F  F18  1  0.66666700  0.33333300  0.81393700  1
  F  F19  1  0.66666700  0.33333300  0.31393700  1
  F  F20  1  0.33333300  0.66666700  0.18606300  1
  F  F21  1  0.33333300  0.66666700  0.68606300  1
  F  F22  1  0.00000000  0.00000000  0.75000000  1
  F  F23  1  0.00000000  0.00000000  0.25000000  1
