# generated using pymatgen
data_BAsH4NO4F
_symmetry_space_group_name_H-M   'P 1'
_cell_length_a   4.68496201
_cell_length_b   4.68496201
_cell_length_c   12.87528850
_cell_angle_alpha   89.95867099
_cell_angle_beta   89.95867099
_cell_angle_gamma   122.54957298
_symmetry_Int_Tables_number   1
_chemical_formula_structural   BAsH4NO4F
_chemical_formula_sum   'B2 As2 H8 N2 O8 F2'
_cell_volume   238.20902259
_cell_formula_units_Z   2
loop_
 _symmetry_equiv_pos_site_id
 _symmetry_equiv_pos_as_xyz
  1  'x, y, z'
loop_
 _atom_site_type_symbol
 _atom_site_label
 _atom_site_symmetry_multiplicity
 _atom_site_fract_x
 _atom_site_fract_y
 _atom_site_fract_z
 _atom_site_occupancy
  B  B0  1  0.57437100  0.25492200  0.69151800  1
  B  B1  1  0.25492200  0.57437100  0.19151800  1
  As  As2  1  0.90503500  0.93909400  0.77273200  1
  As  As3  1  0.93909400  0.90503500  0.27273200  1
  H  H4  1  0.80766700  0.28239600  0.96075500  1
  H  H5  1  0.28239600  0.80766700  0.46075500  1
  H  H6  1  0.78190300  0.62263200  0.98677100  1
  H  H7  1  0.62263200  0.78190300  0.48677100  1
  H  H8  1  0.42865200  0.25085900  0.95534000  1
  H  H9  1  0.25085900  0.42865200  0.45534000  1
  H  H10  1  0.61499200  0.29240100  0.07110900  1
  H  H11  1  0.29240100  0.61499200  0.57110900  1
  N  N12  1  0.66024500  0.36279100  0.99452100  1
  N  N13  1  0.36279100  0.66024500  0.49452100  1
  O  O14  1  0.77061700  0.51312900  0.77137600  1
  O  O15  1  0.51312900  0.77061700  0.27137600  1
  O  O16  1  0.56227100  0.94294200  0.72145100  1
  O  O17  1  0.94294200  0.56227100  0.22145100  1
  O  O18  1  0.22053900  0.16523800  0.67996900  1
  O  O19  1  0.16523800  0.22053900  0.17996900  1
  O  O20  1  0.00777100  0.06804800  0.89635400  1
  O  O21  1  0.06804800  0.00777000  0.39635400  1
  F  F22  1  0.72171900  0.37036900  0.59083300  1
  F  F23  1  0.37036900  0.72171900  0.09083300  1
