# generated using pymatgen
data_FeSiO4
_symmetry_space_group_name_H-M   'P 1'
_cell_length_a   5.40283200
_cell_length_b   6.07623200
_cell_length_c   11.61473600
_cell_angle_alpha   90.00000000
_cell_angle_beta   90.00000000
_cell_angle_gamma   90.00000000
_symmetry_Int_Tables_number   1
_chemical_formula_structural   FeSiO4
_chemical_formula_sum   'Fe4 Si4 O16'
_cell_volume   381.29855008
_cell_formula_units_Z   4
loop_
 _symmetry_equiv_pos_site_id
 _symmetry_equiv_pos_as_xyz
  1  'x, y, z'
loop_
 _atom_site_type_symbol
 _atom_site_label
 _atom_site_symmetry_multiplicity
 _atom_site_fract_x
 _atom_site_fract_y
 _atom_site_fract_z
 _atom_site_occupancy
  Fe  Fe0  1  0.68908600  0.25000000  0.40913900  1
  Fe  Fe1  1  0.31091400  0.75000000  0.59086100  1
  Fe  Fe2  1  0.18908600  0.75000000  0.09086100  1
  Fe  Fe3  1  0.81091400  0.25000000  0.90913900  1
  Si  Si4  1  0.19397700  0.25000000  0.56787600  1
  Si  Si5  1  0.80602300  0.75000000  0.43212400  1
  Si  Si6  1  0.69397700  0.75000000  0.93212400  1
  Si  Si7  1  0.30602300  0.25000000  0.06787600  1
  O  O8  1  0.89845200  0.25000000  0.53538900  1
  O  O9  1  0.10154800  0.75000000  0.46461100  1
  O  O10  1  0.39845200  0.75000000  0.96461100  1
  O  O11  1  0.60154800  0.25000000  0.03538900  1
  O  O12  1  0.35677200  0.25000000  0.44991700  1
  O  O13  1  0.64322800  0.75000000  0.55008300  1
  O  O14  1  0.85677200  0.75000000  0.05008300  1
  O  O15  1  0.14322800  0.25000000  0.94991700  1
  O  O16  1  0.25489900  0.03138300  0.64689900  1
  O  O17  1  0.74510100  0.96861700  0.35310100  1
  O  O18  1  0.75489900  0.96861700  0.85310100  1
  O  O19  1  0.24510100  0.03138300  0.14689900  1
  O  O20  1  0.74510100  0.53138300  0.35310100  1
  O  O21  1  0.25489900  0.46861700  0.64689900  1
  O  O22  1  0.24510100  0.46861700  0.14689900  1
  O  O23  1  0.75489900  0.53138300  0.85310100  1
