# generated using pymatgen
data_MgO
_symmetry_space_group_name_H-M   'P 1'
_cell_length_a   8.73449926
_cell_length_b   8.73449926
_cell_length_c   5.67962149
_cell_angle_alpha   89.77091730
_cell_angle_beta   89.77091730
_cell_angle_gamma   59.92815176
_symmetry_Int_Tables_number   1
_chemical_formula_structural   MgO
_chemical_formula_sum   'Mg12 O12'
_cell_volume   374.97865243
_cell_formula_units_Z   12
loop_
 _symmetry_equiv_pos_site_id
 _symmetry_equiv_pos_as_xyz
  1  'x, y, z'
loop_
 _atom_site_type_symbol
 _atom_site_label
 _atom_site_symmetry_multiplicity
 _atom_site_fract_x
 _atom_site_fract_y
 _atom_site_fract_z
 _atom_site_occupancy
  Mg  Mg0  1  0.17654200  0.38061100  0.42324500  1
  Mg  Mg1  1  0.61938900  0.82345800  0.07675500  1
  Mg  Mg2  1  0.82345800  0.61938900  0.57675500  1
  Mg  Mg3  1  0.38061100  0.17654200  0.92324500  1
  Mg  Mg4  1  0.03778200  0.82960300  0.42462700  1
  Mg  Mg5  1  0.17039700  0.96221800  0.07537300  1
  Mg  Mg6  1  0.96221800  0.17039700  0.57537300  1
  Mg  Mg7  1  0.82960300  0.03778200  0.92462700  1
  Mg  Mg8  1  0.05872800  0.61598600  0.92283600  1
  Mg  Mg9  1  0.38401400  0.94127200  0.57716400  1
  Mg  Mg10  1  0.94127200  0.38401400  0.07716400  1
  Mg  Mg11  1  0.61598600  0.05872800  0.42283600  1
  O  O12  1  0.04050600  0.82499900  0.07069300  1
  O  O13  1  0.17500100  0.95949400  0.42930700  1
  O  O14  1  0.95949400  0.17500100  0.92930700  1
  O  O15  1  0.82499900  0.04050600  0.57069300  1
  O  O16  1  0.18151300  0.37938100  0.07340000  1
  O  O17  1  0.62061900  0.81848700  0.42660000  1
  O  O18  1  0.81848700  0.62061900  0.92660000  1
  O  O19  1  0.37938100  0.18151300  0.57340000  1
  O  O20  1  0.06363500  0.61673100  0.57292600  1
  O  O21  1  0.38326900  0.93636500  0.92707400  1
  O  O22  1  0.93636500  0.38326900  0.42707400  1
  O  O23  1  0.61673100  0.06363500  0.07292600  1
