# generated using pymatgen
data_Pr3AlNi8
_symmetry_space_group_name_H-M   'P 1'
_cell_length_a   5.16236900
_cell_length_b   5.16236951
_cell_length_c   16.24841600
_cell_angle_alpha   90.00000000
_cell_angle_beta   90.00000000
_cell_angle_gamma   120.00000313
_symmetry_Int_Tables_number   1
_chemical_formula_structural   Pr3AlNi8
_chemical_formula_sum   'Pr6 Al2 Ni16'
_cell_volume   375.00734926
_cell_formula_units_Z   2
loop_
 _symmetry_equiv_pos_site_id
 _symmetry_equiv_pos_as_xyz
  1  'x, y, z'
loop_
 _atom_site_type_symbol
 _atom_site_label
 _atom_site_symmetry_multiplicity
 _atom_site_fract_x
 _atom_site_fract_y
 _atom_site_fract_z
 _atom_site_occupancy
  Pr  Pr0  1  0.33333300  0.66666700  0.95377300  1
  Pr  Pr1  1  0.66666700  0.33333300  0.04622700  1
  Pr  Pr2  1  0.66666700  0.33333300  0.45377300  1
  Pr  Pr3  1  0.33333300  0.66666700  0.54622700  1
  Pr  Pr4  1  0.33333300  0.66666700  0.75000000  1
  Pr  Pr5  1  0.66666700  0.33333300  0.25000000  1
  Al  Al6  1  0.00000000  0.00000000  0.50000000  1
  Al  Al7  1  0.00000000  0.00000000  0.00000000  1
  Ni  Ni8  1  0.16788200  0.83211800  0.37254800  1
  Ni  Ni9  1  0.16788200  0.33576400  0.37254800  1
  Ni  Ni10  1  0.66423600  0.83211800  0.37254800  1
  Ni  Ni11  1  0.83211800  0.16788200  0.62745200  1
  Ni  Ni12  1  0.83211800  0.66423600  0.62745200  1
  Ni  Ni13  1  0.33576400  0.16788200  0.62745200  1
  Ni  Ni14  1  0.83211800  0.16788200  0.87254800  1
  Ni  Ni15  1  0.83211800  0.66423600  0.87254800  1
  Ni  Ni16  1  0.33576400  0.16788200  0.87254800  1
  Ni  Ni17  1  0.16788200  0.83211800  0.12745200  1
  Ni  Ni18  1  0.16788200  0.33576400  0.12745200  1
  Ni  Ni19  1  0.66423600  0.83211800  0.12745200  1
  Ni  Ni20  1  0.33333300  0.66666700  0.25000000  1
  Ni  Ni21  1  0.66666700  0.33333300  0.75000000  1
  Ni  Ni22  1  0.00000000  0.00000000  0.25000000  1
  Ni  Ni23  1  0.00000000  0.00000000  0.75000000  1
