# generated using pymatgen
data_CaGe(PO4)2
_symmetry_space_group_name_H-M   'P 1'
_cell_length_a   8.37962501
_cell_length_b   8.37962501
_cell_length_c   7.84020248
_cell_angle_alpha   64.56117764
_cell_angle_beta   64.56117764
_cell_angle_gamma   35.94561599
_symmetry_Int_Tables_number   1
_chemical_formula_structural   CaGe(PO4)2
_chemical_formula_sum   'Ca2 Ge2 P4 O16'
_cell_volume   288.33913079
_cell_formula_units_Z   2
loop_
 _symmetry_equiv_pos_site_id
 _symmetry_equiv_pos_as_xyz
  1  'x, y, z'
loop_
 _atom_site_type_symbol
 _atom_site_label
 _atom_site_symmetry_multiplicity
 _atom_site_fract_x
 _atom_site_fract_y
 _atom_site_fract_z
 _atom_site_occupancy
  Ca  Ca0  1  0.78445100  0.21554900  0.75000000  1
  Ca  Ca1  1  0.21554900  0.78445100  0.25000000  1
  Ge  Ge2  1  0.00000000  0.50000000  0.50000000  1
  Ge  Ge3  1  0.50000000  0.00000000  0.00000000  1
  P  P4  1  0.60523400  0.11215400  0.25315800  1
  P  P5  1  0.88784600  0.39476600  0.24684200  1
  P  P6  1  0.39476600  0.88784600  0.74684200  1
  P  P7  1  0.11215400  0.60523400  0.75315800  1
  O  O8  1  0.83862400  0.85619100  0.38247900  1
  O  O9  1  0.14380900  0.16137600  0.11752100  1
  O  O10  1  0.16137600  0.14380900  0.61752100  1
  O  O11  1  0.85619100  0.83862400  0.88247900  1
  O  O12  1  0.34526700  0.35738700  0.37175900  1
  O  O13  1  0.64261300  0.65473300  0.12824100  1
  O  O14  1  0.65473300  0.64261300  0.62824100  1
  O  O15  1  0.35738700  0.34526700  0.87175900  1
  O  O16  1  0.51893800  0.02887700  0.20863900  1
  O  O17  1  0.97112300  0.48106200  0.29136100  1
  O  O18  1  0.48106200  0.97112300  0.79136100  1
  O  O19  1  0.02887700  0.51893800  0.70863900  1
  O  O20  1  0.71574400  0.19570800  0.08677000  1
  O  O21  1  0.80429200  0.28425600  0.41323000  1
  O  O22  1  0.28425600  0.80429200  0.91323000  1
  O  O23  1  0.19570800  0.71574400  0.58677000  1
