# generated using pymatgen
data_Mg(NO4)2
_symmetry_space_group_name_H-M   'P 1'
_cell_length_a   6.24772700
_cell_length_b   5.44103900
_cell_length_c   8.36877441
_cell_angle_alpha   88.28506898
_cell_angle_beta   90.00000000
_cell_angle_gamma   90.00000000
_symmetry_Int_Tables_number   1
_chemical_formula_structural   Mg(NO4)2
_chemical_formula_sum   'Mg2 N4 O16'
_cell_volume   284.36175008
_cell_formula_units_Z   2
loop_
 _symmetry_equiv_pos_site_id
 _symmetry_equiv_pos_as_xyz
  1  'x, y, z'
loop_
 _atom_site_type_symbol
 _atom_site_label
 _atom_site_symmetry_multiplicity
 _atom_site_fract_x
 _atom_site_fract_y
 _atom_site_fract_z
 _atom_site_occupancy
  Mg  Mg0  1  0.50000000  0.00000000  0.00000000  1
  Mg  Mg1  1  0.00000000  0.00000000  0.50000000  1
  N  N2  1  0.83306900  0.75687400  0.80030400  1
  N  N3  1  0.33306900  0.24312600  0.69969600  1
  N  N4  1  0.16693100  0.24312600  0.19969600  1
  N  N5  1  0.66693100  0.75687400  0.30030400  1
  O  O6  1  0.85653600  0.97417800  0.73494700  1
  O  O7  1  0.35653600  0.02582200  0.76505300  1
  O  O8  1  0.14346400  0.02582200  0.26505300  1
  O  O9  1  0.64346400  0.97417800  0.23494700  1
  O  O10  1  0.92331300  0.57797100  0.74298500  1
  O  O11  1  0.42331300  0.42202900  0.75701500  1
  O  O12  1  0.07668700  0.42202900  0.25701500  1
  O  O13  1  0.57668700  0.57797100  0.24298500  1
  O  O14  1  0.71670500  0.73545800  0.92436100  1
  O  O15  1  0.21670500  0.26454200  0.57563900  1
  O  O16  1  0.28329500  0.26454200  0.07563900  1
  O  O17  1  0.78329500  0.73545800  0.42436100  1
  O  O18  1  0.23909800  0.75419000  0.03250000  1
  O  O19  1  0.73909800  0.24581000  0.46750000  1
  O  O20  1  0.76090200  0.24581000  0.96750000  1
  O  O21  1  0.26090200  0.75419000  0.53250000  1
