# generated using pymatgen
data_CsGd(MoO4)2
_symmetry_space_group_name_H-M   'P 1'
_cell_length_a   5.15594600
_cell_length_b   8.24604444
_cell_length_c   9.76236538
_cell_angle_alpha   92.39707683
_cell_angle_beta   90.00000000
_cell_angle_gamma   90.00000000
_symmetry_Int_Tables_number   1
_chemical_formula_structural   CsGd(MoO4)2
_chemical_formula_sum   'Cs2 Gd2 Mo4 O16'
_cell_volume   414.69509633
_cell_formula_units_Z   2
loop_
 _symmetry_equiv_pos_site_id
 _symmetry_equiv_pos_as_xyz
  1  'x, y, z'
loop_
 _atom_site_type_symbol
 _atom_site_label
 _atom_site_symmetry_multiplicity
 _atom_site_fract_x
 _atom_site_fract_y
 _atom_site_fract_z
 _atom_site_occupancy
  Cs  Cs0  1  0.98501400  0.75000000  0.50000000  1
  Cs  Cs1  1  0.01498600  0.25000000  0.50000000  1
  Gd  Gd2  1  0.00300800  0.75000000  0.00000000  1
  Gd  Gd3  1  0.99699200  0.25000000  0.00000000  1
  Mo  Mo4  1  0.52263700  0.51270100  0.19274400  1
  Mo  Mo5  1  0.52263700  0.98729900  0.80725600  1
  Mo  Mo6  1  0.47736300  0.48729900  0.80725600  1
  Mo  Mo7  1  0.47736300  0.01270100  0.19274400  1
  O  O8  1  0.25175100  0.50830700  0.06552100  1
  O  O9  1  0.25175100  0.99169300  0.93447900  1
  O  O10  1  0.74824900  0.49169300  0.93447900  1
  O  O11  1  0.74824900  0.00830700  0.06552100  1
  O  O12  1  0.75164500  0.34627400  0.18966400  1
  O  O13  1  0.75164500  0.15372600  0.81033600  1
  O  O14  1  0.24835500  0.65372600  0.81033600  1
  O  O15  1  0.24835500  0.84627400  0.18966400  1
  O  O16  1  0.38585600  0.52510300  0.35739300  1
  O  O17  1  0.38585600  0.97489700  0.64260700  1
  O  O18  1  0.61414400  0.47489700  0.64260700  1
  O  O19  1  0.61414400  0.02510300  0.35739300  1
  O  O20  1  0.72249000  0.69194400  0.17878200  1
  O  O21  1  0.72249000  0.80805600  0.82121800  1
  O  O22  1  0.27751000  0.30805600  0.82121800  1
  O  O23  1  0.27751000  0.19194400  0.17878200  1
