# generated using pymatgen
data_Tm3AlNi8
_symmetry_space_group_name_H-M   'P 1'
_cell_length_a   5.02442415
_cell_length_b   5.02442415
_cell_length_c   15.91786100
_cell_angle_alpha   90.00000000
_cell_angle_beta   90.00000000
_cell_angle_gamma   120.00000201
_symmetry_Int_Tables_number   1
_chemical_formula_structural   Tm3AlNi8
_chemical_formula_sum   'Tm6 Al2 Ni16'
_cell_volume   348.00695231
_cell_formula_units_Z   2
loop_
 _symmetry_equiv_pos_site_id
 _symmetry_equiv_pos_as_xyz
  1  'x, y, z'
loop_
 _atom_site_type_symbol
 _atom_site_label
 _atom_site_symmetry_multiplicity
 _atom_site_fract_x
 _atom_site_fract_y
 _atom_site_fract_z
 _atom_site_occupancy
  Tm  Tm0  1  0.33333300  0.66666700  0.95556400  1
  Tm  Tm1  1  0.66666700  0.33333300  0.04443600  1
  Tm  Tm2  1  0.66666700  0.33333300  0.45556400  1
  Tm  Tm3  1  0.33333300  0.66666700  0.54443600  1
  Tm  Tm4  1  0.33333300  0.66666700  0.75000000  1
  Tm  Tm5  1  0.66666700  0.33333300  0.25000000  1
  Al  Al6  1  0.00000000  0.00000000  0.50000000  1
  Al  Al7  1  0.00000000  0.00000000  0.00000000  1
  Ni  Ni8  1  0.16918700  0.83081300  0.37509800  1
  Ni  Ni9  1  0.16918700  0.33837400  0.37509800  1
  Ni  Ni10  1  0.66162600  0.83081300  0.37509800  1
  Ni  Ni11  1  0.83081300  0.16918700  0.62490200  1
  Ni  Ni12  1  0.83081300  0.66162600  0.62490200  1
  Ni  Ni13  1  0.33837400  0.16918700  0.62490200  1
  Ni  Ni14  1  0.83081300  0.16918700  0.87509800  1
  Ni  Ni15  1  0.83081300  0.66162600  0.87509800  1
  Ni  Ni16  1  0.33837400  0.16918700  0.87509800  1
  Ni  Ni17  1  0.16918700  0.83081300  0.12490200  1
  Ni  Ni18  1  0.16918700  0.33837400  0.12490200  1
  Ni  Ni19  1  0.66162600  0.83081300  0.12490200  1
  Ni  Ni20  1  0.33333300  0.66666700  0.25000000  1
  Ni  Ni21  1  0.66666700  0.33333300  0.75000000  1
  Ni  Ni22  1  0.00000000  0.00000000  0.25000000  1
  Ni  Ni23  1  0.00000000  0.00000000  0.75000000  1
