# generated using pymatgen
data_ZrCl3
_symmetry_space_group_name_H-M   'P 1'
_cell_length_a   13.52042892
_cell_length_b   13.52042892
_cell_length_c   6.90861688
_cell_angle_alpha   75.68970484
_cell_angle_beta   75.68970484
_cell_angle_gamma   59.75080890
_symmetry_Int_Tables_number   1
_chemical_formula_structural   ZrCl3
_chemical_formula_sum   'Zr6 Cl18'
_cell_volume   1045.69256425
_cell_formula_units_Z   6
loop_
 _symmetry_equiv_pos_site_id
 _symmetry_equiv_pos_as_xyz
  1  'x, y, z'
loop_
 _atom_site_type_symbol
 _atom_site_label
 _atom_site_symmetry_multiplicity
 _atom_site_fract_x
 _atom_site_fract_y
 _atom_site_fract_z
 _atom_site_occupancy
  Zr  Zr0  1  0.91414800  0.91414800  0.50000800  1
  Zr  Zr1  1  0.08585200  0.08585200  0.49999200  1
  Zr  Zr2  1  0.91440900  0.67110200  0.50096300  1
  Zr  Zr3  1  0.32889800  0.08559100  0.49903700  1
  Zr  Zr4  1  0.08559100  0.32889800  0.49903700  1
  Zr  Zr5  1  0.67110200  0.91440900  0.50096300  1
  Cl  Cl6  1  0.97939500  0.97939500  0.74586900  1
  Cl  Cl7  1  0.02060500  0.02060500  0.25413100  1
  Cl  Cl8  1  0.98840900  0.72547900  0.74303600  1
  Cl  Cl9  1  0.27452100  0.01159100  0.25696400  1
  Cl  Cl10  1  0.01159100  0.27452100  0.25696400  1
  Cl  Cl11  1  0.72547900  0.98840900  0.74303600  1
  Cl  Cl12  1  0.02818500  0.76663600  0.25575500  1
  Cl  Cl13  1  0.23336400  0.97181500  0.74424500  1
  Cl  Cl14  1  0.97181500  0.23336400  0.74424500  1
  Cl  Cl15  1  0.76663600  0.02818500  0.25575500  1
  Cl  Cl16  1  0.72647700  0.72647700  0.74782000  1
  Cl  Cl17  1  0.27352300  0.27352300  0.25218000  1
  Cl  Cl18  1  0.76639500  0.76639500  0.25838200  1
  Cl  Cl19  1  0.23360500  0.23360500  0.74161800  1
  Cl  Cl20  1  0.02171100  0.52098600  0.25230800  1
  Cl  Cl21  1  0.47901400  0.97828900  0.74769200  1
  Cl  Cl22  1  0.97828900  0.47901400  0.74769200  1
  Cl  Cl23  1  0.52098600  0.02171100  0.25230800  1
