# generated using pymatgen
data_MgO
_symmetry_space_group_name_H-M   'P 1'
_cell_length_a   11.42197929
_cell_length_b   11.42197929
_cell_length_c   11.42197929
_cell_angle_alpha   158.70476915
_cell_angle_beta   148.81323492
_cell_angle_gamma   38.07489050
_symmetry_Int_Tables_number   1
_chemical_formula_structural   MgO
_chemical_formula_sum   'Mg12 O12'
_cell_volume   279.85080699
_cell_formula_units_Z   12
loop_
 _symmetry_equiv_pos_site_id
 _symmetry_equiv_pos_as_xyz
  1  'x, y, z'
loop_
 _atom_site_type_symbol
 _atom_site_label
 _atom_site_symmetry_multiplicity
 _atom_site_fract_x
 _atom_site_fract_y
 _atom_site_fract_z
 _atom_site_occupancy
  Mg  Mg0  1  0.87992800  0.54761100  0.33231800  1
  Mg  Mg1  1  0.12007200  0.45238900  0.66768200  1
  Mg  Mg2  1  0.78470700  0.95238900  0.83231800  1
  Mg  Mg3  1  0.21529300  0.04761100  0.16768200  1
  Mg  Mg4  1  0.04371700  0.70938100  0.33433700  1
  Mg  Mg5  1  0.95628300  0.29061900  0.66566300  1
  Mg  Mg6  1  0.62495600  0.79061900  0.83433700  1
  Mg  Mg7  1  0.37504400  0.20938100  0.16566300  1
  Mg  Mg8  1  0.79292300  0.12821900  0.66470400  1
  Mg  Mg9  1  0.20707700  0.87178100  0.33529600  1
  Mg  Mg10  1  0.53648500  0.37178100  0.16470400  1
  Mg  Mg11  1  0.46351500  0.62821900  0.83529600  1
  O  O12  1  0.79356700  0.62833200  0.16523500  1
  O  O13  1  0.20643300  0.37166800  0.83476500  1
  O  O14  1  0.53690200  0.87166800  0.66523500  1
  O  O15  1  0.46309800  0.12833200  0.33476500  1
  O  O16  1  0.87531400  0.04756800  0.82774500  1
  O  O17  1  0.12468600  0.95243200  0.17225500  1
  O  O18  1  0.78017700  0.45243200  0.32774500  1
  O  O19  1  0.21982300  0.54756800  0.67225500  1
  O  O20  1  0.04376800  0.20938900  0.83437800  1
  O  O21  1  0.95623200  0.79061100  0.16562200  1
  O  O22  1  0.62498900  0.29061100  0.33437800  1
  O  O23  1  0.37501100  0.70938900  0.66562200  1
