# generated using pymatgen
data_PtBr3N2
_symmetry_space_group_name_H-M   'P 1'
_cell_length_a   10.89811409
_cell_length_b   9.99313133
_cell_length_c   9.02811618
_cell_angle_alpha   69.69993729
_cell_angle_beta   59.31725656
_cell_angle_gamma   50.98280615
_symmetry_Int_Tables_number   1
_chemical_formula_structural   PtBr3N2
_chemical_formula_sum   'Pt4 Br12 N8'
_cell_volume   656.48903565
_cell_formula_units_Z   4
loop_
 _symmetry_equiv_pos_site_id
 _symmetry_equiv_pos_as_xyz
  1  'x, y, z'
loop_
 _atom_site_type_symbol
 _atom_site_label
 _atom_site_symmetry_multiplicity
 _atom_site_fract_x
 _atom_site_fract_y
 _atom_site_fract_z
 _atom_site_occupancy
  Pt  Pt0  1  0.00000000  0.00000000  0.00000000  1
  Pt  Pt1  1  0.25000000  0.25000000  0.25000000  1
  Pt  Pt2  1  0.50000000  0.50000000  0.50000000  1
  Pt  Pt3  1  0.75000000  0.75000000  0.75000000  1
  Br  Br4  1  0.65393200  0.65393200  0.34606800  1
  Br  Br5  1  0.34606800  0.34606800  0.65393200  1
  Br  Br6  1  0.59606800  0.59606800  0.90393200  1
  Br  Br7  1  0.90393200  0.90393200  0.59606800  1
  Br  Br8  1  0.84772900  0.84772900  0.15227100  1
  Br  Br9  1  0.15227100  0.15227100  0.84772900  1
  Br  Br10  1  0.40227100  0.40227100  0.09772900  1
  Br  Br11  1  0.09772900  0.09772900  0.40227100  1
  Br  Br12  1  0.72977800  0.27022200  0.27022200  1
  Br  Br13  1  0.27022200  0.72977800  0.72977800  1
  Br  Br14  1  0.52022200  0.97977800  0.97977800  1
  Br  Br15  1  0.97977800  0.52022200  0.52022200  1
  N  N16  1  0.36987600  0.63012400  0.36987600  1
  N  N17  1  0.88012400  0.61987600  0.88012400  1
  N  N18  1  0.63012400  0.36987600  0.63012400  1
  N  N19  1  0.61987600  0.88012400  0.61987600  1
  N  N20  1  0.12744300  0.87255700  0.12744300  1
  N  N21  1  0.12255700  0.37744300  0.12255700  1
  N  N22  1  0.87255700  0.12744300  0.87255700  1
  N  N23  1  0.37744300  0.12255700  0.37744300  1
