# generated using pymatgen
data_KTeO4
_symmetry_space_group_name_H-M   'P 1'
_cell_length_a   11.48554400
_cell_length_b   5.16916400
_cell_length_c   6.51049530
_cell_angle_alpha   88.16730369
_cell_angle_beta   90.00000000
_cell_angle_gamma   90.00000000
_symmetry_Int_Tables_number   1
_chemical_formula_structural   KTeO4
_chemical_formula_sum   'K4 Te4 O16'
_cell_volume   386.33468446
_cell_formula_units_Z   4
loop_
 _symmetry_equiv_pos_site_id
 _symmetry_equiv_pos_as_xyz
  1  'x, y, z'
loop_
 _atom_site_type_symbol
 _atom_site_label
 _atom_site_symmetry_multiplicity
 _atom_site_fract_x
 _atom_site_fract_y
 _atom_site_fract_z
 _atom_site_occupancy
  K  K0  1  0.83923100  0.76074700  0.98921000  1
  K  K1  1  0.33923100  0.23925300  0.51079000  1
  K  K2  1  0.16076900  0.23925300  0.01079000  1
  K  K3  1  0.66076900  0.76074700  0.48921000  1
  Te  Te4  1  0.07700400  0.74937900  0.50664500  1
  Te  Te5  1  0.57700400  0.25062100  0.99335500  1
  Te  Te6  1  0.92299600  0.25062100  0.49335500  1
  Te  Te7  1  0.42299600  0.74937900  0.00664500  1
  O  O8  1  0.04626700  0.06028100  0.66879300  1
  O  O9  1  0.54626700  0.93971900  0.83120700  1
  O  O10  1  0.95373300  0.93971900  0.33120700  1
  O  O11  1  0.45373300  0.06028100  0.16879300  1
  O  O12  1  0.94578500  0.56188800  0.66016800  1
  O  O13  1  0.44578500  0.43811200  0.83983200  1
  O  O14  1  0.05421500  0.43811200  0.33983200  1
  O  O15  1  0.55421500  0.56188800  0.16016800  1
  O  O16  1  0.18096300  0.59312000  0.70350700  1
  O  O17  1  0.68096300  0.40688000  0.79649300  1
  O  O18  1  0.81903700  0.40688000  0.29649300  1
  O  O19  1  0.31903700  0.59312000  0.20350700  1
  O  O20  1  0.80767500  0.10155800  0.66972200  1
  O  O21  1  0.30767500  0.89844200  0.83027800  1
  O  O22  1  0.19232500  0.89844200  0.33027800  1
  O  O23  1  0.69232500  0.10155800  0.16972200  1
