# generated using pymatgen
data_MgO
_symmetry_space_group_name_H-M   'P 1'
_cell_length_a   2.99860243
_cell_length_b   2.99860243
_cell_length_c   29.81868500
_cell_angle_alpha   90.00000000
_cell_angle_beta   90.00000000
_cell_angle_gamma   120.00000940
_symmetry_Int_Tables_number   1
_chemical_formula_structural   MgO
_chemical_formula_sum   'Mg12 O12'
_cell_volume   232.19713341
_cell_formula_units_Z   12
loop_
 _symmetry_equiv_pos_site_id
 _symmetry_equiv_pos_as_xyz
  1  'x, y, z'
loop_
 _atom_site_type_symbol
 _atom_site_label
 _atom_site_symmetry_multiplicity
 _atom_site_fract_x
 _atom_site_fract_y
 _atom_site_fract_z
 _atom_site_occupancy
  Mg  Mg0  1  0.33333300  0.66666700  0.83499400  1
  Mg  Mg1  1  0.66666700  0.33333300  0.16500600  1
  Mg  Mg2  1  0.66666700  0.33333300  0.33499400  1
  Mg  Mg3  1  0.33333300  0.66666700  0.66500600  1
  Mg  Mg4  1  0.33333300  0.66666700  0.41748500  1
  Mg  Mg5  1  0.66666700  0.33333300  0.58251500  1
  Mg  Mg6  1  0.66666700  0.33333300  0.91748500  1
  Mg  Mg7  1  0.33333300  0.66666700  0.08251500  1
  Mg  Mg8  1  0.00000000  0.00000000  0.25000000  1
  Mg  Mg9  1  0.00000000  0.00000000  0.75000000  1
  Mg  Mg10  1  0.00000000  0.00000000  0.00000000  1
  Mg  Mg11  1  0.00000000  0.00000000  0.50000000  1
  O  O12  1  0.33333300  0.66666700  0.95873800  1
  O  O13  1  0.66666700  0.33333300  0.04126200  1
  O  O14  1  0.66666700  0.33333300  0.45873800  1
  O  O15  1  0.33333300  0.66666700  0.54126200  1
  O  O16  1  0.33333300  0.66666700  0.20613000  1
  O  O17  1  0.66666700  0.33333300  0.79387000  1
  O  O18  1  0.66666700  0.33333300  0.70613000  1
  O  O19  1  0.33333300  0.66666700  0.29387000  1
  O  O20  1  0.00000000  0.00000000  0.12377000  1
  O  O21  1  0.00000000  0.00000000  0.87623000  1
  O  O22  1  0.00000000  0.00000000  0.62377000  1
  O  O23  1  0.00000000  0.00000000  0.37623000  1
