# generated using pymatgen
data_MnC5IO5
_symmetry_space_group_name_H-M   'P 1'
_cell_length_a   6.76558341
_cell_length_b   6.76558341
_cell_length_c   11.00756800
_cell_angle_alpha   90.00000000
_cell_angle_beta   90.00000000
_cell_angle_gamma   111.23867710
_symmetry_Int_Tables_number   1
_chemical_formula_structural   MnC5IO5
_chemical_formula_sum   'Mn2 C10 I2 O10'
_cell_volume   469.62891486
_cell_formula_units_Z   2
loop_
 _symmetry_equiv_pos_site_id
 _symmetry_equiv_pos_as_xyz
  1  'x, y, z'
loop_
 _atom_site_type_symbol
 _atom_site_label
 _atom_site_symmetry_multiplicity
 _atom_site_fract_x
 _atom_site_fract_y
 _atom_site_fract_z
 _atom_site_occupancy
  Mn  Mn0  1  0.14475400  0.85524600  0.25000000  1
  Mn  Mn1  1  0.85524600  0.14475400  0.75000000  1
  C  C2  1  0.30959100  0.69040900  0.25000000  1
  C  C3  1  0.69040900  0.30959100  0.75000000  1
  C  C4  1  0.30949800  0.04214400  0.36911000  1
  C  C5  1  0.04214400  0.30949800  0.63089000  1
  C  C6  1  0.30949800  0.04214400  0.13089000  1
  C  C7  1  0.04214400  0.30949800  0.86911000  1
  C  C8  1  0.69050200  0.95785600  0.63089000  1
  C  C9  1  0.95785600  0.69050200  0.36911000  1
  C  C10  1  0.69050200  0.95785600  0.86911000  1
  C  C11  1  0.95785600  0.69050200  0.13089000  1
  I  I12  1  0.89791000  0.10209000  0.25000000  1
  I  I13  1  0.10209000  0.89791000  0.75000000  1
  O  O14  1  0.41300900  0.58699100  0.25000000  1
  O  O15  1  0.58699100  0.41300900  0.75000000  1
  O  O16  1  0.41126500  0.16024900  0.44034500  1
  O  O17  1  0.16024900  0.41126500  0.55965500  1
  O  O18  1  0.41126500  0.16024900  0.05965500  1
  O  O19  1  0.16024900  0.41126500  0.94034500  1
  O  O20  1  0.58873500  0.83975100  0.55965500  1
  O  O21  1  0.83975100  0.58873500  0.44034500  1
  O  O22  1  0.58873500  0.83975100  0.94034500  1
  O  O23  1  0.83975100  0.58873500  0.05965500  1
