# generated using pymatgen
data_CdC2(NO)4
_symmetry_space_group_name_H-M   'P 1'
_cell_length_a   6.85288000
_cell_length_b   8.10158700
_cell_length_c   11.06056200
_cell_angle_alpha   90.00000000
_cell_angle_beta   90.00000000
_cell_angle_gamma   90.00000000
_symmetry_Int_Tables_number   1
_chemical_formula_structural   CdC2(NO)4
_chemical_formula_sum   'Cd2 C4 N8 O8'
_cell_volume   614.07359273
_cell_formula_units_Z   2
loop_
 _symmetry_equiv_pos_site_id
 _symmetry_equiv_pos_as_xyz
  1  'x, y, z'
loop_
 _atom_site_type_symbol
 _atom_site_label
 _atom_site_symmetry_multiplicity
 _atom_site_fract_x
 _atom_site_fract_y
 _atom_site_fract_z
 _atom_site_occupancy
  Cd  Cd0  1  0.00000000  0.08214800  0.00000000  1
  Cd  Cd1  1  0.50000000  0.91785200  0.50000000  1
  C  C2  1  0.27064000  0.19487800  0.68253700  1
  C  C3  1  0.72936000  0.19487800  0.31746300  1
  C  C4  1  0.77064000  0.80512200  0.81746300  1
  C  C5  1  0.22936000  0.80512200  0.18253700  1
  N  N6  1  0.83651200  0.40135000  0.74712100  1
  N  N7  1  0.16348800  0.40135000  0.25287900  1
  N  N8  1  0.33651200  0.59865000  0.75287900  1
  N  N9  1  0.66348800  0.59865000  0.24712100  1
  N  N10  1  0.75412300  0.32049600  0.81064100  1
  N  N11  1  0.24587700  0.32049600  0.18935900  1
  N  N12  1  0.25412300  0.67950400  0.68935900  1
  N  N13  1  0.74587700  0.67950400  0.31064100  1
  O  O14  1  0.32310500  0.13372000  0.77347600  1
  O  O15  1  0.67689500  0.13372000  0.22652400  1
  O  O16  1  0.82310500  0.86628000  0.72652400  1
  O  O17  1  0.17689500  0.86628000  0.27347600  1
  O  O18  1  0.21756400  0.25979900  0.59330500  1
  O  O19  1  0.78243600  0.25979900  0.40669500  1
  O  O20  1  0.71756400  0.74020100  0.90669500  1
  O  O21  1  0.28243600  0.74020100  0.09330500  1
