# generated using pymatgen
data_NaSO4
_symmetry_space_group_name_H-M   'P 1'
_cell_length_a   6.86421000
_cell_length_b   7.04250490
_cell_length_c   7.05730621
_cell_angle_alpha   77.83225871
_cell_angle_beta   82.77571994
_cell_angle_gamma   88.28546862
_symmetry_Int_Tables_number   1
_chemical_formula_structural   NaSO4
_chemical_formula_sum   'Na4 S4 O16'
_cell_volume   330.84515349
_cell_formula_units_Z   4
loop_
 _symmetry_equiv_pos_site_id
 _symmetry_equiv_pos_as_xyz
  1  'x, y, z'
loop_
 _atom_site_type_symbol
 _atom_site_label
 _atom_site_symmetry_multiplicity
 _atom_site_fract_x
 _atom_site_fract_y
 _atom_site_fract_z
 _atom_site_occupancy
  Na  Na0  1  0.45140100  0.31478700  0.72717700  1
  Na  Na1  1  0.54859900  0.68521300  0.27282300  1
  Na  Na2  1  0.85265300  0.18328300  0.32455100  1
  Na  Na3  1  0.14734700  0.81671700  0.67544900  1
  S  S4  1  0.38309500  0.20633100  0.27383400  1
  S  S5  1  0.61690500  0.79366900  0.72616600  1
  S  S6  1  0.95798400  0.29697400  0.78640000  1
  S  S7  1  0.04201600  0.70302600  0.21360000  1
  O  O8  1  0.35339900  0.30284700  0.07005500  1
  O  O9  1  0.64660100  0.69715300  0.92994500  1
  O  O10  1  0.48518800  0.33753900  0.36837600  1
  O  O11  1  0.51481200  0.66246100  0.63162400  1
  O  O12  1  0.19293000  0.14289000  0.38873000  1
  O  O13  1  0.80707000  0.85711000  0.61127000  1
  O  O14  1  0.51438900  0.03621600  0.25500900  1
  O  O15  1  0.48561100  0.96378400  0.74499100  1
  O  O16  1  0.84924900  0.31923300  0.97552100  1
  O  O17  1  0.15075100  0.68076700  0.02447900  1
  O  O18  1  0.10577900  0.45418500  0.71560600  1
  O  O19  1  0.89422100  0.54581500  0.28439400  1
  O  O20  1  0.06299400  0.10781200  0.81722300  1
  O  O21  1  0.93700600  0.89218800  0.18277700  1
  O  O22  1  0.81683700  0.30559900  0.64170900  1
  O  O23  1  0.18316300  0.69440100  0.35829100  1
