# generated using pymatgen
data_CoN6(ClO)2
_symmetry_space_group_name_H-M   'P 1'
_cell_length_a   7.70881684
_cell_length_b   7.70881684
_cell_length_c   10.24299637
_cell_angle_alpha   71.05902330
_cell_angle_beta   71.05902330
_cell_angle_gamma   92.56843391
_symmetry_Int_Tables_number   1
_chemical_formula_structural   CoN6(ClO)2
_chemical_formula_sum   'Co2 N12 Cl4 O4'
_cell_volume   536.83867303
_cell_formula_units_Z   2
loop_
 _symmetry_equiv_pos_site_id
 _symmetry_equiv_pos_as_xyz
  1  'x, y, z'
loop_
 _atom_site_type_symbol
 _atom_site_label
 _atom_site_symmetry_multiplicity
 _atom_site_fract_x
 _atom_site_fract_y
 _atom_site_fract_z
 _atom_site_occupancy
  Co  Co0  1  0.96927400  0.03072600  0.25000000  1
  Co  Co1  1  0.03072600  0.96927400  0.75000000  1
  N  N2  1  0.69584900  0.30415100  0.25000000  1
  N  N3  1  0.30415100  0.69584900  0.75000000  1
  N  N4  1  0.81052200  0.18947800  0.25000000  1
  N  N5  1  0.18947800  0.81052200  0.75000000  1
  N  N6  1  0.51409500  0.81220100  0.32290500  1
  N  N7  1  0.18779900  0.48590500  0.17709500  1
  N  N8  1  0.48590500  0.18779900  0.67709500  1
  N  N9  1  0.81220100  0.51409500  0.82290500  1
  N  N10  1  0.36536100  0.74669600  0.36540500  1
  N  N11  1  0.25330400  0.63463900  0.13459500  1
  N  N12  1  0.63463900  0.25330400  0.63459500  1
  N  N13  1  0.74669600  0.36536100  0.86540500  1
  Cl  Cl14  1  0.79639200  0.91502800  0.94221800  1
  Cl  Cl15  1  0.08497200  0.20360800  0.55778200  1
  Cl  Cl16  1  0.20360800  0.08497200  0.05778200  1
  Cl  Cl17  1  0.91502800  0.79639200  0.44221800  1
  O  O18  1  0.57431700  0.28814700  0.19587400  1
  O  O19  1  0.71185300  0.42568300  0.30412600  1
  O  O20  1  0.42568300  0.71185300  0.80412600  1
  O  O21  1  0.28814700  0.57431700  0.69587400  1
