# generated using pymatgen
data_Cs2Mn(TeS3)2
_symmetry_space_group_name_H-M   'P 1'
_cell_length_a   7.03081131
_cell_length_b   7.03081131
_cell_length_c   16.26701800
_cell_angle_alpha   90.00000000
_cell_angle_beta   90.00000000
_cell_angle_gamma   119.99999347
_symmetry_Int_Tables_number   1
_chemical_formula_structural   Cs2Mn(TeS3)2
_chemical_formula_sum   'Cs4 Mn2 Te4 S12'
_cell_volume   696.38513541
_cell_formula_units_Z   2
loop_
 _symmetry_equiv_pos_site_id
 _symmetry_equiv_pos_as_xyz
  1  'x, y, z'
loop_
 _atom_site_type_symbol
 _atom_site_label
 _atom_site_symmetry_multiplicity
 _atom_site_fract_x
 _atom_site_fract_y
 _atom_site_fract_z
 _atom_site_occupancy
  Cs  Cs0  1  0.66666700  0.33333300  0.79759900  1
  Cs  Cs1  1  0.66666700  0.33333300  0.29759900  1
  Cs  Cs2  1  0.33333300  0.66666700  0.20240100  1
  Cs  Cs3  1  0.33333300  0.66666700  0.70240100  1
  Mn  Mn4  1  0.00000000  0.00000000  0.00000000  1
  Mn  Mn5  1  0.00000000  0.00000000  0.50000000  1
  Te  Te6  1  0.33333300  0.66666700  0.96023700  1
  Te  Te7  1  0.33333300  0.66666700  0.46023700  1
  Te  Te8  1  0.66666700  0.33333300  0.03976300  1
  Te  Te9  1  0.66666700  0.33333300  0.53976300  1
  S  S10  1  0.11484100  0.79447900  0.89497800  1
  S  S11  1  0.67963700  0.88515900  0.89497800  1
  S  S12  1  0.20552100  0.32036300  0.89497800  1
  S  S13  1  0.11484100  0.32036300  0.39497800  1
  S  S14  1  0.20552100  0.88515900  0.39497800  1
  S  S15  1  0.67963700  0.79447900  0.39497800  1
  S  S16  1  0.88515900  0.20552100  0.10502200  1
  S  S17  1  0.32036300  0.11484100  0.10502200  1
  S  S18  1  0.79447900  0.67963700  0.10502200  1
  S  S19  1  0.88515900  0.67963700  0.60502200  1
  S  S20  1  0.79447900  0.11484100  0.60502200  1
  S  S21  1  0.32036300  0.20552100  0.60502200  1
