# generated using pymatgen
data_AlTlSiO4
_symmetry_space_group_name_H-M   'P 1'
_cell_length_a   5.46397800
_cell_length_b   8.35242100
_cell_length_c   9.60303500
_cell_angle_alpha   90.00000000
_cell_angle_beta   90.00000000
_cell_angle_gamma   90.00000000
_symmetry_Int_Tables_number   1
_chemical_formula_structural   AlTlSiO4
_chemical_formula_sum   'Al4 Tl4 Si4 O16'
_cell_volume   438.25797772
_cell_formula_units_Z   4
loop_
 _symmetry_equiv_pos_site_id
 _symmetry_equiv_pos_as_xyz
  1  'x, y, z'
loop_
 _atom_site_type_symbol
 _atom_site_label
 _atom_site_symmetry_multiplicity
 _atom_site_fract_x
 _atom_site_fract_y
 _atom_site_fract_z
 _atom_site_occupancy
  Al  Al0  1  0.75000000  0.69321000  0.58414500  1
  Al  Al1  1  0.25000000  0.30679000  0.41585500  1
  Al  Al2  1  0.25000000  0.80679000  0.08414500  1
  Al  Al3  1  0.75000000  0.19321000  0.91585500  1
  Tl  Tl4  1  0.75000000  0.49772200  0.18308700  1
  Tl  Tl5  1  0.25000000  0.50227800  0.81691300  1
  Tl  Tl6  1  0.25000000  0.00227800  0.68308700  1
  Tl  Tl7  1  0.75000000  0.99772200  0.31691300  1
  Si  Si8  1  0.75000000  0.79554100  0.92280100  1
  Si  Si9  1  0.25000000  0.20445900  0.07719900  1
  Si  Si10  1  0.25000000  0.70445900  0.42280100  1
  Si  Si11  1  0.75000000  0.29554100  0.57719900  1
  O  O12  1  0.75000000  0.48743600  0.56347600  1
  O  O13  1  0.25000000  0.51256400  0.43652400  1
  O  O14  1  0.25000000  0.01256400  0.06347600  1
  O  O15  1  0.75000000  0.98743600  0.93652400  1
  O  O16  1  0.75000000  0.74094800  0.76045500  1
  O  O17  1  0.25000000  0.25905200  0.23954500  1
  O  O18  1  0.25000000  0.75905200  0.26045500  1
  O  O19  1  0.75000000  0.24094800  0.73954500  1
  O  O20  1  0.00905300  0.78264700  0.50272500  1
  O  O21  1  0.50905300  0.21735300  0.49727500  1
  O  O22  1  0.50905300  0.71735300  0.00272500  1
  O  O23  1  0.00905300  0.28264700  0.99727500  1
  O  O24  1  0.49094700  0.78264700  0.50272500  1
  O  O25  1  0.99094700  0.21735300  0.49727500  1
  O  O26  1  0.99094700  0.71735300  0.00272500  1
  O  O27  1  0.49094700  0.28264700  0.99727500  1
