# generated using pymatgen
data_HgP2(PdO4)2
_symmetry_space_group_name_H-M   'P 1'
_cell_length_a   9.90206304
_cell_length_b   8.79045363
_cell_length_c   6.77198596
_cell_angle_alpha   77.83880462
_cell_angle_beta   60.20602022
_cell_angle_gamma   41.95517516
_symmetry_Int_Tables_number   1
_chemical_formula_structural   HgP2(PdO4)2
_chemical_formula_sum   'Hg2 P4 Pd4 O16'
_cell_volume   328.92241068
_cell_formula_units_Z   2
loop_
 _symmetry_equiv_pos_site_id
 _symmetry_equiv_pos_as_xyz
  1  'x, y, z'
loop_
 _atom_site_type_symbol
 _atom_site_label
 _atom_site_symmetry_multiplicity
 _atom_site_fract_x
 _atom_site_fract_y
 _atom_site_fract_z
 _atom_site_occupancy
  Hg  Hg0  1  0.75000000  0.75000000  0.75000000  1
  Hg  Hg1  1  0.50000000  0.50000000  0.50000000  1
  P  P2  1  0.95537500  0.95537500  0.54462500  1
  P  P3  1  0.54462500  0.54462500  0.95537500  1
  P  P4  1  0.29462500  0.29462500  0.70537500  1
  P  P5  1  0.70537500  0.70537500  0.29462500  1
  Pd  Pd6  1  0.12500000  0.62500000  0.12500000  1
  Pd  Pd7  1  0.12500000  0.12500000  0.62500000  1
  Pd  Pd8  1  0.12500000  0.12500000  0.12500000  1
  Pd  Pd9  1  0.62500000  0.12500000  0.12500000  1
  O  O10  1  0.72004900  0.07715300  0.77755700  1
  O  O11  1  0.42524200  0.77755700  0.07715300  1
  O  O12  1  0.77755700  0.42524200  0.72004900  1
  O  O13  1  0.07715300  0.72004900  0.42524200  1
  O  O14  1  0.52995100  0.17284700  0.47244300  1
  O  O15  1  0.82475800  0.47244300  0.17284700  1
  O  O16  1  0.47244300  0.82475800  0.52995100  1
  O  O17  1  0.17284700  0.52995100  0.82475800  1
  O  O18  1  0.12491900  0.89715900  0.59869400  1
  O  O19  1  0.37922800  0.59869400  0.89715900  1
  O  O20  1  0.59869400  0.37922800  0.12491900  1
  O  O21  1  0.89715900  0.12491900  0.37922800  1
  O  O22  1  0.12508100  0.35284100  0.65130600  1
  O  O23  1  0.87077200  0.65130600  0.35284100  1
  O  O24  1  0.65130600  0.87077200  0.12508100  1
  O  O25  1  0.35284100  0.12508100  0.87077200  1
