# generated using pymatgen
data_KMnH3(CO2)3
_symmetry_space_group_name_H-M   'P 1'
_cell_length_a   7.27916855
_cell_length_b   7.27916855
_cell_length_c   7.24645147
_cell_angle_alpha   85.00532138
_cell_angle_beta   85.00532138
_cell_angle_gamma   78.58852433
_symmetry_Int_Tables_number   1
_chemical_formula_structural   KMnH3(CO2)3
_chemical_formula_sum   'K2 Mn2 H6 C6 O12'
_cell_volume   373.98301107
_cell_formula_units_Z   2
loop_
 _symmetry_equiv_pos_site_id
 _symmetry_equiv_pos_as_xyz
  1  'x, y, z'
loop_
 _atom_site_type_symbol
 _atom_site_label
 _atom_site_symmetry_multiplicity
 _atom_site_fract_x
 _atom_site_fract_y
 _atom_site_fract_z
 _atom_site_occupancy
  K  K0  1  0.60076900  0.39923100  0.75000000  1
  K  K1  1  0.39923100  0.60076900  0.25000000  1
  Mn  Mn2  1  0.50000000  0.00000000  0.50000000  1
  Mn  Mn3  1  0.00000000  0.50000000  0.00000000  1
  H  H4  1  0.06312100  0.21121300  0.51554200  1
  H  H5  1  0.78878700  0.93687900  0.98445800  1
  H  H6  1  0.93687900  0.78878700  0.48445800  1
  H  H7  1  0.21121300  0.06312100  0.01554200  1
  H  H8  1  0.12725500  0.87274500  0.75000000  1
  H  H9  1  0.87274500  0.12725500  0.25000000  1
  C  C10  1  0.24803700  0.75196300  0.75000000  1
  C  C11  1  0.75196300  0.24803700  0.25000000  1
  C  C12  1  0.12134200  0.25611000  0.63704400  1
  C  C13  1  0.74389000  0.87865800  0.86295600  1
  C  C14  1  0.87865800  0.74389000  0.36295600  1
  C  C15  1  0.25611000  0.12134200  0.13704400  1
  O  O16  1  0.37771200  0.75362300  0.62124400  1
  O  O17  1  0.24637700  0.62228800  0.87875600  1
  O  O18  1  0.62228800  0.24637700  0.37875600  1
  O  O19  1  0.75362300  0.37771200  0.12124400  1
  O  O20  1  0.29789600  0.21227300  0.64747400  1
  O  O21  1  0.78772700  0.70210400  0.85252600  1
  O  O22  1  0.70210400  0.78772700  0.35252600  1
  O  O23  1  0.21227300  0.29789600  0.14747400  1
  O  O24  1  0.65391500  0.99594700  0.74837100  1
  O  O25  1  0.00405300  0.34608500  0.75162900  1
  O  O26  1  0.34608500  0.00405300  0.25162900  1
  O  O27  1  0.99594700  0.65391500  0.24837100  1
