# generated using pymatgen
data_YCo3
_symmetry_space_group_name_H-M   'P 1'
_cell_length_a   4.98323466
_cell_length_b   4.98323466
_cell_length_c   16.11799000
_cell_angle_alpha   90.00000000
_cell_angle_beta   90.00000000
_cell_angle_gamma   120.00000877
_symmetry_Int_Tables_number   1
_chemical_formula_structural   YCo3
_chemical_formula_sum   'Y6 Co18'
_cell_volume   346.62840798
_cell_formula_units_Z   6
loop_
 _symmetry_equiv_pos_site_id
 _symmetry_equiv_pos_as_xyz
  1  'x, y, z'
loop_
 _atom_site_type_symbol
 _atom_site_label
 _atom_site_symmetry_multiplicity
 _atom_site_fract_x
 _atom_site_fract_y
 _atom_site_fract_z
 _atom_site_occupancy
  Y  Y0  1  0.33333300  0.66666700  0.95978900  1
  Y  Y1  1  0.66666700  0.33333300  0.04021100  1
  Y  Y2  1  0.66666700  0.33333300  0.45978900  1
  Y  Y3  1  0.33333300  0.66666700  0.54021100  1
  Y  Y4  1  0.33333300  0.66666700  0.75000000  1
  Y  Y5  1  0.66666700  0.33333300  0.25000000  1
  Co  Co6  1  0.16618200  0.83381800  0.37173300  1
  Co  Co7  1  0.16618200  0.33236400  0.37173300  1
  Co  Co8  1  0.66763600  0.83381800  0.37173300  1
  Co  Co9  1  0.83381800  0.16618200  0.62826700  1
  Co  Co10  1  0.83381800  0.66763600  0.62826700  1
  Co  Co11  1  0.33236400  0.16618200  0.62826700  1
  Co  Co12  1  0.83381800  0.16618200  0.87173300  1
  Co  Co13  1  0.83381800  0.66763600  0.87173300  1
  Co  Co14  1  0.33236400  0.16618200  0.87173300  1
  Co  Co15  1  0.16618200  0.83381800  0.12826700  1
  Co  Co16  1  0.16618200  0.33236400  0.12826700  1
  Co  Co17  1  0.66763600  0.83381800  0.12826700  1
  Co  Co18  1  0.33333300  0.66666700  0.25000000  1
  Co  Co19  1  0.66666700  0.33333300  0.75000000  1
  Co  Co20  1  0.00000000  0.00000000  0.25000000  1
  Co  Co21  1  0.00000000  0.00000000  0.75000000  1
  Co  Co22  1  0.00000000  0.00000000  0.50000000  1
  Co  Co23  1  0.00000000  0.00000000  0.00000000  1
