# generated using pymatgen
data_B2Pb2O5
_symmetry_space_group_name_H-M   'P 1'
_cell_length_a   7.10015500
_cell_length_b   7.32573409
_cell_length_c   7.93344310
_cell_angle_alpha   76.19829535
_cell_angle_beta   76.63808898
_cell_angle_gamma   73.78141860
_symmetry_Int_Tables_number   1
_chemical_formula_structural   B2Pb2O5
_chemical_formula_sum   'B6 Pb6 O15'
_cell_volume   378.75401153
_cell_formula_units_Z   3
loop_
 _symmetry_equiv_pos_site_id
 _symmetry_equiv_pos_as_xyz
  1  'x, y, z'
loop_
 _atom_site_type_symbol
 _atom_site_label
 _atom_site_symmetry_multiplicity
 _atom_site_fract_x
 _atom_site_fract_y
 _atom_site_fract_z
 _atom_site_occupancy
  B  B0  1  0.21567400  0.09515500  0.49352700  1
  B  B1  1  0.20915100  0.10076200  0.16970900  1
  B  B2  1  0.88969600  0.28485700  0.01648800  1
  B  B3  1  0.73034500  0.57748100  0.80742100  1
  B  B4  1  0.87760800  0.24844400  0.70925300  1
  B  B5  1  0.17448300  0.79797500  0.40749700  1
  Pb  Pb6  1  0.68554200  0.94004100  0.01079700  1
  Pb  Pb7  1  0.25295400  0.89133200  0.86653900  1
  Pb  Pb8  1  0.43740600  0.42676400  0.18352900  1
  Pb  Pb9  1  0.88106000  0.49561700  0.33872000  1
  Pb  Pb10  1  0.70321800  0.02484000  0.49623100  1
  Pb  Pb11  1  0.35242300  0.40630500  0.67484000  1
  O  O12  1  0.34911500  0.10793900  0.60627700  1
  O  O13  1  0.73480900  0.12703700  0.74016900  1
  O  O14  1  0.71954800  0.19988900  0.10735200  1
  O  O15  1  0.61717300  0.76233000  0.77902200  1
  O  O16  1  0.80675600  0.50139500  0.96342200  1
  O  O17  1  0.99166600  0.20536200  0.85313500  1
  O  O18  1  0.19736500  0.88957800  0.53482800  1
  O  O19  1  0.35600400  0.08370600  0.00598300  1
  O  O20  1  0.01346500  0.22700200  0.53453700  1
  O  O21  1  0.29947100  0.14670400  0.30434100  1
  O  O22  1  0.15555300  0.90726700  0.24003100  1
  O  O23  1  0.17055900  0.60674600  0.44729800  1
  O  O24  1  0.03139200  0.26112600  0.13624800  1
  O  O25  1  0.58876000  0.37369100  0.41747500  1
  O  O26  1  0.76620300  0.45935400  0.68343300  1
