# generated using pymatgen
data_SbIrXeF12
_symmetry_space_group_name_H-M   'P 1'
_cell_length_a   11.26142846
_cell_length_b   11.26142846
_cell_length_c   8.25278755
_cell_angle_alpha   89.96411601
_cell_angle_beta   89.96411601
_cell_angle_gamma   148.18863803
_symmetry_Int_Tables_number   1
_chemical_formula_structural   SbIrXeF12
_chemical_formula_sum   'Sb2 Ir2 Xe2 F24'
_cell_volume   551.69563932
_cell_formula_units_Z   2
loop_
 _symmetry_equiv_pos_site_id
 _symmetry_equiv_pos_as_xyz
  1  'x, y, z'
loop_
 _atom_site_type_symbol
 _atom_site_label
 _atom_site_symmetry_multiplicity
 _atom_site_fract_x
 _atom_site_fract_y
 _atom_site_fract_z
 _atom_site_occupancy
  Sb  Sb0  1  0.28511500  0.45081900  0.03007000  1
  Sb  Sb1  1  0.45081900  0.28511500  0.53007000  1
  Ir  Ir2  1  0.37827400  0.87071900  0.96464500  1
  Ir  Ir3  1  0.87071900  0.37827400  0.46464500  1
  Xe  Xe4  1  0.96673300  0.77682400  0.02992200  1
  Xe  Xe5  1  0.77682400  0.96673300  0.52992200  1
  F  F6  1  0.35192000  0.34318500  0.04452900  1
  F  F7  1  0.34318500  0.35192000  0.54452900  1
  F  F8  1  0.51683500  0.67813300  0.87608600  1
  F  F9  1  0.67813300  0.51683500  0.37608600  1
  F  F10  1  0.04054900  0.23860400  0.17905500  1
  F  F11  1  0.23860400  0.04054900  0.67905500  1
  F  F12  1  0.07662400  0.25419900  0.85744000  1
  F  F13  1  0.25419900  0.07662400  0.35744000  1
  F  F14  1  0.47730500  0.66007800  0.20323300  1
  F  F15  1  0.66007800  0.47730500  0.70323300  1
  F  F16  1  0.21509900  0.57663500  0.00776000  1
  F  F17  1  0.57663500  0.21509900  0.50776000  1
  F  F18  1  0.39366500  0.84278500  0.74487000  1
  F  F19  1  0.84278500  0.39366500  0.24487000  1
  F  F20  1  0.34049700  0.87779200  0.18290000  1
  F  F21  1  0.87779200  0.34049700  0.68290000  1
  F  F22  1  0.65837200  0.03626900  0.00691400  1
  F  F23  1  0.03626900  0.65837200  0.50691400  1
  F  F24  1  0.51957300  0.13790500  0.92391900  1
  F  F25  1  0.13790500  0.51957300  0.42391900  1
  F  F26  1  0.07741100  0.69115300  0.92426600  1
  F  F27  1  0.69115300  0.07741100  0.42426600  1
  F  F28  1  0.86007200  0.83921300  0.12529100  1
  F  F29  1  0.83921300  0.86007200  0.62529100  1
