# generated using pymatgen
data_Sr3NbGa3(SiO7)2
_symmetry_space_group_name_H-M   'P 1'
_cell_length_a   5.18578700
_cell_length_b   8.65925334
_cell_length_c   8.67489573
_cell_angle_alpha   120.05977489
_cell_angle_beta   89.99999852
_cell_angle_gamma   90.02074264
_symmetry_Int_Tables_number   1
_chemical_formula_structural   Sr3NbGa3(SiO7)2
_chemical_formula_sum   'Sr3 Nb1 Ga3 Si2 O14'
_cell_volume   337.15381097
_cell_formula_units_Z   1
loop_
 _symmetry_equiv_pos_site_id
 _symmetry_equiv_pos_as_xyz
  1  'x, y, z'
loop_
 _atom_site_type_symbol
 _atom_site_label
 _atom_site_symmetry_multiplicity
 _atom_site_fract_x
 _atom_site_fract_y
 _atom_site_fract_z
 _atom_site_occupancy
  Sr  Sr0  1  0.00036300  0.58407800  0.58394400  1
  Sr  Sr1  1  0.99963700  0.41592200  0.99986600  1
  Sr  Sr2  1  0.00000000  0.00000000  0.41227900  1
  Nb  Nb3  1  0.00000000  0.00000000  0.99877000  1
  Ga  Ga4  1  0.50000300  0.25667400  0.25606000  1
  Ga  Ga5  1  0.49999700  0.74332600  0.99938700  1
  Ga  Ga6  1  0.50000000  0.00000000  0.74347700  1
  Si  Si7  1  0.28809500  0.33246600  0.66657400  1
  Si  Si8  1  0.71190500  0.66753400  0.33410800  1
  O  O9  1  0.97166400  0.33782000  0.66734600  1
  O  O10  1  0.02833600  0.66218000  0.32952600  1
  O  O11  1  0.64473200  0.84600300  0.52315300  1
  O  O12  1  0.62816300  0.48352700  0.32828800  1
  O  O13  1  0.63526400  0.68232000  0.16041700  1
  O  O14  1  0.35526800  0.15399700  0.67715100  1
  O  O15  1  0.36473600  0.31768000  0.47809700  1
  O  O16  1  0.37183700  0.51647300  0.84476100  1
  O  O17  1  0.23144200  0.88018000  0.78168800  1
  O  O18  1  0.23098400  0.21782800  0.09854100  1
  O  O19  1  0.22965000  0.89999300  0.11717100  1
  O  O20  1  0.76855800  0.11982000  0.90150800  1
  O  O21  1  0.77035000  0.10000700  0.21717800  1
  O  O22  1  0.76901600  0.78217200  0.88071200  1
