# generated using pymatgen
data_TeC2Se2(N2Cl)2
_symmetry_space_group_name_H-M   'P 1'
_cell_length_a   7.20794400
_cell_length_b   7.29153194
_cell_length_c   11.23124018
_cell_angle_alpha   90.14412190
_cell_angle_beta   105.47636156
_cell_angle_gamma   90.57949504
_symmetry_Int_Tables_number   1
_chemical_formula_structural   TeC2Se2(N2Cl)2
_chemical_formula_sum   'Te2 C4 Se4 N8 Cl4'
_cell_volume   568.83917420
_cell_formula_units_Z   2
loop_
 _symmetry_equiv_pos_site_id
 _symmetry_equiv_pos_as_xyz
  1  'x, y, z'
loop_
 _atom_site_type_symbol
 _atom_site_label
 _atom_site_symmetry_multiplicity
 _atom_site_fract_x
 _atom_site_fract_y
 _atom_site_fract_z
 _atom_site_occupancy
  Te  Te0  1  0.08831100  0.79028500  0.11261600  1
  Te  Te1  1  0.91168900  0.20971500  0.88738400  1
  C  C2  1  0.82664100  0.30364100  0.19909700  1
  C  C3  1  0.17335900  0.69635900  0.80090300  1
  C  C4  1  0.54404300  0.66877600  0.33898600  1
  C  C5  1  0.45595700  0.33122400  0.66101400  1
  Se  Se6  1  0.05023100  0.93064700  0.31380100  1
  Se  Se7  1  0.94976900  0.06935300  0.68619900  1
  Se  Se8  1  0.39497800  0.99695600  0.26516900  1
  Se  Se9  1  0.60502200  0.00304400  0.73483100  1
  N  N10  1  0.77317600  0.15843200  0.14295400  1
  N  N11  1  0.22682400  0.84156800  0.85704600  1
  N  N12  1  0.88656400  0.44744600  0.25663000  1
  N  N13  1  0.11343600  0.55255400  0.74337000  1
  N  N14  1  0.54264000  0.50737300  0.32440300  1
  N  N15  1  0.45736000  0.49262700  0.67559700  1
  N  N16  1  0.55669200  0.84481200  0.36486100  1
  N  N17  1  0.44330800  0.15518800  0.63513900  1
  Cl  Cl18  1  0.76453900  0.66506700  0.99959000  1
  Cl  Cl19  1  0.23546100  0.33493300  0.00041000  1
  Cl  Cl20  1  0.18644500  0.75075700  0.46878100  1
  Cl  Cl21  1  0.81355500  0.24924300  0.53121900  1
