# generated using pymatgen
data_Nd4MnS7
_symmetry_space_group_name_H-M   'P 1'
_cell_length_a   9.85297059
_cell_length_b   9.85297059
_cell_length_c   6.99540000
_cell_angle_alpha   90.00000000
_cell_angle_beta   90.00000000
_cell_angle_gamma   120.00000394
_symmetry_Int_Tables_number   1
_chemical_formula_structural   Nd4MnS7
_chemical_formula_sum   'Nd8 Mn2 S14'
_cell_volume   588.13569700
_cell_formula_units_Z   2
loop_
 _symmetry_equiv_pos_site_id
 _symmetry_equiv_pos_as_xyz
  1  'x, y, z'
loop_
 _atom_site_type_symbol
 _atom_site_label
 _atom_site_symmetry_multiplicity
 _atom_site_fract_x
 _atom_site_fract_y
 _atom_site_fract_z
 _atom_site_occupancy
  Nd  Nd0  1  0.21351000  0.37766900  0.26744300  1
  Nd  Nd1  1  0.62233100  0.83584100  0.26744300  1
  Nd  Nd2  1  0.16415900  0.78649000  0.26744300  1
  Nd  Nd3  1  0.78649000  0.62233100  0.76744300  1
  Nd  Nd4  1  0.37766900  0.16415900  0.76744300  1
  Nd  Nd5  1  0.83584100  0.21351000  0.76744300  1
  Nd  Nd6  1  0.33333300  0.66666700  0.81402000  1
  Nd  Nd7  1  0.66666700  0.33333300  0.31402000  1
  Mn  Mn8  1  0.00000000  0.00000000  0.49455300  1
  Mn  Mn9  1  0.00000000  0.00000000  0.99455300  1
  S  S10  1  0.13310800  0.24478600  0.66366000  1
  S  S11  1  0.75521400  0.88832100  0.66366000  1
  S  S12  1  0.11167800  0.86689200  0.66366000  1
  S  S13  1  0.86689200  0.75521400  0.16366000  1
  S  S14  1  0.24478600  0.11167800  0.16366000  1
  S  S15  1  0.88832100  0.13310800  0.16366000  1
  S  S16  1  0.07380900  0.51796700  0.03089200  1
  S  S17  1  0.48203300  0.55584200  0.03089200  1
  S  S18  1  0.44415800  0.92619100  0.03089200  1
  S  S19  1  0.92619100  0.48203300  0.53089200  1
  S  S20  1  0.51796700  0.44415800  0.53089200  1
  S  S21  1  0.55584200  0.07380900  0.53089200  1
  S  S22  1  0.33333300  0.66666700  0.43247300  1
  S  S23  1  0.66666700  0.33333300  0.93247300  1
