# generated using pymatgen
data_Fe2SiO4
_symmetry_space_group_name_H-M   'P 1'
_cell_length_a   4.88556103
_cell_length_b   6.18080863
_cell_length_c   10.58924758
_cell_angle_alpha   89.91400206
_cell_angle_beta   90.11504714
_cell_angle_gamma   89.56736192
_symmetry_Int_Tables_number   1
_chemical_formula_structural   Fe2SiO4
_chemical_formula_sum   'Fe8 Si4 O16'
_cell_volume   319.75039284
_cell_formula_units_Z   4
loop_
 _symmetry_equiv_pos_site_id
 _symmetry_equiv_pos_as_xyz
  1  'x, y, z'
loop_
 _atom_site_type_symbol
 _atom_site_label
 _atom_site_symmetry_multiplicity
 _atom_site_fract_x
 _atom_site_fract_y
 _atom_site_fract_z
 _atom_site_occupancy
  Fe  Fe0  1  0.49975500  0.49997000  0.49991200  1
  Fe  Fe1  1  0.00006800  0.50005900  0.00007900  1
  Fe  Fe2  1  0.49997800  0.99999100  0.50006100  1
  Fe  Fe3  1  0.00013300  0.99986800  0.99992800  1
  Fe  Fe4  1  0.48121300  0.75050500  0.22036600  1
  Fe  Fe5  1  0.98015600  0.24985400  0.27951200  1
  Fe  Fe6  1  0.51876200  0.24960900  0.77956600  1
  Fe  Fe7  1  0.01984000  0.75018100  0.72060600  1
  Si  Si8  1  0.92637600  0.74777600  0.40422000  1
  Si  Si9  1  0.42545800  0.24819600  0.09550900  1
  Si  Si10  1  0.07359800  0.25219100  0.59580100  1
  Si  Si11  1  0.57456200  0.75181200  0.90446900  1
  O  O12  1  0.79018700  0.74260200  0.54888500  1
  O  O13  1  0.29028900  0.24269900  0.95052100  1
  O  O14  1  0.20986700  0.25737000  0.45112200  1
  O  O15  1  0.70970200  0.75730400  0.04946700  1
  O  O16  1  0.23938200  0.75473600  0.90630600  1
  O  O17  1  0.73843700  0.25397300  0.59398300  1
  O  O18  1  0.76062500  0.24526500  0.09370400  1
  O  O19  1  0.26159400  0.74591500  0.40600700  1
  O  O20  1  0.21618900  0.46071600  0.66810100  1
  O  O21  1  0.72035300  0.53381300  0.84099900  1
  O  O22  1  0.77969200  0.96537200  0.34048000  1
  O  O23  1  0.28272700  0.03975000  0.16801300  1
  O  O24  1  0.78377500  0.53926200  0.33191600  1
  O  O25  1  0.27970200  0.46627700  0.15897700  1
  O  O26  1  0.22034800  0.03461300  0.65951600  1
  O  O27  1  0.71723300  0.96032000  0.83197800  1
