# generated using pymatgen
data_KCu2SbS3
_symmetry_space_group_name_H-M   'P 1'
_cell_length_a   6.43702400
_cell_length_b   9.18959451
_cell_length_c   10.53234372
_cell_angle_alpha   90.71391815
_cell_angle_beta   91.02387033
_cell_angle_gamma   91.20299746
_symmetry_Int_Tables_number   1
_chemical_formula_structural   KCu2SbS3
_chemical_formula_sum   'K4 Cu8 Sb4 S12'
_cell_volume   622.73835772
_cell_formula_units_Z   4
loop_
 _symmetry_equiv_pos_site_id
 _symmetry_equiv_pos_as_xyz
  1  'x, y, z'
loop_
 _atom_site_type_symbol
 _atom_site_label
 _atom_site_symmetry_multiplicity
 _atom_site_fract_x
 _atom_site_fract_y
 _atom_site_fract_z
 _atom_site_occupancy
  K  K0  1  0.79950200  0.56895600  0.13039200  1
  K  K1  1  0.20049800  0.43104400  0.86960800  1
  K  K2  1  0.30488900  0.57410700  0.36778000  1
  K  K3  1  0.69511100  0.42589300  0.63222000  1
  Cu  Cu4  1  0.98258200  0.26248600  0.36146300  1
  Cu  Cu5  1  0.01741800  0.73751400  0.63853700  1
  Cu  Cu6  1  0.49995100  0.88631100  0.16900000  1
  Cu  Cu7  1  0.50004900  0.11368900  0.83100000  1
  Cu  Cu8  1  0.07675800  0.84351900  0.96248400  1
  Cu  Cu9  1  0.92324200  0.15648100  0.03751600  1
  Cu  Cu10  1  0.42453700  0.16052200  0.45418500  1
  Cu  Cu11  1  0.57546300  0.83947800  0.54581500  1
  Sb  Sb12  1  0.46320600  0.18139400  0.14828700  1
  Sb  Sb13  1  0.53679400  0.81860600  0.85171300  1
  Sb  Sb14  1  0.97163100  0.95566400  0.35294700  1
  Sb  Sb15  1  0.02836900  0.04433600  0.64705300  1
  S  S16  1  0.84387600  0.71715300  0.44577000  1
  S  S17  1  0.15612400  0.28284700  0.55423000  1
  S  S18  1  0.36113800  0.92529100  0.36416300  1
  S  S19  1  0.63886200  0.07470900  0.63583700  1
  S  S20  1  0.85153400  0.92405500  0.12677800  1
  S  S21  1  0.14846600  0.07594500  0.87322200  1
  S  S22  1  0.64692400  0.29002000  0.96037700  1
  S  S23  1  0.35307600  0.70998000  0.03962300  1
  S  S24  1  0.63631000  0.31124000  0.33467300  1
  S  S25  1  0.36369000  0.68876000  0.66532700  1
  S  S26  1  0.12757800  0.31307400  0.16938600  1
  S  S27  1  0.87242200  0.68692600  0.83061400  1
