# generated using pymatgen
data_SiH2
_symmetry_space_group_name_H-M   'P 1'
_cell_length_a   13.88744500
_cell_length_b   5.31104400
_cell_length_c   7.43114776
_cell_angle_alpha   79.44676021
_cell_angle_beta   90.00000000
_cell_angle_gamma   90.00000000
_symmetry_Int_Tables_number   1
_chemical_formula_structural   SiH2
_chemical_formula_sum   'Si10 H20'
_cell_volume   538.82691802
_cell_formula_units_Z   10
loop_
 _symmetry_equiv_pos_site_id
 _symmetry_equiv_pos_as_xyz
  1  'x, y, z'
loop_
 _atom_site_type_symbol
 _atom_site_label
 _atom_site_symmetry_multiplicity
 _atom_site_fract_x
 _atom_site_fract_y
 _atom_site_fract_z
 _atom_site_occupancy
  Si  Si0  1  0.75000000  0.54430000  0.58485600  1
  Si  Si1  1  0.25000000  0.45570000  0.41514400  1
  Si  Si2  1  0.61251900  0.31880900  0.71405800  1
  Si  Si3  1  0.11251900  0.68119100  0.28594200  1
  Si  Si4  1  0.38748100  0.68119100  0.28594200  1
  Si  Si5  1  0.88748100  0.31880900  0.71405800  1
  Si  Si6  1  0.66524000  0.07012100  0.99324500  1
  Si  Si7  1  0.16524000  0.92987900  0.00675500  1
  Si  Si8  1  0.33476000  0.92987900  0.00675500  1
  Si  Si9  1  0.83476000  0.07012100  0.99324500  1
  H  H10  1  0.57371100  0.15060200  0.58924400  1
  H  H11  1  0.07371100  0.84939800  0.41075600  1
  H  H12  1  0.42628900  0.84939800  0.41075600  1
  H  H13  1  0.92628900  0.15060200  0.58924400  1
  H  H14  1  0.75000000  0.58570400  0.38027800  1
  H  H15  1  0.25000000  0.41429600  0.61972200  1
  H  H16  1  0.62705800  0.80241300  0.01917900  1
  H  H17  1  0.12705800  0.19758700  0.98082100  1
  H  H18  1  0.37294200  0.19758700  0.98082100  1
  H  H19  1  0.87294200  0.80241300  0.01917900  1
  H  H20  1  0.53372100  0.49906700  0.74386000  1
  H  H21  1  0.03372100  0.50093300  0.25614000  1
  H  H22  1  0.46627900  0.50093300  0.25614000  1
  H  H23  1  0.96627900  0.49906700  0.74386000  1
  H  H24  1  0.63166300  0.18713600  0.15116200  1
  H  H25  1  0.13166300  0.81286400  0.84883800  1
  H  H26  1  0.36833700  0.81286400  0.84883800  1
  H  H27  1  0.86833700  0.18713600  0.15116200  1
  H  H28  1  0.75000000  0.80427400  0.63740300  1
  H  H29  1  0.25000000  0.19572600  0.36259700  1
