# generated using pymatgen
data_Cu5(SO9)2
_symmetry_space_group_name_H-M   'P 1'
_cell_length_a   5.39783358
_cell_length_b   5.77135527
_cell_length_c   11.59080521
_cell_angle_alpha   94.37624076
_cell_angle_beta   102.99212469
_cell_angle_gamma   89.26048987
_symmetry_Int_Tables_number   1
_chemical_formula_structural   Cu5(SO9)2
_chemical_formula_sum   'Cu5 S2 O18'
_cell_volume   350.81360018
_cell_formula_units_Z   1
loop_
 _symmetry_equiv_pos_site_id
 _symmetry_equiv_pos_as_xyz
  1  'x, y, z'
loop_
 _atom_site_type_symbol
 _atom_site_label
 _atom_site_symmetry_multiplicity
 _atom_site_fract_x
 _atom_site_fract_y
 _atom_site_fract_z
 _atom_site_occupancy
  Cu  Cu0  1  0.00000000  0.00000000  0.00000000  1
  Cu  Cu1  1  0.00000000  0.50000000  0.00000000  1
  Cu  Cu2  1  0.49667100  0.24983700  0.99931100  1
  Cu  Cu3  1  0.50332900  0.75016300  0.00068900  1
  Cu  Cu4  1  0.00000000  0.50000000  0.50000000  1
  S  S5  1  0.70112600  0.17525200  0.71330700  1
  S  S6  1  0.29887400  0.82474800  0.28669300  1
  O  O7  1  0.13642100  0.26152500  0.08550800  1
  O  O8  1  0.86357900  0.73847500  0.91449200  1
  O  O9  1  0.28890700  0.49636900  0.93550800  1
  O  O10  1  0.71109300  0.50363100  0.06449200  1
  O  O11  1  0.28894100  0.98688500  0.93543400  1
  O  O12  1  0.71105900  0.01311500  0.06456600  1
  O  O13  1  0.74163600  0.23630400  0.84517600  1
  O  O14  1  0.25836400  0.76369600  0.15482400  1
  O  O15  1  0.91302600  0.01284600  0.69734200  1
  O  O16  1  0.08697400  0.98715400  0.30265800  1
  O  O17  1  0.71734500  0.38687900  0.65056600  1
  O  O18  1  0.28265500  0.61312100  0.34943400  1
  O  O19  1  0.45158400  0.06041700  0.66861500  1
  O  O20  1  0.54841600  0.93958300  0.33138500  1
  O  O21  1  0.87180900  0.79433800  0.51077500  1
  O  O22  1  0.12819100  0.20566200  0.48922500  1
  O  O23  1  0.24483900  0.59908100  0.62091600  1
  O  O24  1  0.75516100  0.40091900  0.37908400  1
