# generated using pymatgen
data_MgVAgO4
_symmetry_space_group_name_H-M   'P 1'
_cell_length_a   5.39778500
_cell_length_b   6.81654600
_cell_length_c   9.57968500
_cell_angle_alpha   90.00000000
_cell_angle_beta   90.00000000
_cell_angle_gamma   90.00000000
_symmetry_Int_Tables_number   1
_chemical_formula_structural   MgVAgO4
_chemical_formula_sum   'Mg4 V4 Ag4 O16'
_cell_volume   352.47732242
_cell_formula_units_Z   4
loop_
 _symmetry_equiv_pos_site_id
 _symmetry_equiv_pos_as_xyz
  1  'x, y, z'
loop_
 _atom_site_type_symbol
 _atom_site_label
 _atom_site_symmetry_multiplicity
 _atom_site_fract_x
 _atom_site_fract_y
 _atom_site_fract_z
 _atom_site_occupancy
  Mg  Mg0  1  0.50000000  0.50000000  0.50000000  1
  Mg  Mg1  1  0.00000000  0.00000000  0.00000000  1
  Mg  Mg2  1  0.50000000  0.00000000  0.50000000  1
  Mg  Mg3  1  0.00000000  0.50000000  0.00000000  1
  V  V4  1  0.47527100  0.75000000  0.17947200  1
  V  V5  1  0.02472900  0.75000000  0.67947200  1
  V  V6  1  0.52472900  0.25000000  0.82052800  1
  V  V7  1  0.97527100  0.25000000  0.32052800  1
  Ag  Ag8  1  0.50149500  0.25000000  0.14987100  1
  Ag  Ag9  1  0.99850500  0.25000000  0.64987100  1
  Ag  Ag10  1  0.49850500  0.75000000  0.85012900  1
  Ag  Ag11  1  0.00149500  0.75000000  0.35012900  1
  O  O12  1  0.44018600  0.75000000  0.36736700  1
  O  O13  1  0.05981400  0.75000000  0.86736700  1
  O  O14  1  0.55981400  0.25000000  0.63263300  1
  O  O15  1  0.94018600  0.25000000  0.13263300  1
  O  O16  1  0.78430300  0.75000000  0.11608500  1
  O  O17  1  0.71569700  0.75000000  0.61608500  1
  O  O18  1  0.21569700  0.25000000  0.88391500  1
  O  O19  1  0.28430300  0.25000000  0.38391500  1
  O  O20  1  0.31378700  0.94934800  0.11521900  1
  O  O21  1  0.18621300  0.55065200  0.61521900  1
  O  O22  1  0.68621300  0.44934800  0.88478100  1
  O  O23  1  0.81378700  0.05065200  0.38478100  1
  O  O24  1  0.68621300  0.05065200  0.88478100  1
  O  O25  1  0.81378700  0.44934800  0.38478100  1
  O  O26  1  0.31378700  0.55065200  0.11521900  1
  O  O27  1  0.18621300  0.94934800  0.61521900  1
