# generated using pymatgen
data_SrP2(HO4)2
_symmetry_space_group_name_H-M   'P 1'
_cell_length_a   6.87011200
_cell_length_b   7.11541395
_cell_length_c   7.93770458
_cell_angle_alpha   103.06966828
_cell_angle_beta   98.03734414
_cell_angle_gamma   109.12409361
_symmetry_Int_Tables_number   1
_chemical_formula_structural   SrP2(HO4)2
_chemical_formula_sum   'Sr2 P4 H4 O16'
_cell_volume   347.33369335
_cell_formula_units_Z   2
loop_
 _symmetry_equiv_pos_site_id
 _symmetry_equiv_pos_as_xyz
  1  'x, y, z'
loop_
 _atom_site_type_symbol
 _atom_site_label
 _atom_site_symmetry_multiplicity
 _atom_site_fract_x
 _atom_site_fract_y
 _atom_site_fract_z
 _atom_site_occupancy
  Sr  Sr0  1  0.76660000  0.78282900  0.09721600  1
  Sr  Sr1  1  0.23340000  0.21717100  0.90278400  1
  P  P2  1  0.78592800  0.70048000  0.57966100  1
  P  P3  1  0.21407200  0.29952000  0.42033900  1
  P  P4  1  0.73323900  0.22137000  0.90937200  1
  P  P5  1  0.26676100  0.77863000  0.09062800  1
  H  H6  1  0.86343600  0.38565600  0.70643500  1
  H  H7  1  0.13656400  0.61434400  0.29356500  1
  H  H8  1  0.53139200  0.90408000  0.73929800  1
  H  H9  1  0.46860800  0.09592000  0.26070200  1
  O  O10  1  0.65514300  0.38625600  0.99660900  1
  O  O11  1  0.34485700  0.61374400  0.00339100  1
  O  O12  1  0.89015100  0.30012800  0.78833400  1
  O  O13  1  0.10984900  0.69987200  0.21166600  1
  O  O14  1  0.65005800  0.71857300  0.71770800  1
  O  O15  1  0.34994200  0.28142700  0.28229200  1
  O  O16  1  0.85223100  0.51340600  0.58127100  1
  O  O17  1  0.14776900  0.48659400  0.41872900  1
  O  O18  1  0.85772900  0.13269200  0.02111900  1
  O  O19  1  0.14227100  0.86730800  0.97888100  1
  O  O20  1  0.98081000  0.90498800  0.63288100  1
  O  O21  1  0.01919000  0.09501200  0.36711900  1
  O  O22  1  0.67420300  0.67118900  0.38802800  1
  O  O23  1  0.32579700  0.32881100  0.61197200  1
  O  O24  1  0.51692200  0.04049800  0.78497000  1
  O  O25  1  0.48307800  0.95950200  0.21503000  1
