# generated using pymatgen
data_CdSO5
_symmetry_space_group_name_H-M   'P 1'
_cell_length_a   7.70884400
_cell_length_b   7.70204500
_cell_length_c   8.24870888
_cell_angle_alpha   57.73337351
_cell_angle_beta   90.00000000
_cell_angle_gamma   90.00000000
_symmetry_Int_Tables_number   1
_chemical_formula_structural   CdSO5
_chemical_formula_sum   'Cd4 S4 O20'
_cell_volume   414.12586912
_cell_formula_units_Z   4
loop_
 _symmetry_equiv_pos_site_id
 _symmetry_equiv_pos_as_xyz
  1  'x, y, z'
loop_
 _atom_site_type_symbol
 _atom_site_label
 _atom_site_symmetry_multiplicity
 _atom_site_fract_x
 _atom_site_fract_y
 _atom_site_fract_z
 _atom_site_occupancy
  Cd  Cd0  1  0.24271600  0.77419000  0.46593000  1
  Cd  Cd1  1  0.74271600  0.22581000  0.03407000  1
  Cd  Cd2  1  0.75728400  0.22581000  0.53407000  1
  Cd  Cd3  1  0.25728400  0.77419000  0.96593000  1
  S  S4  1  0.88531900  0.74466600  0.73830800  1
  S  S5  1  0.38531900  0.25533400  0.76169200  1
  S  S6  1  0.11468100  0.25533400  0.26169200  1
  S  S7  1  0.61468100  0.74466600  0.23830800  1
  O  O8  1  0.00514700  0.86405500  0.78508600  1
  O  O9  1  0.50514600  0.13594500  0.71491400  1
  O  O10  1  0.99485300  0.13594500  0.21491400  1
  O  O11  1  0.49485300  0.86405500  0.28508600  1
  O  O12  1  0.74190400  0.88747000  0.62046500  1
  O  O13  1  0.24190400  0.11253000  0.87953500  1
  O  O14  1  0.25809600  0.11253000  0.37953500  1
  O  O15  1  0.75809600  0.88747000  0.12046500  1
  O  O16  1  0.97962300  0.67085100  0.62770500  1
  O  O17  1  0.47962300  0.32914900  0.87229500  1
  O  O18  1  0.02037700  0.32914900  0.37229500  1
  O  O19  1  0.52037700  0.67085100  0.12770500  1
  O  O20  1  0.81284100  0.56578000  0.91426700  1
  O  O21  1  0.31284100  0.43422000  0.58573300  1
  O  O22  1  0.18715900  0.43422000  0.08573300  1
  O  O23  1  0.68715900  0.56578000  0.41426700  1
  O  O24  1  0.37191200  0.73227500  0.73411300  1
  O  O25  1  0.87191200  0.26772500  0.76588700  1
  O  O26  1  0.62808800  0.26772500  0.26588700  1
  O  O27  1  0.12808800  0.73227500  0.23411300  1
