# generated using pymatgen
data_H6C2SO4
_symmetry_space_group_name_H-M   'P 1'
_cell_length_a   6.28924500
_cell_length_b   7.21354035
_cell_length_c   9.08701151
_cell_angle_alpha   74.94463611
_cell_angle_beta   69.75367399
_cell_angle_gamma   64.15529906
_symmetry_Int_Tables_number   1
_chemical_formula_structural   H6C2SO4
_chemical_formula_sum   'H12 C4 S2 O8'
_cell_volume   345.19153204
_cell_formula_units_Z   2
loop_
 _symmetry_equiv_pos_site_id
 _symmetry_equiv_pos_as_xyz
  1  'x, y, z'
loop_
 _atom_site_type_symbol
 _atom_site_label
 _atom_site_symmetry_multiplicity
 _atom_site_fract_x
 _atom_site_fract_y
 _atom_site_fract_z
 _atom_site_occupancy
  H  H0  1  0.24623100  0.17101000  0.11291800  1
  H  H1  1  0.53015900  0.32899000  0.38708200  1
  H  H2  1  0.75376900  0.82899000  0.88708200  1
  H  H3  1  0.46984100  0.67101000  0.61291800  1
  H  H4  1  0.05995800  0.11295500  0.30460600  1
  H  H5  1  0.47751800  0.38704500  0.19539400  1
  H  H6  1  0.94004200  0.88704500  0.69539400  1
  H  H7  1  0.52248200  0.61295500  0.80460600  1
  H  H8  1  0.38874100  0.97291200  0.25624900  1
  H  H9  1  0.61790200  0.52708800  0.24375100  1
  H  H10  1  0.61125900  0.02708800  0.74375100  1
  H  H11  1  0.38209800  0.47291200  0.75624900  1
  C  C12  1  0.22620200  0.04874500  0.21064100  1
  C  C13  1  0.48558800  0.45125500  0.28935900  1
  C  C14  1  0.77379800  0.95125500  0.78935900  1
  C  C15  1  0.51441200  0.54874500  0.71064100  1
  S  S16  1  0.07026100  0.75000000  0.25000000  1
  S  S17  1  0.92973900  0.25000000  0.75000000  1
  O  O18  1  0.06949000  0.63741800  0.14111600  1
  O  O19  1  0.84802400  0.86258200  0.35888400  1
  O  O20  1  0.93051000  0.36258200  0.85888400  1
  O  O21  1  0.15197600  0.13741800  0.64111600  1
  O  O22  1  0.20512000  0.89918300  0.14008600  1
  O  O23  1  0.24438900  0.60081700  0.35991400  1
  O  O24  1  0.79488000  0.10081700  0.85991400  1
  O  O25  1  0.75561100  0.39918300  0.64008600  1
