# generated using pymatgen
data_ZnN6
_symmetry_space_group_name_H-M   'P 1'
_cell_length_a   3.55660000
_cell_length_b   16.69050400
_cell_length_c   7.72296837
_cell_angle_alpha   90.00000000
_cell_angle_beta   112.97475051
_cell_angle_gamma   90.00000000
_symmetry_Int_Tables_number   1
_chemical_formula_structural   ZnN6
_chemical_formula_sum   'Zn4 N24'
_cell_volume   422.08119556
_cell_formula_units_Z   4
loop_
 _symmetry_equiv_pos_site_id
 _symmetry_equiv_pos_as_xyz
  1  'x, y, z'
loop_
 _atom_site_type_symbol
 _atom_site_label
 _atom_site_symmetry_multiplicity
 _atom_site_fract_x
 _atom_site_fract_y
 _atom_site_fract_z
 _atom_site_occupancy
  Zn  Zn0  1  0.93682200  0.91602100  0.39939900  1
  Zn  Zn1  1  0.93682200  0.58397900  0.89939900  1
  Zn  Zn2  1  0.06317800  0.08397900  0.60060100  1
  Zn  Zn3  1  0.06317800  0.41602100  0.10060100  1
  N  N4  1  0.38203100  0.86455000  0.33621400  1
  N  N5  1  0.38203100  0.63545000  0.83621400  1
  N  N6  1  0.61796900  0.13545000  0.66378600  1
  N  N7  1  0.61796900  0.36455000  0.16378600  1
  N  N8  1  0.29291100  0.80328000  0.24042800  1
  N  N9  1  0.29291100  0.69672000  0.74042800  1
  N  N10  1  0.70708900  0.19672000  0.75957200  1
  N  N11  1  0.70708900  0.30328000  0.25957200  1
  N  N12  1  0.20593300  0.74605200  0.15070300  1
  N  N13  1  0.20593300  0.75394800  0.65070300  1
  N  N14  1  0.79406700  0.25394800  0.84929700  1
  N  N15  1  0.79406700  0.24605200  0.34929700  1
  N  N16  1  0.16279100  0.96380400  0.66621200  1
  N  N17  1  0.16279100  0.53619600  0.16621200  1
  N  N18  1  0.83720900  0.03619600  0.33378800  1
  N  N19  1  0.83720900  0.46380400  0.83378800  1
  N  N20  1  0.39020400  0.93422400  0.81418200  1
  N  N21  1  0.39020400  0.56577600  0.31418200  1
  N  N22  1  0.60979600  0.06577600  0.18581800  1
  N  N23  1  0.60979600  0.43422400  0.68581800  1
  N  N24  1  0.60395900  0.90641500  0.95474700  1
  N  N25  1  0.60395900  0.59358500  0.45474700  1
  N  N26  1  0.39604100  0.09358500  0.04525300  1
  N  N27  1  0.39604100  0.40641500  0.54525300  1
