# generated using pymatgen
data_Li5W2O7
_symmetry_space_group_name_H-M   'P 1'
_cell_length_a   5.45457187
_cell_length_b   6.29950681
_cell_length_c   9.43507408
_cell_angle_alpha   72.16929453
_cell_angle_beta   79.23304061
_cell_angle_gamma   67.76246437
_symmetry_Int_Tables_number   1
_chemical_formula_structural   Li5W2O7
_chemical_formula_sum   'Li10 W4 O14'
_cell_volume   284.74498409
_cell_formula_units_Z   2
loop_
 _symmetry_equiv_pos_site_id
 _symmetry_equiv_pos_as_xyz
  1  'x, y, z'
loop_
 _atom_site_type_symbol
 _atom_site_label
 _atom_site_symmetry_multiplicity
 _atom_site_fract_x
 _atom_site_fract_y
 _atom_site_fract_z
 _atom_site_occupancy
  Li  Li0  1  0.49556700  0.20486800  0.99465100  1
  Li  Li1  1  0.50443300  0.79513200  0.00534900  1
  Li  Li2  1  0.23062700  0.54511600  0.56745200  1
  Li  Li3  1  0.76937300  0.45488400  0.43254800  1
  Li  Li4  1  0.36231900  0.87074500  0.29990700  1
  Li  Li5  1  0.63768100  0.12925500  0.70009300  1
  Li  Li6  1  0.22962100  0.05680500  0.56311200  1
  Li  Li7  1  0.77037900  0.94319500  0.43688800  1
  Li  Li8  1  0.92929600  0.85079300  0.13993200  1
  Li  Li9  1  0.07070400  0.14920700  0.86006800  1
  W  W10  1  0.93469200  0.30980300  0.14345700  1
  W  W11  1  0.06530800  0.69019700  0.85654300  1
  W  W12  1  0.34643800  0.40111300  0.29728500  1
  W  W13  1  0.65356200  0.59888700  0.70271500  1
  O  O14  1  0.20447100  0.04383000  0.07121500  1
  O  O15  1  0.79552900  0.95617000  0.92878500  1
  O  O16  1  0.49247800  0.25451800  0.49255000  1
  O  O17  1  0.50752200  0.74548200  0.50745000  1
  O  O18  1  0.61858200  0.58090500  0.21799200  1
  O  O19  1  0.38141800  0.41909400  0.78200800  1
  O  O20  1  0.17996800  0.51598700  0.08481400  1
  O  O21  1  0.82003200  0.48401300  0.91518600  1
  O  O22  1  0.08886900  0.67135200  0.34840000  1
  O  O23  1  0.91113100  0.32864800  0.65160000  1
  O  O24  1  0.89127900  0.80124400  0.65190000  1
  O  O25  1  0.10872100  0.19875600  0.34810000  1
  O  O26  1  0.35506600  0.85366500  0.79066300  1
  O  O27  1  0.64493400  0.14633500  0.20933700  1
