# generated using pymatgen
data_V3H4NO7
_symmetry_space_group_name_H-M   'P 1'
_cell_length_a   3.80092900
_cell_length_b   8.48305848
_cell_length_c   10.12876805
_cell_angle_alpha   84.16490637
_cell_angle_beta   79.18546961
_cell_angle_gamma   77.05411728
_symmetry_Int_Tables_number   1
_chemical_formula_structural   V3H4NO7
_chemical_formula_sum   'V6 H8 N2 O14'
_cell_volume   312.02580930
_cell_formula_units_Z   2
loop_
 _symmetry_equiv_pos_site_id
 _symmetry_equiv_pos_as_xyz
  1  'x, y, z'
loop_
 _atom_site_type_symbol
 _atom_site_label
 _atom_site_symmetry_multiplicity
 _atom_site_fract_x
 _atom_site_fract_y
 _atom_site_fract_z
 _atom_site_occupancy
  V  V0  1  0.29325900  0.86305900  0.55042200  1
  V  V1  1  0.70674100  0.13694100  0.44957800  1
  V  V2  1  0.55619800  0.55764500  0.32995900  1
  V  V3  1  0.44380200  0.44235500  0.67004100  1
  V  V4  1  0.05897000  0.15651100  0.72554900  1
  V  V5  1  0.94103000  0.84348900  0.27445100  1
  H  H6  1  0.68222300  0.80855500  0.82699900  1
  H  H7  1  0.31777700  0.19144500  0.17300100  1
  H  H8  1  0.84147300  0.77680800  0.97610500  1
  H  H9  1  0.59438600  0.22319200  0.02389500  1
  H  H10  1  0.15852700  0.22319200  0.02389500  1
  H  H11  1  0.40561400  0.77680800  0.97610500  1
  H  H12  1  0.73551000  0.62345000  0.90552900  1
  H  H13  1  0.26449000  0.37655000  0.09447100  1
  N  N14  1  0.66757000  0.74532400  0.91953700  1
  N  N15  1  0.33243000  0.25467600  0.08046300  1
  O  O16  1  0.18606600  0.91062500  0.71724300  1
  O  O17  1  0.81393400  0.08937500  0.28275700  1
  O  O18  1  0.42915200  0.80928700  0.33241000  1
  O  O19  1  0.57084800  0.19071300  0.66759000  1
  O  O20  1  0.19855900  0.10485600  0.49802600  1
  O  O21  1  0.80144100  0.89514400  0.50197400  1
  O  O22  1  0.39784500  0.62925800  0.57505300  1
  O  O23  1  0.60215500  0.37074200  0.42494700  1
  O  O24  1  0.97697100  0.38779500  0.65826300  1
  O  O25  1  0.02302900  0.61220500  0.34173700  1
  O  O26  1  0.65932300  0.50954500  0.17180900  1
  O  O27  1  0.34067700  0.49045500  0.82819100  1
  O  O28  1  0.97243000  0.16120700  0.89393200  1
  O  O29  1  0.02757000  0.83879300  0.10606800  1
