# generated using pymatgen
data_KICl4O
_symmetry_space_group_name_H-M   'P 1'
_cell_length_a   13.73148100
_cell_length_b   4.81540100
_cell_length_c   13.18735266
_cell_angle_alpha   75.56939322
_cell_angle_beta   90.00000000
_cell_angle_gamma   90.00000000
_symmetry_Int_Tables_number   1
_chemical_formula_structural   KICl4O
_chemical_formula_sum   'K4 I4 Cl16 O4'
_cell_volume   844.47100295
_cell_formula_units_Z   4
loop_
 _symmetry_equiv_pos_site_id
 _symmetry_equiv_pos_as_xyz
  1  'x, y, z'
loop_
 _atom_site_type_symbol
 _atom_site_label
 _atom_site_symmetry_multiplicity
 _atom_site_fract_x
 _atom_site_fract_y
 _atom_site_fract_z
 _atom_site_occupancy
  K  K0  1  0.66187900  0.84612800  0.42952500  1
  K  K1  1  0.83812100  0.84612800  0.92952500  1
  K  K2  1  0.33812100  0.15387200  0.57047500  1
  K  K3  1  0.16187900  0.15387200  0.07047500  1
  I  I4  1  0.05629700  0.30293400  0.70397100  1
  I  I5  1  0.44370300  0.30293400  0.20397100  1
  I  I6  1  0.94370300  0.69706600  0.29602900  1
  I  I7  1  0.55629700  0.69706600  0.79602900  1
  Cl  Cl8  1  0.22052200  0.51829200  0.72496900  1
  Cl  Cl9  1  0.27947800  0.51829200  0.22496900  1
  Cl  Cl10  1  0.77947800  0.48170800  0.27503100  1
  Cl  Cl11  1  0.72052200  0.48170800  0.77503100  1
  Cl  Cl12  1  0.89620100  0.07184800  0.68421800  1
  Cl  Cl13  1  0.60379900  0.07184800  0.18421800  1
  Cl  Cl14  1  0.10379900  0.92815200  0.31578200  1
  Cl  Cl15  1  0.39620100  0.92815200  0.81578200  1
  Cl  Cl16  1  0.00197700  0.36925300  0.88723200  1
  Cl  Cl17  1  0.49802300  0.36925300  0.38723200  1
  Cl  Cl18  1  0.99802300  0.63074700  0.11276800  1
  Cl  Cl19  1  0.50197700  0.63074700  0.61276800  1
  Cl  Cl20  1  0.10833200  0.21891600  0.53657400  1
  Cl  Cl21  1  0.39166800  0.21891600  0.03657400  1
  Cl  Cl22  1  0.89166800  0.78108400  0.46342600  1
  Cl  Cl23  1  0.60833200  0.78108400  0.96342600  1
  O  O24  1  0.28475300  0.71834100  0.45966000  1
  O  O25  1  0.21524700  0.71834100  0.95966000  1
  O  O26  1  0.71524700  0.28165900  0.54034000  1
  O  O27  1  0.78475300  0.28165900  0.04034000  1
