# generated using pymatgen
data_NpClO10
_symmetry_space_group_name_H-M   'P 1'
_cell_length_a   6.14985700
_cell_length_b   9.13461904
_cell_length_c   9.34662083
_cell_angle_alpha   106.71772341
_cell_angle_beta   90.00000000
_cell_angle_gamma   90.00000000
_symmetry_Int_Tables_number   1
_chemical_formula_structural   NpClO10
_chemical_formula_sum   'Np2 Cl2 O20'
_cell_volume   502.86891161
_cell_formula_units_Z   2
loop_
 _symmetry_equiv_pos_site_id
 _symmetry_equiv_pos_as_xyz
  1  'x, y, z'
loop_
 _atom_site_type_symbol
 _atom_site_label
 _atom_site_symmetry_multiplicity
 _atom_site_fract_x
 _atom_site_fract_y
 _atom_site_fract_z
 _atom_site_occupancy
  Np  Np0  1  0.02961800  0.79026000  0.47997200  1
  Np  Np1  1  0.52961800  0.20974000  0.52002800  1
  Cl  Cl2  1  0.00475000  0.27301200  0.03716200  1
  Cl  Cl3  1  0.50475000  0.72698800  0.96283800  1
  O  O4  1  0.22151000  0.95201100  0.52867500  1
  O  O5  1  0.72151000  0.04798900  0.47132500  1
  O  O6  1  0.81138400  0.64850500  0.43162600  1
  O  O7  1  0.31138400  0.35149500  0.56837400  1
  O  O8  1  0.99754300  0.82470600  0.29878300  1
  O  O9  1  0.49754300  0.17529400  0.70121700  1
  O  O10  1  0.88320500  0.87947300  0.65236100  1
  O  O11  1  0.38320500  0.12052700  0.34763900  1
  O  O12  1  0.24890500  0.65855300  0.35682100  1
  O  O13  1  0.74890500  0.34144700  0.64317900  1
  O  O14  1  0.15644300  0.69226000  0.61721800  1
  O  O15  1  0.65644300  0.30774000  0.38278200  1
  O  O16  1  0.05537000  0.22080800  0.88094100  1
  O  O17  1  0.55537000  0.77919200  0.11905900  1
  O  O18  1  0.87792300  0.16482300  0.08666000  1
  O  O19  1  0.37792300  0.83517700  0.91334000  1
  O  O20  1  0.20615200  0.31685300  0.12899400  1
  O  O21  1  0.70615200  0.68314700  0.87100600  1
  O  O22  1  0.89719600  0.42601100  0.07692100  1
  O  O23  1  0.39719600  0.57398900  0.92307900  1
