# generated using pymatgen
data_Cs2ZnI4
_symmetry_space_group_name_H-M   'P 1'
_cell_length_a   8.56644600
_cell_length_b   11.10700000
_cell_length_c   14.87636700
_cell_angle_alpha   90.00000000
_cell_angle_beta   90.00000000
_cell_angle_gamma   90.00000000
_symmetry_Int_Tables_number   1
_chemical_formula_structural   Cs2ZnI4
_chemical_formula_sum   'Cs8 Zn4 I16'
_cell_volume   1415.44936302
_cell_formula_units_Z   4
loop_
 _symmetry_equiv_pos_site_id
 _symmetry_equiv_pos_as_xyz
  1  'x, y, z'
loop_
 _atom_site_type_symbol
 _atom_site_label
 _atom_site_symmetry_multiplicity
 _atom_site_fract_x
 _atom_site_fract_y
 _atom_site_fract_z
 _atom_site_occupancy
  Cs  Cs0  1  0.25000000  0.52359900  0.16763400  1
  Cs  Cs1  1  0.25000000  0.02359900  0.33236600  1
  Cs  Cs2  1  0.75000000  0.47640100  0.83236600  1
  Cs  Cs3  1  0.75000000  0.97640100  0.66763400  1
  Cs  Cs4  1  0.25000000  0.86843000  0.89636300  1
  Cs  Cs5  1  0.25000000  0.36843000  0.60363700  1
  Cs  Cs6  1  0.75000000  0.13157000  0.10363700  1
  Cs  Cs7  1  0.75000000  0.63157000  0.39636300  1
  Zn  Zn8  1  0.25000000  0.26415100  0.92253500  1
  Zn  Zn9  1  0.25000000  0.76415100  0.57746500  1
  Zn  Zn10  1  0.75000000  0.73584900  0.07746500  1
  Zn  Zn11  1  0.75000000  0.23584900  0.42253500  1
  I  I12  1  0.25000000  0.50119900  0.90208200  1
  I  I13  1  0.25000000  0.00119900  0.59791800  1
  I  I14  1  0.75000000  0.49880100  0.09791800  1
  I  I15  1  0.75000000  0.99880100  0.40208200  1
  I  I16  1  0.25000000  0.18901500  0.09107100  1
  I  I17  1  0.25000000  0.68901400  0.40892900  1
  I  I18  1  0.75000000  0.81098600  0.90892900  1
  I  I19  1  0.75000000  0.31098600  0.59107100  1
  I  I20  1  0.50288300  0.17352500  0.84592500  1
  I  I21  1  0.99711700  0.67352500  0.65407500  1
  I  I22  1  0.00288300  0.82647500  0.15407500  1
  I  I23  1  0.49711700  0.32647500  0.34592500  1
  I  I24  1  0.49711700  0.82647500  0.15407500  1
  I  I25  1  0.00288300  0.32647500  0.34592500  1
  I  I26  1  0.99711700  0.17352500  0.84592500  1
  I  I27  1  0.50288300  0.67352500  0.65407500  1
