# generated using pymatgen
data_YbWBrO4
_symmetry_space_group_name_H-M   'P 1'
_cell_length_a   6.62902400
_cell_length_b   7.30581548
_cell_length_c   11.82341891
_cell_angle_alpha   75.11571255
_cell_angle_beta   76.18798374
_cell_angle_gamma   86.09732078
_symmetry_Int_Tables_number   1
_chemical_formula_structural   YbWBrO4
_chemical_formula_sum   'Yb4 W4 Br4 O16'
_cell_volume   537.38423298
_cell_formula_units_Z   4
loop_
 _symmetry_equiv_pos_site_id
 _symmetry_equiv_pos_as_xyz
  1  'x, y, z'
loop_
 _atom_site_type_symbol
 _atom_site_label
 _atom_site_symmetry_multiplicity
 _atom_site_fract_x
 _atom_site_fract_y
 _atom_site_fract_z
 _atom_site_occupancy
  Yb  Yb0  1  0.07464900  0.10441500  0.26883100  1
  Yb  Yb1  1  0.92535100  0.89558500  0.73116900  1
  Yb  Yb2  1  0.36546100  0.65011700  0.24842000  1
  Yb  Yb3  1  0.63453900  0.34988300  0.75158000  1
  W  W4  1  0.42444300  0.81484200  0.86893800  1
  W  W5  1  0.57555700  0.18515800  0.13106200  1
  W  W6  1  0.86927300  0.57539000  0.38060500  1
  W  W7  1  0.13072700  0.42461000  0.61939500  1
  Br  Br8  1  0.26093200  0.00021100  0.49674700  1
  Br  Br9  1  0.73906800  0.99978900  0.50325300  1
  Br  Br10  1  0.76692300  0.71019000  0.01842900  1
  Br  Br11  1  0.23307700  0.28981000  0.98157100  1
  O  O12  1  0.38866700  0.73661700  0.03593800  1
  O  O13  1  0.61133300  0.26338300  0.96406200  1
  O  O14  1  0.17461100  0.86554400  0.83401600  1
  O  O15  1  0.82538900  0.13445600  0.16598400  1
  O  O16  1  0.56226900  0.64172300  0.79433700  1
  O  O17  1  0.43773100  0.35827700  0.20566300  1
  O  O18  1  0.40759500  0.98019200  0.19689100  1
  O  O19  1  0.59240500  0.01980800  0.80310900  1
  O  O20  1  0.62252100  0.63699700  0.34348900  1
  O  O21  1  0.37747900  0.36300300  0.65651100  1
  O  O22  1  0.97370700  0.39172200  0.30567300  1
  O  O23  1  0.02629300  0.60827800  0.69432700  1
  O  O24  1  0.80745200  0.49993300  0.54824900  1
  O  O25  1  0.19254800  0.50006700  0.45175100  1
  O  O26  1  0.03425100  0.78307900  0.30211300  1
  O  O27  1  0.96574900  0.21692100  0.69788700  1
