# generated using pymatgen
data_NaSbBrOF3
_symmetry_space_group_name_H-M   'P 1'
_cell_length_a   5.82516583
_cell_length_b   7.82960848
_cell_length_c   12.01596000
_cell_angle_alpha   90.00000000
_cell_angle_beta   90.00000000
_cell_angle_gamma   95.65441396
_symmetry_Int_Tables_number   1
_chemical_formula_structural   NaSbBrOF3
_chemical_formula_sum   'Na4 Sb4 Br4 O4 F12'
_cell_volume   545.36655152
_cell_formula_units_Z   4
loop_
 _symmetry_equiv_pos_site_id
 _symmetry_equiv_pos_as_xyz
  1  'x, y, z'
loop_
 _atom_site_type_symbol
 _atom_site_label
 _atom_site_symmetry_multiplicity
 _atom_site_fract_x
 _atom_site_fract_y
 _atom_site_fract_z
 _atom_site_occupancy
  Na  Na0  1  0.80419200  0.00247600  0.37105600  1
  Na  Na1  1  0.69580800  0.99752400  0.87105600  1
  Na  Na2  1  0.19580800  0.99752400  0.62894400  1
  Na  Na3  1  0.30419200  0.00247600  0.12894400  1
  Sb  Sb4  1  0.68544800  0.31817800  0.59637900  1
  Sb  Sb5  1  0.81455200  0.68182200  0.09637900  1
  Sb  Sb6  1  0.31455200  0.68182200  0.40362100  1
  Sb  Sb7  1  0.18544800  0.31817800  0.90362100  1
  Br  Br8  1  0.74632100  0.47843700  0.36307200  1
  Br  Br9  1  0.75367900  0.52156300  0.86307200  1
  Br  Br10  1  0.25367900  0.52156300  0.63692800  1
  Br  Br11  1  0.24632100  0.47843700  0.13692800  1
  O  O12  1  0.17992900  0.22491100  0.25068100  1
  O  O13  1  0.32007100  0.77508900  0.75068100  1
  O  O14  1  0.82007100  0.77508900  0.74931900  1
  O  O15  1  0.67992900  0.22491100  0.24931900  1
  F  F16  1  0.94095900  0.84724500  0.21444300  1
  F  F17  1  0.55904100  0.15275500  0.71444300  1
  F  F18  1  0.05904100  0.15275500  0.78555700  1
  F  F19  1  0.44095900  0.84724500  0.28555700  1
  F  F20  1  0.44584500  0.19045900  0.50615800  1
  F  F21  1  0.05415500  0.80954100  0.00615800  1
  F  F22  1  0.55415500  0.80954100  0.49384200  1
  F  F23  1  0.94584500  0.19045900  0.99384200  1
  F  F24  1  0.10698600  0.85414900  0.45590000  1
  F  F25  1  0.39301400  0.14585100  0.95590000  1
  F  F26  1  0.89301400  0.14585100  0.54410000  1
  F  F27  1  0.60698600  0.85414900  0.04410000  1
