# generated using pymatgen
data_UBiO5
_symmetry_space_group_name_H-M   'P 1'
_cell_length_a   7.99145800
_cell_length_b   7.50289300
_cell_length_c   10.42108930
_cell_angle_alpha   46.85362081
_cell_angle_beta   90.00000000
_cell_angle_gamma   90.00000000
_symmetry_Int_Tables_number   1
_chemical_formula_structural   UBiO5
_chemical_formula_sum   'U4 Bi4 O20'
_cell_volume   455.88787665
_cell_formula_units_Z   4
loop_
 _symmetry_equiv_pos_site_id
 _symmetry_equiv_pos_as_xyz
  1  'x, y, z'
loop_
 _atom_site_type_symbol
 _atom_site_label
 _atom_site_symmetry_multiplicity
 _atom_site_fract_x
 _atom_site_fract_y
 _atom_site_fract_z
 _atom_site_occupancy
  U  U0  1  0.50159900  0.15763700  0.18643000  1
  U  U1  1  0.99840100  0.15763700  0.68643000  1
  U  U2  1  0.49840100  0.84236300  0.81357000  1
  U  U3  1  0.00159900  0.84236300  0.31357000  1
  Bi  Bi4  1  0.11470900  0.57016200  0.82138400  1
  Bi  Bi5  1  0.38529100  0.57016200  0.32138400  1
  Bi  Bi6  1  0.88529100  0.42983800  0.17861600  1
  Bi  Bi7  1  0.61470900  0.42983800  0.67861600  1
  O  O8  1  0.09554300  0.86294000  0.46558600  1
  O  O9  1  0.40445700  0.86294000  0.96558600  1
  O  O10  1  0.90445700  0.13706000  0.53441400  1
  O  O11  1  0.59554300  0.13706000  0.03441400  1
  O  O12  1  0.39771200  0.21186000  0.31743000  1
  O  O13  1  0.10228800  0.21186000  0.81743000  1
  O  O14  1  0.60228800  0.78814000  0.68257000  1
  O  O15  1  0.89771200  0.78814000  0.18257000  1
  O  O16  1  0.35413100  0.47847700  0.94694900  1
  O  O17  1  0.14586900  0.47847700  0.44694900  1
  O  O18  1  0.64586900  0.52152300  0.05305100  1
  O  O19  1  0.85413100  0.52152300  0.55305100  1
  O  O20  1  0.00264800  0.73875800  0.91158600  1
  O  O21  1  0.49735200  0.73875800  0.41158600  1
  O  O22  1  0.99735200  0.26124200  0.08841400  1
  O  O23  1  0.50264800  0.26124200  0.58841400  1
  O  O24  1  0.23797900  0.94334900  0.69458100  1
  O  O25  1  0.26202100  0.94334900  0.19458100  1
  O  O26  1  0.76202100  0.05665100  0.30541900  1
  O  O27  1  0.73797900  0.05665100  0.80541900  1
