# generated using pymatgen
data_Cs2HgBr4
_symmetry_space_group_name_H-M   'P 1'
_cell_length_a   10.50237800
_cell_length_b   8.15913700
_cell_length_c   16.57719240
_cell_angle_alpha   60.64187725
_cell_angle_beta   90.00000000
_cell_angle_gamma   90.00000000
_symmetry_Int_Tables_number   1
_chemical_formula_structural   Cs2HgBr4
_chemical_formula_sum   'Cs8 Hg4 Br16'
_cell_volume   1238.07315467
_cell_formula_units_Z   4
loop_
 _symmetry_equiv_pos_site_id
 _symmetry_equiv_pos_as_xyz
  1  'x, y, z'
loop_
 _atom_site_type_symbol
 _atom_site_label
 _atom_site_symmetry_multiplicity
 _atom_site_fract_x
 _atom_site_fract_y
 _atom_site_fract_z
 _atom_site_occupancy
  Cs  Cs0  1  0.38193000  0.84194800  0.39895500  1
  Cs  Cs1  1  0.61807000  0.15805200  0.60104500  1
  Cs  Cs2  1  0.11807000  0.84194800  0.89895500  1
  Cs  Cs3  1  0.88193000  0.15805200  0.10104500  1
  Cs  Cs4  1  0.51587800  0.41023500  0.82909900  1
  Cs  Cs5  1  0.48412200  0.58976500  0.17090100  1
  Cs  Cs6  1  0.98412200  0.41023500  0.32909900  1
  Cs  Cs7  1  0.01587800  0.58976500  0.67090100  1
  Hg  Hg8  1  0.27703600  0.17727800  0.07586300  1
  Hg  Hg9  1  0.72296400  0.82272200  0.92413700  1
  Hg  Hg10  1  0.22296400  0.17727800  0.57586300  1
  Hg  Hg11  1  0.77703600  0.82272200  0.42413700  1
  Br  Br12  1  0.52859200  0.15550800  0.08888100  1
  Br  Br13  1  0.47140800  0.84449200  0.91111900  1
  Br  Br14  1  0.97140800  0.15550800  0.58888100  1
  Br  Br15  1  0.02859200  0.84449200  0.41111900  1
  Br  Br16  1  0.17630500  0.30464700  0.90747400  1
  Br  Br17  1  0.82369500  0.69535300  0.09252600  1
  Br  Br18  1  0.32369500  0.30464700  0.40747400  1
  Br  Br19  1  0.67630500  0.69535300  0.59252600  1
  Br  Br20  1  0.17513900  0.39701900  0.13661400  1
  Br  Br21  1  0.82486100  0.60298100  0.86338600  1
  Br  Br22  1  0.32486100  0.39701900  0.63661400  1
  Br  Br23  1  0.67513900  0.60298100  0.36338600  1
  Br  Br24  1  0.18639500  0.82938500  0.18225600  1
  Br  Br25  1  0.81360500  0.17061500  0.81774400  1
  Br  Br26  1  0.31360500  0.82938500  0.68225600  1
  Br  Br27  1  0.68639500  0.17061500  0.31774400  1
