# generated using pymatgen
data_Ca(YbS2)2
_symmetry_space_group_name_H-M   'P 1'
_cell_length_a   4.12781700
_cell_length_b   14.26014000
_cell_length_c   11.53640000
_cell_angle_alpha   90.00000000
_cell_angle_beta   90.00000000
_cell_angle_gamma   90.00000000
_symmetry_Int_Tables_number   1
_chemical_formula_structural   Ca(YbS2)2
_chemical_formula_sum   'Ca4 Yb8 S16'
_cell_volume   679.06997785
_cell_formula_units_Z   4
loop_
 _symmetry_equiv_pos_site_id
 _symmetry_equiv_pos_as_xyz
  1  'x, y, z'
loop_
 _atom_site_type_symbol
 _atom_site_label
 _atom_site_symmetry_multiplicity
 _atom_site_fract_x
 _atom_site_fract_y
 _atom_site_fract_z
 _atom_site_occupancy
  Ca  Ca0  1  0.75000000  0.08937700  0.88313000  1
  Ca  Ca1  1  0.75000000  0.58937700  0.61687000  1
  Ca  Ca2  1  0.25000000  0.91062300  0.11687000  1
  Ca  Ca3  1  0.25000000  0.41062300  0.38313000  1
  Yb  Yb4  1  0.75000000  0.39668400  0.04667000  1
  Yb  Yb5  1  0.75000000  0.89668400  0.45333000  1
  Yb  Yb6  1  0.25000000  0.60331600  0.95333000  1
  Yb  Yb7  1  0.25000000  0.10331600  0.54667000  1
  Yb  Yb8  1  0.75000000  0.35858000  0.70812700  1
  Yb  Yb9  1  0.75000000  0.85858000  0.79187300  1
  Yb  Yb10  1  0.25000000  0.64142000  0.29187300  1
  Yb  Yb11  1  0.25000000  0.14142000  0.20812700  1
  S  S12  1  0.75000000  0.27383700  0.29645900  1
  S  S13  1  0.75000000  0.77383700  0.20354100  1
  S  S14  1  0.25000000  0.72616300  0.70354100  1
  S  S15  1  0.25000000  0.22616300  0.79645900  1
  S  S16  1  0.75000000  0.23812500  0.47640600  1
  S  S17  1  0.75000000  0.73812500  0.02359400  1
  S  S18  1  0.25000000  0.76187500  0.52359400  1
  S  S19  1  0.25000000  0.26187500  0.97640600  1
  S  S20  1  0.75000000  0.04730700  0.11223000  1
  S  S21  1  0.75000000  0.54730700  0.38777000  1
  S  S22  1  0.25000000  0.95269300  0.88777000  1
  S  S23  1  0.25000000  0.45269300  0.61223000  1
  S  S24  1  0.75000000  0.50833800  0.85648700  1
  S  S25  1  0.75000000  0.00833800  0.64351300  1
  S  S26  1  0.25000000  0.49166200  0.14351300  1
  S  S27  1  0.25000000  0.99166200  0.35648700  1
