# generated using pymatgen
data_Ba2CuP2O9
_symmetry_space_group_name_H-M   'P 1'
_cell_length_a   8.48819908
_cell_length_b   8.48819908
_cell_length_c   12.68471861
_cell_angle_alpha   59.06893634
_cell_angle_beta   59.06893634
_cell_angle_gamma   34.95176647
_symmetry_Int_Tables_number   1
_chemical_formula_structural   Ba2CuP2O9
_chemical_formula_sum   'Ba4 Cu2 P4 O18'
_cell_volume   441.05248162
_cell_formula_units_Z   2
loop_
 _symmetry_equiv_pos_site_id
 _symmetry_equiv_pos_as_xyz
  1  'x, y, z'
loop_
 _atom_site_type_symbol
 _atom_site_label
 _atom_site_symmetry_multiplicity
 _atom_site_fract_x
 _atom_site_fract_y
 _atom_site_fract_z
 _atom_site_occupancy
  Ba  Ba0  1  0.83957000  0.36668900  0.31232500  1
  Ba  Ba1  1  0.63331100  0.16043000  0.18767500  1
  Ba  Ba2  1  0.16043000  0.63331100  0.68767500  1
  Ba  Ba3  1  0.36668900  0.83957000  0.81232500  1
  Cu  Cu4  1  0.00000000  0.50000000  0.50000000  1
  Cu  Cu5  1  0.50000000  0.00000000  0.00000000  1
  P  P6  1  0.61547100  0.08615300  0.52923600  1
  P  P7  1  0.91384700  0.38452900  0.97076400  1
  P  P8  1  0.38452900  0.91384700  0.47076400  1
  P  P9  1  0.08615300  0.61547100  0.02923600  1
  O  O10  1  0.78127900  0.77432800  0.59331300  1
  O  O11  1  0.22567200  0.21872100  0.90668700  1
  O  O12  1  0.21872100  0.22567200  0.40668700  1
  O  O13  1  0.77432800  0.78127900  0.09331300  1
  O  O14  1  0.29558700  0.27566500  0.58021300  1
  O  O15  1  0.72433500  0.70441300  0.91978700  1
  O  O16  1  0.70441300  0.72433500  0.41978700  1
  O  O17  1  0.27566500  0.29558700  0.08021300  1
  O  O18  1  0.67981300  0.15797000  0.57958600  1
  O  O19  1  0.84203000  0.32018700  0.92041400  1
  O  O20  1  0.32018700  0.84203000  0.42041400  1
  O  O21  1  0.15797000  0.67981300  0.07958600  1
  O  O22  1  0.69750900  0.12225400  0.38651500  1
  O  O23  1  0.87774600  0.30249100  0.11348500  1
  O  O24  1  0.30249100  0.87774600  0.61348500  1
  O  O25  1  0.12225400  0.69750900  0.88651500  1
  O  O26  1  0.67712200  0.32287800  0.75000000  1
  O  O27  1  0.32287800  0.67712200  0.25000000  1
