# generated using pymatgen
data_K2IO9
_symmetry_space_group_name_H-M   'P 1'
_cell_length_a   7.61787200
_cell_length_b   7.69035601
_cell_length_c   9.24485146
_cell_angle_alpha   84.49569332
_cell_angle_beta   102.70617201
_cell_angle_gamma   116.31726077
_symmetry_Int_Tables_number   1
_chemical_formula_structural   K2IO9
_chemical_formula_sum   'K4 I2 O18'
_cell_volume   473.57685995
_cell_formula_units_Z   2
loop_
 _symmetry_equiv_pos_site_id
 _symmetry_equiv_pos_as_xyz
  1  'x, y, z'
loop_
 _atom_site_type_symbol
 _atom_site_label
 _atom_site_symmetry_multiplicity
 _atom_site_fract_x
 _atom_site_fract_y
 _atom_site_fract_z
 _atom_site_occupancy
  K  K0  1  0.26477500  0.79788500  0.04417700  1
  K  K1  1  0.73522500  0.20211500  0.95582300  1
  K  K2  1  0.67451000  0.82732100  0.60041800  1
  K  K3  1  0.32549000  0.17267900  0.39958200  1
  I  I4  1  0.76065300  0.69967700  0.15510100  1
  I  I5  1  0.23934700  0.30032300  0.84489900  1
  O  O6  1  0.85831500  0.58169100  0.05719700  1
  O  O7  1  0.14168500  0.41830900  0.94280300  1
  O  O8  1  0.38180500  0.20418700  0.98163300  1
  O  O9  1  0.61819500  0.79581300  0.01836700  1
  O  O10  1  0.97221500  0.89706400  0.25682600  1
  O  O11  1  0.02778500  0.10293600  0.74317400  1
  O  O12  1  0.60394000  0.53975500  0.27675700  1
  O  O13  1  0.39606000  0.46024500  0.72324300  1
  O  O14  1  0.84787800  0.22790000  0.26785200  1
  O  O15  1  0.15212200  0.77210000  0.73214800  1
  O  O16  1  0.54788400  0.99793500  0.31999100  1
  O  O17  1  0.45211600  0.00206500  0.68000900  1
  O  O18  1  0.28486200  0.54764100  0.41525500  1
  O  O19  1  0.71513800  0.45235900  0.58474500  1
  O  O20  1  0.80199200  0.35171300  0.63957000  1
  O  O21  1  0.19800800  0.64828700  0.36043000  1
  O  O22  1  0.74444200  0.13282400  0.37127200  1
  O  O23  1  0.25555800  0.86717600  0.62872800  1
