# generated using pymatgen
data_Pb4S2O7
_symmetry_space_group_name_H-M   'P 1'
_cell_length_a   6.47032100
_cell_length_b   7.95759809
_cell_length_c   10.47256778
_cell_angle_alpha   89.99395376
_cell_angle_beta   101.13801877
_cell_angle_gamma   91.81813036
_symmetry_Int_Tables_number   1
_chemical_formula_structural   Pb4S2O7
_chemical_formula_sum   'Pb8 S4 O14'
_cell_volume   528.78123957
_cell_formula_units_Z   2
loop_
 _symmetry_equiv_pos_site_id
 _symmetry_equiv_pos_as_xyz
  1  'x, y, z'
loop_
 _atom_site_type_symbol
 _atom_site_label
 _atom_site_symmetry_multiplicity
 _atom_site_fract_x
 _atom_site_fract_y
 _atom_site_fract_z
 _atom_site_occupancy
  Pb  Pb0  1  0.74601800  0.87692300  0.01290900  1
  Pb  Pb1  1  0.25398200  0.12307700  0.98709100  1
  Pb  Pb2  1  0.27652100  0.36643700  0.68445300  1
  Pb  Pb3  1  0.72347900  0.63356300  0.31554700  1
  Pb  Pb4  1  0.32414100  0.90496100  0.69455600  1
  Pb  Pb5  1  0.67585900  0.09503900  0.30544400  1
  Pb  Pb6  1  0.71265000  0.36907700  0.96776400  1
  Pb  Pb7  1  0.28735000  0.63092300  0.03223600  1
  S  S8  1  0.77492000  0.84312200  0.57801900  1
  S  S9  1  0.22508000  0.15687800  0.42198100  1
  S  S10  1  0.81194100  0.62724200  0.68884800  1
  S  S11  1  0.18805900  0.37275800  0.31115200  1
  O  O12  1  0.79597600  0.47832600  0.60503400  1
  O  O13  1  0.20402400  0.52167400  0.39496600  1
  O  O14  1  0.02331900  0.64894000  0.77484200  1
  O  O15  1  0.97668100  0.35106000  0.22515800  1
  O  O16  1  0.64323100  0.62656600  0.76838000  1
  O  O17  1  0.35676900  0.37343400  0.23162000  1
  O  O18  1  0.39527400  0.86280300  0.92157100  1
  O  O19  1  0.60472600  0.13719700  0.07842900  1
  O  O20  1  0.35403600  0.39326000  0.91906800  1
  O  O21  1  0.64596400  0.60674000  0.08093200  1
  O  O22  1  0.15101900  0.12127100  0.76557300  1
  O  O23  1  0.84898100  0.87872900  0.23442700  1
  O  O24  1  0.51118700  0.15508200  0.75565200  1
  O  O25  1  0.48881300  0.84491800  0.24434800  1
