# generated using pymatgen
data_In2Ag2GeS6
_symmetry_space_group_name_H-M   'P 1'
_cell_length_a   10.73712615
_cell_length_b   7.60828787
_cell_length_c   7.60828787
_cell_angle_alpha   76.76229582
_cell_angle_beta   68.65000044
_cell_angle_gamma   68.65000044
_symmetry_Int_Tables_number   1
_chemical_formula_structural   In2Ag2GeS6
_chemical_formula_sum   'In4 Ag4 Ge2 S12'
_cell_volume   535.80761015
_cell_formula_units_Z   2
loop_
 _symmetry_equiv_pos_site_id
 _symmetry_equiv_pos_as_xyz
  1  'x, y, z'
loop_
 _atom_site_type_symbol
 _atom_site_label
 _atom_site_symmetry_multiplicity
 _atom_site_fract_x
 _atom_site_fract_y
 _atom_site_fract_z
 _atom_site_occupancy
  In  In0  1  0.52420500  0.52067900  0.67478500  1
  In  In1  1  0.02420500  0.67478500  0.52067900  1
  In  In2  1  0.79871300  0.65331400  0.87101400  1
  In  In3  1  0.29871300  0.87101400  0.65331400  1
  Ag  Ag4  1  0.83062500  0.10449100  0.07328600  1
  Ag  Ag5  1  0.33062500  0.07328600  0.10449100  1
  Ag  Ag6  1  0.00273600  0.12679700  0.58017100  1
  Ag  Ag7  1  0.50273600  0.58017100  0.12679700  1
  Ge  Ge8  1  0.62866900  0.04280200  0.53914000  1
  Ge  Ge9  1  0.12866900  0.53914000  0.04280200  1
  S  S10  1  0.52383100  0.97755800  0.36023800  1
  S  S11  1  0.02383100  0.36023800  0.97755800  1
  S  S12  1  0.72378400  0.36976000  0.84209200  1
  S  S13  1  0.22378400  0.84209200  0.36976000  1
  S  S14  1  0.55370800  0.88997800  0.83338000  1
  S  S15  1  0.05370800  0.83338000  0.88997800  1
  S  S16  1  0.61833800  0.69539900  0.30943300  1
  S  S17  1  0.11833800  0.30943300  0.69539900  1
  S  S18  1  0.35781100  0.40733900  0.00780600  1
  S  S19  1  0.85781100  0.00780600  0.40733900  1
  S  S20  1  0.52974000  0.33809400  0.42038400  1
  S  S21  1  0.02974000  0.42038400  0.33809400  1
