# generated using pymatgen
data_KCo(PO3)3
_symmetry_space_group_name_H-M   'P 1'
_cell_length_a   7.19795800
_cell_length_b   7.61923670
_cell_length_c   10.03345858
_cell_angle_alpha   90.62311577
_cell_angle_beta   108.73399844
_cell_angle_gamma   117.28825882
_symmetry_Int_Tables_number   1
_chemical_formula_structural   KCo(PO3)3
_chemical_formula_sum   'K2 Co2 P6 O18'
_cell_volume   454.87043459
_cell_formula_units_Z   2
loop_
 _symmetry_equiv_pos_site_id
 _symmetry_equiv_pos_as_xyz
  1  'x, y, z'
loop_
 _atom_site_type_symbol
 _atom_site_label
 _atom_site_symmetry_multiplicity
 _atom_site_fract_x
 _atom_site_fract_y
 _atom_site_fract_z
 _atom_site_occupancy
  K  K0  1  0.14331700  0.44179800  0.04061700  1
  K  K1  1  0.53344000  0.45149000  0.39507400  1
  Co  Co2  1  0.67688800  0.03661600  0.47134500  1
  Co  Co3  1  0.68924400  0.54196500  0.00299900  1
  P  P4  1  0.23171300  0.09856400  0.85262900  1
  P  P5  1  0.88791000  0.33952100  0.27333900  1
  P  P6  1  0.57574200  0.15449600  0.74621000  1
  P  P7  1  0.70034900  0.83790200  0.73698400  1
  P  P8  1  0.66298900  0.89917200  0.20356800  1
  P  P9  1  0.22918700  0.93242200  0.11475400  1
  O  O10  1  0.76832500  0.88313500  0.35724600  1
  O  O11  1  0.83036200  0.28693100  0.40887800  1
  O  O12  1  0.73576900  0.41554200  0.18027500  1
  O  O13  1  0.13376900  0.45356300  0.29990000  1
  O  O14  1  0.43483700  0.89911900  0.21148600  1
  O  O15  1  0.28624800  0.96915400  0.96365200  1
  O  O16  1  0.33266100  0.31642300  0.90829900  1
  O  O17  1  0.60200000  0.80011400  0.57567700  1
  O  O18  1  0.57813400  0.16858400  0.59710900  1
  O  O19  1  0.66697500  0.66786800  0.81286000  1
  O  O20  1  0.97047100  0.00135100  0.77565300  1
  O  O21  1  0.62730200  0.97777900  0.80354700  1
  O  O22  1  0.71909400  0.33306100  0.86481400  1
  O  O23  1  0.59234000  0.73346100  0.08566900  1
  O  O24  1  0.24077900  0.11487500  0.17854500  1
  O  O25  1  0.79553100  0.11336100  0.17003400  1
  O  O26  1  0.31069700  0.05635800  0.73017900  1
  O  O27  1  0.02572700  0.72957300  0.07286100  1
