# generated using pymatgen
data_C2SeNClO2
_symmetry_space_group_name_H-M   'P 1'
_cell_length_a   13.55059500
_cell_length_b   8.12231200
_cell_length_c   8.14110770
_cell_angle_alpha   61.10294169
_cell_angle_beta   90.00000000
_cell_angle_gamma   90.00000000
_symmetry_Int_Tables_number   1
_chemical_formula_structural   C2SeNClO2
_chemical_formula_sum   'C8 Se4 N4 Cl4 O8'
_cell_volume   784.46287516
_cell_formula_units_Z   4
loop_
 _symmetry_equiv_pos_site_id
 _symmetry_equiv_pos_as_xyz
  1  'x, y, z'
loop_
 _atom_site_type_symbol
 _atom_site_label
 _atom_site_symmetry_multiplicity
 _atom_site_fract_x
 _atom_site_fract_y
 _atom_site_fract_z
 _atom_site_occupancy
  C  C0  1  0.62920300  0.20434900  0.43286500  1
  C  C1  1  0.12920300  0.29565100  0.56713500  1
  C  C2  1  0.37079700  0.79565100  0.56713500  1
  C  C3  1  0.87079700  0.70434900  0.43286500  1
  C  C4  1  0.65454100  0.21653900  0.59825100  1
  C  C5  1  0.15454100  0.28346100  0.40174900  1
  C  C6  1  0.34545900  0.78346100  0.40174900  1
  C  C7  1  0.84545900  0.71653900  0.59825100  1
  Se  Se8  1  0.55492200  0.43236500  0.21087000  1
  Se  Se9  1  0.05492200  0.06763500  0.78913000  1
  Se  Se10  1  0.44507800  0.56763500  0.78913000  1
  Se  Se11  1  0.94507800  0.93236500  0.21087000  1
  N  N12  1  0.67563800  0.23074900  0.73013300  1
  N  N13  1  0.17563800  0.26925100  0.26986700  1
  N  N14  1  0.32436200  0.76925100  0.26986700  1
  N  N15  1  0.82436200  0.73074900  0.73013300  1
  Cl  Cl16  1  0.86624800  0.17979300  0.19972900  1
  Cl  Cl17  1  0.36624800  0.32020700  0.80027100  1
  Cl  Cl18  1  0.13375200  0.82020700  0.80027100  1
  Cl  Cl19  1  0.63375200  0.67979300  0.19972900  1
  O  O20  1  0.63674700  0.06716100  0.41257500  1
  O  O21  1  0.13674700  0.43283900  0.58742500  1
  O  O22  1  0.36325300  0.93283900  0.58742500  1
  O  O23  1  0.86325300  0.56716100  0.41257500  1
  O  O24  1  0.44672500  0.41450700  0.31068500  1
  O  O25  1  0.94672500  0.08549300  0.68931500  1
  O  O26  1  0.55327500  0.58549300  0.68931500  1
  O  O27  1  0.05327500  0.91450700  0.31068500  1
