# generated using pymatgen
data_YBr3O10
_symmetry_space_group_name_H-M   'P 1'
_cell_length_a   6.88990096
_cell_length_b   10.26863289
_cell_length_c   8.43800518
_cell_angle_alpha   74.13926983
_cell_angle_beta   89.63695283
_cell_angle_gamma   107.19547162
_symmetry_Int_Tables_number   1
_chemical_formula_structural   YBr3O10
_chemical_formula_sum   'Y2 Br6 O20'
_cell_volume   546.11960507
_cell_formula_units_Z   2
loop_
 _symmetry_equiv_pos_site_id
 _symmetry_equiv_pos_as_xyz
  1  'x, y, z'
loop_
 _atom_site_type_symbol
 _atom_site_label
 _atom_site_symmetry_multiplicity
 _atom_site_fract_x
 _atom_site_fract_y
 _atom_site_fract_z
 _atom_site_occupancy
  Y  Y0  1  0.19015800  0.23178400  0.24335800  1
  Y  Y1  1  0.80984200  0.76821600  0.75664200  1
  Br  Br2  1  0.13909900  0.71154300  0.44808400  1
  Br  Br3  1  0.86090100  0.28845700  0.55191600  1
  Br  Br4  1  0.73841700  0.41904100  0.11349800  1
  Br  Br5  1  0.26158300  0.58095900  0.88650200  1
  Br  Br6  1  0.25627100  0.03947500  0.66857700  1
  Br  Br7  1  0.74372900  0.96052500  0.33142300  1
  O  O8  1  0.96349800  0.15522500  0.05201200  1
  O  O9  1  0.03650200  0.84477500  0.94798800  1
  O  O10  1  0.34892300  0.14540700  0.46842000  1
  O  O11  1  0.65107700  0.85459300  0.53158000  1
  O  O12  1  0.52329800  0.27281300  0.14326800  1
  O  O13  1  0.47670200  0.72718700  0.85673200  1
  O  O14  1  0.96661300  0.31196900  0.34388700  1
  O  O15  1  0.03338700  0.68803100  0.65611300  1
  O  O16  1  0.00738200  0.99369200  0.32687400  1
  O  O17  1  0.99261800  0.00630700  0.67312600  1
  O  O18  1  0.26934800  0.45702600  0.07156800  1
  O  O19  1  0.73065200  0.54297400  0.92843200  1
  O  O20  1  0.32618400  0.38582100  0.56430500  1
  O  O21  1  0.67381600  0.61417900  0.43569500  1
  O  O22  1  0.24157100  0.81094500  0.15211900  1
  O  O23  1  0.75842900  0.18905500  0.84788100  1
  O  O24  1  0.90876600  0.25132400  0.92282400  1
  O  O25  1  0.09123400  0.74867600  0.07717600  1
  O  O26  1  0.61061200  0.65110100  0.29923800  1
  O  O27  1  0.38938800  0.34889900  0.70076200  1
