# generated using pymatgen
data_AlZnH4O2F5
_symmetry_space_group_name_H-M   'P 1'
_cell_length_a   6.84271900
_cell_length_b   7.45270129
_cell_length_c   7.45270129
_cell_angle_alpha   58.26139980
_cell_angle_beta   62.67246843
_cell_angle_gamma   62.67246843
_symmetry_Int_Tables_number   1
_chemical_formula_structural   AlZnH4O2F5
_chemical_formula_sum   'Al2 Zn2 H8 O4 F10'
_cell_volume   274.98942039
_cell_formula_units_Z   2
loop_
 _symmetry_equiv_pos_site_id
 _symmetry_equiv_pos_as_xyz
  1  'x, y, z'
loop_
 _atom_site_type_symbol
 _atom_site_label
 _atom_site_symmetry_multiplicity
 _atom_site_fract_x
 _atom_site_fract_y
 _atom_site_fract_z
 _atom_site_occupancy
  Al  Al0  1  0.50000000  0.00000000  0.50000000  1
  Al  Al1  1  0.50000000  0.50000000  0.00000000  1
  Zn  Zn2  1  0.50000000  0.00000000  0.00000000  1
  Zn  Zn3  1  0.00000000  0.50000000  0.50000000  1
  H  H4  1  0.05930400  0.75260200  0.54108100  1
  H  H5  1  0.94069600  0.45891900  0.24739800  1
  H  H6  1  0.14701300  0.25260200  0.04108100  1
  H  H7  1  0.85298700  0.95891900  0.74739800  1
  H  H8  1  0.94069600  0.24739800  0.45891900  1
  H  H9  1  0.05930400  0.54108100  0.75260200  1
  H  H10  1  0.85298700  0.74739800  0.95891900  1
  H  H11  1  0.14701300  0.04108100  0.25260200  1
  O  O12  1  0.15485900  0.59992800  0.59992800  1
  O  O13  1  0.84514100  0.40007200  0.40007200  1
  O  O14  1  0.14528500  0.09992800  0.09992800  1
  O  O15  1  0.85471500  0.90007200  0.90007200  1
  F  F16  1  0.56724100  0.06636100  0.66638800  1
  F  F17  1  0.43275900  0.33361200  0.93363900  1
  F  F18  1  0.20001000  0.56636100  0.16638800  1
  F  F19  1  0.79999000  0.83361200  0.43363900  1
  F  F20  1  0.43275900  0.93363900  0.33361200  1
  F  F21  1  0.56724100  0.66638800  0.06636100  1
  F  F22  1  0.79999000  0.43363900  0.83361200  1
  F  F23  1  0.20001000  0.16638800  0.56636100  1
  F  F24  1  0.42807100  0.75000000  0.75000000  1
  F  F25  1  0.57192900  0.25000000  0.25000000  1
