# generated using pymatgen
data_CeB4ClO8
_symmetry_space_group_name_H-M   'P 1'
_cell_length_a   6.56969004
_cell_length_b   6.56969004
_cell_length_c   9.27211816
_cell_angle_alpha   82.15365134
_cell_angle_beta   82.15365134
_cell_angle_gamma   119.82123049
_symmetry_Int_Tables_number   1
_chemical_formula_structural   CeB4ClO8
_chemical_formula_sum   'Ce2 B8 Cl2 O16'
_cell_volume   334.07964291
_cell_formula_units_Z   2
loop_
 _symmetry_equiv_pos_site_id
 _symmetry_equiv_pos_as_xyz
  1  'x, y, z'
loop_
 _atom_site_type_symbol
 _atom_site_label
 _atom_site_symmetry_multiplicity
 _atom_site_fract_x
 _atom_site_fract_y
 _atom_site_fract_z
 _atom_site_occupancy
  Ce  Ce0  1  0.43554200  0.83630900  0.06828700  1
  Ce  Ce1  1  0.83630900  0.43554200  0.56828700  1
  B  B2  1  0.87531500  0.69152600  0.22715300  1
  B  B3  1  0.69152600  0.87531500  0.72715300  1
  B  B4  1  0.49603700  0.38771300  0.17356300  1
  B  B5  1  0.38771300  0.49603700  0.67356300  1
  B  B6  1  0.77565000  0.26195200  0.24744400  1
  B  B7  1  0.26195200  0.77565000  0.74744400  1
  B  B8  1  0.06630500  0.13426300  0.15332300  1
  B  B9  1  0.13426300  0.06630500  0.65332300  1
  Cl  Cl10  1  0.30672100  0.66781400  0.38824800  1
  Cl  Cl11  1  0.66781400  0.30672100  0.88824800  1
  O  O12  1  0.28104600  0.35301900  0.13939200  1
  O  O13  1  0.35301900  0.28104600  0.63939200  1
  O  O14  1  0.66011000  0.82725700  0.88828200  1
  O  O15  1  0.82725700  0.66011000  0.38828200  1
  O  O16  1  0.65657400  0.62474800  0.16977900  1
  O  O17  1  0.62474800  0.65657400  0.66977900  1
  O  O18  1  0.96027000  0.52585800  0.19336500  1
  O  O19  1  0.52585800  0.96027000  0.69336500  1
  O  O20  1  0.07905100  0.93383200  0.14983800  1
  O  O21  1  0.93383200  0.07905100  0.64983800  1
  O  O22  1  0.84860600  0.12107600  0.16871900  1
  O  O23  1  0.12107600  0.84860600  0.66871900  1
  O  O24  1  0.21491000  0.76165000  0.90619000  1
  O  O25  1  0.76165000  0.21491000  0.40619000  1
  O  O26  1  0.53951600  0.20707900  0.21424200  1
  O  O27  1  0.20707900  0.53951600  0.71424200  1
