# generated using pymatgen
data_Rb2ZnN4
_symmetry_space_group_name_H-M   'P 1'
_cell_length_a   6.66667200
_cell_length_b   8.40933000
_cell_length_c   13.27239110
_cell_angle_alpha   69.66439627
_cell_angle_beta   90.00000000
_cell_angle_gamma   90.00000000
_symmetry_Int_Tables_number   1
_chemical_formula_structural   Rb2ZnN4
_chemical_formula_sum   'Rb8 Zn4 N16'
_cell_volume   697.70388743
_cell_formula_units_Z   4
loop_
 _symmetry_equiv_pos_site_id
 _symmetry_equiv_pos_as_xyz
  1  'x, y, z'
loop_
 _atom_site_type_symbol
 _atom_site_label
 _atom_site_symmetry_multiplicity
 _atom_site_fract_x
 _atom_site_fract_y
 _atom_site_fract_z
 _atom_site_occupancy
  Rb  Rb0  1  0.20125600  0.46285000  0.34991100  1
  Rb  Rb1  1  0.70125600  0.53715000  0.15008900  1
  Rb  Rb2  1  0.79874400  0.53715000  0.65008900  1
  Rb  Rb3  1  0.29874400  0.46285000  0.84991100  1
  Rb  Rb4  1  0.23854100  0.92020500  0.40872700  1
  Rb  Rb5  1  0.73854100  0.07979500  0.09127300  1
  Rb  Rb6  1  0.76145900  0.07979500  0.59127300  1
  Rb  Rb7  1  0.26145900  0.92020500  0.90872700  1
  Zn  Zn8  1  0.22386300  0.29242000  0.13616800  1
  Zn  Zn9  1  0.72386300  0.70758000  0.36383200  1
  Zn  Zn10  1  0.77613700  0.70758000  0.86383200  1
  Zn  Zn11  1  0.27613700  0.29242000  0.63616800  1
  N  N12  1  0.98105800  0.25098700  0.22038500  1
  N  N13  1  0.48105800  0.74901300  0.27961500  1
  N  N14  1  0.01894200  0.74901300  0.77961500  1
  N  N15  1  0.51894200  0.25098700  0.72038500  1
  N  N16  1  0.43342700  0.23809200  0.24465300  1
  N  N17  1  0.93342700  0.76190800  0.25534700  1
  N  N18  1  0.56657300  0.76190800  0.75534700  1
  N  N19  1  0.06657300  0.23809200  0.74465300  1
  N  N20  1  0.24787800  0.53484300  0.05457300  1
  N  N21  1  0.74787800  0.46515700  0.44542700  1
  N  N22  1  0.75212200  0.46515700  0.94542700  1
  N  N23  1  0.25212200  0.53484300  0.55457300  1
  N  N24  1  0.25089100  0.16044300  0.04510500  1
  N  N25  1  0.75089100  0.83955700  0.45489500  1
  N  N26  1  0.74910900  0.83955700  0.95489500  1
  N  N27  1  0.24910900  0.16044300  0.54510500  1
