# generated using pymatgen
data_Na(RuO2)2
_symmetry_space_group_name_H-M   'P 1'
_cell_length_a   2.81342700
_cell_length_b   9.53068500
_cell_length_c   11.27884500
_cell_angle_alpha   90.00000000
_cell_angle_beta   90.00000000
_cell_angle_gamma   90.00000000
_symmetry_Int_Tables_number   1
_chemical_formula_structural   Na(RuO2)2
_chemical_formula_sum   'Na4 Ru8 O16'
_cell_volume   302.42966977
_cell_formula_units_Z   4
loop_
 _symmetry_equiv_pos_site_id
 _symmetry_equiv_pos_as_xyz
  1  'x, y, z'
loop_
 _atom_site_type_symbol
 _atom_site_label
 _atom_site_symmetry_multiplicity
 _atom_site_fract_x
 _atom_site_fract_y
 _atom_site_fract_z
 _atom_site_occupancy
  Na  Na0  1  0.25000000  0.24084600  0.65581700  1
  Na  Na1  1  0.25000000  0.74084600  0.84418300  1
  Na  Na2  1  0.75000000  0.75915400  0.34418300  1
  Na  Na3  1  0.75000000  0.25915400  0.15581700  1
  Ru  Ru4  1  0.25000000  0.06046200  0.88331700  1
  Ru  Ru5  1  0.25000000  0.56046200  0.61668300  1
  Ru  Ru6  1  0.75000000  0.93953800  0.11668300  1
  Ru  Ru7  1  0.75000000  0.43953800  0.38331700  1
  Ru  Ru8  1  0.25000000  0.08537700  0.39478200  1
  Ru  Ru9  1  0.25000000  0.58537700  0.10521800  1
  Ru  Ru10  1  0.75000000  0.91462300  0.60521800  1
  Ru  Ru11  1  0.75000000  0.41462300  0.89478200  1
  O  O12  1  0.25000000  0.29086200  0.33999800  1
  O  O13  1  0.25000000  0.79086200  0.16000200  1
  O  O14  1  0.75000000  0.70913800  0.66000200  1
  O  O15  1  0.75000000  0.20913800  0.83999800  1
  O  O16  1  0.25000000  0.39027200  0.02783600  1
  O  O17  1  0.25000000  0.89027200  0.47216400  1
  O  O18  1  0.75000000  0.60972800  0.97216400  1
  O  O19  1  0.75000000  0.10972800  0.52783600  1
  O  O20  1  0.25000000  0.47218900  0.77762200  1
  O  O21  1  0.25000000  0.97218900  0.72237800  1
  O  O22  1  0.75000000  0.52781100  0.22237800  1
  O  O23  1  0.75000000  0.02781100  0.27762200  1
  O  O24  1  0.25000000  0.08572300  0.06309100  1
  O  O25  1  0.25000000  0.58572300  0.43690900  1
  O  O26  1  0.75000000  0.91427700  0.93690900  1
  O  O27  1  0.75000000  0.41427700  0.56309100  1
