# generated using pymatgen
data_Sr(CO2)2
_symmetry_space_group_name_H-M   'P 1'
_cell_length_a   6.90539700
_cell_length_b   7.45496400
_cell_length_c   8.77909100
_cell_angle_alpha   90.00000000
_cell_angle_beta   90.00000000
_cell_angle_gamma   90.00000000
_symmetry_Int_Tables_number   1
_chemical_formula_structural   Sr(CO2)2
_chemical_formula_sum   'Sr4 C8 O16'
_cell_volume   451.94309258
_cell_formula_units_Z   4
loop_
 _symmetry_equiv_pos_site_id
 _symmetry_equiv_pos_as_xyz
  1  'x, y, z'
loop_
 _atom_site_type_symbol
 _atom_site_label
 _atom_site_symmetry_multiplicity
 _atom_site_fract_x
 _atom_site_fract_y
 _atom_site_fract_z
 _atom_site_occupancy
  Sr  Sr0  1  0.99741000  0.76087300  0.17086100  1
  Sr  Sr1  1  0.00259000  0.26087300  0.32913900  1
  Sr  Sr2  1  0.49741000  0.73912700  0.82913900  1
  Sr  Sr3  1  0.50259000  0.23912700  0.67086100  1
  C  C4  1  0.61787700  0.55619000  0.19330600  1
  C  C5  1  0.38212300  0.05619000  0.30669400  1
  C  C6  1  0.11787700  0.94381000  0.80669400  1
  C  C7  1  0.88212300  0.44381000  0.69330600  1
  C  C8  1  0.22922800  0.36270700  0.99137000  1
  C  C9  1  0.77077200  0.86270700  0.50863000  1
  C  C10  1  0.72922800  0.13729300  0.00863000  1
  C  C11  1  0.27077200  0.63729300  0.49137000  1
  O  O12  1  0.74974500  0.49430000  0.27575000  1
  O  O13  1  0.25025500  0.99430000  0.22425000  1
  O  O14  1  0.24974500  0.00570000  0.72425000  1
  O  O15  1  0.75025500  0.50570000  0.77575000  1
  O  O16  1  0.62246500  0.68189300  0.09772600  1
  O  O17  1  0.37753500  0.18189300  0.40227400  1
  O  O18  1  0.12246500  0.81810700  0.90227400  1
  O  O19  1  0.87753500  0.31810700  0.59772600  1
  O  O20  1  0.34310600  0.41977400  0.89215100  1
  O  O21  1  0.65689400  0.91977400  0.60784900  1
  O  O22  1  0.84310600  0.08022600  0.10784900  1
  O  O23  1  0.15689400  0.58022600  0.39215100  1
  O  O24  1  0.13193100  0.43932200  0.09288800  1
  O  O25  1  0.86806900  0.93932200  0.40711200  1
  O  O26  1  0.63193100  0.06067800  0.90711200  1
  O  O27  1  0.36806900  0.56067800  0.59288800  1
