# generated using pymatgen
data_BaMn2FeSi2O9
_symmetry_space_group_name_H-M   'P 1'
_cell_length_a   10.89639130
_cell_length_b   10.89639130
_cell_length_c   5.45585941
_cell_angle_alpha   83.87414834
_cell_angle_beta   83.87414834
_cell_angle_gamma   37.50772763
_symmetry_Int_Tables_number   1
_chemical_formula_structural   BaMn2FeSi2O9
_chemical_formula_sum   'Ba2 Mn4 Fe2 Si4 O18'
_cell_volume   391.90110951
_cell_formula_units_Z   2
loop_
 _symmetry_equiv_pos_site_id
 _symmetry_equiv_pos_as_xyz
  1  'x, y, z'
loop_
 _atom_site_type_symbol
 _atom_site_label
 _atom_site_symmetry_multiplicity
 _atom_site_fract_x
 _atom_site_fract_y
 _atom_site_fract_z
 _atom_site_occupancy
  Ba  Ba0  1  0.21937600  0.21937600  0.75924000  1
  Ba  Ba1  1  0.78062400  0.78062400  0.24076000  1
  Mn  Mn2  1  0.76374600  0.23625400  0.00000000  1
  Mn  Mn3  1  0.23625400  0.76374600  0.00000000  1
  Mn  Mn4  1  0.00000000  0.00000000  0.50000000  1
  Mn  Mn5  1  0.50000000  0.50000000  0.50000000  1
  Fe  Fe6  1  0.64114900  0.64114900  0.78739400  1
  Fe  Fe7  1  0.35885100  0.35885100  0.21260600  1
  Si  Si8  1  0.90929800  0.36230800  0.29170600  1
  Si  Si9  1  0.36230800  0.90929800  0.29170600  1
  Si  Si10  1  0.09070200  0.63769200  0.70829400  1
  Si  Si11  1  0.63769200  0.09070200  0.70829400  1
  O  O12  1  0.04227200  0.04227200  0.79526000  1
  O  O13  1  0.95772800  0.95772800  0.20474000  1
  O  O14  1  0.15920900  0.15920900  0.27950200  1
  O  O15  1  0.84079100  0.84079100  0.72049800  1
  O  O16  1  0.81415400  0.29782800  0.32633200  1
  O  O17  1  0.29782800  0.81415400  0.32633200  1
  O  O18  1  0.18584600  0.70217200  0.67366800  1
  O  O19  1  0.70217200  0.18584600  0.67366800  1
  O  O20  1  0.85906900  0.47881500  0.02767500  1
  O  O21  1  0.47881500  0.85906900  0.02767500  1
  O  O22  1  0.14093100  0.52118500  0.97232500  1
  O  O23  1  0.52118500  0.14093100  0.97232500  1
  O  O24  1  0.86011700  0.48053900  0.52385400  1
  O  O25  1  0.48053900  0.86011700  0.52385400  1
  O  O26  1  0.13988300  0.51946100  0.47614600  1
  O  O27  1  0.51946100  0.13988300  0.47614600  1
  O  O28  1  0.54887600  0.54887600  0.82540600  1
  O  O29  1  0.45112400  0.45112400  0.17459400  1
