# generated using pymatgen
data_Yb6Mn23
_symmetry_space_group_name_H-M   'P 1'
_cell_length_a   8.69182868
_cell_length_b   8.69182868
_cell_length_c   8.69182868
_cell_angle_alpha   60.00000000
_cell_angle_beta   60.00000000
_cell_angle_gamma   60.00000000
_symmetry_Int_Tables_number   1
_chemical_formula_structural   Yb6Mn23
_chemical_formula_sum   'Yb6 Mn23'
_cell_volume   464.32115900
_cell_formula_units_Z   1
loop_
 _symmetry_equiv_pos_site_id
 _symmetry_equiv_pos_as_xyz
  1  'x, y, z'
loop_
 _atom_site_type_symbol
 _atom_site_label
 _atom_site_symmetry_multiplicity
 _atom_site_fract_x
 _atom_site_fract_y
 _atom_site_fract_z
 _atom_site_occupancy
  Yb  Yb0  1  0.70768500  0.70768500  0.29231500  1
  Yb  Yb1  1  0.29231500  0.70768500  0.29231500  1
  Yb  Yb2  1  0.70768500  0.29231500  0.29231500  1
  Yb  Yb3  1  0.29231500  0.29231500  0.70768500  1
  Yb  Yb4  1  0.70768500  0.29231500  0.70768500  1
  Yb  Yb5  1  0.29231500  0.70768500  0.70768500  1
  Mn  Mn6  1  0.00000000  0.00000000  0.00000000  1
  Mn  Mn7  1  0.00000000  0.00000000  0.50000000  1
  Mn  Mn8  1  0.50000000  0.00000000  0.50000000  1
  Mn  Mn9  1  0.00000000  0.50000000  0.50000000  1
  Mn  Mn10  1  0.50000000  0.50000000  0.00000000  1
  Mn  Mn11  1  0.00000000  0.50000000  0.00000000  1
  Mn  Mn12  1  0.50000000  0.00000000  0.00000000  1
  Mn  Mn13  1  0.88035100  0.88035100  0.35894700  1
  Mn  Mn14  1  0.88035100  0.35894700  0.88035100  1
  Mn  Mn15  1  0.35894700  0.88035100  0.88035100  1
  Mn  Mn16  1  0.88035100  0.88035100  0.88035100  1
  Mn  Mn17  1  0.11964900  0.11964900  0.64105300  1
  Mn  Mn18  1  0.11964900  0.64105300  0.11964900  1
  Mn  Mn19  1  0.64105300  0.11964900  0.11964900  1
  Mn  Mn20  1  0.11964900  0.11964900  0.11964900  1
  Mn  Mn21  1  0.67685200  0.67685200  0.96944300  1
  Mn  Mn22  1  0.67685200  0.96944300  0.67685200  1
  Mn  Mn23  1  0.96944300  0.67685200  0.67685200  1
  Mn  Mn24  1  0.67685200  0.67685200  0.67685200  1
  Mn  Mn25  1  0.32314800  0.32314800  0.03055700  1
  Mn  Mn26  1  0.32314800  0.03055700  0.32314800  1
  Mn  Mn27  1  0.03055700  0.32314800  0.32314800  1
  Mn  Mn28  1  0.32314800  0.32314800  0.32314800  1
