# generated using pymatgen
data_AsH2SNF10
_symmetry_space_group_name_H-M   'P 1'
_cell_length_a   5.64564200
_cell_length_b   6.89815732
_cell_length_c   10.73832196
_cell_angle_alpha   89.15506147
_cell_angle_beta   87.87744131
_cell_angle_gamma   75.35482322
_symmetry_Int_Tables_number   1
_chemical_formula_structural   AsH2SNF10
_chemical_formula_sum   'As2 H4 S2 N2 F20'
_cell_volume   404.32776042
_cell_formula_units_Z   2
loop_
 _symmetry_equiv_pos_site_id
 _symmetry_equiv_pos_as_xyz
  1  'x, y, z'
loop_
 _atom_site_type_symbol
 _atom_site_label
 _atom_site_symmetry_multiplicity
 _atom_site_fract_x
 _atom_site_fract_y
 _atom_site_fract_z
 _atom_site_occupancy
  As  As0  1  0.00000000  0.00000000  0.50000000  1
  As  As1  1  0.00000000  0.00000000  0.00000000  1
  H  H2  1  0.58049600  0.89744600  0.34089800  1
  H  H3  1  0.41950400  0.10255400  0.65910200  1
  H  H4  1  0.51582600  0.91125200  0.17858500  1
  H  H5  1  0.48417400  0.08874800  0.82141500  1
  S  S6  1  0.63500800  0.59694300  0.25105800  1
  S  S7  1  0.36499200  0.40305700  0.74894200  1
  N  N8  1  0.56560400  0.82831400  0.25796400  1
  N  N9  1  0.43439600  0.17168600  0.74203600  1
  F  F10  1  0.12569800  0.13624900  0.38640500  1
  F  F11  1  0.87430200  0.86375100  0.61359500  1
  F  F12  1  0.70413800  0.08589400  0.43393000  1
  F  F13  1  0.29586200  0.91410600  0.56607000  1
  F  F14  1  0.06539100  0.78976400  0.40015800  1
  F  F15  1  0.93460900  0.21023600  0.59984200  1
  F  F16  1  0.78312900  0.12180700  0.11567100  1
  F  F17  1  0.21687100  0.87819300  0.88432900  1
  F  F18  1  0.93491600  0.21994600  0.90677900  1
  F  F19  1  0.06508400  0.78005400  0.09322100  1
  F  F20  1  0.76352300  0.91794000  0.92753700  1
  F  F21  1  0.23647700  0.08206000  0.07246300  1
  F  F22  1  0.67151900  0.57721800  0.39730000  1
  F  F23  1  0.32848100  0.42278200  0.60270000  1
  F  F24  1  0.89797200  0.46467900  0.22915600  1
  F  F25  1  0.10202800  0.53532100  0.77084400  1
  F  F26  1  0.45903600  0.45664100  0.26501100  1
  F  F27  1  0.54096400  0.54335900  0.73498900  1
  F  F28  1  0.59734200  0.60217700  0.10521800  1
  F  F29  1  0.40265800  0.39782300  0.89478200  1
