# generated using pymatgen
data_KNiPO10
_symmetry_space_group_name_H-M   'P 1'
_cell_length_a   9.62785700
_cell_length_b   6.43331600
_cell_length_c   7.31217705
_cell_angle_alpha   87.08690178
_cell_angle_beta   90.00000000
_cell_angle_gamma   90.00000000
_symmetry_Int_Tables_number   1
_chemical_formula_structural   KNiPO10
_chemical_formula_sum   'K2 Ni2 P2 O20'
_cell_volume   452.32400905
_cell_formula_units_Z   2
loop_
 _symmetry_equiv_pos_site_id
 _symmetry_equiv_pos_as_xyz
  1  'x, y, z'
loop_
 _atom_site_type_symbol
 _atom_site_label
 _atom_site_symmetry_multiplicity
 _atom_site_fract_x
 _atom_site_fract_y
 _atom_site_fract_z
 _atom_site_occupancy
  K  K0  1  0.17008100  0.14641000  0.16811500  1
  K  K1  1  0.67008100  0.85359000  0.83188500  1
  Ni  Ni2  1  0.80824500  0.14241000  0.43449300  1
  Ni  Ni3  1  0.30824500  0.85759000  0.56550700  1
  P  P4  1  0.54402200  0.94997000  0.27801400  1
  P  P5  1  0.04402200  0.05003000  0.72198600  1
  O  O6  1  0.38750200  0.94653700  0.32683900  1
  O  O7  1  0.88750200  0.05346300  0.67316100  1
  O  O8  1  0.59538300  0.74780500  0.19315000  1
  O  O9  1  0.09538300  0.25219500  0.80685000  1
  O  O10  1  0.62957900  0.99729000  0.45199000  1
  O  O11  1  0.12957900  0.00271000  0.54801000  1
  O  O12  1  0.07502600  0.89975500  0.88858800  1
  O  O13  1  0.57502600  0.10024500  0.11141200  1
  O  O14  1  0.82776300  0.53751500  0.46172300  1
  O  O15  1  0.32776300  0.46248500  0.53827700  1
  O  O16  1  0.91255300  0.00896300  0.27960200  1
  O  O17  1  0.41255300  0.99103700  0.72039800  1
  O  O18  1  0.71665600  0.41862400  0.50213100  1
  O  O19  1  0.21665600  0.58137600  0.49786900  1
  O  O20  1  0.31861500  0.60629400  0.98795500  1
  O  O21  1  0.81861500  0.39370600  0.01204500  1
  O  O22  1  0.93260000  0.42032700  0.40658500  1
  O  O23  1  0.43260000  0.57967300  0.59341500  1
  O  O24  1  0.39057600  0.46095100  0.05114700  1
  O  O25  1  0.89057600  0.53904900  0.94885300  1
