# generated using pymatgen
data_SiH3CNO
_symmetry_space_group_name_H-M   'P 1'
_cell_length_a   8.78566900
_cell_length_b   8.05932300
_cell_length_c   7.85067700
_cell_angle_alpha   90.00000000
_cell_angle_beta   90.00000000
_cell_angle_gamma   90.00000000
_symmetry_Int_Tables_number   1
_chemical_formula_structural   SiH3CNO
_chemical_formula_sum   'Si4 H12 C4 N4 O4'
_cell_volume   555.87930833
_cell_formula_units_Z   4
loop_
 _symmetry_equiv_pos_site_id
 _symmetry_equiv_pos_as_xyz
  1  'x, y, z'
loop_
 _atom_site_type_symbol
 _atom_site_label
 _atom_site_symmetry_multiplicity
 _atom_site_fract_x
 _atom_site_fract_y
 _atom_site_fract_z
 _atom_site_occupancy
  Si  Si0  1  0.25482600  0.75000000  0.84151800  1
  Si  Si1  1  0.75482600  0.75000000  0.65848200  1
  Si  Si2  1  0.74517400  0.25000000  0.15848200  1
  Si  Si3  1  0.24517400  0.25000000  0.34151800  1
  H  H4  1  0.20246400  0.75000000  0.66184100  1
  H  H5  1  0.70246400  0.75000000  0.83815900  1
  H  H6  1  0.79753600  0.25000000  0.33815900  1
  H  H7  1  0.29753600  0.25000000  0.16184100  1
  H  H8  1  0.34467000  0.59712900  0.87390300  1
  H  H9  1  0.84467000  0.90287100  0.62609700  1
  H  H10  1  0.65533000  0.09712900  0.12609700  1
  H  H11  1  0.15533000  0.40287100  0.37390300  1
  H  H12  1  0.65533000  0.40287100  0.12609700  1
  H  H13  1  0.15533000  0.09712900  0.37390300  1
  H  H14  1  0.34467000  0.90287100  0.87390300  1
  H  H15  1  0.84467000  0.59712900  0.62609700  1
  C  C16  1  0.01402600  0.75000000  0.09380100  1
  C  C17  1  0.51402600  0.75000000  0.40619900  1
  C  C18  1  0.98597400  0.25000000  0.90619900  1
  C  C19  1  0.48597400  0.25000000  0.59380100  1
  N  N20  1  0.09597200  0.75000000  0.97100200  1
  N  N21  1  0.59597200  0.75000000  0.52899800  1
  N  N22  1  0.90402800  0.25000000  0.02899800  1
  N  N23  1  0.40402800  0.25000000  0.47100200  1
  O  O24  1  0.92819800  0.75000000  0.21058100  1
  O  O25  1  0.42819800  0.75000000  0.28941900  1
  O  O26  1  0.07180200  0.25000000  0.78941900  1
  O  O27  1  0.57180200  0.25000000  0.71058100  1
