# generated using pymatgen
data_BaRe3S4O7
_symmetry_space_group_name_H-M   'P 1'
_cell_length_a   8.67091100
_cell_length_b   8.75160677
_cell_length_c   9.11073060
_cell_angle_alpha   68.67956005
_cell_angle_beta   82.36813862
_cell_angle_gamma   79.78972921
_symmetry_Int_Tables_number   1
_chemical_formula_structural   BaRe3S4O7
_chemical_formula_sum   'Ba2 Re6 S8 O14'
_cell_volume   632.08304123
_cell_formula_units_Z   2
loop_
 _symmetry_equiv_pos_site_id
 _symmetry_equiv_pos_as_xyz
  1  'x, y, z'
loop_
 _atom_site_type_symbol
 _atom_site_label
 _atom_site_symmetry_multiplicity
 _atom_site_fract_x
 _atom_site_fract_y
 _atom_site_fract_z
 _atom_site_occupancy
  Ba  Ba0  1  0.09051500  0.64731200  0.20968700  1
  Ba  Ba1  1  0.90948500  0.35268800  0.79031300  1
  Re  Re2  1  0.31766800  0.23901700  0.52731800  1
  Re  Re3  1  0.68233200  0.76098300  0.47268200  1
  Re  Re4  1  0.72722500  0.13043000  0.51818500  1
  Re  Re5  1  0.27277500  0.86957000  0.48181500  1
  Re  Re6  1  0.51876300  0.13794700  0.20798200  1
  Re  Re7  1  0.48123700  0.86205300  0.79201800  1
  S  S8  1  0.53847000  0.32037600  0.34549800  1
  S  S9  1  0.46153000  0.67962400  0.65450200  1
  S  S10  1  0.51673900  0.14693900  0.70982100  1
  S  S11  1  0.48326100  0.85306100  0.29017900  1
  S  S12  1  0.74586700  0.84418400  0.67629600  1
  S  S13  1  0.25413300  0.15581600  0.32370400  1
  S  S14  1  0.76818400  0.01832600  0.31055000  1
  S  S15  1  0.23181600  0.98167400  0.68945000  1
  O  O16  1  0.17900200  0.40501100  0.54401300  1
  O  O17  1  0.82099800  0.59498900  0.45598700  1
  O  O18  1  0.88220100  0.21876900  0.54215000  1
  O  O19  1  0.11779900  0.78123100  0.45785000  1
  O  O20  1  0.54077300  0.22606500  0.00739800  1
  O  O21  1  0.45922700  0.77393500  0.99260200  1
  O  O22  1  0.24781300  0.54373900  0.98387900  1
  O  O23  1  0.75218700  0.45626100  0.01612100  1
  O  O24  1  0.07211800  0.96250300  0.02121600  1
  O  O25  1  0.92788200  0.03749700  0.97878400  1
  O  O26  1  0.84055500  0.50819600  0.09770800  1
  O  O27  1  0.15944500  0.49180400  0.90229200  1
  O  O28  1  0.87115000  0.66805300  0.02333700  1
  O  O29  1  0.12885000  0.33194700  0.97666300  1
