# generated using pymatgen
data_NaCa2(SiO3)3
_symmetry_space_group_name_H-M   'P 1'
_cell_length_a   7.01077200
_cell_length_b   7.16272211
_cell_length_c   8.09293616
_cell_angle_alpha   95.73715471
_cell_angle_beta   102.32946907
_cell_angle_gamma   90.20779471
_symmetry_Int_Tables_number   1
_chemical_formula_structural   NaCa2(SiO3)3
_chemical_formula_sum   'Na2 Ca4 Si6 O18'
_cell_volume   394.90431932
_cell_formula_units_Z   2
loop_
 _symmetry_equiv_pos_site_id
 _symmetry_equiv_pos_as_xyz
  1  'x, y, z'
loop_
 _atom_site_type_symbol
 _atom_site_label
 _atom_site_symmetry_multiplicity
 _atom_site_fract_x
 _atom_site_fract_y
 _atom_site_fract_z
 _atom_site_occupancy
  Na  Na0  1  0.26660200  0.34783900  0.56158100  1
  Na  Na1  1  0.73339800  0.65216100  0.43841900  1
  Ca  Ca2  1  0.58919100  0.14936100  0.85559500  1
  Ca  Ca3  1  0.41080900  0.85063900  0.14440500  1
  Ca  Ca4  1  0.08736400  0.14037500  0.84850700  1
  Ca  Ca5  1  0.91263600  0.85962500  0.15149300  1
  Si  Si6  1  0.59419600  0.66283400  0.78135100  1
  Si  Si7  1  0.40580400  0.33716600  0.21864900  1
  Si  Si8  1  0.04982300  0.65817900  0.78433100  1
  Si  Si9  1  0.95017700  0.34182100  0.21566900  1
  Si  Si10  1  0.26551500  0.85516200  0.54798800  1
  Si  Si11  1  0.73448500  0.14483800  0.45201200  1
  O  O12  1  0.78873700  0.12972100  0.65399000  1
  O  O13  1  0.21126300  0.87027900  0.34601000  1
  O  O14  1  0.29539500  0.05329100  0.66806900  1
  O  O15  1  0.70460500  0.94670900  0.33193100  1
  O  O16  1  0.50495300  0.45730100  0.80565100  1
  O  O17  1  0.49504700  0.54269900  0.19434900  1
  O  O18  1  0.15039200  0.45590300  0.81706600  1
  O  O19  1  0.84960800  0.54409700  0.18293400  1
  O  O20  1  0.61119400  0.82827600  0.93497700  1
  O  O21  1  0.38880600  0.17172400  0.06502300  1
  O  O22  1  0.10720000  0.82368200  0.94015300  1
  O  O23  1  0.89280000  0.17631800  0.05984700  1
  O  O24  1  0.46791900  0.72875000  0.59912000  1
  O  O25  1  0.53208100  0.27125000  0.40088000  1
  O  O26  1  0.09209300  0.72591600  0.60521600  1
  O  O27  1  0.90790700  0.27408400  0.39478400  1
  O  O28  1  0.81055900  0.61370400  0.73781600  1
  O  O29  1  0.18944100  0.38629600  0.26218400  1
