# generated using pymatgen
data_Er6Mn23
_symmetry_space_group_name_H-M   'P 1'
_cell_length_a   8.45573704
_cell_length_b   8.45573704
_cell_length_c   8.45573704
_cell_angle_alpha   60.00000000
_cell_angle_beta   60.00000000
_cell_angle_gamma   60.00000000
_symmetry_Int_Tables_number   1
_chemical_formula_structural   Er6Mn23
_chemical_formula_sum   'Er6 Mn23'
_cell_volume   427.50323738
_cell_formula_units_Z   1
loop_
 _symmetry_equiv_pos_site_id
 _symmetry_equiv_pos_as_xyz
  1  'x, y, z'
loop_
 _atom_site_type_symbol
 _atom_site_label
 _atom_site_symmetry_multiplicity
 _atom_site_fract_x
 _atom_site_fract_y
 _atom_site_fract_z
 _atom_site_occupancy
  Er  Er0  1  0.79540400  0.79540400  0.20459600  1
  Er  Er1  1  0.20459600  0.79540400  0.20459600  1
  Er  Er2  1  0.79540400  0.20459600  0.20459600  1
  Er  Er3  1  0.20459600  0.20459600  0.79540400  1
  Er  Er4  1  0.79540400  0.20459600  0.79540400  1
  Er  Er5  1  0.20459600  0.79540400  0.79540400  1
  Mn  Mn6  1  0.50000000  0.50000000  0.50000000  1
  Mn  Mn7  1  0.00000000  0.00000000  0.50000000  1
  Mn  Mn8  1  0.50000000  0.00000000  0.50000000  1
  Mn  Mn9  1  0.00000000  0.50000000  0.50000000  1
  Mn  Mn10  1  0.50000000  0.50000000  0.00000000  1
  Mn  Mn11  1  0.00000000  0.50000000  0.00000000  1
  Mn  Mn12  1  0.50000000  0.00000000  0.00000000  1
  Mn  Mn13  1  0.62167900  0.62167900  0.13496200  1
  Mn  Mn14  1  0.62167900  0.13496200  0.62167900  1
  Mn  Mn15  1  0.13496200  0.62167900  0.62167900  1
  Mn  Mn16  1  0.62167900  0.62167900  0.62167900  1
  Mn  Mn17  1  0.37832100  0.37832100  0.86503800  1
  Mn  Mn18  1  0.37832100  0.86503800  0.37832100  1
  Mn  Mn19  1  0.86503800  0.37832100  0.37832100  1
  Mn  Mn20  1  0.37832100  0.37832100  0.37832100  1
  Mn  Mn21  1  0.82300700  0.82300700  0.53098000  1
  Mn  Mn22  1  0.82300700  0.53098000  0.82300700  1
  Mn  Mn23  1  0.53098000  0.82300700  0.82300700  1
  Mn  Mn24  1  0.82300700  0.82300700  0.82300700  1
  Mn  Mn25  1  0.17699300  0.17699300  0.46902000  1
  Mn  Mn26  1  0.17699300  0.46902000  0.17699300  1
  Mn  Mn27  1  0.46902000  0.17699300  0.17699300  1
  Mn  Mn28  1  0.17699300  0.17699300  0.17699300  1
