# generated using pymatgen
data_CoPNO10
_symmetry_space_group_name_H-M   'P 1'
_cell_length_a   7.84600900
_cell_length_b   4.90737300
_cell_length_c   12.32928600
_cell_angle_alpha   90.00000000
_cell_angle_beta   90.00000000
_cell_angle_gamma   90.00000000
_symmetry_Int_Tables_number   1
_chemical_formula_structural   CoPNO10
_chemical_formula_sum   'Co2 P2 N2 O20'
_cell_volume   474.71810794
_cell_formula_units_Z   2
loop_
 _symmetry_equiv_pos_site_id
 _symmetry_equiv_pos_as_xyz
  1  'x, y, z'
loop_
 _atom_site_type_symbol
 _atom_site_label
 _atom_site_symmetry_multiplicity
 _atom_site_fract_x
 _atom_site_fract_y
 _atom_site_fract_z
 _atom_site_occupancy
  Co  Co0  1  0.57923000  0.50000000  0.09566000  1
  Co  Co1  1  0.42077000  0.00000000  0.59566000  1
  P  P2  1  0.92054000  0.50000000  0.52140700  1
  P  P3  1  0.07946000  0.00000000  0.02140700  1
  N  N4  1  0.64643600  0.50000000  0.77941500  1
  N  N5  1  0.35356400  0.00000000  0.27941500  1
  O  O6  1  0.67430400  0.50000000  0.20978900  1
  O  O7  1  0.32569600  0.00000000  0.70978900  1
  O  O8  1  0.95029800  0.50000000  0.03595400  1
  O  O9  1  0.04970200  0.00000000  0.53595400  1
  O  O10  1  0.35825300  0.23009200  0.30684300  1
  O  O11  1  0.35825300  0.76990800  0.30684300  1
  O  O12  1  0.64174700  0.26990800  0.80684300  1
  O  O13  1  0.64174700  0.73009200  0.80684300  1
  O  O14  1  0.53764100  0.22441000  0.03351300  1
  O  O15  1  0.53764100  0.77559000  0.03351300  1
  O  O16  1  0.46235900  0.27559000  0.53351200  1
  O  O17  1  0.46235900  0.72441000  0.53351200  1
  O  O18  1  0.93308700  0.50000000  0.64089400  1
  O  O19  1  0.06691300  0.00000000  0.14089400  1
  O  O20  1  0.76764900  0.50000000  0.45045200  1
  O  O21  1  0.23235100  0.00000000  0.95045200  1
  O  O22  1  0.95587900  0.26580200  0.96515900  1
  O  O23  1  0.95587900  0.73419800  0.96515900  1
  O  O24  1  0.04412100  0.23419800  0.46515900  1
  O  O25  1  0.04412100  0.76580200  0.46515900  1
