# generated using pymatgen
data_KZn4SbO7
_symmetry_space_group_name_H-M   'P 1'
_cell_length_a   6.23785261
_cell_length_b   6.23785261
_cell_length_c   10.10553600
_cell_angle_alpha   90.00000000
_cell_angle_beta   90.00000000
_cell_angle_gamma   120.00000646
_symmetry_Int_Tables_number   1
_chemical_formula_structural   KZn4SbO7
_chemical_formula_sum   'K2 Zn8 Sb2 O14'
_cell_volume   340.53376072
_cell_formula_units_Z   2
loop_
 _symmetry_equiv_pos_site_id
 _symmetry_equiv_pos_as_xyz
  1  'x, y, z'
loop_
 _atom_site_type_symbol
 _atom_site_label
 _atom_site_symmetry_multiplicity
 _atom_site_fract_x
 _atom_site_fract_y
 _atom_site_fract_z
 _atom_site_occupancy
  K  K0  1  0.33333300  0.66666700  0.82249100  1
  K  K1  1  0.66666700  0.33333300  0.32249100  1
  Zn  Zn2  1  0.00000000  0.00000000  0.25245900  1
  Zn  Zn3  1  0.00000000  0.00000000  0.75245900  1
  Zn  Zn4  1  0.34641800  0.17320900  0.00693900  1
  Zn  Zn5  1  0.82679100  0.65358200  0.00693900  1
  Zn  Zn6  1  0.82679100  0.17320900  0.00693900  1
  Zn  Zn7  1  0.65358200  0.82679100  0.50693900  1
  Zn  Zn8  1  0.17320900  0.34641800  0.50693900  1
  Zn  Zn9  1  0.17320900  0.82679100  0.50693900  1
  Sb  Sb10  1  0.33333300  0.66666700  0.19502500  1
  Sb  Sb11  1  0.66666700  0.33333300  0.69502500  1
  O  O12  1  0.00000000  0.00000000  0.05714200  1
  O  O13  1  0.00000000  0.00000000  0.55714200  1
  O  O14  1  0.17839300  0.35678500  0.31074100  1
  O  O15  1  0.17839300  0.82160700  0.31074100  1
  O  O16  1  0.64321500  0.82160700  0.31074100  1
  O  O17  1  0.82160700  0.64321500  0.81074100  1
  O  O18  1  0.82160700  0.17839300  0.81074100  1
  O  O19  1  0.35678500  0.17839300  0.81074100  1
  O  O20  1  0.48821600  0.97643300  0.08005500  1
  O  O21  1  0.48821600  0.51178400  0.08005500  1
  O  O22  1  0.02356700  0.51178400  0.08005500  1
  O  O23  1  0.51178400  0.02356700  0.58005500  1
  O  O24  1  0.51178400  0.48821600  0.58005500  1
  O  O25  1  0.97643300  0.48821600  0.58005500  1
