# generated using pymatgen
data_Sr2CuSe2(ClO3)2
_symmetry_space_group_name_H-M   'P 1'
_cell_length_a   6.61791800
_cell_length_b   5.26864600
_cell_length_c   13.52829680
_cell_angle_alpha   68.53860658
_cell_angle_beta   90.00000000
_cell_angle_gamma   90.00000000
_symmetry_Int_Tables_number   1
_chemical_formula_structural   Sr2CuSe2(ClO3)2
_chemical_formula_sum   'Sr4 Cu2 Se4 Cl4 O12'
_cell_volume   438.99197688
_cell_formula_units_Z   2
loop_
 _symmetry_equiv_pos_site_id
 _symmetry_equiv_pos_as_xyz
  1  'x, y, z'
loop_
 _atom_site_type_symbol
 _atom_site_label
 _atom_site_symmetry_multiplicity
 _atom_site_fract_x
 _atom_site_fract_y
 _atom_site_fract_z
 _atom_site_occupancy
  Sr  Sr0  1  0.78268200  0.78118600  0.73192700  1
  Sr  Sr1  1  0.71731800  0.78118600  0.23192700  1
  Sr  Sr2  1  0.21731800  0.21881400  0.26807300  1
  Sr  Sr3  1  0.28268200  0.21881400  0.76807300  1
  Cu  Cu4  1  0.00000000  0.50000000  0.50000000  1
  Cu  Cu5  1  0.50000000  0.50000000  0.00000000  1
  Se  Se6  1  0.25418200  0.92213700  0.57345300  1
  Se  Se7  1  0.24581800  0.92213700  0.07345300  1
  Se  Se8  1  0.74581800  0.07786300  0.42654700  1
  Se  Se9  1  0.75418200  0.07786300  0.92654700  1
  Cl  Cl10  1  0.64384200  0.41744000  0.61493600  1
  Cl  Cl11  1  0.85615800  0.41744000  0.11493600  1
  Cl  Cl12  1  0.35615800  0.58256000  0.38506400  1
  Cl  Cl13  1  0.14384200  0.58256000  0.88506400  1
  O  O14  1  0.07046100  0.12408800  0.60417700  1
  O  O15  1  0.42953900  0.12408800  0.10417700  1
  O  O16  1  0.92953900  0.87591200  0.39582300  1
  O  O17  1  0.57046100  0.87591200  0.89582300  1
  O  O18  1  0.40580900  0.85758500  0.68077700  1
  O  O19  1  0.09419100  0.85758500  0.18077700  1
  O  O20  1  0.59419100  0.14241500  0.31922300  1
  O  O21  1  0.90580900  0.14241500  0.81922300  1
  O  O22  1  0.10922400  0.62197000  0.61361500  1
  O  O23  1  0.39077600  0.62197000  0.11361500  1
  O  O24  1  0.89077600  0.37803000  0.38638500  1
  O  O25  1  0.60922400  0.37803000  0.88638500  1
