# generated using pymatgen
data_CdC4S2(NO)4
_symmetry_space_group_name_H-M   'P 1'
_cell_length_a   3.94835600
_cell_length_b   8.75044000
_cell_length_c   18.47789200
_cell_angle_alpha   90.00000000
_cell_angle_beta   90.00000000
_cell_angle_gamma   90.00000000
_symmetry_Int_Tables_number   1
_chemical_formula_structural   CdC4S2(NO)4
_chemical_formula_sum   'Cd2 C8 S4 N8 O8'
_cell_volume   638.40843898
_cell_formula_units_Z   2
loop_
 _symmetry_equiv_pos_site_id
 _symmetry_equiv_pos_as_xyz
  1  'x, y, z'
loop_
 _atom_site_type_symbol
 _atom_site_label
 _atom_site_symmetry_multiplicity
 _atom_site_fract_x
 _atom_site_fract_y
 _atom_site_fract_z
 _atom_site_occupancy
  Cd  Cd0  1  0.88307200  0.50000000  0.50000000  1
  Cd  Cd1  1  0.11692800  0.00000000  0.00000000  1
  C  C2  1  0.34786000  0.34917000  0.64082900  1
  C  C3  1  0.34786000  0.65083000  0.35917100  1
  C  C4  1  0.65214000  0.84917000  0.85917100  1
  C  C5  1  0.65214000  0.15083000  0.14082900  1
  C  C6  1  0.88844500  0.82560800  0.62976300  1
  C  C7  1  0.88844500  0.17439200  0.37023700  1
  C  C8  1  0.11155500  0.32560800  0.87023700  1
  C  C9  1  0.11155500  0.67439200  0.12976300  1
  S  S10  1  0.39441800  0.31750400  0.54984700  1
  S  S11  1  0.39441800  0.68249600  0.45015300  1
  S  S12  1  0.60558200  0.81750400  0.95015300  1
  S  S13  1  0.60558200  0.18249600  0.04984700  1
  N  N14  1  0.40928000  0.44398000  0.69501000  1
  N  N15  1  0.40928000  0.55602000  0.30499000  1
  N  N16  1  0.59072000  0.94398000  0.80499000  1
  N  N17  1  0.59072000  0.05602000  0.19501000  1
  N  N18  1  0.21185500  0.28818100  0.69932300  1
  N  N19  1  0.21185500  0.71181900  0.30067700  1
  N  N20  1  0.78814500  0.78818100  0.80067700  1
  N  N21  1  0.78814500  0.21181900  0.19932300  1
  O  O22  1  0.81822700  0.70411900  0.60594100  1
  O  O23  1  0.81822700  0.29588100  0.39405900  1
  O  O24  1  0.18177300  0.20411900  0.89405900  1
  O  O25  1  0.18177300  0.79588100  0.10594100  1
  O  O26  1  0.95718200  0.94676200  0.65177400  1
  O  O27  1  0.95718200  0.05323800  0.34822600  1
  O  O28  1  0.04281800  0.44676200  0.84822600  1
  O  O29  1  0.04281800  0.55323800  0.15177400  1
