# generated using pymatgen
data_Na9Sn4
_symmetry_space_group_name_H-M   'P 1'
_cell_length_a   5.44785253
_cell_length_b   5.44785253
_cell_length_c   29.27040000
_cell_angle_alpha   90.00000000
_cell_angle_beta   90.00000000
_cell_angle_gamma   119.85125782
_symmetry_Int_Tables_number   1
_chemical_formula_structural   Na9Sn4
_chemical_formula_sum   'Na18 Sn8'
_cell_volume   753.45784095
_cell_formula_units_Z   2
loop_
 _symmetry_equiv_pos_site_id
 _symmetry_equiv_pos_as_xyz
  1  'x, y, z'
loop_
 _atom_site_type_symbol
 _atom_site_label
 _atom_site_symmetry_multiplicity
 _atom_site_fract_x
 _atom_site_fract_y
 _atom_site_fract_z
 _atom_site_occupancy
  Na  Na0  1  0.17457100  0.82542900  0.25000000  1
  Na  Na1  1  0.82542900  0.17457100  0.75000000  1
  Na  Na2  1  0.83157300  0.16842700  0.09079500  1
  Na  Na3  1  0.16842700  0.83157300  0.90920500  1
  Na  Na4  1  0.83157300  0.16842700  0.40920500  1
  Na  Na5  1  0.16842700  0.83157300  0.59079500  1
  Na  Na6  1  0.49734000  0.50266000  0.32897100  1
  Na  Na7  1  0.50266000  0.49734000  0.67102900  1
  Na  Na8  1  0.49734000  0.50266000  0.17102900  1
  Na  Na9  1  0.50266000  0.49734000  0.82897100  1
  Na  Na10  1  0.83885600  0.16114400  0.86318300  1
  Na  Na11  1  0.16114400  0.83885600  0.13681700  1
  Na  Na12  1  0.83885600  0.16114400  0.63681700  1
  Na  Na13  1  0.16114400  0.83885600  0.36318300  1
  Na  Na14  1  0.83039800  0.16960200  0.97795400  1
  Na  Na15  1  0.16960200  0.83039800  0.02204600  1
  Na  Na16  1  0.83039800  0.16960200  0.52204600  1
  Na  Na17  1  0.16960200  0.83039800  0.47795400  1
  Sn  Sn18  1  0.83463900  0.16536100  0.29848700  1
  Sn  Sn19  1  0.16536100  0.83463900  0.70151300  1
  Sn  Sn20  1  0.83463900  0.16536100  0.20151300  1
  Sn  Sn21  1  0.16536100  0.83463900  0.79848700  1
  Sn  Sn22  1  0.50182300  0.49817700  0.44933300  1
  Sn  Sn23  1  0.49817700  0.50182300  0.55066700  1
  Sn  Sn24  1  0.50182300  0.49817700  0.05066700  1
  Sn  Sn25  1  0.49817700  0.50182300  0.94933300  1
