# generated using pymatgen
data_SrV3O11
_symmetry_space_group_name_H-M   'P 1'
_cell_length_a   11.22826200
_cell_length_b   5.28935200
_cell_length_c   9.07300453
_cell_angle_alpha   86.99417824
_cell_angle_beta   90.00000000
_cell_angle_gamma   90.00000000
_symmetry_Int_Tables_number   1
_chemical_formula_structural   SrV3O11
_chemical_formula_sum   'Sr2 V6 O22'
_cell_volume   538.10648610
_cell_formula_units_Z   2
loop_
 _symmetry_equiv_pos_site_id
 _symmetry_equiv_pos_as_xyz
  1  'x, y, z'
loop_
 _atom_site_type_symbol
 _atom_site_label
 _atom_site_symmetry_multiplicity
 _atom_site_fract_x
 _atom_site_fract_y
 _atom_site_fract_z
 _atom_site_occupancy
  Sr  Sr0  1  0.25000000  0.72767000  0.24972900  1
  Sr  Sr1  1  0.75000000  0.27233000  0.75027100  1
  V  V2  1  0.25000000  0.25205300  0.97628300  1
  V  V3  1  0.75000000  0.74794700  0.02371700  1
  V  V4  1  0.01767500  0.75571800  0.93333200  1
  V  V5  1  0.51767500  0.24428200  0.06666800  1
  V  V6  1  0.98232500  0.24428200  0.06666800  1
  V  V7  1  0.48232500  0.75571800  0.93333200  1
  O  O8  1  0.10969000  0.00502900  0.02107700  1
  O  O9  1  0.60969000  0.99497100  0.97892300  1
  O  O10  1  0.89031000  0.99497100  0.97892300  1
  O  O11  1  0.39031000  0.00502900  0.02107700  1
  O  O12  1  0.10954800  0.49145000  0.02172400  1
  O  O13  1  0.60954800  0.50855000  0.97827600  1
  O  O14  1  0.89045200  0.50855000  0.97827600  1
  O  O15  1  0.39045200  0.49145000  0.02172400  1
  O  O16  1  0.96065300  0.23112900  0.24059900  1
  O  O17  1  0.46065300  0.76887100  0.75940100  1
  O  O18  1  0.03934700  0.76887100  0.75940100  1
  O  O19  1  0.53934700  0.23112900  0.24059900  1
  O  O20  1  0.25000000  0.27067000  0.79703500  1
  O  O21  1  0.75000000  0.72933000  0.20296500  1
  O  O22  1  0.07856100  0.74290200  0.41897800  1
  O  O23  1  0.57856100  0.25709800  0.58102200  1
  O  O24  1  0.92143900  0.25709800  0.58102200  1
  O  O25  1  0.42143900  0.74290200  0.41897800  1
  O  O26  1  0.25000000  0.79159900  0.53970300  1
  O  O27  1  0.75000000  0.20840100  0.46029700  1
  O  O28  1  0.25000000  0.23150800  0.21350300  1
  O  O29  1  0.75000000  0.76849200  0.78649700  1
