# generated using pymatgen
data_NaZnAs(H2O3)2
_symmetry_space_group_name_H-M   'P 1'
_cell_length_a   6.00560000
_cell_length_b   6.22227235
_cell_length_c   8.06767840
_cell_angle_alpha   84.63390980
_cell_angle_beta   83.35707367
_cell_angle_gamma   88.61556334
_symmetry_Int_Tables_number   1
_chemical_formula_structural   NaZnAs(H2O3)2
_chemical_formula_sum   'Na2 Zn2 As2 H8 O12'
_cell_volume   298.11337566
_cell_formula_units_Z   2
loop_
 _symmetry_equiv_pos_site_id
 _symmetry_equiv_pos_as_xyz
  1  'x, y, z'
loop_
 _atom_site_type_symbol
 _atom_site_label
 _atom_site_symmetry_multiplicity
 _atom_site_fract_x
 _atom_site_fract_y
 _atom_site_fract_z
 _atom_site_occupancy
  Na  Na0  1  0.00000000  0.00000000  0.00000000  1
  Na  Na1  1  0.50000000  0.50000000  0.00000000  1
  Zn  Zn2  1  0.69932500  0.76812200  0.39407800  1
  Zn  Zn3  1  0.30067500  0.23187800  0.60592200  1
  As  As4  1  0.18099400  0.73946000  0.60639600  1
  As  As5  1  0.81900600  0.26054000  0.39360400  1
  H  H6  1  0.80993700  0.64756400  0.89927300  1
  H  H7  1  0.19006300  0.35243600  0.10072700  1
  H  H8  1  0.75644000  0.82996500  0.77308900  1
  H  H9  1  0.24356000  0.17003500  0.22691100  1
  H  H10  1  0.98512900  0.39882900  0.84490300  1
  H  H11  1  0.01487100  0.60117100  0.15509700  1
  H  H12  1  0.87363500  0.35492000  0.03894500  1
  H  H13  1  0.12636500  0.64508000  0.96105500  1
  O  O14  1  0.37008400  0.74296800  0.43067500  1
  O  O15  1  0.62991600  0.25703200  0.56932500  1
  O  O16  1  0.90387000  0.75339300  0.57145800  1
  O  O17  1  0.09613000  0.24660700  0.42854200  1
  O  O18  1  0.22831100  0.94214600  0.73090100  1
  O  O19  1  0.77168900  0.05785400  0.26909900  1
  O  O20  1  0.21103800  0.49646000  0.73630700  1
  O  O21  1  0.78896200  0.50354000  0.26369300  1
  O  O22  1  0.73681300  0.79101200  0.89616300  1
  O  O23  1  0.26318700  0.20898800  0.10383700  1
  O  O24  1  0.84673600  0.34809700  0.92177100  1
  O  O25  1  0.15326400  0.65190300  0.07822900  1
