# generated using pymatgen
data_Pr(IO3)3
_symmetry_space_group_name_H-M   'P 1'
_cell_length_a   6.96806500
_cell_length_b   6.65504700
_cell_length_c   8.27471200
_cell_angle_alpha   90.00000000
_cell_angle_beta   90.00000000
_cell_angle_gamma   90.00000000
_symmetry_Int_Tables_number   1
_chemical_formula_structural   Pr(IO3)3
_chemical_formula_sum   'Pr2 I6 O18'
_cell_volume   383.72156525
_cell_formula_units_Z   2
loop_
 _symmetry_equiv_pos_site_id
 _symmetry_equiv_pos_as_xyz
  1  'x, y, z'
loop_
 _atom_site_type_symbol
 _atom_site_label
 _atom_site_symmetry_multiplicity
 _atom_site_fract_x
 _atom_site_fract_y
 _atom_site_fract_z
 _atom_site_occupancy
  Pr  Pr0  1  0.75000000  0.61483500  0.75000000  1
  Pr  Pr1  1  0.25000000  0.38516500  0.25000000  1
  I  I2  1  0.25000000  0.85971100  0.54458500  1
  I  I3  1  0.25000000  0.85971100  0.95541500  1
  I  I4  1  0.75000000  0.14028900  0.45541500  1
  I  I5  1  0.75000000  0.14028900  0.04458500  1
  I  I6  1  0.25000000  0.39583800  0.75000000  1
  I  I7  1  0.75000000  0.60416200  0.25000000  1
  O  O8  1  0.75000000  0.86888100  0.51488600  1
  O  O9  1  0.75000000  0.86888100  0.98511400  1
  O  O10  1  0.25000000  0.13111900  0.48511400  1
  O  O11  1  0.25000000  0.13111900  0.01488600  1
  O  O12  1  0.42772400  0.90477300  0.75000000  1
  O  O13  1  0.07227600  0.90477300  0.75000000  1
  O  O14  1  0.57227600  0.09522700  0.25000000  1
  O  O15  1  0.92772400  0.09522700  0.25000000  1
  O  O16  1  0.07102700  0.52948500  0.89272800  1
  O  O17  1  0.07102700  0.52948500  0.60727200  1
  O  O18  1  0.42897300  0.52948500  0.89272800  1
  O  O19  1  0.42897300  0.52948500  0.60727200  1
  O  O20  1  0.92897300  0.47051500  0.10727200  1
  O  O21  1  0.92897300  0.47051500  0.39272800  1
  O  O22  1  0.57102700  0.47051500  0.10727200  1
  O  O23  1  0.57102700  0.47051500  0.39272800  1
  O  O24  1  0.75000000  0.26045500  0.75000000  1
  O  O25  1  0.25000000  0.73954500  0.25000000  1
