# generated using pymatgen
data_Cu(SbO2)2
_symmetry_space_group_name_H-M   'P 1'
_cell_length_a   8.94562400
_cell_length_b   8.94562400
_cell_length_c   5.89253000
_cell_angle_alpha   90.00000000
_cell_angle_beta   90.00000000
_cell_angle_gamma   90.00000000
_symmetry_Int_Tables_number   1
_chemical_formula_structural   Cu(SbO2)2
_chemical_formula_sum   'Cu4 Sb8 O16'
_cell_volume   471.54493293
_cell_formula_units_Z   4
loop_
 _symmetry_equiv_pos_site_id
 _symmetry_equiv_pos_as_xyz
  1  'x, y, z'
loop_
 _atom_site_type_symbol
 _atom_site_label
 _atom_site_symmetry_multiplicity
 _atom_site_fract_x
 _atom_site_fract_y
 _atom_site_fract_z
 _atom_site_occupancy
  Cu  Cu0  1  0.50000000  0.00000000  0.26774400  1
  Cu  Cu1  1  0.00000000  0.50000000  0.26774400  1
  Cu  Cu2  1  0.00000000  0.50000000  0.76774400  1
  Cu  Cu3  1  0.50000000  0.00000000  0.76774400  1
  Sb  Sb4  1  0.31039800  0.34693100  0.50667000  1
  Sb  Sb5  1  0.81039800  0.15306900  0.50667000  1
  Sb  Sb6  1  0.65306900  0.31039800  0.00667000  1
  Sb  Sb7  1  0.84693100  0.81039800  0.00667000  1
  Sb  Sb8  1  0.68960200  0.65306900  0.50667000  1
  Sb  Sb9  1  0.18960200  0.84693100  0.50667000  1
  Sb  Sb10  1  0.34693100  0.68960200  0.00667000  1
  Sb  Sb11  1  0.15306900  0.18960200  0.00667000  1
  O  O12  1  0.79087900  0.31555400  0.27472100  1
  O  O13  1  0.29087900  0.18444600  0.27472100  1
  O  O14  1  0.68444600  0.79087900  0.77472100  1
  O  O15  1  0.81555400  0.29087900  0.77472100  1
  O  O16  1  0.20912100  0.68444600  0.27472100  1
  O  O17  1  0.70912100  0.81555400  0.27472100  1
  O  O18  1  0.31555400  0.20912100  0.77472100  1
  O  O19  1  0.18444600  0.70912100  0.77472100  1
  O  O20  1  0.08989400  0.37939300  0.51873800  1
  O  O21  1  0.58989400  0.12060700  0.51873800  1
  O  O22  1  0.62060700  0.08989400  0.01873800  1
  O  O23  1  0.87939300  0.58989400  0.01873800  1
  O  O24  1  0.91010600  0.62060700  0.51873800  1
  O  O25  1  0.41010600  0.87939300  0.51873800  1
  O  O26  1  0.37939300  0.91010600  0.01873800  1
  O  O27  1  0.12060700  0.41010600  0.01873800  1
