# generated using pymatgen
data_K2Ca2Mg(S2O9)2
_symmetry_space_group_name_H-M   'P 1'
_cell_length_a   6.86596100
_cell_length_b   7.01958308
_cell_length_c   9.02542703
_cell_angle_alpha   99.73339066
_cell_angle_beta   104.63198541
_cell_angle_gamma   112.18985522
_symmetry_Int_Tables_number   1
_chemical_formula_structural   K2Ca2Mg(S2O9)2
_chemical_formula_sum   'K2 Ca2 Mg1 S4 O18'
_cell_volume   372.34506249
_cell_formula_units_Z   1
loop_
 _symmetry_equiv_pos_site_id
 _symmetry_equiv_pos_as_xyz
  1  'x, y, z'
loop_
 _atom_site_type_symbol
 _atom_site_label
 _atom_site_symmetry_multiplicity
 _atom_site_fract_x
 _atom_site_fract_y
 _atom_site_fract_z
 _atom_site_occupancy
  K  K0  1  0.21112000  0.48718500  0.42668600  1
  K  K1  1  0.78888000  0.51281500  0.57331400  1
  Ca  Ca2  1  0.63142700  0.86457200  0.25190300  1
  Ca  Ca3  1  0.36857300  0.13542800  0.74809700  1
  Mg  Mg4  1  0.00000000  0.00000000  0.00000000  1
  S  S5  1  0.42491600  0.68551700  0.86095000  1
  S  S6  1  0.57508400  0.31448300  0.13905000  1
  S  S7  1  0.81103800  0.04470200  0.63898700  1
  S  S8  1  0.18896200  0.95529800  0.36101300  1
  O  O9  1  0.43040700  0.49851400  0.76155500  1
  O  O10  1  0.56959300  0.50148600  0.23844500  1
  O  O11  1  0.30406000  0.77501700  0.75443200  1
  O  O12  1  0.69594000  0.22498300  0.24556800  1
  O  O13  1  0.65920600  0.85346700  0.95894000  1
  O  O14  1  0.34079400  0.14653300  0.04106000  1
  O  O15  1  0.31395200  0.62667100  0.98042600  1
  O  O16  1  0.68604800  0.37332900  0.01957400  1
  O  O17  1  0.92285700  0.17455500  0.54521500  1
  O  O18  1  0.07714300  0.82544500  0.45478500  1
  O  O19  1  0.64685200  0.82579700  0.52874400  1
  O  O20  1  0.35314800  0.17420300  0.47125600  1
  O  O21  1  0.98828700  0.02083500  0.76599000  1
  O  O22  1  0.01171300  0.97916500  0.23401000  1
  O  O23  1  0.70414000  0.15225600  0.72172600  1
  O  O24  1  0.29586000  0.84774400  0.27827400  1
  O  O25  1  0.00405400  0.30333200  0.09625100  1
  O  O26  1  0.99594600  0.69666800  0.90374900  1
