# generated using pymatgen
data_Hf3(Ni10B3)2
_symmetry_space_group_name_H-M   'P 1'
_cell_length_a   7.53328230
_cell_length_b   7.53328230
_cell_length_c   7.53328230
_cell_angle_alpha   60.00000000
_cell_angle_beta   60.00000000
_cell_angle_gamma   60.00000000
_symmetry_Int_Tables_number   1
_chemical_formula_structural   Hf3(Ni10B3)2
_chemical_formula_sum   'Hf3 Ni20 B6'
_cell_volume   302.29970928
_cell_formula_units_Z   1
loop_
 _symmetry_equiv_pos_site_id
 _symmetry_equiv_pos_as_xyz
  1  'x, y, z'
loop_
 _atom_site_type_symbol
 _atom_site_label
 _atom_site_symmetry_multiplicity
 _atom_site_fract_x
 _atom_site_fract_y
 _atom_site_fract_z
 _atom_site_occupancy
  Hf  Hf0  1  0.00000000  0.00000000  0.00000000  1
  Hf  Hf1  1  0.75000000  0.75000000  0.75000000  1
  Hf  Hf2  1  0.25000000  0.25000000  0.25000000  1
  Ni  Ni3  1  0.61406800  0.61406800  0.15779700  1
  Ni  Ni4  1  0.61406800  0.15779700  0.61406800  1
  Ni  Ni5  1  0.15779700  0.61406800  0.61406800  1
  Ni  Ni6  1  0.61406800  0.61406800  0.61406800  1
  Ni  Ni7  1  0.38593200  0.38593200  0.84220300  1
  Ni  Ni8  1  0.38593200  0.84220300  0.38593200  1
  Ni  Ni9  1  0.84220300  0.38593200  0.38593200  1
  Ni  Ni10  1  0.38593200  0.38593200  0.38593200  1
  Ni  Ni11  1  0.00000000  0.00000000  0.34393100  1
  Ni  Ni12  1  0.65606900  0.00000000  0.34393100  1
  Ni  Ni13  1  0.00000000  0.65606900  0.34393100  1
  Ni  Ni14  1  0.65606900  0.34393100  0.00000000  1
  Ni  Ni15  1  0.00000000  0.34393100  0.00000000  1
  Ni  Ni16  1  0.00000000  0.34393100  0.65606900  1
  Ni  Ni17  1  0.34393100  0.65606900  0.00000000  1
  Ni  Ni18  1  0.34393100  0.00000000  0.65606900  1
  Ni  Ni19  1  0.34393100  0.00000000  0.00000000  1
  Ni  Ni20  1  0.00000000  0.00000000  0.65606900  1
  Ni  Ni21  1  0.00000000  0.65606900  0.00000000  1
  Ni  Ni22  1  0.65606900  0.00000000  0.00000000  1
  B  B23  1  0.73348400  0.73348400  0.26651600  1
  B  B24  1  0.26651600  0.73348400  0.26651600  1
  B  B25  1  0.73348400  0.26651600  0.26651600  1
  B  B26  1  0.26651600  0.26651600  0.73348400  1
  B  B27  1  0.73348400  0.26651600  0.73348400  1
  B  B28  1  0.26651600  0.73348400  0.73348400  1
