# generated using pymatgen
data_NaH3C4O5
_symmetry_space_group_name_H-M   'P 1'
_cell_length_a   3.90127998
_cell_length_b   8.16464500
_cell_length_c   9.83615325
_cell_angle_alpha   90.00000000
_cell_angle_beta   102.45569401
_cell_angle_gamma   90.00000000
_symmetry_Int_Tables_number   1
_chemical_formula_structural   NaH3C4O5
_chemical_formula_sum   'Na2 H6 C8 O10'
_cell_volume   305.93244771
_cell_formula_units_Z   2
loop_
 _symmetry_equiv_pos_site_id
 _symmetry_equiv_pos_as_xyz
  1  'x, y, z'
loop_
 _atom_site_type_symbol
 _atom_site_label
 _atom_site_symmetry_multiplicity
 _atom_site_fract_x
 _atom_site_fract_y
 _atom_site_fract_z
 _atom_site_occupancy
  Na  Na0  1  0.47163900  0.86210200  0.85129200  1
  Na  Na1  1  0.47163900  0.13789800  0.35129200  1
  H  H2  1  0.89946600  0.96411100  0.63785700  1
  H  H3  1  0.89946600  0.03588900  0.13785700  1
  H  H4  1  0.87890600  0.77287900  0.63591700  1
  H  H5  1  0.87890600  0.22712100  0.13591700  1
  H  H6  1  0.73336400  0.51309400  0.48062900  1
  H  H7  1  0.73336400  0.48690600  0.98062900  1
  C  C8  1  0.32937900  0.44351600  0.77845300  1
  C  C9  1  0.32937900  0.55648400  0.27845300  1
  C  C10  1  0.08245000  0.44304400  0.64638000  1
  C  C11  1  0.08245000  0.55695600  0.14638000  1
  C  C12  1  0.08775300  0.26539500  0.63607600  1
  C  C13  1  0.08775300  0.73460500  0.13607600  1
  C  C14  1  0.33670600  0.25997900  0.77640700  1
  C  C15  1  0.33670600  0.74002100  0.27640700  1
  O  O16  1  0.89682700  0.86765900  0.69865000  1
  O  O17  1  0.89682700  0.13234100  0.19865000  1
  O  O18  1  0.47903100  0.55249800  0.86243900  1
  O  O19  1  0.47903100  0.44750200  0.36243900  1
  O  O20  1  0.91540100  0.56027200  0.56845400  1
  O  O21  1  0.91540100  0.43972800  0.06845400  1
  O  O22  1  0.94453800  0.16047400  0.54922600  1
  O  O23  1  0.94453800  0.83952600  0.04922600  1
  O  O24  1  0.48024000  0.15219200  0.85652000  1
  O  O25  1  0.48024000  0.84780800  0.35652000  1
