# generated using pymatgen
data_MgMo2(NO5)2
_symmetry_space_group_name_H-M   'P 1'
_cell_length_a   5.91235041
_cell_length_b   6.43273011
_cell_length_c   15.56193200
_cell_angle_alpha   90.00000000
_cell_angle_beta   90.00000000
_cell_angle_gamma   117.16113344
_symmetry_Int_Tables_number   1
_chemical_formula_structural   MgMo2(NO5)2
_chemical_formula_sum   'Mg2 Mo4 N4 O20'
_cell_volume   526.59339709
_cell_formula_units_Z   2
loop_
 _symmetry_equiv_pos_site_id
 _symmetry_equiv_pos_as_xyz
  1  'x, y, z'
loop_
 _atom_site_type_symbol
 _atom_site_label
 _atom_site_symmetry_multiplicity
 _atom_site_fract_x
 _atom_site_fract_y
 _atom_site_fract_z
 _atom_site_occupancy
  Mg  Mg0  1  0.00000000  0.50000000  0.50000000  1
  Mg  Mg1  1  0.50000000  0.50000000  0.00000000  1
  Mo  Mo2  1  0.87608600  0.25448100  0.11475700  1
  Mo  Mo3  1  0.62391400  0.74551900  0.61475700  1
  Mo  Mo4  1  0.12391400  0.74551900  0.88524300  1
  Mo  Mo5  1  0.37608600  0.25448100  0.38524300  1
  N  N6  1  0.72543300  0.91899900  0.36683100  1
  N  N7  1  0.77456700  0.08100100  0.86683100  1
  N  N8  1  0.27456700  0.08100100  0.63316900  1
  N  N9  1  0.22543300  0.91899900  0.13316900  1
  O  O10  1  0.74257500  0.93829400  0.17514100  1
  O  O11  1  0.75742500  0.06170600  0.67514100  1
  O  O12  1  0.25742500  0.06170600  0.82485900  1
  O  O13  1  0.24257500  0.93829400  0.32485900  1
  O  O14  1  0.64287700  0.29817400  0.05542100  1
  O  O15  1  0.85712300  0.70182600  0.55542100  1
  O  O16  1  0.35712300  0.70182600  0.94457900  1
  O  O17  1  0.14287700  0.29817400  0.44457900  1
  O  O18  1  0.14664700  0.30858400  0.04996000  1
  O  O19  1  0.35335300  0.69141600  0.54996000  1
  O  O20  1  0.85335300  0.69141600  0.95004000  1
  O  O21  1  0.64664700  0.30858400  0.45004000  1
  O  O22  1  0.97194100  0.44240800  0.20016400  1
  O  O23  1  0.52805900  0.55759200  0.70016400  1
  O  O24  1  0.02805900  0.55759200  0.79983600  1
  O  O25  1  0.47194100  0.44240800  0.29983600  1
  O  O26  1  0.11558800  0.75327200  0.37428400  1
  O  O27  1  0.38441200  0.24672800  0.87428400  1
  O  O28  1  0.88441200  0.24672800  0.62571600  1
  O  O29  1  0.61558800  0.75327200  0.12571600  1
