# generated using pymatgen
data_CuH8(BrO2)2
_symmetry_space_group_name_H-M   'P 1'
_cell_length_a   4.22277300
_cell_length_b   7.51631300
_cell_length_c   12.18125689
_cell_angle_alpha   90.00000000
_cell_angle_beta   104.01114607
_cell_angle_gamma   90.00000000
_symmetry_Int_Tables_number   1
_chemical_formula_structural   CuH8(BrO2)2
_chemical_formula_sum   'Cu2 H16 Br4 O8'
_cell_volume   375.12649599
_cell_formula_units_Z   2
loop_
 _symmetry_equiv_pos_site_id
 _symmetry_equiv_pos_as_xyz
  1  'x, y, z'
loop_
 _atom_site_type_symbol
 _atom_site_label
 _atom_site_symmetry_multiplicity
 _atom_site_fract_x
 _atom_site_fract_y
 _atom_site_fract_z
 _atom_site_occupancy
  Cu  Cu0  1  0.00000000  0.50000000  0.50000000  1
  Cu  Cu1  1  0.00000000  0.00000000  0.00000000  1
  H  H2  1  0.99387800  0.52434000  0.70756400  1
  H  H3  1  0.00612200  0.02434000  0.79243600  1
  H  H4  1  0.00612200  0.47566000  0.29243600  1
  H  H5  1  0.99387800  0.97566000  0.20756400  1
  H  H6  1  0.36607600  0.50396700  0.70151200  1
  H  H7  1  0.63392400  0.00396700  0.79848800  1
  H  H8  1  0.63392400  0.49603300  0.29848800  1
  H  H9  1  0.36607600  0.99603300  0.20151200  1
  H  H10  1  0.74222000  0.52828100  0.85787900  1
  H  H11  1  0.25778000  0.02828100  0.64212100  1
  H  H12  1  0.25778000  0.47171900  0.14212100  1
  H  H13  1  0.74222000  0.97171900  0.35787900  1
  H  H14  1  0.77467600  0.33133400  0.81545100  1
  H  H15  1  0.22532400  0.83133400  0.68454900  1
  H  H16  1  0.22532400  0.66866600  0.18454900  1
  H  H17  1  0.77467600  0.16866600  0.31545100  1
  Br  Br18  1  0.38631200  0.25454900  0.52399700  1
  Br  Br19  1  0.61368800  0.75454900  0.97600300  1
  Br  Br20  1  0.61368800  0.74545100  0.47600300  1
  Br  Br21  1  0.38631200  0.24545100  0.02399700  1
  O  O22  1  0.15478400  0.56443900  0.66399700  1
  O  O23  1  0.84521600  0.06443900  0.83600300  1
  O  O24  1  0.84521600  0.43556100  0.33600300  1
  O  O25  1  0.15478400  0.93556100  0.16399700  1
  O  O26  1  0.73716900  0.45547900  0.78948000  1
  O  O27  1  0.26283100  0.95547900  0.71052000  1
  O  O28  1  0.26283100  0.54452100  0.21052000  1
  O  O29  1  0.73716900  0.04452100  0.28948000  1
