# generated using pymatgen
data_Co(MoS2)2
_symmetry_space_group_name_H-M   'P 1'
_cell_length_a   6.57264600
_cell_length_b   6.80388806
_cell_length_c   11.75193707
_cell_angle_alpha   80.35847697
_cell_angle_beta   73.76122256
_cell_angle_gamma   61.11804585
_symmetry_Int_Tables_number   1
_chemical_formula_structural   Co(MoS2)2
_chemical_formula_sum   'Co4 Mo8 S16'
_cell_volume   441.48544823
_cell_formula_units_Z   4
loop_
 _symmetry_equiv_pos_site_id
 _symmetry_equiv_pos_as_xyz
  1  'x, y, z'
loop_
 _atom_site_type_symbol
 _atom_site_label
 _atom_site_symmetry_multiplicity
 _atom_site_fract_x
 _atom_site_fract_y
 _atom_site_fract_z
 _atom_site_occupancy
  Co  Co0  1  0.71167300  0.29447900  0.53362400  1
  Co  Co1  1  0.46022300  0.79447900  0.03362400  1
  Co  Co2  1  0.95560500  0.81393100  0.03455500  1
  Co  Co3  1  0.19590900  0.31393100  0.53455500  1
  Mo  Mo4  1  0.34253000  0.25821400  0.27373300  1
  Mo  Mo5  1  0.12552300  0.75821400  0.77373300  1
  Mo  Mo6  1  0.32109200  0.85670300  0.29000300  1
  Mo  Mo7  1  0.53220200  0.35670300  0.79000300  1
  Mo  Mo8  1  0.78002100  0.86905400  0.29173000  1
  Mo  Mo9  1  0.05919500  0.36905400  0.79173000  1
  Mo  Mo10  1  0.88670800  0.24758600  0.27294200  1
  Mo  Mo11  1  0.59276400  0.74758600  0.77294200  1
  S  S12  1  0.41346600  0.98549400  0.43546200  1
  S  S13  1  0.16557900  0.48549400  0.93546200  1
  S  S14  1  0.25169900  0.12819500  0.12819400  1
  S  S15  1  0.49191200  0.62819500  0.62819400  1
  S  S16  1  0.21094600  0.65426100  0.17062700  1
  S  S17  1  0.96416600  0.15426100  0.67062700  1
  S  S18  1  0.45366700  0.45986800  0.39238500  1
  S  S19  1  0.69407900  0.95986800  0.89238500  1
  S  S20  1  0.72853300  0.64648000  0.16332600  1
  S  S21  1  0.46166100  0.14648000  0.66332600  1
  S  S22  1  0.93731300  0.46887800  0.40049200  1
  S  S23  1  0.19331700  0.96887800  0.90049200  1
  S  S24  1  0.93305300  0.96657900  0.42731600  1
  S  S25  1  0.67305200  0.46657900  0.92731600  1
  S  S26  1  0.73223400  0.15007900  0.13721100  1
  S  S27  1  0.98047500  0.65007900  0.63721100  1
