# generated using pymatgen
data_H10C3BrN
_symmetry_space_group_name_H-M   'P 1'
_cell_length_a   5.65283905
_cell_length_b   7.27023578
_cell_length_c   8.60832800
_cell_angle_alpha   90.00000000
_cell_angle_beta   90.00000000
_cell_angle_gamma   107.28312076
_symmetry_Int_Tables_number   1
_chemical_formula_structural   H10C3BrN
_chemical_formula_sum   'H20 C6 Br2 N2'
_cell_volume   337.80675552
_cell_formula_units_Z   2
loop_
 _symmetry_equiv_pos_site_id
 _symmetry_equiv_pos_as_xyz
  1  'x, y, z'
loop_
 _atom_site_type_symbol
 _atom_site_label
 _atom_site_symmetry_multiplicity
 _atom_site_fract_x
 _atom_site_fract_y
 _atom_site_fract_z
 _atom_site_occupancy
  H  H0  1  0.70619300  0.92398500  0.75000000  1
  H  H1  1  0.29380700  0.07601500  0.25000000  1
  H  H2  1  0.83308800  0.66623000  0.64555600  1
  H  H3  1  0.16691200  0.33377000  0.14555600  1
  H  H4  1  0.16691200  0.33377000  0.35444400  1
  H  H5  1  0.83308800  0.66623000  0.85444400  1
  H  H6  1  0.58696500  0.49679800  0.75000000  1
  H  H7  1  0.41303500  0.50320200  0.25000000  1
  H  H8  1  0.28589700  0.61648200  0.60907800  1
  H  H9  1  0.71410300  0.38351800  0.10907800  1
  H  H10  1  0.71410300  0.38351800  0.39092200  1
  H  H11  1  0.28589700  0.61648200  0.89092200  1
  H  H12  1  0.31722400  0.86985700  0.60847500  1
  H  H13  1  0.68277600  0.13014300  0.10847500  1
  H  H14  1  0.68277600  0.13014300  0.39152500  1
  H  H15  1  0.31722400  0.86985700  0.89152500  1
  H  H16  1  0.53731700  0.78088700  0.50522000  1
  H  H17  1  0.46268300  0.21911300  0.00522000  1
  H  H18  1  0.46268300  0.21911300  0.49478000  1
  H  H19  1  0.53731700  0.78088700  0.99478000  1
  C  C20  1  0.71749800  0.64275500  0.75000000  1
  C  C21  1  0.28250200  0.35724500  0.25000000  1
  C  C22  1  0.41713400  0.76160900  0.60750400  1
  C  C23  1  0.58286600  0.23839100  0.10750400  1
  C  C24  1  0.58286600  0.23839100  0.39249600  1
  C  C25  1  0.41713400  0.76160900  0.89249600  1
  Br  Br26  1  0.98200800  0.81942900  0.25000000  1
  Br  Br27  1  0.01799200  0.18057100  0.75000000  1
  N  N28  1  0.57303900  0.78377600  0.75000000  1
  N  N29  1  0.42696100  0.21622400  0.25000000  1
