# generated using pymatgen
data_Y6Mn14Fe9
_symmetry_space_group_name_H-M   'P 1'
_cell_length_a   8.48224082
_cell_length_b   8.48224082
_cell_length_c   8.48224082
_cell_angle_alpha   60.00000000
_cell_angle_beta   60.00000000
_cell_angle_gamma   60.00000000
_symmetry_Int_Tables_number   1
_chemical_formula_structural   Y6Mn14Fe9
_chemical_formula_sum   'Y6 Mn14 Fe9'
_cell_volume   431.53576639
_cell_formula_units_Z   1
loop_
 _symmetry_equiv_pos_site_id
 _symmetry_equiv_pos_as_xyz
  1  'x, y, z'
loop_
 _atom_site_type_symbol
 _atom_site_label
 _atom_site_symmetry_multiplicity
 _atom_site_fract_x
 _atom_site_fract_y
 _atom_site_fract_z
 _atom_site_occupancy
  Y  Y0  1  0.70639300  0.70639300  0.29360700  1
  Y  Y1  1  0.29360700  0.70639300  0.29360700  1
  Y  Y2  1  0.70639300  0.29360700  0.29360700  1
  Y  Y3  1  0.29360700  0.29360700  0.70639300  1
  Y  Y4  1  0.70639300  0.29360700  0.70639300  1
  Y  Y5  1  0.29360700  0.70639300  0.70639300  1
  Mn  Mn6  1  0.00000000  0.00000000  0.50000000  1
  Mn  Mn7  1  0.50000000  0.00000000  0.50000000  1
  Mn  Mn8  1  0.00000000  0.50000000  0.50000000  1
  Mn  Mn9  1  0.50000000  0.50000000  0.00000000  1
  Mn  Mn10  1  0.00000000  0.50000000  0.00000000  1
  Mn  Mn11  1  0.50000000  0.00000000  0.00000000  1
  Mn  Mn12  1  0.88035300  0.88035300  0.35894200  1
  Mn  Mn13  1  0.88035300  0.35894200  0.88035300  1
  Mn  Mn14  1  0.35894200  0.88035300  0.88035300  1
  Mn  Mn15  1  0.88035300  0.88035300  0.88035300  1
  Mn  Mn16  1  0.11964700  0.11964700  0.64105800  1
  Mn  Mn17  1  0.11964700  0.64105800  0.11964700  1
  Mn  Mn18  1  0.64105800  0.11964700  0.11964700  1
  Mn  Mn19  1  0.11964700  0.11964700  0.11964700  1
  Fe  Fe20  1  0.00000000  0.00000000  0.00000000  1
  Fe  Fe21  1  0.67990000  0.67990000  0.96029900  1
  Fe  Fe22  1  0.67990000  0.96029900  0.67990000  1
  Fe  Fe23  1  0.96029900  0.67990000  0.67990000  1
  Fe  Fe24  1  0.67990000  0.67990000  0.67990000  1
  Fe  Fe25  1  0.32010000  0.32010000  0.03970100  1
  Fe  Fe26  1  0.32010000  0.03970100  0.32010000  1
  Fe  Fe27  1  0.03970100  0.32010000  0.32010000  1
  Fe  Fe28  1  0.32010000  0.32010000  0.32010000  1
