# generated using pymatgen
data_Rb4Sn(SO)4
_symmetry_space_group_name_H-M   'P 1'
_cell_length_a   7.24819900
_cell_length_b   8.35744213
_cell_length_c   13.54101151
_cell_angle_alpha   102.44021434
_cell_angle_beta   97.03707222
_cell_angle_gamma   94.85914995
_symmetry_Int_Tables_number   1
_chemical_formula_structural   Rb4Sn(SO)4
_chemical_formula_sum   'Rb8 Sn2 S8 O8'
_cell_volume   789.73259869
_cell_formula_units_Z   2
loop_
 _symmetry_equiv_pos_site_id
 _symmetry_equiv_pos_as_xyz
  1  'x, y, z'
loop_
 _atom_site_type_symbol
 _atom_site_label
 _atom_site_symmetry_multiplicity
 _atom_site_fract_x
 _atom_site_fract_y
 _atom_site_fract_z
 _atom_site_occupancy
  Rb  Rb0  1  0.34630900  0.18478200  0.52432000  1
  Rb  Rb1  1  0.65369100  0.81521800  0.47568000  1
  Rb  Rb2  1  0.84923500  0.92730300  0.78820800  1
  Rb  Rb3  1  0.15076500  0.07269700  0.21179200  1
  Rb  Rb4  1  0.66799500  0.49694000  0.89954600  1
  Rb  Rb5  1  0.33200500  0.50306000  0.10045400  1
  Rb  Rb6  1  0.02380700  0.44560900  0.67487800  1
  Rb  Rb7  1  0.97619300  0.55439100  0.32512200  1
  Sn  Sn8  1  0.32307900  0.84519900  0.72839100  1
  Sn  Sn9  1  0.67692100  0.15480100  0.27160900  1
  S  S10  1  0.51562300  0.62322400  0.65236700  1
  S  S11  1  0.48437700  0.37677600  0.34763300  1
  S  S12  1  0.08809500  0.80709500  0.58114700  1
  S  S13  1  0.91190500  0.19290500  0.41885300  1
  S  S14  1  0.23075100  0.78924800  0.92225600  1
  S  S15  1  0.76924900  0.21075200  0.07774400  1
  S  S16  1  0.48418200  0.13683500  0.74614300  1
  S  S17  1  0.51581800  0.86316500  0.25385700  1
  O  O18  1  0.32308800  0.25528500  0.73540100  1
  O  O19  1  0.67691200  0.74471500  0.26459900  1
  O  O20  1  0.70243300  0.60285900  0.72423300  1
  O  O21  1  0.29756700  0.39714100  0.27576700  1
  O  O22  1  0.40601500  0.71631900  0.95485600  1
  O  O23  1  0.59398500  0.28368100  0.04514400  1
  O  O24  1  0.05981300  0.66039500  0.89725500  1
  O  O25  1  0.94018700  0.33960500  0.10274500  1
