# generated using pymatgen
data_Cs2Mo(SO)2
_symmetry_space_group_name_H-M   'P 1'
_cell_length_a   8.00929000
_cell_length_b   9.60557900
_cell_length_c   11.28449900
_cell_angle_alpha   90.00000000
_cell_angle_beta   90.00000000
_cell_angle_gamma   90.00000000
_symmetry_Int_Tables_number   1
_chemical_formula_structural   Cs2Mo(SO)2
_chemical_formula_sum   'Cs8 Mo4 S8 O8'
_cell_volume   868.16015458
_cell_formula_units_Z   4
loop_
 _symmetry_equiv_pos_site_id
 _symmetry_equiv_pos_as_xyz
  1  'x, y, z'
loop_
 _atom_site_type_symbol
 _atom_site_label
 _atom_site_symmetry_multiplicity
 _atom_site_fract_x
 _atom_site_fract_y
 _atom_site_fract_z
 _atom_site_occupancy
  Cs  Cs0  1  0.21003500  0.88577900  0.08779700  1
  Cs  Cs1  1  0.28996500  0.61422100  0.58779700  1
  Cs  Cs2  1  0.28996500  0.38577900  0.91220300  1
  Cs  Cs3  1  0.21003500  0.11422100  0.41220300  1
  Cs  Cs4  1  0.78996400  0.11422100  0.91220300  1
  Cs  Cs5  1  0.71003600  0.38577900  0.41220300  1
  Cs  Cs6  1  0.71003600  0.61422100  0.08779700  1
  Cs  Cs7  1  0.78996400  0.88577900  0.58779700  1
  Mo  Mo8  1  0.19479900  0.50000000  0.25000000  1
  Mo  Mo9  1  0.30520100  0.00000000  0.75000000  1
  Mo  Mo10  1  0.80520100  0.50000000  0.75000000  1
  Mo  Mo11  1  0.69479900  0.00000000  0.25000000  1
  S  S12  1  0.03203500  0.66765900  0.32532300  1
  S  S13  1  0.46796500  0.83234100  0.82532300  1
  S  S14  1  0.46796500  0.16765900  0.67467700  1
  S  S15  1  0.03203500  0.33234100  0.17467700  1
  S  S16  1  0.96796500  0.33234100  0.67467700  1
  S  S17  1  0.53203500  0.16765900  0.17467700  1
  S  S18  1  0.53203500  0.83234100  0.32532300  1
  S  S19  1  0.96796500  0.66765900  0.82532300  1
  O  O20  1  0.31985700  0.57204600  0.13405000  1
  O  O21  1  0.18014300  0.92795400  0.63405000  1
  O  O22  1  0.18014300  0.07204600  0.86595000  1
  O  O23  1  0.31985700  0.42795400  0.36595000  1
  O  O24  1  0.68014300  0.42795400  0.86595000  1
  O  O25  1  0.81985700  0.07204600  0.36595000  1
  O  O26  1  0.81985700  0.92795400  0.13405000  1
  O  O27  1  0.68014300  0.57204600  0.63405000  1
