# generated using pymatgen
data_NCl2O11
_symmetry_space_group_name_H-M   'P 1'
_cell_length_a   5.77216540
_cell_length_b   5.77216540
_cell_length_c   14.55860964
_cell_angle_alpha   75.13178196
_cell_angle_beta   75.13178196
_cell_angle_gamma   59.90682130
_symmetry_Int_Tables_number   1
_chemical_formula_structural   NCl2O11
_chemical_formula_sum   'N2 Cl4 O22'
_cell_volume   400.85447532
_cell_formula_units_Z   2
loop_
 _symmetry_equiv_pos_site_id
 _symmetry_equiv_pos_as_xyz
  1  'x, y, z'
loop_
 _atom_site_type_symbol
 _atom_site_label
 _atom_site_symmetry_multiplicity
 _atom_site_fract_x
 _atom_site_fract_y
 _atom_site_fract_z
 _atom_site_occupancy
  N  N0  1  0.50000000  0.00000000  0.50000000  1
  N  N1  1  0.00000000  0.50000000  0.00000000  1
  Cl  Cl2  1  0.50925200  0.26363400  0.15136000  1
  Cl  Cl3  1  0.73636600  0.49074800  0.34864000  1
  Cl  Cl4  1  0.49074800  0.73636600  0.84864000  1
  Cl  Cl5  1  0.26363400  0.50925200  0.65136000  1
  O  O6  1  0.49002700  0.17743700  0.25320100  1
  O  O7  1  0.82256300  0.50997300  0.24679900  1
  O  O8  1  0.50997300  0.82256300  0.74679900  1
  O  O9  1  0.17743700  0.49002700  0.75320100  1
  O  O10  1  0.37462200  0.17122900  0.10774700  1
  O  O11  1  0.82877100  0.62537800  0.39225300  1
  O  O12  1  0.62537800  0.82877100  0.89225300  1
  O  O13  1  0.17122900  0.37462200  0.60774700  1
  O  O14  1  0.36266500  0.57235200  0.13128600  1
  O  O15  1  0.42764800  0.63733500  0.36871400  1
  O  O16  1  0.63733500  0.42764800  0.86871400  1
  O  O17  1  0.57235200  0.36266500  0.63128600  1
  O  O18  1  0.78836000  0.17360600  0.10432300  1
  O  O19  1  0.82639400  0.21164000  0.39567700  1
  O  O20  1  0.21164000  0.82639400  0.89567700  1
  O  O21  1  0.17360600  0.78836000  0.60432300  1
  O  O22  1  0.34463900  0.11498800  0.44826800  1
  O  O23  1  0.88501200  0.65536100  0.05173200  1
  O  O24  1  0.65536100  0.88501200  0.55173200  1
  O  O25  1  0.11498800  0.34463900  0.94826800  1
  O  O26  1  0.20229600  0.79770400  0.25000000  1
  O  O27  1  0.79770400  0.20229600  0.75000000  1
