# generated using pymatgen
data_Cs2HgCl4
_symmetry_space_group_name_H-M   'P 1'
_cell_length_a   7.87368600
_cell_length_b   10.03880500
_cell_length_c   13.86257300
_cell_angle_alpha   90.00000000
_cell_angle_beta   90.00000000
_cell_angle_gamma   90.00000000
_symmetry_Int_Tables_number   1
_chemical_formula_structural   Cs2HgCl4
_chemical_formula_sum   'Cs8 Hg4 Cl16'
_cell_volume   1095.73101771
_cell_formula_units_Z   4
loop_
 _symmetry_equiv_pos_site_id
 _symmetry_equiv_pos_as_xyz
  1  'x, y, z'
loop_
 _atom_site_type_symbol
 _atom_site_label
 _atom_site_symmetry_multiplicity
 _atom_site_fract_x
 _atom_site_fract_y
 _atom_site_fract_z
 _atom_site_occupancy
  Cs  Cs0  1  0.99933300  0.73485400  0.82165600  1
  Cs  Cs1  1  0.50066700  0.26514600  0.32165600  1
  Cs  Cs2  1  0.49933300  0.76514600  0.17834400  1
  Cs  Cs3  1  0.00066700  0.23485400  0.67834400  1
  Cs  Cs4  1  0.99803900  0.87089400  0.40942000  1
  Cs  Cs5  1  0.50196100  0.12910600  0.90942000  1
  Cs  Cs6  1  0.49803900  0.62910600  0.59058000  1
  Cs  Cs7  1  0.00196100  0.37089400  0.09058000  1
  Hg  Hg8  1  0.00268100  0.46562800  0.42316500  1
  Hg  Hg9  1  0.49731900  0.53437200  0.92316500  1
  Hg  Hg10  1  0.50268100  0.03437200  0.57683500  1
  Hg  Hg11  1  0.99731900  0.96562800  0.07683500  1
  Cl  Cl12  1  0.51125000  0.42668300  0.08906700  1
  Cl  Cl13  1  0.98875000  0.57331700  0.58906700  1
  Cl  Cl14  1  0.01125000  0.07331700  0.91093300  1
  Cl  Cl15  1  0.48875000  0.92668300  0.41093300  1
  Cl  Cl16  1  0.46364000  0.78198300  0.91865000  1
  Cl  Cl17  1  0.03636000  0.21801700  0.41865000  1
  Cl  Cl18  1  0.96364000  0.71801700  0.08135000  1
  Cl  Cl19  1  0.53636000  0.28198300  0.58135000  1
  Cl  Cl20  1  0.23278700  0.42832800  0.84806000  1
  Cl  Cl21  1  0.26721300  0.57167200  0.34806000  1
  Cl  Cl22  1  0.73278700  0.07167200  0.15194000  1
  Cl  Cl23  1  0.76721300  0.92832800  0.65194000  1
  Cl  Cl24  1  0.74608200  0.43607000  0.83394700  1
  Cl  Cl25  1  0.75391800  0.56393000  0.33394700  1
  Cl  Cl26  1  0.24608200  0.06393000  0.16605300  1
  Cl  Cl27  1  0.25391800  0.93607000  0.66605300  1
