# generated using pymatgen
data_UTeO5
_symmetry_space_group_name_H-M   'P 1'
_cell_length_a   10.43071200
_cell_length_b   5.55952100
_cell_length_c   7.85257000
_cell_angle_alpha   90.00000000
_cell_angle_beta   90.00000000
_cell_angle_gamma   90.00000000
_symmetry_Int_Tables_number   1
_chemical_formula_structural   UTeO5
_chemical_formula_sum   'U4 Te4 O20'
_cell_volume   455.36866860
_cell_formula_units_Z   4
loop_
 _symmetry_equiv_pos_site_id
 _symmetry_equiv_pos_as_xyz
  1  'x, y, z'
loop_
 _atom_site_type_symbol
 _atom_site_label
 _atom_site_symmetry_multiplicity
 _atom_site_fract_x
 _atom_site_fract_y
 _atom_site_fract_z
 _atom_site_occupancy
  U  U0  1  0.51493600  0.96792000  0.00687900  1
  U  U1  1  0.48506400  0.03208000  0.50687900  1
  U  U2  1  0.98506400  0.96792000  0.50687900  1
  U  U3  1  0.01493600  0.03208000  0.00687900  1
  Te  Te4  1  0.74915400  0.64347600  0.25207700  1
  Te  Te5  1  0.25084600  0.35652400  0.75207700  1
  Te  Te6  1  0.75084600  0.64347600  0.75207700  1
  Te  Te7  1  0.24915400  0.35652400  0.25207700  1
  O  O8  1  0.70716000  0.73433600  0.00516100  1
  O  O9  1  0.29284000  0.26566400  0.50516100  1
  O  O10  1  0.79284000  0.73433600  0.50516100  1
  O  O11  1  0.20716000  0.26566400  0.00516100  1
  O  O12  1  0.60300100  0.85258700  0.28415600  1
  O  O13  1  0.39699900  0.14741300  0.78415600  1
  O  O14  1  0.89699900  0.85258700  0.78415600  1
  O  O15  1  0.10300100  0.14741300  0.28415600  1
  O  O16  1  0.89209200  0.86321900  0.22925900  1
  O  O17  1  0.10790800  0.13678100  0.72925900  1
  O  O18  1  0.60790800  0.86321900  0.72925900  1
  O  O19  1  0.39209200  0.13678100  0.22925900  1
  O  O20  1  0.11323500  0.76358900  0.01462500  1
  O  O21  1  0.88676500  0.23641100  0.51462500  1
  O  O22  1  0.38676500  0.76358900  0.51462500  1
  O  O23  1  0.61323500  0.23641100  0.01462500  1
  O  O24  1  0.08484600  0.69758200  0.50384400  1
  O  O25  1  0.91515400  0.30241800  0.00384400  1
  O  O26  1  0.41515400  0.69758200  0.00384400  1
  O  O27  1  0.58484600  0.30241800  0.50384400  1
