# generated using pymatgen
data_FeS4Br4N5
_symmetry_space_group_name_H-M   'P 1'
_cell_length_a   9.70787834
_cell_length_b   9.70787834
_cell_length_c   12.57779153
_cell_angle_alpha   89.72117414
_cell_angle_beta   89.72117414
_cell_angle_gamma   140.02113959
_symmetry_Int_Tables_number   1
_chemical_formula_structural   FeS4Br4N5
_chemical_formula_sum   'Fe2 S8 Br8 N10'
_cell_volume   761.52733368
_cell_formula_units_Z   2
loop_
 _symmetry_equiv_pos_site_id
 _symmetry_equiv_pos_as_xyz
  1  'x, y, z'
loop_
 _atom_site_type_symbol
 _atom_site_label
 _atom_site_symmetry_multiplicity
 _atom_site_fract_x
 _atom_site_fract_y
 _atom_site_fract_z
 _atom_site_occupancy
  Fe  Fe0  1  0.95005300  0.54774600  0.80507900  1
  Fe  Fe1  1  0.54774600  0.95005300  0.30507900  1
  S  S2  1  0.26000400  0.37364100  0.10785000  1
  S  S3  1  0.37364100  0.26000400  0.60785000  1
  S  S4  1  0.61087700  0.47409100  0.09556400  1
  S  S5  1  0.47409100  0.61087700  0.59556400  1
  S  S6  1  0.36411600  0.30011800  0.27719600  1
  S  S7  1  0.30011800  0.36411600  0.77719600  1
  S  S8  1  0.21432500  0.05866200  0.09808600  1
  S  S9  1  0.05866200  0.21432500  0.59808600  1
  Br  Br10  1  0.14131300  0.58774100  0.93633200  1
  Br  Br11  1  0.58774100  0.14131300  0.43633200  1
  Br  Br12  1  0.10670900  0.63857700  0.64049900  1
  Br  Br13  1  0.63857700  0.10670900  0.14049900  1
  Br  Br14  1  0.60850800  0.19862600  0.81205700  1
  Br  Br15  1  0.19862600  0.60850800  0.31205700  1
  Br  Br16  1  0.93388700  0.76915000  0.83350400  1
  Br  Br17  1  0.76915000  0.93388700  0.33350400  1
  N  N18  1  0.71958400  0.94585400  0.91481800  1
  N  N19  1  0.94585400  0.71958400  0.41481800  1
  N  N20  1  0.50234300  0.53664500  0.06139400  1
  N  N21  1  0.53664500  0.50234300  0.56139400  1
  N  N22  1  0.60250800  0.46477500  0.22551100  1
  N  N23  1  0.46477500  0.60250800  0.72551100  1
  N  N24  1  0.22206300  0.06680100  0.22784300  1
  N  N25  1  0.06680100  0.22206300  0.72784300  1
  N  N26  1  0.12134100  0.13794200  0.06396700  1
  N  N27  1  0.13794200  0.12134100  0.56396700  1
