# generated using pymatgen
data_NaMn2(SiO3)3
_symmetry_space_group_name_H-M   'P 1'
_cell_length_a   6.59149532
_cell_length_b   7.21770076
_cell_length_c   7.50413649
_cell_angle_alpha   99.34530283
_cell_angle_beta   92.98185604
_cell_angle_gamma   88.74935322
_symmetry_Int_Tables_number   1
_chemical_formula_structural   NaMn2(SiO3)3
_chemical_formula_sum   'Na2 Mn4 Si6 O18'
_cell_volume   351.76481205
_cell_formula_units_Z   2
loop_
 _symmetry_equiv_pos_site_id
 _symmetry_equiv_pos_as_xyz
  1  'x, y, z'
loop_
 _atom_site_type_symbol
 _atom_site_label
 _atom_site_symmetry_multiplicity
 _atom_site_fract_x
 _atom_site_fract_y
 _atom_site_fract_z
 _atom_site_occupancy
  Na  Na0  1  0.37662400  0.27768300  0.58311500  1
  Na  Na1  1  0.62345200  0.72222600  0.41707800  1
  Mn  Mn2  1  0.14608900  0.58604600  0.85790100  1
  Mn  Mn3  1  0.85377800  0.41351100  0.14178200  1
  Mn  Mn4  1  0.13355400  0.06826800  0.84121400  1
  Mn  Mn5  1  0.86656000  0.93135500  0.15815800  1
  Si  Si6  1  0.34623500  0.40522100  0.21477300  1
  Si  Si7  1  0.65368400  0.59475700  0.78508300  1
  Si  Si8  1  0.35507800  0.96894200  0.21186200  1
  Si  Si9  1  0.64505900  0.03102100  0.78833800  1
  Si  Si10  1  0.14435500  0.73688500  0.45626000  1
  Si  Si11  1  0.85568600  0.26336700  0.54360000  1
  O  O12  1  0.11091700  0.77737700  0.67349500  1
  O  O13  1  0.88883400  0.22244300  0.32631900  1
  O  O14  1  0.94052100  0.73309100  0.32219000  1
  O  O15  1  0.05951000  0.26812900  0.67762200  1
  O  O16  1  0.56783700  0.47262100  0.18085600  1
  O  O17  1  0.43204700  0.52750300  0.81926000  1
  O  O18  1  0.57382400  0.88422100  0.15703800  1
  O  O19  1  0.42655900  0.11596000  0.84303300  1
  O  O20  1  0.15527500  0.41604000  0.06441200  1
  O  O21  1  0.84461000  0.58394500  0.93550400  1
  O  O22  1  0.16348100  0.91145400  0.06027100  1
  O  O23  1  0.83614100  0.08789600  0.94074500  1
  O  O24  1  0.27215100  0.53555000  0.40743600  1
  O  O25  1  0.72738100  0.46449700  0.59231000  1
  O  O26  1  0.29671700  0.89890400  0.40403200  1
  O  O27  1  0.70396900  0.10112800  0.59635300  1
  O  O28  1  0.35704100  0.19622100  0.27183100  1
  O  O29  1  0.64303200  0.80373900  0.72813100  1
