# generated using pymatgen
data_La(IO3)3
_symmetry_space_group_name_H-M   'P 1'
_cell_length_a   7.14023200
_cell_length_b   8.20679100
_cell_length_c   6.69585900
_cell_angle_alpha   90.00000000
_cell_angle_beta   90.00000000
_cell_angle_gamma   90.00000000
_symmetry_Int_Tables_number   1
_chemical_formula_structural   La(IO3)3
_chemical_formula_sum   'La2 I6 O18'
_cell_volume   392.36656855
_cell_formula_units_Z   2
loop_
 _symmetry_equiv_pos_site_id
 _symmetry_equiv_pos_as_xyz
  1  'x, y, z'
loop_
 _atom_site_type_symbol
 _atom_site_label
 _atom_site_symmetry_multiplicity
 _atom_site_fract_x
 _atom_site_fract_y
 _atom_site_fract_z
 _atom_site_occupancy
  La  La0  1  0.50000000  0.00000000  0.60765800  1
  La  La1  1  0.00000000  0.50000000  0.39234200  1
  I  I2  1  0.00000000  0.79398000  0.85475100  1
  I  I3  1  0.00000000  0.20602000  0.85475100  1
  I  I4  1  0.50000000  0.70602000  0.14524900  1
  I  I5  1  0.50000000  0.29398000  0.14524900  1
  I  I6  1  0.50000000  0.50000000  0.61084600  1
  I  I7  1  0.00000000  0.00000000  0.38915400  1
  O  O8  1  0.82589100  0.85503600  0.52193400  1
  O  O9  1  0.82589100  0.14496400  0.52193400  1
  O  O10  1  0.17410900  0.85503600  0.52193400  1
  O  O11  1  0.17410900  0.14496400  0.52193400  1
  O  O12  1  0.67410900  0.64496400  0.47806600  1
  O  O13  1  0.67410900  0.35503600  0.47806600  1
  O  O14  1  0.32589100  0.64496400  0.47806600  1
  O  O15  1  0.32589100  0.35503600  0.47806600  1
  O  O16  1  0.50000000  0.00000000  0.26351200  1
  O  O17  1  0.00000000  0.50000000  0.73648800  1
  O  O18  1  0.17374300  0.00000000  0.89789500  1
  O  O19  1  0.82625700  0.00000000  0.89789500  1
  O  O20  1  0.32625700  0.50000000  0.10210500  1
  O  O21  1  0.67374300  0.50000000  0.10210500  1
  O  O22  1  0.50000000  0.76519900  0.87608300  1
  O  O23  1  0.50000000  0.23480100  0.87608300  1
  O  O24  1  0.00000000  0.73480100  0.12391700  1
  O  O25  1  0.00000000  0.26519900  0.12391700  1
