# generated using pymatgen
data_Cd(PO5)2
_symmetry_space_group_name_H-M   'P 1'
_cell_length_a   9.95645700
_cell_length_b   5.14513200
_cell_length_c   8.63274980
_cell_angle_alpha   60.43020423
_cell_angle_beta   90.00000000
_cell_angle_gamma   90.00000000
_symmetry_Int_Tables_number   1
_chemical_formula_structural   Cd(PO5)2
_chemical_formula_sum   'Cd2 P4 O20'
_cell_volume   384.63387481
_cell_formula_units_Z   2
loop_
 _symmetry_equiv_pos_site_id
 _symmetry_equiv_pos_as_xyz
  1  'x, y, z'
loop_
 _atom_site_type_symbol
 _atom_site_label
 _atom_site_symmetry_multiplicity
 _atom_site_fract_x
 _atom_site_fract_y
 _atom_site_fract_z
 _atom_site_occupancy
  Cd  Cd0  1  0.50000000  0.00000000  0.50000000  1
  Cd  Cd1  1  0.00000000  0.00000000  0.00000000  1
  P  P2  1  0.70421900  0.59158000  0.16723200  1
  P  P3  1  0.79578100  0.59158000  0.66723200  1
  P  P4  1  0.29578100  0.40842000  0.83276800  1
  P  P5  1  0.20421900  0.40842000  0.33276800  1
  O  O6  1  0.85682800  0.60225500  0.12999900  1
  O  O7  1  0.64317200  0.60225500  0.62999900  1
  O  O8  1  0.14317200  0.39774500  0.87000100  1
  O  O9  1  0.35682800  0.39774500  0.37000100  1
  O  O10  1  0.63277300  0.60084100  0.00453600  1
  O  O11  1  0.86722700  0.60084100  0.50453600  1
  O  O12  1  0.36722700  0.39915900  0.99546400  1
  O  O13  1  0.13277300  0.39915900  0.49546400  1
  O  O14  1  0.66279400  0.88597700  0.16709000  1
  O  O15  1  0.83720600  0.88597700  0.66709000  1
  O  O16  1  0.33720600  0.11402300  0.83291000  1
  O  O17  1  0.16279400  0.11402300  0.33291000  1
  O  O18  1  0.66739900  0.31000500  0.33854300  1
  O  O19  1  0.83260100  0.31000500  0.83854300  1
  O  O20  1  0.33260100  0.68999500  0.66145700  1
  O  O21  1  0.16739900  0.68999500  0.16145700  1
  O  O22  1  0.96988900  0.08316000  0.24443900  1
  O  O23  1  0.53011100  0.08316000  0.74443900  1
  O  O24  1  0.03011100  0.91684000  0.75556100  1
  O  O25  1  0.46988900  0.91684000  0.25556100  1
