# generated using pymatgen
data_Ca2AlP2O9
_symmetry_space_group_name_H-M   'P 1'
_cell_length_a   5.67060900
_cell_length_b   7.65118000
_cell_length_c   8.31557880
_cell_angle_alpha   66.96853217
_cell_angle_beta   90.00000000
_cell_angle_gamma   90.00000000
_symmetry_Int_Tables_number   1
_chemical_formula_structural   Ca2AlP2O9
_chemical_formula_sum   'Ca4 Al2 P4 O18'
_cell_volume   332.02850069
_cell_formula_units_Z   2
loop_
 _symmetry_equiv_pos_site_id
 _symmetry_equiv_pos_as_xyz
  1  'x, y, z'
loop_
 _atom_site_type_symbol
 _atom_site_label
 _atom_site_symmetry_multiplicity
 _atom_site_fract_x
 _atom_site_fract_y
 _atom_site_fract_z
 _atom_site_occupancy
  Ca  Ca0  1  0.75000000  0.79477100  0.24696800  1
  Ca  Ca1  1  0.25000000  0.20522900  0.75303200  1
  Ca  Ca2  1  0.75000000  0.17729800  0.41404000  1
  Ca  Ca3  1  0.25000000  0.82270200  0.58596000  1
  Al  Al4  1  0.50000000  0.50000000  0.00000000  1
  Al  Al5  1  0.00000000  0.50000000  0.00000000  1
  P  P6  1  0.25000000  0.07722700  0.18390000  1
  P  P7  1  0.75000000  0.92277300  0.81610000  1
  P  P8  1  0.25000000  0.49985400  0.33266100  1
  P  P9  1  0.75000000  0.50014600  0.66733900  1
  O  O10  1  0.52651500  0.44648400  0.79165100  1
  O  O11  1  0.02651500  0.55351600  0.20834900  1
  O  O12  1  0.47348500  0.55351600  0.20834900  1
  O  O13  1  0.97348500  0.44648400  0.79165100  1
  O  O14  1  0.25000000  0.28653800  0.44650400  1
  O  O15  1  0.75000000  0.71346200  0.55349600  1
  O  O16  1  0.25000000  0.61957500  0.44156900  1
  O  O17  1  0.75000000  0.38042500  0.55843100  1
  O  O18  1  0.02935800  0.01276300  0.30363400  1
  O  O19  1  0.52935800  0.98723700  0.69636600  1
  O  O20  1  0.97064200  0.98723700  0.69636600  1
  O  O21  1  0.47064200  0.01276300  0.30363400  1
  O  O22  1  0.25000000  0.99485400  0.04361500  1
  O  O23  1  0.75000000  0.00514600  0.95638500  1
  O  O24  1  0.25000000  0.30386200  0.08676400  1
  O  O25  1  0.75000000  0.69613800  0.91323600  1
  O  O26  1  0.25000000  0.65020000  0.89194500  1
  O  O27  1  0.75000000  0.34980000  0.10805500  1
