# generated using pymatgen
data_Rb3(SO4)2
_symmetry_space_group_name_H-M   'P 1'
_cell_length_a   8.27626555
_cell_length_b   8.27626555
_cell_length_c   10.24521705
_cell_angle_alpha   78.24445998
_cell_angle_beta   78.24445998
_cell_angle_gamma   42.57926016
_symmetry_Int_Tables_number   1
_chemical_formula_structural   Rb3(SO4)2
_chemical_formula_sum   'Rb6 S4 O16'
_cell_volume   463.32906611
_cell_formula_units_Z   2
loop_
 _symmetry_equiv_pos_site_id
 _symmetry_equiv_pos_as_xyz
  1  'x, y, z'
loop_
 _atom_site_type_symbol
 _atom_site_label
 _atom_site_symmetry_multiplicity
 _atom_site_fract_x
 _atom_site_fract_y
 _atom_site_fract_z
 _atom_site_occupancy
  Rb  Rb0  1  0.24629800  0.75370200  0.75000000  1
  Rb  Rb1  1  0.75370200  0.24629800  0.25000000  1
  Rb  Rb2  1  0.53797000  0.08336200  0.65111900  1
  Rb  Rb3  1  0.91663800  0.46203000  0.84888100  1
  Rb  Rb4  1  0.46203000  0.91663800  0.34888100  1
  Rb  Rb5  1  0.08336200  0.53797000  0.15111900  1
  S  S6  1  0.10206100  0.67030900  0.46481900  1
  S  S7  1  0.32969100  0.89793900  0.03518100  1
  S  S8  1  0.89793900  0.32969100  0.53518100  1
  S  S9  1  0.67030900  0.10206100  0.96481900  1
  O  O10  1  0.87303200  0.82179100  0.40454900  1
  O  O11  1  0.17820900  0.12696800  0.09545100  1
  O  O12  1  0.12696800  0.17820900  0.59545100  1
  O  O13  1  0.82179100  0.87303200  0.90454900  1
  O  O14  1  0.17443600  0.79758500  0.44083900  1
  O  O15  1  0.20241500  0.82556400  0.05916100  1
  O  O16  1  0.82556400  0.20241500  0.55916100  1
  O  O17  1  0.79758500  0.17443600  0.94083900  1
  O  O18  1  0.07813800  0.61814500  0.61056400  1
  O  O19  1  0.38185500  0.92186200  0.88943600  1
  O  O20  1  0.92186200  0.38185500  0.38943600  1
  O  O21  1  0.61814500  0.07813800  0.11056400  1
  O  O22  1  0.30316100  0.44340000  0.39647000  1
  O  O23  1  0.55660000  0.69683900  0.10353000  1
  O  O24  1  0.69683900  0.55660000  0.60353000  1
  O  O25  1  0.44340000  0.30316100  0.89647000  1
