# generated using pymatgen
data_Mg2V2CuO8
_symmetry_space_group_name_H-M   'P 1'
_cell_length_a   6.25086025
_cell_length_b   6.47416683
_cell_length_c   8.21318800
_cell_angle_alpha   90.00000000
_cell_angle_beta   90.00000000
_cell_angle_gamma   115.95453941
_symmetry_Int_Tables_number   1
_chemical_formula_structural   Mg2V2CuO8
_chemical_formula_sum   'Mg4 V4 Cu2 O16'
_cell_volume   298.85706238
_cell_formula_units_Z   2
loop_
 _symmetry_equiv_pos_site_id
 _symmetry_equiv_pos_as_xyz
  1  'x, y, z'
loop_
 _atom_site_type_symbol
 _atom_site_label
 _atom_site_symmetry_multiplicity
 _atom_site_fract_x
 _atom_site_fract_y
 _atom_site_fract_z
 _atom_site_occupancy
  Mg  Mg0  1  0.38305000  0.77036100  0.25029500  1
  Mg  Mg1  1  0.11695000  0.22963900  0.75029500  1
  Mg  Mg2  1  0.61695000  0.22963900  0.74970500  1
  Mg  Mg3  1  0.88305000  0.77036100  0.24970500  1
  V  V4  1  0.36479800  0.25730200  0.37390000  1
  V  V5  1  0.13520200  0.74269800  0.87390000  1
  V  V6  1  0.63520200  0.74269800  0.62610000  1
  V  V7  1  0.86479800  0.25730200  0.12610000  1
  Cu  Cu8  1  0.00000000  0.50000000  0.50000000  1
  Cu  Cu9  1  0.50000000  0.50000000  0.00000000  1
  O  O10  1  0.49838600  0.49141400  0.76273200  1
  O  O11  1  0.00161400  0.50858600  0.26273200  1
  O  O12  1  0.50161400  0.50858600  0.23726800  1
  O  O13  1  0.99838600  0.49141400  0.73726800  1
  O  O14  1  0.25976100  0.00249800  0.76978000  1
  O  O15  1  0.24023900  0.99750200  0.26978000  1
  O  O16  1  0.74023900  0.99750200  0.23022000  1
  O  O17  1  0.75976100  0.00249800  0.73022000  1
  O  O18  1  0.41892900  0.74548500  0.50310300  1
  O  O19  1  0.08107100  0.25451500  0.00310300  1
  O  O20  1  0.58107100  0.25451500  0.49689700  1
  O  O21  1  0.91892900  0.74548500  0.99689700  1
  O  O22  1  0.35565100  0.72574400  0.99720800  1
  O  O23  1  0.14434900  0.27425600  0.49720800  1
  O  O24  1  0.64434900  0.27425600  0.00279200  1
  O  O25  1  0.85565100  0.72574400  0.50279200  1
