# generated using pymatgen
data_Na2Ca(PO4)2
_symmetry_space_group_name_H-M   'P 1'
_cell_length_a   7.24746300
_cell_length_b   5.50503900
_cell_length_c   9.16357454
_cell_angle_alpha   80.95897530
_cell_angle_beta   90.00000000
_cell_angle_gamma   90.00000000
_symmetry_Int_Tables_number   1
_chemical_formula_structural   Na2Ca(PO4)2
_chemical_formula_sum   'Na4 Ca2 P4 O16'
_cell_volume   361.06208448
_cell_formula_units_Z   2
loop_
 _symmetry_equiv_pos_site_id
 _symmetry_equiv_pos_as_xyz
  1  'x, y, z'
loop_
 _atom_site_type_symbol
 _atom_site_label
 _atom_site_symmetry_multiplicity
 _atom_site_fract_x
 _atom_site_fract_y
 _atom_site_fract_z
 _atom_site_occupancy
  Na  Na0  1  0.98387100  0.93683100  0.24189400  1
  Na  Na1  1  0.48387100  0.06316900  0.75810600  1
  Na  Na2  1  0.22794700  0.32527600  0.38374000  1
  Na  Na3  1  0.72794700  0.67472400  0.61626000  1
  Ca  Ca4  1  0.50357400  0.80280100  0.23278600  1
  Ca  Ca5  1  0.00357400  0.19719900  0.76721400  1
  P  P6  1  0.72111500  0.23761400  0.42444100  1
  P  P7  1  0.22111500  0.76238600  0.57555900  1
  P  P8  1  0.35835200  0.30639100  0.03669300  1
  P  P9  1  0.85835200  0.69360900  0.96330700  1
  O  O10  1  0.36469500  0.57240500  0.06952300  1
  O  O11  1  0.86469500  0.42759500  0.93047700  1
  O  O12  1  0.69363500  0.96753700  0.39956100  1
  O  O13  1  0.19363500  0.03246300  0.60043900  1
  O  O14  1  0.90062200  0.33963400  0.34225500  1
  O  O15  1  0.40062200  0.66036600  0.65774500  1
  O  O16  1  0.55501800  0.40107100  0.36899400  1
  O  O17  1  0.05501800  0.59892900  0.63100600  1
  O  O18  1  0.74910900  0.24545800  0.59201900  1
  O  O19  1  0.24910900  0.75454200  0.40798100  1
  O  O20  1  0.24670000  0.13925500  0.15712200  1
  O  O21  1  0.74670000  0.86074500  0.84287800  1
  O  O22  1  0.28171300  0.29475800  0.88097300  1
  O  O23  1  0.78171300  0.70524200  0.11902700  1
  O  O24  1  0.05455000  0.80960800  0.95019500  1
  O  O25  1  0.55455000  0.19039200  0.04980500  1
