# generated using pymatgen
data_UNF5
_symmetry_space_group_name_H-M   'P 1'
_cell_length_a   7.14334000
_cell_length_b   8.16231900
_cell_length_c   8.80225024
_cell_angle_alpha   63.00861270
_cell_angle_beta   90.00000000
_cell_angle_gamma   90.00000000
_symmetry_Int_Tables_number   1
_chemical_formula_structural   UNF5
_chemical_formula_sum   'U4 N4 F20'
_cell_volume   457.32267771
_cell_formula_units_Z   4
loop_
 _symmetry_equiv_pos_site_id
 _symmetry_equiv_pos_as_xyz
  1  'x, y, z'
loop_
 _atom_site_type_symbol
 _atom_site_label
 _atom_site_symmetry_multiplicity
 _atom_site_fract_x
 _atom_site_fract_y
 _atom_site_fract_z
 _atom_site_occupancy
  U  U0  1  0.61326300  0.59291300  0.66017700  1
  U  U1  1  0.11326300  0.40708700  0.83982300  1
  U  U2  1  0.38673700  0.40708700  0.33982300  1
  U  U3  1  0.88673700  0.59291300  0.16017700  1
  N  N4  1  0.57406000  0.04457700  0.16783700  1
  N  N5  1  0.07406000  0.95542300  0.33216300  1
  N  N6  1  0.42594000  0.95542300  0.83216300  1
  N  N7  1  0.92594000  0.04457700  0.66783700  1
  F  F8  1  0.68890500  0.61514700  0.87982300  1
  F  F9  1  0.18890500  0.38485300  0.62017700  1
  F  F10  1  0.31109500  0.38485300  0.12017700  1
  F  F11  1  0.81109500  0.61514700  0.37982300  1
  F  F12  1  0.67064400  0.86163600  0.53095600  1
  F  F13  1  0.17064400  0.13836400  0.96904400  1
  F  F14  1  0.32935600  0.13836400  0.46904400  1
  F  F15  1  0.82935600  0.86163600  0.03095600  1
  F  F16  1  0.55760800  0.34424300  0.55815900  1
  F  F17  1  0.05760800  0.65575700  0.94184100  1
  F  F18  1  0.44239200  0.65575700  0.44184100  1
  F  F19  1  0.94239200  0.34424300  0.05815900  1
  F  F20  1  0.46979200  0.35541300  0.83858500  1
  F  F21  1  0.96979200  0.64458700  0.66141500  1
  F  F22  1  0.53020800  0.64458700  0.16141500  1
  F  F23  1  0.03020800  0.35541300  0.33858500  1
  F  F24  1  0.65871900  0.33475200  0.27725200  1
  F  F25  1  0.15871900  0.66524800  0.22274800  1
  F  F26  1  0.34128100  0.66524800  0.72274800  1
  F  F27  1  0.84128100  0.33475200  0.77725200  1
