# generated using pymatgen
data_Yb2PbSe4
_symmetry_space_group_name_H-M   'P 1'
_cell_length_a   4.35946800
_cell_length_b   12.29130700
_cell_length_c   15.65177200
_cell_angle_alpha   90.00000000
_cell_angle_beta   90.00000000
_cell_angle_gamma   90.00000000
_symmetry_Int_Tables_number   1
_chemical_formula_structural   Yb2PbSe4
_chemical_formula_sum   'Yb8 Pb4 Se16'
_cell_volume   838.67765694
_cell_formula_units_Z   4
loop_
 _symmetry_equiv_pos_site_id
 _symmetry_equiv_pos_as_xyz
  1  'x, y, z'
loop_
 _atom_site_type_symbol
 _atom_site_label
 _atom_site_symmetry_multiplicity
 _atom_site_fract_x
 _atom_site_fract_y
 _atom_site_fract_z
 _atom_site_occupancy
  Yb  Yb0  1  0.75000000  0.00842800  0.13021600  1
  Yb  Yb1  1  0.75000000  0.50842800  0.36978400  1
  Yb  Yb2  1  0.25000000  0.99157200  0.86978400  1
  Yb  Yb3  1  0.25000000  0.49157200  0.63021600  1
  Yb  Yb4  1  0.75000000  0.14087300  0.59182200  1
  Yb  Yb5  1  0.75000000  0.64087300  0.90817800  1
  Yb  Yb6  1  0.25000000  0.85912700  0.40817800  1
  Yb  Yb7  1  0.25000000  0.35912700  0.09182200  1
  Pb  Pb8  1  0.75000000  0.68540100  0.18930500  1
  Pb  Pb9  1  0.75000000  0.18540100  0.31069500  1
  Pb  Pb10  1  0.25000000  0.31459900  0.81069500  1
  Pb  Pb11  1  0.25000000  0.81459900  0.68930500  1
  Se  Se12  1  0.75000000  0.34235300  0.67575500  1
  Se  Se13  1  0.75000000  0.84235300  0.82424500  1
  Se  Se14  1  0.25000000  0.65764700  0.32424500  1
  Se  Se15  1  0.25000000  0.15764700  0.17575500  1
  Se  Se16  1  0.75000000  0.31249200  0.95905900  1
  Se  Se17  1  0.75000000  0.81249200  0.54094100  1
  Se  Se18  1  0.25000000  0.68750800  0.04094100  1
  Se  Se19  1  0.25000000  0.18750800  0.45905900  1
  Se  Se20  1  0.75000000  0.45628600  0.18261700  1
  Se  Se21  1  0.75000000  0.95628600  0.31738300  1
  Se  Se22  1  0.25000000  0.54371400  0.81738300  1
  Se  Se23  1  0.25000000  0.04371400  0.68261700  1
  Se  Se24  1  0.75000000  0.11619400  0.95480700  1
  Se  Se25  1  0.75000000  0.61619400  0.54519300  1
  Se  Se26  1  0.25000000  0.88380600  0.04519300  1
  Se  Se27  1  0.25000000  0.38380600  0.45480700  1
