# generated using pymatgen
data_Na7I2O5
_symmetry_space_group_name_H-M   'P 1'
_cell_length_a   7.68915500
_cell_length_b   7.68915500
_cell_length_c   10.46085000
_cell_angle_alpha   90.00000000
_cell_angle_beta   90.00000000
_cell_angle_gamma   90.00000000
_symmetry_Int_Tables_number   1
_chemical_formula_structural   Na7I2O5
_chemical_formula_sum   'Na14 I4 O10'
_cell_volume   618.47792890
_cell_formula_units_Z   2
loop_
 _symmetry_equiv_pos_site_id
 _symmetry_equiv_pos_as_xyz
  1  'x, y, z'
loop_
 _atom_site_type_symbol
 _atom_site_label
 _atom_site_symmetry_multiplicity
 _atom_site_fract_x
 _atom_site_fract_y
 _atom_site_fract_z
 _atom_site_occupancy
  Na  Na0  1  0.50000000  0.00000000  0.89799700  1
  Na  Na1  1  0.00000000  0.50000000  0.10200300  1
  Na  Na2  1  0.75000000  0.25000000  0.00000000  1
  Na  Na3  1  0.25000000  0.25000000  0.00000000  1
  Na  Na4  1  0.75000000  0.75000000  0.00000000  1
  Na  Na5  1  0.25000000  0.75000000  0.00000000  1
  Na  Na6  1  0.71323800  0.21323800  0.69138900  1
  Na  Na7  1  0.28676200  0.21323800  0.69138900  1
  Na  Na8  1  0.71323800  0.78676200  0.69138900  1
  Na  Na9  1  0.28676200  0.78676200  0.69138900  1
  Na  Na10  1  0.78676200  0.28676200  0.30861100  1
  Na  Na11  1  0.21323800  0.28676200  0.30861100  1
  Na  Na12  1  0.78676200  0.71323800  0.30861100  1
  Na  Na13  1  0.21323800  0.71323800  0.30861100  1
  I  I14  1  0.50000000  0.50000000  0.50000000  1
  I  I15  1  0.00000000  0.00000000  0.50000000  1
  I  I16  1  0.00000000  0.50000000  0.79338200  1
  I  I17  1  0.50000000  0.00000000  0.20661800  1
  O  O18  1  0.50000000  0.00000000  0.66425000  1
  O  O19  1  0.00000000  0.50000000  0.33575000  1
  O  O20  1  0.77797800  0.00000000  0.85475600  1
  O  O21  1  0.22202200  0.00000000  0.85475600  1
  O  O22  1  0.50000000  0.27797800  0.85475600  1
  O  O23  1  0.50000000  0.72202200  0.85475600  1
  O  O24  1  0.72202200  0.50000000  0.14524400  1
  O  O25  1  0.27797800  0.50000000  0.14524400  1
  O  O26  1  0.00000000  0.22202200  0.14524400  1
  O  O27  1  0.00000000  0.77797800  0.14524400  1
