# generated using pymatgen
data_Ca2Mg(CO3)3
_symmetry_space_group_name_H-M   'P 1'
_cell_length_a   4.91062612
_cell_length_b   4.91062612
_cell_length_c   16.74626000
_cell_angle_alpha   90.00000000
_cell_angle_beta   90.00000000
_cell_angle_gamma   120.00000158
_symmetry_Int_Tables_number   1
_chemical_formula_structural   Ca2Mg(CO3)3
_chemical_formula_sum   'Ca4 Mg2 C6 O18'
_cell_volume   349.72138778
_cell_formula_units_Z   2
loop_
 _symmetry_equiv_pos_site_id
 _symmetry_equiv_pos_as_xyz
  1  'x, y, z'
loop_
 _atom_site_type_symbol
 _atom_site_label
 _atom_site_symmetry_multiplicity
 _atom_site_fract_x
 _atom_site_fract_y
 _atom_site_fract_z
 _atom_site_occupancy
  Ca  Ca0  1  0.00000000  0.00000000  0.49795300  1
  Ca  Ca1  1  0.00000000  0.00000000  0.99795300  1
  Ca  Ca2  1  0.33333300  0.66666700  0.31681000  1
  Ca  Ca3  1  0.66666700  0.33333300  0.81681000  1
  Mg  Mg4  1  0.66666700  0.33333300  0.15829000  1
  Mg  Mg5  1  0.33333300  0.66666700  0.65829000  1
  C  C6  1  0.66666700  0.33333300  0.40576600  1
  C  C7  1  0.33333300  0.66666700  0.90576600  1
  C  C8  1  0.00000000  0.00000000  0.23172800  1
  C  C9  1  0.00000000  0.00000000  0.73172800  1
  C  C10  1  0.33333300  0.66666700  0.08568300  1
  C  C11  1  0.66666700  0.33333300  0.58568300  1
  O  O12  1  0.66894100  0.07008100  0.40607400  1
  O  O13  1  0.40114000  0.33105900  0.40607400  1
  O  O14  1  0.92991900  0.59886000  0.40607400  1
  O  O15  1  0.59886000  0.92991900  0.90607400  1
  O  O16  1  0.07008100  0.66894100  0.90607400  1
  O  O17  1  0.33105900  0.40114000  0.90607400  1
  O  O18  1  0.28216400  0.03960100  0.23278300  1
  O  O19  1  0.75743700  0.71783600  0.23278300  1
  O  O20  1  0.96039900  0.24256300  0.23278300  1
  O  O21  1  0.24256300  0.96039900  0.73278300  1
  O  O22  1  0.03960100  0.28216400  0.73278300  1
  O  O23  1  0.71783600  0.75743700  0.73278300  1
  O  O24  1  0.05128800  0.62744100  0.08429000  1
  O  O25  1  0.57615300  0.94871200  0.08429000  1
  O  O26  1  0.37255900  0.42384700  0.08429000  1
  O  O27  1  0.42384700  0.37255900  0.58429000  1
  O  O28  1  0.62744100  0.05128800  0.58429000  1
  O  O29  1  0.94871200  0.57615300  0.58429000  1
