# generated using pymatgen
data_TiS5(ClO3)2
_symmetry_space_group_name_H-M   'P 1'
_cell_length_a   8.90468302
_cell_length_b   8.52153344
_cell_length_c   11.60998690
_cell_angle_alpha   68.78035602
_cell_angle_beta   85.93407779
_cell_angle_gamma   91.34908410
_symmetry_Int_Tables_number   1
_chemical_formula_structural   TiS5(ClO3)2
_chemical_formula_sum   'Ti2 S10 Cl4 O12'
_cell_volume   818.03810201
_cell_formula_units_Z   2
loop_
 _symmetry_equiv_pos_site_id
 _symmetry_equiv_pos_as_xyz
  1  'x, y, z'
loop_
 _atom_site_type_symbol
 _atom_site_label
 _atom_site_symmetry_multiplicity
 _atom_site_fract_x
 _atom_site_fract_y
 _atom_site_fract_z
 _atom_site_occupancy
  Ti  Ti0  1  0.75225800  0.06890800  0.83457200  1
  Ti  Ti1  1  0.24774200  0.93109200  0.16542800  1
  S  S2  1  0.07033600  0.32672100  0.83155000  1
  S  S3  1  0.92966400  0.67327900  0.16845000  1
  S  S4  1  0.42946000  0.92158200  0.74759800  1
  S  S5  1  0.57054000  0.07841800  0.25240200  1
  S  S6  1  0.03097000  0.92402200  0.68359500  1
  S  S7  1  0.96903000  0.07597800  0.31640500  1
  S  S8  1  0.51793400  0.38093000  0.86053300  1
  S  S9  1  0.48206600  0.61907000  0.13946700  1
  S  S10  1  0.76340900  0.35632200  0.48776500  1
  S  S11  1  0.23659100  0.64367800  0.51223500  1
  Cl  Cl12  1  0.27147500  0.61977300  0.78559000  1
  Cl  Cl13  1  0.72852500  0.38022700  0.21441000  1
  Cl  Cl14  1  0.15693000  0.13585900  0.56420700  1
  Cl  Cl15  1  0.84307000  0.86414100  0.43579300  1
  O  O16  1  0.94448500  0.19193300  0.85527800  1
  O  O17  1  0.05551500  0.80806700  0.14472200  1
  O  O18  1  0.56627700  0.02893800  0.75559500  1
  O  O19  1  0.43372300  0.97106200  0.24440500  1
  O  O20  1  0.88372100  0.98450400  0.72470800  1
  O  O21  1  0.11627900  0.01549600  0.27529200  1
  O  O22  1  0.63306900  0.24603800  0.88096600  1
  O  O23  1  0.36693100  0.75396200  0.11903400  1
  O  O24  1  0.76548300  0.32823300  0.62340800  1
  O  O25  1  0.23451700  0.67176700  0.37659200  1
  O  O26  1  0.73605900  0.90686100  0.96702300  1
  O  O27  1  0.26394100  0.09313900  0.03297700  1
