# generated using pymatgen
data_PN3OF2
_symmetry_space_group_name_H-M   'P 1'
_cell_length_a   6.04127600
_cell_length_b   6.08855481
_cell_length_c   13.15142467
_cell_angle_alpha   97.12968157
_cell_angle_beta   91.21658212
_cell_angle_gamma   90.10794684
_symmetry_Int_Tables_number   1
_chemical_formula_structural   PN3OF2
_chemical_formula_sum   'P4 N12 O4 F8'
_cell_volume   479.89051902
_cell_formula_units_Z   4
loop_
 _symmetry_equiv_pos_site_id
 _symmetry_equiv_pos_as_xyz
  1  'x, y, z'
loop_
 _atom_site_type_symbol
 _atom_site_label
 _atom_site_symmetry_multiplicity
 _atom_site_fract_x
 _atom_site_fract_y
 _atom_site_fract_z
 _atom_site_occupancy
  P  P0  1  0.74295900  0.88054400  0.90300300  1
  P  P1  1  0.25704100  0.11945600  0.09699700  1
  P  P2  1  0.67501500  0.22741200  0.42368900  1
  P  P3  1  0.32498500  0.77258800  0.57631100  1
  N  N4  1  0.74643500  0.64680400  0.95663500  1
  N  N5  1  0.25356500  0.35319600  0.04336500  1
  N  N6  1  0.75421600  0.65409000  0.05123600  1
  N  N7  1  0.24578400  0.34591000  0.94876400  1
  N  N8  1  0.76134900  0.64099200  0.13696500  1
  N  N9  1  0.23865100  0.35900800  0.86303500  1
  N  N10  1  0.85176500  0.25716800  0.52313500  1
  N  N11  1  0.14823500  0.74283200  0.47686500  1
  N  N12  1  0.78403600  0.28186600  0.61182700  1
  N  N13  1  0.21596400  0.71813400  0.38817300  1
  N  N14  1  0.74168200  0.30591100  0.69661300  1
  N  N15  1  0.25831800  0.69408900  0.30338700  1
  O  O16  1  0.74909600  0.09539100  0.96668600  1
  O  O17  1  0.25090400  0.90460900  0.03331400  1
  O  O18  1  0.43609700  0.23182600  0.43977800  1
  O  O19  1  0.56390300  0.76817400  0.56022200  1
  F  F20  1  0.93212300  0.84250600  0.82415500  1
  F  F21  1  0.06787700  0.15749400  0.17584500  1
  F  F22  1  0.53991100  0.84487500  0.82767100  1
  F  F23  1  0.46008900  0.15512500  0.17232900  1
  F  F24  1  0.76205000  0.40348500  0.35774800  1
  F  F25  1  0.23795000  0.59651500  0.64225200  1
  F  F26  1  0.76142100  0.01475100  0.35845000  1
  F  F27  1  0.23857900  0.98524900  0.64155000  1
