# generated using pymatgen
data_CoN12
_symmetry_space_group_name_H-M   'P 1'
_cell_length_a   7.08753697
_cell_length_b   7.98507689
_cell_length_c   9.99383202
_cell_angle_alpha   107.36829379
_cell_angle_beta   93.30059151
_cell_angle_gamma   117.17444355
_symmetry_Int_Tables_number   1
_chemical_formula_structural   CoN12
_chemical_formula_sum   'Co2 N24'
_cell_volume   467.53328644
_cell_formula_units_Z   2
loop_
 _symmetry_equiv_pos_site_id
 _symmetry_equiv_pos_as_xyz
  1  'x, y, z'
loop_
 _atom_site_type_symbol
 _atom_site_label
 _atom_site_symmetry_multiplicity
 _atom_site_fract_x
 _atom_site_fract_y
 _atom_site_fract_z
 _atom_site_occupancy
  Co  Co0  1  0.00000000  0.00000000  0.00000000  1
  Co  Co1  1  0.50000000  0.00000000  0.50000000  1
  N  N2  1  0.69595800  0.84984500  0.92012000  1
  N  N3  1  0.30404200  0.15015500  0.07988000  1
  N  N4  1  0.56323400  0.77611900  0.98744800  1
  N  N5  1  0.43676600  0.22388100  0.01255200  1
  N  N6  1  0.42499600  0.69931100  0.04175700  1
  N  N7  1  0.57500400  0.30068900  0.95824400  1
  N  N8  1  0.05267400  0.93923100  0.80985100  1
  N  N9  1  0.94732600  0.06076900  0.19014900  1
  N  N10  1  0.91017600  0.80141400  0.70648000  1
  N  N11  1  0.08982400  0.19858600  0.29352000  1
  N  N12  1  0.78515600  0.67331000  0.60225800  1
  N  N13  1  0.21484400  0.32669000  0.39774200  1
  N  N14  1  0.21691700  0.87674100  0.39104600  1
  N  N15  1  0.78308300  0.12325900  0.60895400  1
  N  N16  1  0.08198000  0.69697200  0.33922300  1
  N  N17  1  0.91802000  0.30302800  0.66077700  1
  N  N18  1  0.94004700  0.53211900  0.28489400  1
  N  N19  1  0.05995300  0.46788100  0.71510600  1
  N  N20  1  0.99150400  0.76095900  0.01130400  1
  N  N21  1  0.00849600  0.23904100  0.98869600  1
  N  N22  1  0.59876300  0.15442500  0.38013500  1
  N  N23  1  0.40123700  0.84557500  0.61986500  1
  N  N24  1  0.55225100  0.79714400  0.38162700  1
  N  N25  1  0.44774900  0.20285600  0.61837300  1
