# generated using pymatgen
data_BaYCo4O7
_symmetry_space_group_name_H-M   'P 1'
_cell_length_a   6.42075836
_cell_length_b   6.42075836
_cell_length_c   10.32560900
_cell_angle_alpha   90.00000000
_cell_angle_beta   90.00000000
_cell_angle_gamma   119.60959218
_symmetry_Int_Tables_number   1
_chemical_formula_structural   BaYCo4O7
_chemical_formula_sum   'Ba2 Y2 Co8 O14'
_cell_volume   370.09572626
_cell_formula_units_Z   2
loop_
 _symmetry_equiv_pos_site_id
 _symmetry_equiv_pos_as_xyz
  1  'x, y, z'
loop_
 _atom_site_type_symbol
 _atom_site_label
 _atom_site_symmetry_multiplicity
 _atom_site_fract_x
 _atom_site_fract_y
 _atom_site_fract_z
 _atom_site_occupancy
  Ba  Ba0  1  0.33617300  0.66382700  0.49890700  1
  Ba  Ba1  1  0.66382700  0.33617300  0.99890700  1
  Y  Y2  1  0.33256500  0.66743500  0.12978500  1
  Y  Y3  1  0.66743500  0.33256500  0.62978500  1
  Co  Co4  1  0.82996000  0.17004000  0.31160700  1
  Co  Co5  1  0.83194500  0.66457600  0.31044000  1
  Co  Co6  1  0.33542400  0.16805500  0.31044000  1
  Co  Co7  1  0.17004000  0.82996000  0.81160700  1
  Co  Co8  1  0.16805500  0.33542400  0.81044000  1
  Co  Co9  1  0.66457600  0.83194500  0.81044000  1
  Co  Co10  1  0.00224000  0.99776000  0.55388100  1
  Co  Co11  1  0.99776000  0.00224000  0.05388100  1
  O  O12  1  0.50026600  0.49973400  0.25274300  1
  O  O13  1  0.49851000  0.99865100  0.25208400  1
  O  O14  1  0.00134900  0.50149000  0.25208400  1
  O  O15  1  0.49973400  0.50026600  0.75274300  1
  O  O16  1  0.50149000  0.00134900  0.75208400  1
  O  O17  1  0.99865100  0.49851000  0.75208400  1
  O  O18  1  0.00160100  0.99839900  0.74274100  1
  O  O19  1  0.99839900  0.00160100  0.24274100  1
  O  O20  1  0.83783100  0.16216900  0.50219100  1
  O  O21  1  0.82952200  0.67766300  0.50355800  1
  O  O22  1  0.32233700  0.17047800  0.50355800  1
  O  O23  1  0.16216900  0.83783100  0.00219100  1
  O  O24  1  0.17047800  0.32233700  0.00355800  1
  O  O25  1  0.67766300  0.82952200  0.00355800  1
