# generated using pymatgen
data_Yb2PbSe4
_symmetry_space_group_name_H-M   'P 1'
_cell_length_a   4.07475500
_cell_length_b   13.83851400
_cell_length_c   13.83077300
_cell_angle_alpha   90.00000000
_cell_angle_beta   90.00000000
_cell_angle_gamma   90.00000000
_symmetry_Int_Tables_number   1
_chemical_formula_structural   Yb2PbSe4
_chemical_formula_sum   'Yb8 Pb4 Se16'
_cell_volume   779.89729175
_cell_formula_units_Z   4
loop_
 _symmetry_equiv_pos_site_id
 _symmetry_equiv_pos_as_xyz
  1  'x, y, z'
loop_
 _atom_site_type_symbol
 _atom_site_label
 _atom_site_symmetry_multiplicity
 _atom_site_fract_x
 _atom_site_fract_y
 _atom_site_fract_z
 _atom_site_occupancy
  Yb  Yb0  1  0.25000000  0.58372700  0.09822800  1
  Yb  Yb1  1  0.25000000  0.08372700  0.40177200  1
  Yb  Yb2  1  0.75000000  0.41627300  0.90177200  1
  Yb  Yb3  1  0.75000000  0.91627300  0.59822800  1
  Yb  Yb4  1  0.25000000  0.59051500  0.59160600  1
  Yb  Yb5  1  0.25000000  0.09051500  0.90839400  1
  Yb  Yb6  1  0.75000000  0.40948500  0.40839400  1
  Yb  Yb7  1  0.75000000  0.90948500  0.09160600  1
  Pb  Pb8  1  0.25000000  0.73409800  0.82644200  1
  Pb  Pb9  1  0.25000000  0.23409800  0.67355800  1
  Pb  Pb10  1  0.75000000  0.26590200  0.17355800  1
  Pb  Pb11  1  0.75000000  0.76590200  0.32644200  1
  Se  Se12  1  0.25000000  0.87614700  0.45208000  1
  Se  Se13  1  0.25000000  0.37614700  0.04792000  1
  Se  Se14  1  0.75000000  0.12385300  0.54792000  1
  Se  Se15  1  0.75000000  0.62385300  0.95208000  1
  Se  Se16  1  0.25000000  0.77910500  0.16230900  1
  Se  Se17  1  0.25000000  0.27910500  0.33769100  1
  Se  Se18  1  0.75000000  0.22089500  0.83769100  1
  Se  Se19  1  0.75000000  0.72089500  0.66230900  1
  Se  Se20  1  0.25000000  0.57024000  0.37863000  1
  Se  Se21  1  0.25000000  0.07024000  0.12137000  1
  Se  Se22  1  0.75000000  0.42976000  0.62137000  1
  Se  Se23  1  0.75000000  0.92976000  0.87863000  1
  Se  Se24  1  0.25000000  0.50855600  0.78268100  1
  Se  Se25  1  0.25000000  0.00855600  0.71731900  1
  Se  Se26  1  0.75000000  0.49144400  0.21731900  1
  Se  Se27  1  0.75000000  0.99144400  0.28268100  1
