# generated using pymatgen
data_MgIO12
_symmetry_space_group_name_H-M   'P 1'
_cell_length_a   4.37094030
_cell_length_b   9.72398746
_cell_length_c   10.50121000
_cell_angle_alpha   90.00000000
_cell_angle_beta   90.00000000
_cell_angle_gamma   77.30083807
_symmetry_Int_Tables_number   1
_chemical_formula_structural   MgIO12
_chemical_formula_sum   'Mg2 I2 O24'
_cell_volume   435.41430449
_cell_formula_units_Z   2
loop_
 _symmetry_equiv_pos_site_id
 _symmetry_equiv_pos_as_xyz
  1  'x, y, z'
loop_
 _atom_site_type_symbol
 _atom_site_label
 _atom_site_symmetry_multiplicity
 _atom_site_fract_x
 _atom_site_fract_y
 _atom_site_fract_z
 _atom_site_occupancy
  Mg  Mg0  1  0.69095500  0.78820600  0.68734800  1
  Mg  Mg1  1  0.19095500  0.28820600  0.31265200  1
  I  I2  1  0.24634000  0.20764900  0.72368600  1
  I  I3  1  0.74634000  0.70764900  0.27631400  1
  O  O4  1  0.28583800  0.50401900  0.90168600  1
  O  O5  1  0.78583800  0.00401900  0.09831400  1
  O  O6  1  0.00335800  0.23545500  0.86929200  1
  O  O7  1  0.50335800  0.73545500  0.13070800  1
  O  O8  1  0.18985300  0.05690700  0.63024800  1
  O  O9  1  0.68985300  0.55690700  0.36975200  1
  O  O10  1  0.49982200  0.31787500  0.64614800  1
  O  O11  1  0.99982200  0.81787500  0.35385200  1
  O  O12  1  0.94863700  0.34925400  0.63291000  1
  O  O13  1  0.44863700  0.84925400  0.36709000  1
  O  O14  1  0.53506800  0.11580300  0.84349100  1
  O  O15  1  0.03506800  0.61580300  0.15650900  1
  O  O16  1  0.00859600  0.55574100  0.88211100  1
  O  O17  1  0.50859600  0.05574100  0.11788900  1
  O  O18  1  0.33317000  0.80928700  0.82818800  1
  O  O19  1  0.83317000  0.30928700  0.17181200  1
  O  O20  1  0.64507200  0.93569000  0.55301100  1
  O  O21  1  0.14507200  0.43569000  0.44698900  1
  O  O22  1  0.12021700  0.66659600  0.60792500  1
  O  O23  1  0.62021700  0.16659600  0.39207500  1
  O  O24  1  0.41458000  0.64681200  0.62372400  1
  O  O25  1  0.91458000  0.14681200  0.37627600  1
  O  O26  1  0.03449300  0.82660700  0.81928700  1
  O  O27  1  0.53449300  0.32660700  0.18071300  1
