# generated using pymatgen
data_CeMoBrO4
_symmetry_space_group_name_H-M   'P 1'
_cell_length_a   6.00445500
_cell_length_b   7.56261100
_cell_length_c   10.15187847
_cell_angle_alpha   89.77328556
_cell_angle_beta   90.00000000
_cell_angle_gamma   90.00000000
_symmetry_Int_Tables_number   1
_chemical_formula_structural   CeMoBrO4
_chemical_formula_sum   'Ce4 Mo4 Br4 O16'
_cell_volume   460.98666937
_cell_formula_units_Z   4
loop_
 _symmetry_equiv_pos_site_id
 _symmetry_equiv_pos_as_xyz
  1  'x, y, z'
loop_
 _atom_site_type_symbol
 _atom_site_label
 _atom_site_symmetry_multiplicity
 _atom_site_fract_x
 _atom_site_fract_y
 _atom_site_fract_z
 _atom_site_occupancy
  Ce  Ce0  1  0.20044100  0.62269900  0.77337300  1
  Ce  Ce1  1  0.29955900  0.12269900  0.77337300  1
  Ce  Ce2  1  0.79955900  0.37730100  0.22662700  1
  Ce  Ce3  1  0.70044100  0.87730100  0.22662700  1
  Mo  Mo4  1  0.74882800  0.37580100  0.64385500  1
  Mo  Mo5  1  0.75117200  0.87580100  0.64385500  1
  Mo  Mo6  1  0.25117200  0.62419900  0.35614500  1
  Mo  Mo7  1  0.24882800  0.12419900  0.35614500  1
  Br  Br8  1  0.24178100  0.37873900  0.01403300  1
  Br  Br9  1  0.25821900  0.87873900  0.01403300  1
  Br  Br10  1  0.75821900  0.62126100  0.98596700  1
  Br  Br11  1  0.74178100  0.12126100  0.98596700  1
  O  O12  1  0.73977500  0.37686300  0.47101700  1
  O  O13  1  0.76022500  0.87686300  0.47101700  1
  O  O14  1  0.85125100  0.62526600  0.67510600  1
  O  O15  1  0.64874900  0.12526600  0.67510600  1
  O  O16  1  0.03272600  0.33304800  0.73026900  1
  O  O17  1  0.46727400  0.83304800  0.73026900  1
  O  O18  1  0.03472800  0.91676600  0.73508300  1
  O  O19  1  0.46527200  0.41676600  0.73508300  1
  O  O20  1  0.26022500  0.62313700  0.52898300  1
  O  O21  1  0.23977500  0.12313700  0.52898300  1
  O  O22  1  0.14874900  0.37473400  0.32489400  1
  O  O23  1  0.35125100  0.87473400  0.32489400  1
  O  O24  1  0.96727400  0.66695200  0.26973100  1
  O  O25  1  0.53272600  0.16695200  0.26973100  1
  O  O26  1  0.96527200  0.08323400  0.26491700  1
  O  O27  1  0.53472800  0.58323400  0.26491700  1
