# generated using pymatgen
data_Y2ZnS4
_symmetry_space_group_name_H-M   'P 1'
_cell_length_a   6.34517200
_cell_length_b   7.91795100
_cell_length_c   13.59870600
_cell_angle_alpha   90.00000000
_cell_angle_beta   90.00000000
_cell_angle_gamma   90.00000000
_symmetry_Int_Tables_number   1
_chemical_formula_structural   Y2ZnS4
_chemical_formula_sum   'Y8 Zn4 S16'
_cell_volume   683.20933782
_cell_formula_units_Z   4
loop_
 _symmetry_equiv_pos_site_id
 _symmetry_equiv_pos_as_xyz
  1  'x, y, z'
loop_
 _atom_site_type_symbol
 _atom_site_label
 _atom_site_symmetry_multiplicity
 _atom_site_fract_x
 _atom_site_fract_y
 _atom_site_fract_z
 _atom_site_occupancy
  Y  Y0  1  0.00000000  0.50000000  0.00000000  1
  Y  Y1  1  0.50000000  0.00000000  0.50000000  1
  Y  Y2  1  0.00000000  0.00000000  0.00000000  1
  Y  Y3  1  0.50000000  0.50000000  0.50000000  1
  Y  Y4  1  0.00277100  0.75000000  0.26582800  1
  Y  Y5  1  0.49722900  0.75000000  0.76582800  1
  Y  Y6  1  0.99722900  0.25000000  0.73417200  1
  Y  Y7  1  0.50277100  0.25000000  0.23417200  1
  Zn  Zn8  1  0.58896000  0.75000000  0.09250100  1
  Zn  Zn9  1  0.91104000  0.75000000  0.59250100  1
  Zn  Zn10  1  0.41104000  0.25000000  0.90749900  1
  Zn  Zn11  1  0.08896000  0.25000000  0.40749900  1
  S  S12  1  0.22540800  0.75000000  0.09117600  1
  S  S13  1  0.27459200  0.75000000  0.59117600  1
  S  S14  1  0.77459200  0.25000000  0.90882400  1
  S  S15  1  0.72540800  0.25000000  0.40882400  1
  S  S16  1  0.75717700  0.75000000  0.43125700  1
  S  S17  1  0.74282300  0.75000000  0.93125700  1
  S  S18  1  0.24282300  0.25000000  0.56874300  1
  S  S19  1  0.25717700  0.25000000  0.06874300  1
  S  S20  1  0.75518900  0.51387100  0.16763400  1
  S  S21  1  0.74481100  0.98612900  0.66763400  1
  S  S22  1  0.24481100  0.01387100  0.83236600  1
  S  S23  1  0.25518900  0.48612900  0.33236600  1
  S  S24  1  0.24481100  0.48612900  0.83236600  1
  S  S25  1  0.25518900  0.01387100  0.33236600  1
  S  S26  1  0.75518900  0.98612900  0.16763400  1
  S  S27  1  0.74481100  0.51387100  0.66763400  1
