# generated using pymatgen
data_YbMoBrO4
_symmetry_space_group_name_H-M   'P 1'
_cell_length_a   6.75861500
_cell_length_b   7.05570581
_cell_length_c   11.92175245
_cell_angle_alpha   105.56912655
_cell_angle_beta   103.56694714
_cell_angle_gamma   88.65851887
_symmetry_Int_Tables_number   1
_chemical_formula_structural   YbMoBrO4
_chemical_formula_sum   'Yb4 Mo4 Br4 O16'
_cell_volume   531.89365188
_cell_formula_units_Z   4
loop_
 _symmetry_equiv_pos_site_id
 _symmetry_equiv_pos_as_xyz
  1  'x, y, z'
loop_
 _atom_site_type_symbol
 _atom_site_label
 _atom_site_symmetry_multiplicity
 _atom_site_fract_x
 _atom_site_fract_y
 _atom_site_fract_z
 _atom_site_occupancy
  Yb  Yb0  1  0.90316600  0.86569100  0.24100400  1
  Yb  Yb1  1  0.09683400  0.13430900  0.75899600  1
  Yb  Yb2  1  0.65883300  0.36814300  0.25671800  1
  Yb  Yb3  1  0.34116700  0.63185700  0.74328200  1
  Mo  Mo4  1  0.57705300  0.18627200  0.87117800  1
  Mo  Mo5  1  0.42294700  0.81372800  0.12882200  1
  Mo  Mo6  1  0.14576700  0.41839700  0.37756600  1
  Mo  Mo7  1  0.85423300  0.58160300  0.62243400  1
  Br  Br8  1  0.66644500  0.03445000  0.50040200  1
  Br  Br9  1  0.33355500  0.96555000  0.49959800  1
  Br  Br10  1  0.22507000  0.29256400  0.02284700  1
  Br  Br11  1  0.77493000  0.70743600  0.97715300  1
  O  O12  1  0.61529200  0.27727700  0.03424600  1
  O  O13  1  0.38470800  0.72272300  0.96575400  1
  O  O14  1  0.81273800  0.14620300  0.82874100  1
  O  O15  1  0.18726200  0.85379700  0.17125900  1
  O  O16  1  0.41741900  0.34016300  0.79278100  1
  O  O17  1  0.58258100  0.65983700  0.20721900  1
  O  O18  1  0.58776900  0.03093900  0.18655500  1
  O  O19  1  0.41223100  0.96906100  0.81344500  1
  O  O20  1  0.37020900  0.36737200  0.32504600  1
  O  O21  1  0.62979100  0.63262800  0.67495400  1
  O  O22  1  0.00602600  0.59962200  0.31065800  1
  O  O23  1  0.99397400  0.40037800  0.68934200  1
  O  O24  1  0.21771500  0.49626300  0.53711600  1
  O  O25  1  0.78228500  0.50373700  0.46288400  1
  O  O26  1  0.97402600  0.19758700  0.31988500  1
  O  O27  1  0.02597400  0.80241300  0.68011500  1
