# generated using pymatgen
data_CaAl2(SiO5)2
_symmetry_space_group_name_H-M   'P 1'
_cell_length_a   5.30107502
_cell_length_b   5.36207831
_cell_length_c   13.01515200
_cell_angle_alpha   90.00000000
_cell_angle_beta   90.00000000
_cell_angle_gamma   113.30830018
_symmetry_Int_Tables_number   1
_chemical_formula_structural   CaAl2(SiO5)2
_chemical_formula_sum   'Ca2 Al4 Si4 O20'
_cell_volume   339.76063044
_cell_formula_units_Z   2
loop_
 _symmetry_equiv_pos_site_id
 _symmetry_equiv_pos_as_xyz
  1  'x, y, z'
loop_
 _atom_site_type_symbol
 _atom_site_label
 _atom_site_symmetry_multiplicity
 _atom_site_fract_x
 _atom_site_fract_y
 _atom_site_fract_z
 _atom_site_occupancy
  Ca  Ca0  1  0.34349000  0.65877700  0.25000000  1
  Ca  Ca1  1  0.65651000  0.34122300  0.75000000  1
  Al  Al2  1  0.00000000  0.50000000  0.50000000  1
  Al  Al3  1  0.00000000  0.50000000  0.00000000  1
  Al  Al4  1  0.50000000  0.00000000  0.50000000  1
  Al  Al5  1  0.50000000  0.00000000  0.00000000  1
  Si  Si6  1  0.00654400  0.96916400  0.63020200  1
  Si  Si7  1  0.99345600  0.03083600  0.13020200  1
  Si  Si8  1  0.99345600  0.03083600  0.36979800  1
  Si  Si9  1  0.00654400  0.96916400  0.86979800  1
  O  O10  1  0.06810700  0.97728800  0.25000000  1
  O  O11  1  0.93189300  0.02271200  0.75000000  1
  O  O12  1  0.34180200  0.09615200  0.61672600  1
  O  O13  1  0.65819800  0.90384800  0.11672600  1
  O  O14  1  0.65819800  0.90384800  0.38327400  1
  O  O15  1  0.34180200  0.09615200  0.88327400  1
  O  O16  1  0.87147400  0.64096200  0.88907400  1
  O  O17  1  0.12852600  0.35903800  0.38907400  1
  O  O18  1  0.12852600  0.35903800  0.11092600  1
  O  O19  1  0.87147400  0.64096200  0.61092600  1
  O  O20  1  0.85849600  0.13720000  0.56577200  1
  O  O21  1  0.14150400  0.86280000  0.06577200  1
  O  O22  1  0.14150400  0.86280000  0.43422800  1
  O  O23  1  0.85849600  0.13720000  0.93422800  1
  O  O24  1  0.34977000  0.65223300  0.56292700  1
  O  O25  1  0.65023000  0.34776700  0.06292700  1
  O  O26  1  0.65023000  0.34776700  0.43707300  1
  O  O27  1  0.34977000  0.65223300  0.93707300  1
  O  O28  1  0.70338500  0.47014500  0.25000000  1
  O  O29  1  0.29661500  0.52985500  0.75000000  1
