# generated using pymatgen
data_Cs3Fe2F9
_symmetry_space_group_name_H-M   'P 1'
_cell_length_a   6.43751986
_cell_length_b   6.43755468
_cell_length_c   15.43840400
_cell_angle_alpha   89.99897271
_cell_angle_beta   90.00011690
_cell_angle_gamma   120.00135939
_symmetry_Int_Tables_number   1
_chemical_formula_structural   Cs3Fe2F9
_chemical_formula_sum   'Cs6 Fe4 F18'
_cell_volume   554.07250221
_cell_formula_units_Z   2
loop_
 _symmetry_equiv_pos_site_id
 _symmetry_equiv_pos_as_xyz
  1  'x, y, z'
loop_
 _atom_site_type_symbol
 _atom_site_label
 _atom_site_symmetry_multiplicity
 _atom_site_fract_x
 _atom_site_fract_y
 _atom_site_fract_z
 _atom_site_occupancy
  Cs  Cs0  1  0.33331000  0.66667000  0.25000000  1
  Cs  Cs1  1  0.66664200  0.33333700  0.75000300  1
  Cs  Cs2  1  0.33330600  0.66667500  0.56481500  1
  Cs  Cs3  1  0.33330500  0.66667500  0.93518400  1
  Cs  Cs4  1  0.66663600  0.33333200  0.06481600  1
  Cs  Cs5  1  0.66663600  0.33332800  0.43518500  1
  Fe  Fe6  1  0.99999000  0.00000100  0.15536000  1
  Fe  Fe7  1  0.99999700  0.00000100  0.34464300  1
  Fe  Fe8  1  0.99999400  0.99999100  0.65535600  1
  Fe  Fe9  1  0.00000400  0.00000100  0.84463600  1
  F  F10  1  0.26464500  0.13564700  0.25000000  1
  F  F11  1  0.87098800  0.73535400  0.25000100  1
  F  F12  1  0.86435600  0.12900400  0.25000200  1
  F  F13  1  0.12899200  0.86436100  0.75000000  1
  F  F14  1  0.13564500  0.26464100  0.74999900  1
  F  F15  1  0.73535000  0.87099400  0.74999900  1
  F  F16  1  0.29950900  0.13843300  0.59752800  1
  F  F17  1  0.83890900  0.70048700  0.59752600  1
  F  F18  1  0.86157300  0.16110000  0.59752500  1
  F  F19  1  0.29951000  0.13842400  0.90247100  1
  F  F20  1  0.83889900  0.70048700  0.90247200  1
  F  F21  1  0.86157000  0.16109300  0.90247300  1
  F  F22  1  0.16107700  0.86156400  0.09752400  1
  F  F23  1  0.13842300  0.29951600  0.09752700  1
  F  F24  1  0.70045900  0.83889400  0.09752900  1
  F  F25  1  0.16108600  0.86156900  0.40247300  1
  F  F26  1  0.13842700  0.29952300  0.40247600  1
  F  F27  1  0.70046200  0.83889700  0.40247600  1
