# generated using pymatgen
data_TeINO10
_symmetry_space_group_name_H-M   'P 1'
_cell_length_a   6.90769700
_cell_length_b   9.01000076
_cell_length_c   9.91456280
_cell_angle_alpha   89.49231805
_cell_angle_beta   109.19533088
_cell_angle_gamma   105.37700236
_symmetry_Int_Tables_number   1
_chemical_formula_structural   TeINO10
_chemical_formula_sum   'Te2 I2 N2 O20'
_cell_volume   559.81505104
_cell_formula_units_Z   2
loop_
 _symmetry_equiv_pos_site_id
 _symmetry_equiv_pos_as_xyz
  1  'x, y, z'
loop_
 _atom_site_type_symbol
 _atom_site_label
 _atom_site_symmetry_multiplicity
 _atom_site_fract_x
 _atom_site_fract_y
 _atom_site_fract_z
 _atom_site_occupancy
  Te  Te0  1  0.97405800  0.34940100  0.66464600  1
  Te  Te1  1  0.02594200  0.65059900  0.33535400  1
  I  I2  1  0.53611300  0.35939300  0.24158600  1
  I  I3  1  0.46388700  0.64060700  0.75841400  1
  N  N4  1  0.88634600  0.25831200  0.95207200  1
  N  N5  1  0.11365400  0.74168800  0.04792800  1
  O  O6  1  0.41671400  0.11615100  0.76972000  1
  O  O7  1  0.58328600  0.88384900  0.23028000  1
  O  O8  1  0.10364200  0.28453200  0.55514100  1
  O  O9  1  0.89635800  0.71546800  0.44485900  1
  O  O10  1  0.71092900  0.37423100  0.57717300  1
  O  O11  1  0.28907100  0.62576900  0.42282700  1
  O  O12  1  0.16015700  0.54991500  0.76114400  1
  O  O13  1  0.83984300  0.45008500  0.23885600  1
  O  O14  1  0.25721200  0.00437000  0.73770400  1
  O  O15  1  0.74278800  0.99563000  0.26229600  1
  O  O16  1  0.99136400  0.22422300  0.82406100  1
  O  O17  1  0.00863600  0.77577700  0.17593900  1
  O  O18  1  0.07572100  0.82578800  0.96288300  1
  O  O19  1  0.92427900  0.17421200  0.03711700  1
  O  O20  1  0.53160400  0.79491200  0.89225200  1
  O  O21  1  0.46839600  0.20508800  0.10774800  1
  O  O22  1  0.59856600  0.50413300  0.84566600  1
  O  O23  1  0.40143400  0.49586700  0.15433400  1
  O  O24  1  0.58092000  0.98501300  0.53968200  1
  O  O25  1  0.41908000  0.01498700  0.46031800  1
