# generated using pymatgen
data_Al2Si2O9
_symmetry_space_group_name_H-M   'P 1'
_cell_length_a   5.31510426
_cell_length_b   7.91067727
_cell_length_c   9.09361975
_cell_angle_alpha   87.85849764
_cell_angle_beta   89.70163376
_cell_angle_gamma   74.98624616
_symmetry_Int_Tables_number   1
_chemical_formula_structural   Al2Si2O9
_chemical_formula_sum   'Al4 Si4 O18'
_cell_volume   369.03706765
_cell_formula_units_Z   2
loop_
 _symmetry_equiv_pos_site_id
 _symmetry_equiv_pos_as_xyz
  1  'x, y, z'
loop_
 _atom_site_type_symbol
 _atom_site_label
 _atom_site_symmetry_multiplicity
 _atom_site_fract_x
 _atom_site_fract_y
 _atom_site_fract_z
 _atom_site_occupancy
  Al  Al0  1  0.27947900  0.58779400  0.47942600  1
  Al  Al1  1  0.33253800  0.59086100  0.83517500  1
  Al  Al2  1  0.85008600  0.57635700  0.99620800  1
  Al  Al3  1  0.87543800  0.55775100  0.30646000  1
  Si  Si4  1  0.03621700  0.94209600  0.31945300  1
  Si  Si5  1  0.07041300  0.92605900  0.65329500  1
  Si  Si6  1  0.55092000  0.92506100  0.82837300  1
  Si  Si7  1  0.55582000  0.93353300  0.15488000  1
  O  O8  1  0.08334200  0.72713700  0.33866300  1
  O  O9  1  0.21093200  0.70746200  0.64994700  1
  O  O10  1  0.05557400  0.00796800  0.48634600  1
  O  O11  1  0.26156000  0.99081600  0.21977200  1
  O  O12  1  0.26584200  0.00524000  0.75035900  1
  O  O13  1  0.58641700  0.71232400  0.86009700  1
  O  O14  1  0.66956700  0.71806000  0.15906100  1
  O  O15  1  0.55676100  0.01201400  0.98601200  1
  O  O16  1  0.77967300  0.96145900  0.72107900  1
  O  O17  1  0.74583800  0.02054500  0.25187200  1
  O  O18  1  0.09713400  0.69967800  0.96850600  1
  O  O19  1  0.00157000  0.43507000  0.14927000  1
  O  O20  1  0.07806200  0.44296500  0.46516900  1
  O  O21  1  0.07331100  0.47687000  0.84616100  1
  O  O22  1  0.62177700  0.63284000  0.45811000  1
  O  O23  1  0.60479000  0.38334300  0.79326100  1
  O  O24  1  0.60624800  0.40244200  0.94275200  1
  O  O25  1  0.58229000  0.47095200  0.38929200  1
