# generated using pymatgen
data_NaMn2(SO4)2
_symmetry_space_group_name_H-M   'P 1'
_cell_length_a   6.39306428
_cell_length_b   7.82679428
_cell_length_c   8.86501403
_cell_angle_alpha   99.48838731
_cell_angle_beta   110.40505230
_cell_angle_gamma   112.45957952
_symmetry_Int_Tables_number   1
_chemical_formula_structural   NaMn2(SO4)2
_chemical_formula_sum   'Na2 Mn4 S4 O16'
_cell_volume   360.74917728
_cell_formula_units_Z   2
loop_
 _symmetry_equiv_pos_site_id
 _symmetry_equiv_pos_as_xyz
  1  'x, y, z'
loop_
 _atom_site_type_symbol
 _atom_site_label
 _atom_site_symmetry_multiplicity
 _atom_site_fract_x
 _atom_site_fract_y
 _atom_site_fract_z
 _atom_site_occupancy
  Na  Na0  1  0.56630600  0.20148300  0.90331700  1
  Na  Na1  1  0.43369400  0.79851700  0.09668300  1
  Mn  Mn2  1  0.00000000  0.00000000  0.50000000  1
  Mn  Mn3  1  0.50000000  0.00000000  0.50000000  1
  Mn  Mn4  1  0.21561500  0.19865400  0.22502200  1
  Mn  Mn5  1  0.78438500  0.80134600  0.77497800  1
  S  S6  1  0.04783200  0.27861700  0.83399200  1
  S  S7  1  0.95216800  0.72138300  0.16600800  1
  S  S8  1  0.24005600  0.73825700  0.70721400  1
  S  S9  1  0.75994400  0.26174300  0.29278600  1
  O  O10  1  0.16919200  0.24243000  0.71829300  1
  O  O11  1  0.83080800  0.75757000  0.28170700  1
  O  O12  1  0.22214600  0.75830500  0.27881900  1
  O  O13  1  0.77785400  0.24169500  0.72118100  1
  O  O14  1  0.01347000  0.11660700  0.91639500  1
  O  O15  1  0.98653000  0.88339300  0.08360500  1
  O  O16  1  0.26437900  0.90599800  0.62608300  1
  O  O17  1  0.73562100  0.09400200  0.37391700  1
  O  O18  1  0.48118500  0.16934100  0.15285200  1
  O  O19  1  0.51881500  0.83065900  0.84714800  1
  O  O20  1  0.88687200  0.22860900  0.18157500  1
  O  O21  1  0.11312800  0.77139100  0.81842500  1
  O  O22  1  0.27464700  0.12435000  0.42975100  1
  O  O23  1  0.72535300  0.87565000  0.57024900  1
  O  O24  1  0.37763000  0.44110600  0.26947800  1
  O  O25  1  0.62237000  0.55889400  0.73052200  1
