# generated using pymatgen
data_YC4NO9
_symmetry_space_group_name_H-M   'P 1'
_cell_length_a   5.66789900
_cell_length_b   8.59775900
_cell_length_c   12.08082901
_cell_angle_alpha   57.75970509
_cell_angle_beta   90.00000000
_cell_angle_gamma   90.00000000
_symmetry_Int_Tables_number   1
_chemical_formula_structural   YC4NO9
_chemical_formula_sum   'Y2 C8 N2 O18'
_cell_volume   497.94471972
_cell_formula_units_Z   2
loop_
 _symmetry_equiv_pos_site_id
 _symmetry_equiv_pos_as_xyz
  1  'x, y, z'
loop_
 _atom_site_type_symbol
 _atom_site_label
 _atom_site_symmetry_multiplicity
 _atom_site_fract_x
 _atom_site_fract_y
 _atom_site_fract_z
 _atom_site_occupancy
  Y  Y0  1  0.91422700  0.50000000  0.25000000  1
  Y  Y1  1  0.08577300  0.50000000  0.75000000  1
  C  C2  1  0.78319700  0.03216700  0.90953800  1
  C  C3  1  0.21680300  0.96783300  0.09046200  1
  C  C4  1  0.78319700  0.96783300  0.59046200  1
  C  C5  1  0.21680300  0.03216700  0.40953800  1
  C  C6  1  0.90896100  0.42103500  0.02254800  1
  C  C7  1  0.09103900  0.57896500  0.97745200  1
  C  C8  1  0.90896100  0.57896500  0.47745200  1
  C  C9  1  0.09103900  0.42103500  0.52254800  1
  N  N10  1  0.43858500  0.00000000  0.75000000  1
  N  N11  1  0.56141500  0.00000000  0.25000000  1
  O  O12  1  0.85232700  0.16614500  0.81466000  1
  O  O13  1  0.14767300  0.83385500  0.18534000  1
  O  O14  1  0.85232700  0.83385500  0.68534000  1
  O  O15  1  0.14767300  0.16614500  0.31466000  1
  O  O16  1  0.71914800  0.89689000  0.00440900  1
  O  O17  1  0.28085200  0.10311000  0.99559100  1
  O  O18  1  0.71914800  0.10311000  0.49559100  1
  O  O19  1  0.28085200  0.89689000  0.50440900  1
  O  O20  1  0.88757300  0.35744500  0.94940900  1
  O  O21  1  0.11242700  0.64255500  0.05059100  1
  O  O22  1  0.88757300  0.64255500  0.55059100  1
  O  O23  1  0.11242700  0.35744500  0.44940900  1
  O  O24  1  0.79988600  0.63078100  0.37203500  1
  O  O25  1  0.20011400  0.36921900  0.62796500  1
  O  O26  1  0.79988600  0.36921900  0.12796500  1
  O  O27  1  0.20011400  0.63078100  0.87203500  1
  O  O28  1  0.45806300  0.50000000  0.75000000  1
  O  O29  1  0.54193700  0.50000000  0.25000000  1
