# generated using pymatgen
data_U8MnSe17
_symmetry_space_group_name_H-M   'P 1'
_cell_length_a   8.21685419
_cell_length_b   8.21685419
_cell_length_c   10.88506117
_cell_angle_alpha   80.07103950
_cell_angle_beta   80.07103950
_cell_angle_gamma   64.43984394
_symmetry_Int_Tables_number   1
_chemical_formula_structural   U8MnSe17
_chemical_formula_sum   'U8 Mn1 Se17'
_cell_volume   649.08204922
_cell_formula_units_Z   1
loop_
 _symmetry_equiv_pos_site_id
 _symmetry_equiv_pos_as_xyz
  1  'x, y, z'
loop_
 _atom_site_type_symbol
 _atom_site_label
 _atom_site_symmetry_multiplicity
 _atom_site_fract_x
 _atom_site_fract_y
 _atom_site_fract_z
 _atom_site_occupancy
  U  U0  1  0.81811400  0.30368300  0.29909100  1
  U  U1  1  0.30368300  0.81811400  0.29909100  1
  U  U2  1  0.18188600  0.69631700  0.70090900  1
  U  U3  1  0.69631700  0.18188600  0.70090900  1
  U  U4  1  0.20187900  0.20187900  0.54164200  1
  U  U5  1  0.79812100  0.79812100  0.45835800  1
  U  U6  1  0.67946200  0.67946200  0.98668200  1
  U  U7  1  0.32053800  0.32053800  0.01331800  1
  Mn  Mn8  1  0.00000000  0.00000000  0.00000000  1
  Se  Se9  1  0.81938200  0.43452300  0.53573000  1
  Se  Se10  1  0.43452300  0.81938200  0.53573000  1
  Se  Se11  1  0.18061800  0.56547700  0.46427000  1
  Se  Se12  1  0.56547700  0.18061800  0.46427000  1
  Se  Se13  1  0.94529100  0.32494300  0.02901300  1
  Se  Se14  1  0.32494300  0.94529100  0.02901300  1
  Se  Se15  1  0.05470900  0.67505700  0.97098700  1
  Se  Se16  1  0.67505700  0.05470900  0.97098700  1
  Se  Se17  1  0.21364500  0.21364500  0.27653000  1
  Se  Se18  1  0.78635500  0.78635500  0.72347000  1
  Se  Se19  1  0.05693400  0.05693400  0.77198600  1
  Se  Se20  1  0.94306600  0.94306600  0.22801400  1
  Se  Se21  1  0.29990100  0.29990100  0.75459900  1
  Se  Se22  1  0.70009900  0.70009900  0.24540100  1
  Se  Se23  1  0.52075400  0.52075400  0.83011600  1
  Se  Se24  1  0.47924600  0.47924600  0.16988400  1
  Se  Se25  1  0.00000000  0.00000000  0.50000000  1
