# generated using pymatgen
data_C
_symmetry_space_group_name_H-M   'P 1'
_cell_length_a   6.07398400
_cell_length_b   8.52385200
_cell_length_c   9.46272312
_cell_angle_alpha   81.77340728
_cell_angle_beta   90.00000000
_cell_angle_gamma   90.00000000
_symmetry_Int_Tables_number   1
_chemical_formula_structural   C
_chemical_formula_sum   C28
_cell_volume   484.87925392
_cell_formula_units_Z   28
loop_
 _symmetry_equiv_pos_site_id
 _symmetry_equiv_pos_as_xyz
  1  'x, y, z'
loop_
 _atom_site_type_symbol
 _atom_site_label
 _atom_site_symmetry_multiplicity
 _atom_site_fract_x
 _atom_site_fract_y
 _atom_site_fract_z
 _atom_site_occupancy
  C  C0  1  0.40014200  0.83909800  0.68293000  1
  C  C1  1  0.90014200  0.16090200  0.31707000  1
  C  C2  1  0.57329200  0.92326300  0.65537200  1
  C  C3  1  0.07329200  0.07673700  0.34462800  1
  C  C4  1  0.73239300  0.95800800  0.74063600  1
  C  C5  1  0.23239300  0.04199200  0.25936400  1
  C  C6  1  0.72345600  0.90458700  0.87321300  1
  C  C7  1  0.22345600  0.09541300  0.12678700  1
  C  C8  1  0.69766400  0.76671500  0.18936300  1
  C  C9  1  0.19766400  0.23328500  0.81063700  1
  C  C10  1  0.67922000  0.70741000  0.32017900  1
  C  C11  1  0.17922000  0.29259000  0.67982100  1
  C  C12  1  0.50701100  0.61993800  0.36557900  1
  C  C13  1  0.00701100  0.38006200  0.63442100  1
  C  C14  1  0.34096500  0.58171100  0.29478300  1
  C  C15  1  0.84096500  0.41828900  0.70521700  1
  C  C16  1  0.20418500  0.62943400  0.03447100  1
  C  C17  1  0.70418500  0.37056600  0.96552900  1
  C  C18  1  0.21774000  0.68218600  0.90591000  1
  C  C19  1  0.71774000  0.31781400  0.09409000  1
  C  C20  1  0.37492600  0.77545200  0.82713500  1
  C  C21  1  0.87492600  0.22454800  0.17286500  1
  C  C22  1  0.55441300  0.80933800  0.93667600  1
  C  C23  1  0.05441300  0.19066200  0.06332400  1
  C  C24  1  0.54087400  0.74533200  0.08649900  1
  C  C25  1  0.04087400  0.25466800  0.91350100  1
  C  C26  1  0.34321800  0.64103000  0.14885200  1
  C  C27  1  0.84321800  0.35897000  0.85114800  1
