# generated using pymatgen
data_AgI3N2O
_symmetry_space_group_name_H-M   'P 1'
_cell_length_a   3.02989600
_cell_length_b   11.32892200
_cell_length_c   22.95151700
_cell_angle_alpha   90.00000000
_cell_angle_beta   90.00000000
_cell_angle_gamma   90.00000000
_symmetry_Int_Tables_number   1
_chemical_formula_structural   AgI3N2O
_chemical_formula_sum   'Ag4 I12 N8 O4'
_cell_volume   787.82127434
_cell_formula_units_Z   4
loop_
 _symmetry_equiv_pos_site_id
 _symmetry_equiv_pos_as_xyz
  1  'x, y, z'
loop_
 _atom_site_type_symbol
 _atom_site_label
 _atom_site_symmetry_multiplicity
 _atom_site_fract_x
 _atom_site_fract_y
 _atom_site_fract_z
 _atom_site_occupancy
  Ag  Ag0  1  0.75000000  0.32234700  0.85073400  1
  Ag  Ag1  1  0.75000000  0.82234700  0.64926600  1
  Ag  Ag2  1  0.25000000  0.67765300  0.14926600  1
  Ag  Ag3  1  0.25000000  0.17765300  0.35073400  1
  I  I4  1  0.75000000  0.32683700  0.72718800  1
  I  I5  1  0.75000000  0.82683700  0.77281200  1
  I  I6  1  0.25000000  0.67316300  0.27281200  1
  I  I7  1  0.25000000  0.17316300  0.22718800  1
  I  I8  1  0.75000000  0.10050900  0.90399800  1
  I  I9  1  0.75000000  0.60050900  0.59600200  1
  I  I10  1  0.25000000  0.89949100  0.09600200  1
  I  I11  1  0.25000000  0.39949100  0.40399800  1
  I  I12  1  0.25000000  0.51243700  0.90612500  1
  I  I13  1  0.25000000  0.01243700  0.59387500  1
  I  I14  1  0.75000000  0.48756300  0.09387500  1
  I  I15  1  0.75000000  0.98756300  0.40612500  1
  N  N16  1  0.25000000  0.10071800  0.77219100  1
  N  N17  1  0.25000000  0.60071800  0.72780900  1
  N  N18  1  0.75000000  0.89928200  0.22780900  1
  N  N19  1  0.75000000  0.39928200  0.27219100  1
  N  N20  1  0.75000000  0.26978800  0.55893800  1
  N  N21  1  0.75000000  0.76978800  0.94106200  1
  N  N22  1  0.25000000  0.73021200  0.44106200  1
  N  N23  1  0.25000000  0.23021200  0.05893800  1
  O  O24  1  0.25000000  0.30306900  0.55198000  1
  O  O25  1  0.25000000  0.80306900  0.94802000  1
  O  O26  1  0.75000000  0.69693100  0.44802000  1
  O  O27  1  0.75000000  0.19693100  0.05198000  1
