# generated using pymatgen
data_Na3(CO4)2
_symmetry_space_group_name_H-M   'P 1'
_cell_length_a   11.57376777
_cell_length_b   11.57376777
_cell_length_c   9.51174691
_cell_angle_alpha   74.67071371
_cell_angle_beta   74.67071371
_cell_angle_gamma   18.38351351
_symmetry_Int_Tables_number   1
_chemical_formula_structural   Na3(CO4)2
_chemical_formula_sum   'Na6 C4 O16'
_cell_volume   387.14893598
_cell_formula_units_Z   2
loop_
 _symmetry_equiv_pos_site_id
 _symmetry_equiv_pos_as_xyz
  1  'x, y, z'
loop_
 _atom_site_type_symbol
 _atom_site_label
 _atom_site_symmetry_multiplicity
 _atom_site_fract_x
 _atom_site_fract_y
 _atom_site_fract_z
 _atom_site_occupancy
  Na  Na0  1  0.79810700  0.20189300  0.25000000  1
  Na  Na1  1  0.20189300  0.79810700  0.75000000  1
  Na  Na2  1  0.01091000  0.68940200  0.42843300  1
  Na  Na3  1  0.31059800  0.98909000  0.07156700  1
  Na  Na4  1  0.98909000  0.31059800  0.57156700  1
  Na  Na5  1  0.68940200  0.01091000  0.92843300  1
  C  C6  1  0.20206300  0.60726300  0.10841300  1
  C  C7  1  0.39273700  0.79793700  0.39158700  1
  C  C8  1  0.79793700  0.39273700  0.89158700  1
  C  C9  1  0.60726300  0.20206300  0.60841300  1
  O  O10  1  0.28231800  0.42102800  0.11518700  1
  O  O11  1  0.57897200  0.71768200  0.38481300  1
  O  O12  1  0.71768200  0.57897200  0.88481300  1
  O  O13  1  0.42102800  0.28231800  0.61518700  1
  O  O14  1  0.07793000  0.78987100  0.98892500  1
  O  O15  1  0.21012900  0.92207000  0.51107500  1
  O  O16  1  0.92207000  0.21012900  0.01107500  1
  O  O17  1  0.78987100  0.07793000  0.48892500  1
  O  O18  1  0.23316200  0.61971500  0.21982700  1
  O  O19  1  0.38028500  0.76683800  0.28017300  1
  O  O20  1  0.76683800  0.38028500  0.78017300  1
  O  O21  1  0.61971500  0.23316200  0.71982700  1
  O  O22  1  0.40245300  0.12071600  0.44909900  1
  O  O23  1  0.87928400  0.59754700  0.05090100  1
  O  O24  1  0.59754700  0.87928400  0.55090100  1
  O  O25  1  0.12071600  0.40245300  0.94909900  1
