# generated using pymatgen
data_K3Mn2O8
_symmetry_space_group_name_H-M   'P 1'
_cell_length_a   5.87499200
_cell_length_b   7.96979076
_cell_length_c   9.93683793
_cell_angle_alpha   111.50373775
_cell_angle_beta   90.00000000
_cell_angle_gamma   90.00000000
_symmetry_Int_Tables_number   1
_chemical_formula_structural   K3Mn2O8
_chemical_formula_sum   'K6 Mn4 O16'
_cell_volume   432.88162016
_cell_formula_units_Z   2
loop_
 _symmetry_equiv_pos_site_id
 _symmetry_equiv_pos_as_xyz
  1  'x, y, z'
loop_
 _atom_site_type_symbol
 _atom_site_label
 _atom_site_symmetry_multiplicity
 _atom_site_fract_x
 _atom_site_fract_y
 _atom_site_fract_z
 _atom_site_occupancy
  K  K0  1  0.75000000  0.14753100  0.54158800  1
  K  K1  1  0.25000000  0.85246900  0.45841200  1
  K  K2  1  0.75000000  0.33201000  0.95368500  1
  K  K3  1  0.25000000  0.66799000  0.04631500  1
  K  K4  1  0.75000000  0.79553500  0.78714500  1
  K  K5  1  0.25000000  0.20446500  0.21285500  1
  Mn  Mn6  1  0.25000000  0.07509700  0.83548600  1
  Mn  Mn7  1  0.75000000  0.92490300  0.16451400  1
  Mn  Mn8  1  0.25000000  0.44730100  0.65044600  1
  Mn  Mn9  1  0.75000000  0.55269900  0.34955400  1
  O  O10  1  0.25000000  0.59721200  0.57676400  1
  O  O11  1  0.75000000  0.40278800  0.42323600  1
  O  O12  1  0.25000000  0.24662300  0.52448200  1
  O  O13  1  0.75000000  0.75337700  0.47551800  1
  O  O14  1  0.02418900  0.47163600  0.75071800  1
  O  O15  1  0.52418900  0.52836400  0.24928200  1
  O  O16  1  0.97581100  0.52836400  0.24928200  1
  O  O17  1  0.47581100  0.47163600  0.75071800  1
  O  O18  1  0.25000000  0.27985500  0.96470000  1
  O  O19  1  0.75000000  0.72014500  0.03530000  1
  O  O20  1  0.25000000  0.92566500  0.91464200  1
  O  O21  1  0.75000000  0.07433500  0.08535800  1
  O  O22  1  0.02042900  0.05016500  0.73229100  1
  O  O23  1  0.52042900  0.94983500  0.26770900  1
  O  O24  1  0.97957100  0.94983500  0.26770900  1
  O  O25  1  0.47957100  0.05016500  0.73229100  1
