# generated using pymatgen
data_LaB4ClO8
_symmetry_space_group_name_H-M   'P 1'
_cell_length_a   6.58644170
_cell_length_b   6.58644170
_cell_length_c   9.87817176
_cell_angle_alpha   82.05836201
_cell_angle_beta   82.05836201
_cell_angle_gamma   119.71470025
_symmetry_Int_Tables_number   1
_chemical_formula_structural   LaB4ClO8
_chemical_formula_sum   'La2 B8 Cl2 O16'
_cell_volume   357.81281943
_cell_formula_units_Z   2
loop_
 _symmetry_equiv_pos_site_id
 _symmetry_equiv_pos_as_xyz
  1  'x, y, z'
loop_
 _atom_site_type_symbol
 _atom_site_label
 _atom_site_symmetry_multiplicity
 _atom_site_fract_x
 _atom_site_fract_y
 _atom_site_fract_z
 _atom_site_occupancy
  La  La0  1  0.56848500  0.15693400  0.90750300  1
  La  La1  1  0.15693400  0.56848500  0.40750300  1
  B  B2  1  0.12936500  0.31247200  0.77910000  1
  B  B3  1  0.31247200  0.12936500  0.27910000  1
  B  B4  1  0.50401700  0.61158100  0.82865000  1
  B  B5  1  0.61158100  0.50401700  0.32865000  1
  B  B6  1  0.22307700  0.73254000  0.75557700  1
  B  B7  1  0.73254000  0.22307700  0.25557700  1
  B  B8  1  0.93558100  0.86592600  0.84234700  1
  B  B9  1  0.86592600  0.93558100  0.34234700  1
  Cl  Cl10  1  0.67946600  0.32485900  0.60211200  1
  Cl  Cl11  1  0.32485900  0.67946600  0.10211200  1
  O  O12  1  0.72162100  0.64975400  0.85640700  1
  O  O13  1  0.64975400  0.72162100  0.35640700  1
  O  O14  1  0.36588300  0.18402600  0.12639300  1
  O  O15  1  0.18402600  0.36588300  0.62639300  1
  O  O16  1  0.34184500  0.37224100  0.83724500  1
  O  O17  1  0.37224100  0.34184500  0.33724500  1
  O  O18  1  0.03913400  0.47189700  0.80799500  1
  O  O19  1  0.47189700  0.03913400  0.30799500  1
  O  O20  1  0.92590200  0.06807400  0.84766700  1
  O  O21  1  0.06807400  0.92590200  0.34766700  1
  O  O22  1  0.15287800  0.87971400  0.82459500  1
  O  O23  1  0.87971400  0.15287800  0.32459500  1
  O  O24  1  0.76713500  0.23329300  0.10641300  1
  O  O25  1  0.23329300  0.76713500  0.60641300  1
  O  O26  1  0.45918700  0.78965300  0.78825600  1
  O  O27  1  0.78965300  0.45918700  0.28825600  1
