# generated using pymatgen
data_Eu(SbS2)2
_symmetry_space_group_name_H-M   'P 1'
_cell_length_a   4.00211300
_cell_length_b   11.47656100
_cell_length_c   14.33088200
_cell_angle_alpha   90.00000000
_cell_angle_beta   90.00000000
_cell_angle_gamma   90.00000000
_symmetry_Int_Tables_number   1
_chemical_formula_structural   Eu(SbS2)2
_chemical_formula_sum   'Eu4 Sb8 S16'
_cell_volume   658.22448933
_cell_formula_units_Z   4
loop_
 _symmetry_equiv_pos_site_id
 _symmetry_equiv_pos_as_xyz
  1  'x, y, z'
loop_
 _atom_site_type_symbol
 _atom_site_label
 _atom_site_symmetry_multiplicity
 _atom_site_fract_x
 _atom_site_fract_y
 _atom_site_fract_z
 _atom_site_occupancy
  Eu  Eu0  1  0.25000000  0.26315500  0.34816600  1
  Eu  Eu1  1  0.25000000  0.76315500  0.15183400  1
  Eu  Eu2  1  0.75000000  0.73684500  0.65183400  1
  Eu  Eu3  1  0.75000000  0.23684500  0.84816600  1
  Sb  Sb4  1  0.25000000  0.06822500  0.60918000  1
  Sb  Sb5  1  0.25000000  0.56822500  0.89082000  1
  Sb  Sb6  1  0.75000000  0.93177500  0.39082000  1
  Sb  Sb7  1  0.75000000  0.43177500  0.10918000  1
  Sb  Sb8  1  0.25000000  0.10910300  0.09435500  1
  Sb  Sb9  1  0.25000000  0.60910300  0.40564500  1
  Sb  Sb10  1  0.75000000  0.89089700  0.90564500  1
  Sb  Sb11  1  0.75000000  0.39089700  0.59435500  1
  S  S12  1  0.25000000  0.32462500  0.98903600  1
  S  S13  1  0.25000000  0.82462500  0.51096400  1
  S  S14  1  0.75000000  0.67537500  0.01096400  1
  S  S15  1  0.75000000  0.17537500  0.48903600  1
  S  S16  1  0.25000000  0.26103500  0.69788600  1
  S  S17  1  0.25000000  0.76103500  0.80211400  1
  S  S18  1  0.75000000  0.73896500  0.30211400  1
  S  S19  1  0.75000000  0.23896500  0.19788600  1
  S  S20  1  0.25000000  0.05642500  0.91292100  1
  S  S21  1  0.25000000  0.55642500  0.58707900  1
  S  S22  1  0.75000000  0.94357500  0.08707900  1
  S  S23  1  0.75000000  0.44357500  0.41292100  1
  S  S24  1  0.25000000  0.00804300  0.28635300  1
  S  S25  1  0.25000000  0.50804300  0.21364700  1
  S  S26  1  0.75000000  0.99195700  0.71364700  1
  S  S27  1  0.75000000  0.49195700  0.78635300  1
