# generated using pymatgen
data_ZnSeO5
_symmetry_space_group_name_H-M   'P 1'
_cell_length_a   6.51291586
_cell_length_b   7.60975953
_cell_length_c   7.81402500
_cell_angle_alpha   90.00000000
_cell_angle_beta   90.00000000
_cell_angle_gamma   101.95908465
_symmetry_Int_Tables_number   1
_chemical_formula_structural   ZnSeO5
_chemical_formula_sum   'Zn4 Se4 O20'
_cell_volume   378.87102813
_cell_formula_units_Z   4
loop_
 _symmetry_equiv_pos_site_id
 _symmetry_equiv_pos_as_xyz
  1  'x, y, z'
loop_
 _atom_site_type_symbol
 _atom_site_label
 _atom_site_symmetry_multiplicity
 _atom_site_fract_x
 _atom_site_fract_y
 _atom_site_fract_z
 _atom_site_occupancy
  Zn  Zn0  1  0.09557300  0.90449700  0.18845300  1
  Zn  Zn1  1  0.59557300  0.40449700  0.31154700  1
  Zn  Zn2  1  0.90442700  0.09550300  0.81154700  1
  Zn  Zn3  1  0.40442700  0.59550300  0.68845300  1
  Se  Se4  1  0.92194500  0.69253800  0.62409700  1
  Se  Se5  1  0.42194500  0.19253800  0.87590300  1
  Se  Se6  1  0.07805500  0.30746200  0.37590300  1
  Se  Se7  1  0.57805500  0.80746200  0.12409700  1
  O  O8  1  0.85244400  0.83125600  0.76803600  1
  O  O9  1  0.35244400  0.33125600  0.73196400  1
  O  O10  1  0.14755600  0.16874400  0.23196400  1
  O  O11  1  0.64755600  0.66874400  0.26803600  1
  O  O12  1  0.80804900  0.95064000  0.08231600  1
  O  O13  1  0.30804900  0.45064000  0.41768400  1
  O  O14  1  0.19195100  0.04936000  0.91768400  1
  O  O15  1  0.69195100  0.54936000  0.58231600  1
  O  O16  1  0.07577700  0.56451800  0.71514800  1
  O  O17  1  0.57577700  0.06451800  0.78485200  1
  O  O18  1  0.92422300  0.43548200  0.28485200  1
  O  O19  1  0.42422300  0.93548200  0.21514800  1
  O  O20  1  0.08721000  0.66132100  0.08420600  1
  O  O21  1  0.58721000  0.16132100  0.41579500  1
  O  O22  1  0.91279000  0.33867900  0.91579400  1
  O  O23  1  0.41279000  0.83867900  0.58420600  1
  O  O24  1  0.05602300  0.80643200  0.46141400  1
  O  O25  1  0.55602300  0.30643200  0.03858600  1
  O  O26  1  0.94397700  0.19356800  0.53858600  1
  O  O27  1  0.44397700  0.69356800  0.96141400  1
