# generated using pymatgen
data_CaRe3(Se2O3)2
_symmetry_space_group_name_H-M   'P 1'
_cell_length_a   7.95583700
_cell_length_b   8.01818484
_cell_length_c   10.51284493
_cell_angle_alpha   90.59553853
_cell_angle_beta   90.26604630
_cell_angle_gamma   119.52274358
_symmetry_Int_Tables_number   1
_chemical_formula_structural   CaRe3(Se2O3)2
_chemical_formula_sum   'Ca2 Re6 Se8 O12'
_cell_volume   583.48618984
_cell_formula_units_Z   2
loop_
 _symmetry_equiv_pos_site_id
 _symmetry_equiv_pos_as_xyz
  1  'x, y, z'
loop_
 _atom_site_type_symbol
 _atom_site_label
 _atom_site_symmetry_multiplicity
 _atom_site_fract_x
 _atom_site_fract_y
 _atom_site_fract_z
 _atom_site_occupancy
  Ca  Ca0  1  0.32148900  0.65020000  0.59122400  1
  Ca  Ca1  1  0.67851100  0.34980000  0.40877600  1
  Re  Re2  1  0.14803000  0.22251200  0.86279800  1
  Re  Re3  1  0.07572400  0.85084100  0.86182000  1
  Re  Re4  1  0.77497300  0.92511600  0.86048900  1
  Re  Re5  1  0.85197000  0.77748800  0.13720200  1
  Re  Re6  1  0.92427600  0.14915900  0.13818000  1
  Re  Re7  1  0.22502700  0.07488400  0.13951100  1
  Se  Se8  1  0.99897500  0.99787500  0.66939800  1
  Se  Se9  1  0.00102500  0.00212500  0.33060200  1
  Se  Se10  1  0.39855400  0.13453200  0.91853000  1
  Se  Se11  1  0.73878100  0.60396200  0.91412200  1
  Se  Se12  1  0.86221500  0.26104800  0.91761200  1
  Se  Se13  1  0.60144600  0.86546800  0.08147000  1
  Se  Se14  1  0.26121900  0.39603800  0.08587800  1
  Se  Se15  1  0.13778500  0.73895200  0.08238800  1
  O  O16  1  0.25168700  0.41601100  0.75413800  1
  O  O17  1  0.16830000  0.74579000  0.75280600  1
  O  O18  1  0.57920000  0.83474400  0.74934900  1
  O  O19  1  0.74831300  0.58398900  0.24586200  1
  O  O20  1  0.83170000  0.25421000  0.24719400  1
  O  O21  1  0.42080000  0.16525600  0.25065100  1
  O  O22  1  0.56106700  0.59024600  0.48124300  1
  O  O23  1  0.02303700  0.43407700  0.47812100  1
  O  O24  1  0.41010700  0.95728700  0.47905600  1
  O  O25  1  0.43893300  0.40975400  0.51875700  1
  O  O26  1  0.97696300  0.56592300  0.52187900  1
  O  O27  1  0.58989300  0.04271300  0.52094400  1
