# generated using pymatgen
data_BaAl4O7
_symmetry_space_group_name_H-M   'P 1'
_cell_length_a   4.96090500
_cell_length_b   10.36095400
_cell_length_c   13.04735400
_cell_angle_alpha   90.00000000
_cell_angle_beta   90.00000000
_cell_angle_gamma   90.00000000
_symmetry_Int_Tables_number   1
_chemical_formula_structural   BaAl4O7
_chemical_formula_sum   'Ba4 Al16 O28'
_cell_volume   670.63019234
_cell_formula_units_Z   4
loop_
 _symmetry_equiv_pos_site_id
 _symmetry_equiv_pos_as_xyz
  1  'x, y, z'
loop_
 _atom_site_type_symbol
 _atom_site_label
 _atom_site_symmetry_multiplicity
 _atom_site_fract_x
 _atom_site_fract_y
 _atom_site_fract_z
 _atom_site_occupancy
  Ba  Ba0  1  0.02664100  0.26016100  0.00000000  1
  Ba  Ba1  1  0.97335900  0.76016100  0.00000000  1
  Ba  Ba2  1  0.48302800  0.58472900  0.50000000  1
  Ba  Ba3  1  0.51697200  0.08472900  0.50000000  1
  Al  Al4  1  0.95238000  0.07393400  0.74878200  1
  Al  Al5  1  0.95238000  0.07393400  0.25121800  1
  Al  Al6  1  0.04762000  0.57393400  0.25121800  1
  Al  Al7  1  0.04762000  0.57393400  0.74878200  1
  Al  Al8  1  0.44857300  0.26074500  0.75135300  1
  Al  Al9  1  0.44857300  0.26074500  0.24864700  1
  Al  Al10  1  0.55142700  0.76074500  0.24864700  1
  Al  Al11  1  0.55142700  0.76074500  0.75135300  1
  Al  Al12  1  0.95327300  0.32460900  0.61825700  1
  Al  Al13  1  0.95327300  0.32460900  0.38174300  1
  Al  Al14  1  0.04672700  0.82460900  0.38174300  1
  Al  Al15  1  0.04672700  0.82460900  0.61825700  1
  Al  Al16  1  0.45919100  0.01074500  0.88158600  1
  Al  Al17  1  0.45919100  0.01074500  0.11841400  1
  Al  Al18  1  0.54080900  0.51074500  0.11841400  1
  Al  Al19  1  0.54080900  0.51074500  0.88158600  1
  O  O20  1  0.54250500  0.07819700  0.00000000  1
  O  O21  1  0.45749500  0.57819700  0.00000000  1
  O  O22  1  0.03847400  0.25649900  0.50000000  1
  O  O23  1  0.96152600  0.75649900  0.50000000  1
  O  O24  1  0.10796500  0.02528500  0.86238300  1
  O  O25  1  0.10796500  0.02528500  0.13761700  1
  O  O26  1  0.89203500  0.52528500  0.13761700  1
  O  O27  1  0.89203500  0.52528500  0.86238300  1
  O  O28  1  0.60851000  0.10926500  0.78240200  1
  O  O29  1  0.60851000  0.10926500  0.21759800  1
  O  O30  1  0.39149000  0.60926500  0.21759800  1
  O  O31  1  0.39149000  0.60926500  0.78240200  1
  O  O32  1  0.60258900  0.30553900  0.63640900  1
  O  O33  1  0.60258900  0.30553900  0.36359100  1
  O  O34  1  0.39741100  0.80553900  0.36359100  1
  O  O35  1  0.39741100  0.80553900  0.63640900  1
  O  O36  1  0.95198000  0.98589800  0.63447200  1
  O  O37  1  0.95198000  0.98589800  0.36552800  1
  O  O38  1  0.04802000  0.48589800  0.36552800  1
  O  O39  1  0.04802000  0.48589800  0.63447200  1
  O  O40  1  0.43910800  0.34996000  0.86507600  1
  O  O41  1  0.43910800  0.34996000  0.13492400  1
  O  O42  1  0.56089200  0.84996000  0.13492400  1
  O  O43  1  0.56089200  0.84996000  0.86507600  1
  O  O44  1  0.10489600  0.22668500  0.71779600  1
  O  O45  1  0.10489600  0.22668500  0.28220400  1
  O  O46  1  0.89510400  0.72668500  0.28220400  1
  O  O47  1  0.89510400  0.72668500  0.71779600  1
