# generated using pymatgen
data_K4P4O5
_symmetry_space_group_name_H-M   'P 1'
_cell_length_a   14.07836400
_cell_length_b   6.89267600
_cell_length_c   6.98664553
_cell_angle_alpha   61.23569731
_cell_angle_beta   90.00000000
_cell_angle_gamma   90.00000000
_symmetry_Int_Tables_number   1
_chemical_formula_structural   K4P4O5
_chemical_formula_sum   'K8 P8 O10'
_cell_volume   594.31067288
_cell_formula_units_Z   2
loop_
 _symmetry_equiv_pos_site_id
 _symmetry_equiv_pos_as_xyz
  1  'x, y, z'
loop_
 _atom_site_type_symbol
 _atom_site_label
 _atom_site_symmetry_multiplicity
 _atom_site_fract_x
 _atom_site_fract_y
 _atom_site_fract_z
 _atom_site_occupancy
  K  K0  1  0.52211700  0.94721200  0.96843100  1
  K  K1  1  0.02211700  0.05278800  0.03156900  1
  K  K2  1  0.78650300  0.57031500  0.95742800  1
  K  K3  1  0.28650300  0.42968500  0.04257200  1
  K  K4  1  0.91799300  0.11765400  0.48208500  1
  K  K5  1  0.41799300  0.88234600  0.51791500  1
  K  K6  1  0.68388300  0.44440000  0.54789900  1
  K  K7  1  0.18388300  0.55560000  0.45210100  1
  P  P8  1  0.77129500  0.00670600  0.04181800  1
  P  P9  1  0.27129500  0.99329400  0.95818200  1
  P  P10  1  0.53735300  0.41534200  0.14175300  1
  P  P11  1  0.03735300  0.58465800  0.85824700  1
  P  P12  1  0.63233000  0.15078500  0.25046300  1
  P  P13  1  0.13233000  0.84921500  0.74953700  1
  P  P14  1  0.96284700  0.58285600  0.61327500  1
  P  P15  1  0.46284700  0.41714400  0.38672500  1
  O  O16  1  0.84761100  0.06683300  0.15971600  1
  O  O17  1  0.34761100  0.93316700  0.84028400  1
  O  O18  1  0.79669200  0.05910600  0.80810500  1
  O  O19  1  0.29669200  0.94089400  0.19189500  1
  O  O20  1  0.72791500  0.77509400  0.17393700  1
  O  O21  1  0.22791500  0.22490600  0.82606300  1
  O  O22  1  0.68136300  0.18389000  0.00569200  1
  O  O23  1  0.18136300  0.81611000  0.99430800  1
  O  O24  1  0.53503800  0.58188700  0.89540500  1
  O  O25  1  0.03503800  0.41811300  0.10459500  1
