# generated using pymatgen
data_CoHgN6Cl5
_symmetry_space_group_name_H-M   'P 1'
_cell_length_a   9.24237000
_cell_length_b   6.63495200
_cell_length_c   12.02475634
_cell_angle_alpha   74.79467226
_cell_angle_beta   90.00000000
_cell_angle_gamma   90.00000000
_symmetry_Int_Tables_number   1
_chemical_formula_structural   CoHgN6Cl5
_chemical_formula_sum   'Co2 Hg2 N12 Cl10'
_cell_volume   711.57582284
_cell_formula_units_Z   2
loop_
 _symmetry_equiv_pos_site_id
 _symmetry_equiv_pos_as_xyz
  1  'x, y, z'
loop_
 _atom_site_type_symbol
 _atom_site_label
 _atom_site_symmetry_multiplicity
 _atom_site_fract_x
 _atom_site_fract_y
 _atom_site_fract_z
 _atom_site_occupancy
  Co  Co0  1  0.25000000  0.74459200  0.23910900  1
  Co  Co1  1  0.75000000  0.25540800  0.76089100  1
  Hg  Hg2  1  0.25000000  0.76512200  0.77462000  1
  Hg  Hg3  1  0.75000000  0.23487800  0.22538000  1
  N  N4  1  0.37968600  0.85576100  0.12996800  1
  N  N5  1  0.87968600  0.14423900  0.87003200  1
  N  N6  1  0.62031400  0.14423900  0.87003200  1
  N  N7  1  0.12031400  0.85576100  0.12996800  1
  N  N8  1  0.37930400  0.80190900  0.39258900  1
  N  N9  1  0.87930400  0.19809100  0.60741100  1
  N  N10  1  0.62069600  0.19809100  0.60741100  1
  N  N11  1  0.12069600  0.80190900  0.39258900  1
  N  N12  1  0.25000000  0.45604300  0.23150400  1
  N  N13  1  0.75000000  0.54395700  0.76849600  1
  N  N14  1  0.25000000  0.80459300  0.40049500  1
  N  N15  1  0.75000000  0.19540700  0.59950500  1
  Cl  Cl16  1  0.25000000  0.07821300  0.64008900  1
  Cl  Cl17  1  0.75000000  0.92178700  0.35991100  1
  Cl  Cl18  1  0.25000000  0.46048900  0.91851400  1
  Cl  Cl19  1  0.75000000  0.53951100  0.08148600  1
  Cl  Cl20  1  0.25000000  0.93524100  0.02768500  1
  Cl  Cl21  1  0.75000000  0.06475900  0.97231500  1
  Cl  Cl22  1  0.59669700  0.64206900  0.68532400  1
  Cl  Cl23  1  0.09669700  0.35793100  0.31467600  1
  Cl  Cl24  1  0.40330300  0.35793100  0.31467600  1
  Cl  Cl25  1  0.90330300  0.64206900  0.68532400  1
