# generated using pymatgen
data_H6PbC3S2IN
_symmetry_space_group_name_H-M   'P 1'
_cell_length_a   8.46671800
_cell_length_b   10.83105275
_cell_length_c   11.81294324
_cell_angle_alpha   116.28487055
_cell_angle_beta   90.00000000
_cell_angle_gamma   90.00000000
_symmetry_Int_Tables_number   1
_chemical_formula_structural   H6PbC3S2IN
_chemical_formula_sum   'H24 Pb4 C12 S8 I4 N4'
_cell_volume   971.27959017
_cell_formula_units_Z   4
loop_
 _symmetry_equiv_pos_site_id
 _symmetry_equiv_pos_as_xyz
  1  'x, y, z'
loop_
 _atom_site_type_symbol
 _atom_site_label
 _atom_site_symmetry_multiplicity
 _atom_site_fract_x
 _atom_site_fract_y
 _atom_site_fract_z
 _atom_site_occupancy
  H  H0  1  0.06966000  0.14835900  0.98281500  1
  H  H1  1  0.56966000  0.85164100  0.51718500  1
  H  H2  1  0.93034000  0.85164100  0.01718500  1
  H  H3  1  0.43034000  0.14835900  0.48281500  1
  H  H4  1  0.07915400  0.97017300  0.86880300  1
  H  H5  1  0.57915400  0.02982700  0.63119700  1
  H  H6  1  0.92084600  0.02982700  0.13119700  1
  H  H7  1  0.42084600  0.97017300  0.36880300  1
  H  H8  1  0.24720800  0.07953200  0.89571400  1
  H  H9  1  0.74720800  0.92046800  0.60428600  1
  H  H10  1  0.75279200  0.92046800  0.10428600  1
  H  H11  1  0.25279200  0.07953200  0.39571400  1
  H  H12  1  0.07821300  0.05300900  0.59829400  1
  H  H13  1  0.57821300  0.94699100  0.90170600  1
  H  H14  1  0.92178700  0.94699100  0.40170600  1
  H  H15  1  0.42178700  0.05300900  0.09829400  1
  H  H16  1  0.25237700  0.02279200  0.66737700  1
  H  H17  1  0.75237700  0.97720800  0.83262300  1
  H  H18  1  0.74762300  0.97720800  0.33262300  1
  H  H19  1  0.24762300  0.02279200  0.16737700  1
  H  H20  1  0.08383100  0.91406800  0.64271900  1
  H  H21  1  0.58383100  0.08593200  0.85728100  1
  H  H22  1  0.91616900  0.08593200  0.35728100  1
  H  H23  1  0.41616900  0.91406800  0.14271900  1
  Pb  Pb24  1  0.76615700  0.49318900  0.87862400  1
  Pb  Pb25  1  0.26615700  0.50681100  0.62137600  1
  Pb  Pb26  1  0.23384300  0.50681100  0.12137600  1
  Pb  Pb27  1  0.73384300  0.49318900  0.37862400  1
  C  C28  1  0.97706400  0.22425300  0.81607000  1
  C  C29  1  0.47706400  0.77574700  0.68393000  1
  C  C30  1  0.02293600  0.77574700  0.18393000  1
  C  C31  1  0.52293600  0.22425300  0.31607000  1
  C  C32  1  0.11750700  0.07562100  0.89146100  1
  C  C33  1  0.61750700  0.92437900  0.60853900  1
  C  C34  1  0.88249300  0.92437900  0.10853900  1
  C  C35  1  0.38249300  0.07562100  0.39146100  1
  C  C36  1  0.12265900  0.01984600  0.66730000  1
  C  C37  1  0.62265900  0.98015400  0.83270000  1
  C  C38  1  0.87734100  0.98015400  0.33270000  1
  C  C39  1  0.37734100  0.01984600  0.16730000  1
  S  S40  1  0.91070000  0.32600100  0.96895700  1
  S  S41  1  0.41070000  0.67399900  0.53104300  1
  S  S42  1  0.08930000  0.67399900  0.03104300  1
  S  S43  1  0.58930000  0.32600100  0.46895700  1
  S  S44  1  0.92626900  0.26721300  0.69691300  1
  S  S45  1  0.42626900  0.73278700  0.80308700  1
  S  S46  1  0.07373100  0.73278700  0.30308700  1
  S  S47  1  0.57373100  0.26721300  0.19691300  1
  I  I48  1  0.57378700  0.65352400  0.18150300  1
  I  I49  1  0.07378700  0.34647600  0.31849700  1
  I  I50  1  0.42621300  0.34647600  0.81849700  1
  I  I51  1  0.92621300  0.65352400  0.68150300  1
  N  N52  1  0.06465000  0.11242000  0.79279200  1
  N  N53  1  0.56465000  0.88758000  0.70720800  1
  N  N54  1  0.93535000  0.88758000  0.20720800  1
  N  N55  1  0.43535000  0.11242000  0.29279200  1
