# generated using pymatgen
data_H6PbCI3N
_symmetry_space_group_name_H-M   'P 1'
_cell_length_a   8.65008300
_cell_length_b   8.99139100
_cell_length_c   13.12265400
_cell_angle_alpha   90.00000000
_cell_angle_beta   90.00000000
_cell_angle_gamma   90.00000000
_symmetry_Int_Tables_number   1
_chemical_formula_structural   H6PbCI3N
_chemical_formula_sum   'H24 Pb4 C4 I12 N4'
_cell_volume   1020.63119132
_cell_formula_units_Z   4
loop_
 _symmetry_equiv_pos_site_id
 _symmetry_equiv_pos_as_xyz
  1  'x, y, z'
loop_
 _atom_site_type_symbol
 _atom_site_label
 _atom_site_symmetry_multiplicity
 _atom_site_fract_x
 _atom_site_fract_y
 _atom_site_fract_z
 _atom_site_occupancy
  H  H0  1  0.30379300  0.44129800  0.25000000  1
  H  H1  1  0.19620700  0.94129800  0.25000000  1
  H  H2  1  0.69620700  0.55870200  0.75000000  1
  H  H3  1  0.80379300  0.05870200  0.75000000  1
  H  H4  1  0.45318300  0.34456900  0.18125300  1
  H  H5  1  0.04681700  0.84456900  0.31874700  1
  H  H6  1  0.54681700  0.65543100  0.68125300  1
  H  H7  1  0.95318300  0.15543100  0.81874700  1
  H  H8  1  0.54681700  0.65543100  0.81874700  1
  H  H9  1  0.95318300  0.15543100  0.68125300  1
  H  H10  1  0.45318300  0.34456900  0.31874700  1
  H  H11  1  0.04681700  0.84456900  0.18125300  1
  H  H12  1  0.49614900  0.60951400  0.18580000  1
  H  H13  1  0.00385100  0.10951400  0.31420000  1
  H  H14  1  0.50385100  0.39048600  0.68580000  1
  H  H15  1  0.99614900  0.89048600  0.81420000  1
  H  H16  1  0.50385100  0.39048600  0.81420000  1
  H  H17  1  0.99614900  0.89048600  0.68580000  1
  H  H18  1  0.49614900  0.60951400  0.31420000  1
  H  H19  1  0.00385100  0.10951400  0.18580000  1
  H  H20  1  0.36049200  0.47824100  0.75000000  1
  H  H21  1  0.13950800  0.97824100  0.75000000  1
  H  H22  1  0.63950800  0.52175900  0.25000000  1
  H  H23  1  0.86049200  0.02175900  0.25000000  1
  Pb  Pb24  1  0.50000000  0.00000000  0.00000000  1
  Pb  Pb25  1  0.00000000  0.50000000  0.50000000  1
  Pb  Pb26  1  0.50000000  0.00000000  0.50000000  1
  Pb  Pb27  1  0.00000000  0.50000000  0.00000000  1
  C  C28  1  0.42599700  0.40849000  0.25000000  1
  C  C29  1  0.07400300  0.90849000  0.25000000  1
  C  C30  1  0.57400300  0.59151000  0.75000000  1
  C  C31  1  0.92599700  0.09151000  0.75000000  1
  I  I32  1  0.56927600  0.97307200  0.25000000  1
  I  I33  1  0.93072400  0.47307200  0.25000000  1
  I  I34  1  0.43072400  0.02692800  0.75000000  1
  I  I35  1  0.06927600  0.52692800  0.75000000  1
  I  I36  1  0.32637000  0.67944700  0.01757400  1
  I  I37  1  0.17363000  0.17944700  0.48242600  1
  I  I38  1  0.67363000  0.32055300  0.51757400  1
  I  I39  1  0.82637000  0.82055300  0.98242600  1
  I  I40  1  0.67363000  0.32055300  0.98242600  1
  I  I41  1  0.82637000  0.82055300  0.51757400  1
  I  I42  1  0.32637000  0.67944700  0.48242600  1
  I  I43  1  0.17363000  0.17944700  0.01757400  1
  N  N44  1  0.47882800  0.45399800  0.75000000  1
  N  N45  1  0.02117200  0.95399800  0.75000000  1
  N  N46  1  0.52117200  0.54600200  0.25000000  1
  N  N47  1  0.97882800  0.04600200  0.25000000  1
