# generated using pymatgen
data_Hg3Te2SeO10
_symmetry_space_group_name_H-M   'P 1'
_cell_length_a   5.58303500
_cell_length_b   8.65862400
_cell_length_c   11.36849113
_cell_angle_alpha   70.77017865
_cell_angle_beta   90.00000000
_cell_angle_gamma   90.00000000
_symmetry_Int_Tables_number   1
_chemical_formula_structural   Hg3Te2SeO10
_chemical_formula_sum   'Hg6 Te4 Se2 O20'
_cell_volume   518.90563650
_cell_formula_units_Z   2
loop_
 _symmetry_equiv_pos_site_id
 _symmetry_equiv_pos_as_xyz
  1  'x, y, z'
loop_
 _atom_site_type_symbol
 _atom_site_label
 _atom_site_symmetry_multiplicity
 _atom_site_fract_x
 _atom_site_fract_y
 _atom_site_fract_z
 _atom_site_occupancy
  Hg  Hg0  1  0.58011000  0.68303100  0.70201800  1
  Hg  Hg1  1  0.08011000  0.31696900  0.29798200  1
  Hg  Hg2  1  0.59547700  0.98950000  0.88416200  1
  Hg  Hg3  1  0.09547700  0.01050000  0.11583800  1
  Hg  Hg4  1  0.58096400  0.99203800  0.37213700  1
  Hg  Hg5  1  0.08096400  0.00796200  0.62786300  1
  Te  Te6  1  0.10256500  0.70719100  0.94301500  1
  Te  Te7  1  0.60256500  0.29280900  0.05698500  1
  Te  Te8  1  0.56726700  0.27206900  0.55250000  1
  Te  Te9  1  0.06726700  0.72793100  0.44750000  1
  Se  Se10  1  0.58075200  0.64427700  0.21746700  1
  Se  Se11  1  0.08075200  0.35572300  0.78253300  1
  O  O12  1  0.77912100  0.14676300  0.48546900  1
  O  O13  1  0.27912100  0.85323700  0.51453100  1
  O  O14  1  0.23639500  0.88262500  0.98799000  1
  O  O15  1  0.73639500  0.11737500  0.01201000  1
  O  O16  1  0.75582000  0.75039300  0.09903400  1
  O  O17  1  0.25582000  0.24960700  0.90096600  1
  O  O18  1  0.90524300  0.84304600  0.80839000  1
  O  O19  1  0.40524300  0.15695400  0.19161000  1
  O  O20  1  0.45320000  0.08809800  0.68607600  1
  O  O21  1  0.95320000  0.91190200  0.31392400  1
  O  O22  1  0.41716500  0.76861000  0.27436300  1
  O  O23  1  0.91716500  0.23139000  0.72563700  1
  O  O24  1  0.75554300  0.52581000  0.33454400  1
  O  O25  1  0.25554300  0.47419000  0.66545600  1
  O  O26  1  0.39302000  0.52506800  0.16868500  1
  O  O27  1  0.89302000  0.47493200  0.83131500  1
  O  O28  1  0.28961600  0.24468900  0.46226500  1
  O  O29  1  0.78961600  0.75531100  0.53773500  1
  O  O30  1  0.39164400  0.69955500  0.85721300  1
  O  O31  1  0.89164400  0.30044500  0.14278700  1
