# generated using pymatgen
data_Y2Mn(Si3O7)4
_symmetry_space_group_name_H-M   'P 1'
_cell_length_a   13.12890522
_cell_length_b   13.12890522
_cell_length_c   13.12890522
_cell_angle_alpha   146.21643360
_cell_angle_beta   108.26248360
_cell_angle_gamma   81.69082178
_symmetry_Int_Tables_number   1
_chemical_formula_structural   Y2Mn(Si3O7)4
_chemical_formula_sum   'Y4 Mn2 Si24 O56'
_cell_volume   1165.81770084
_cell_formula_units_Z   2
loop_
 _symmetry_equiv_pos_site_id
 _symmetry_equiv_pos_as_xyz
  1  'x, y, z'
loop_
 _atom_site_type_symbol
 _atom_site_label
 _atom_site_symmetry_multiplicity
 _atom_site_fract_x
 _atom_site_fract_y
 _atom_site_fract_z
 _atom_site_occupancy
  Y  Y0  1  0.97742600  0.75000000  0.22742600  1
  Y  Y1  1  0.52257400  0.75000000  0.77257400  1
  Y  Y2  1  0.02257400  0.25000000  0.77257400  1
  Y  Y3  1  0.47742600  0.25000000  0.22742600  1
  Mn  Mn4  1  0.75000000  0.75000000  0.00000000  1
  Mn  Mn5  1  0.25000000  0.25000000  0.00000000  1
  Si  Si6  1  0.92825700  0.59385100  0.81714100  1
  Si  Si7  1  0.77671100  0.11111700  0.18285900  1
  Si  Si8  1  0.72328900  0.90614900  0.33440600  1
  Si  Si9  1  0.57174300  0.38888300  0.66559400  1
  Si  Si10  1  0.07174300  0.40614900  0.18285900  1
  Si  Si11  1  0.22328900  0.88888300  0.81714100  1
  Si  Si12  1  0.27671100  0.09385100  0.66559400  1
  Si  Si13  1  0.42825700  0.61111700  0.33440600  1
  Si  Si14  1  0.22828700  0.70342300  0.22758000  1
  Si  Si15  1  0.47584300  0.00070700  0.77242000  1
  Si  Si16  1  0.02415700  0.79657700  0.52486400  1
  Si  Si17  1  0.27171300  0.49929300  0.47513600  1
  Si  Si18  1  0.77171300  0.29657700  0.77242000  1
  Si  Si19  1  0.52415700  0.99929300  0.22758000  1
  Si  Si20  1  0.97584300  0.20342300  0.47513600  1
  Si  Si21  1  0.72828700  0.50070700  0.52486400  1
  Si  Si22  1  0.13026800  0.82376500  0.95403300  1
  Si  Si23  1  0.86973200  0.17623500  0.04596700  1
  Si  Si24  1  0.63026800  0.67623500  0.30650300  1
  Si  Si25  1  0.36973200  0.32376500  0.69349700  1
  Si  Si26  1  0.33111400  0.73575700  0.06687100  1
  Si  Si27  1  0.66888600  0.26424300  0.93312900  1
  Si  Si28  1  0.83111400  0.76424300  0.59535700  1
  Si  Si29  1  0.16888600  0.23575700  0.40464300  1
  O  O30  1  0.91976300  0.71996100  0.01812000  1
  O  O31  1  0.70184100  0.90164300  0.98188000  1
  O  O32  1  0.79815900  0.78003900  0.19980200  1
  O  O33  1  0.58023700  0.59835700  0.80019800  1
  O  O34  1  0.08023700  0.28003900  0.98188000  1
  O  O35  1  0.29815900  0.09835700  0.01812000  1
  O  O36  1  0.20184100  0.21996100  0.80019800  1
  O  O37  1  0.41976300  0.40164300  0.19980200  1
  O  O38  1  0.10734500  0.57389800  0.06502500  1
  O  O39  1  0.50887300  0.04232100  0.93497500  1
  O  O40  1  0.99112700  0.92610200  0.53344700  1
  O  O41  1  0.39265500  0.45767900  0.46655300  1
  O  O42  1  0.89265500  0.42610200  0.93497500  1
  O  O43  1  0.49112700  0.95767900  0.06502500  1
  O  O44  1  0.00887300  0.07389800  0.46655300  1
  O  O45  1  0.60734500  0.54232100  0.53344700  1
  O  O46  1  0.96322000  0.39492500  0.69410000  1
  O  O47  1  0.70082500  0.26912000  0.30590000  1
  O  O48  1  0.79917500  0.10507500  0.56829500  1
  O  O49  1  0.53678000  0.23088000  0.43170500  1
  O  O50  1  0.03678000  0.60507500  0.30590000  1
  O  O51  1  0.29917500  0.73088000  0.69410000  1
  O  O52  1  0.20082500  0.89492500  0.43170500  1
  O  O53  1  0.46322000  0.76912000  0.56829500  1
  O  O54  1  0.30343200  0.61381600  0.25702900  1
  O  O55  1  0.35678600  0.04640200  0.74297100  1
  O  O56  1  0.14321400  0.88618400  0.68961600  1
  O  O57  1  0.19656800  0.45359800  0.31038400  1
  O  O58  1  0.69656800  0.38618400  0.74297100  1
  O  O59  1  0.64321400  0.95359800  0.25702900  1
  O  O60  1  0.85678600  0.11381600  0.31038400  1
  O  O61  1  0.80343200  0.54640200  0.68961600  1
  O  O62  1  0.01113600  0.69460300  0.83774100  1
  O  O63  1  0.85686200  0.17339500  0.16225900  1
  O  O64  1  0.64313800  0.80539700  0.31653300  1
  O  O65  1  0.48886400  0.32660500  0.68346700  1
  O  O66  1  0.98886400  0.30539700  0.16225900  1
  O  O67  1  0.14313800  0.82660500  0.83774100  1
  O  O68  1  0.35686200  0.19460300  0.68346700  1
  O  O69  1  0.51113600  0.67339500  0.31653300  1
  O  O70  1  0.30078200  0.76853200  0.20229600  1
  O  O71  1  0.56623600  0.09848600  0.79770400  1
  O  O72  1  0.93376400  0.73146800  0.53225000  1
  O  O73  1  0.19921800  0.40151400  0.46775000  1
  O  O74  1  0.69921800  0.23146800  0.79770400  1
  O  O75  1  0.43376400  0.90151400  0.20229600  1
  O  O76  1  0.06623600  0.26853200  0.46775000  1
  O  O77  1  0.80078200  0.59848600  0.53225000  1
  O  O78  1  0.22583700  0.73493400  0.96077100  1
  O  O79  1  0.77416300  0.26506600  0.03922900  1
  O  O80  1  0.72583700  0.76506600  0.49090300  1
  O  O81  1  0.27416300  0.23493400  0.50909700  1
  O  O82  1  0.36359000  0.53490500  0.89849600  1
  O  O83  1  0.63641000  0.46509500  0.10150400  1
  O  O84  1  0.86359000  0.96509500  0.82868500  1
  O  O85  1  0.13641000  0.03490500  0.17131500  1
