# generated using pymatgen
data_K4Mg(WO4)3
_symmetry_space_group_name_H-M   'P 1'
_cell_length_a   7.94344600
_cell_length_b   10.14261261
_cell_length_c   10.26094192
_cell_angle_alpha   93.13017480
_cell_angle_beta   106.58668791
_cell_angle_gamma   106.07273749
_symmetry_Int_Tables_number   1
_chemical_formula_structural   K4Mg(WO4)3
_chemical_formula_sum   'K8 Mg2 W6 O24'
_cell_volume   753.26800804
_cell_formula_units_Z   2
loop_
 _symmetry_equiv_pos_site_id
 _symmetry_equiv_pos_as_xyz
  1  'x, y, z'
loop_
 _atom_site_type_symbol
 _atom_site_label
 _atom_site_symmetry_multiplicity
 _atom_site_fract_x
 _atom_site_fract_y
 _atom_site_fract_z
 _atom_site_occupancy
  K  K0  1  0.64782900  0.56708800  0.88664600  1
  K  K1  1  0.35217100  0.43291200  0.11335400  1
  K  K2  1  0.00000000  0.00000000  0.00000000  1
  K  K3  1  0.77935500  0.23915500  0.77550600  1
  K  K4  1  0.22064500  0.76084500  0.22449400  1
  K  K5  1  0.74413000  0.52209100  0.47420400  1
  K  K6  1  0.25587000  0.47790900  0.52579600  1
  K  K7  1  0.50000000  0.00000000  0.00000000  1
  Mg  Mg8  1  0.16177200  0.87811600  0.55173100  1
  Mg  Mg9  1  0.83822800  0.12188400  0.44826900  1
  W  W10  1  0.12161300  0.64389200  0.81307100  1
  W  W11  1  0.87838700  0.35610800  0.18692900  1
  W  W12  1  0.23593600  0.18742400  0.74253400  1
  W  W13  1  0.76406400  0.81257600  0.25746600  1
  W  W14  1  0.61844300  0.85140500  0.61097300  1
  W  W15  1  0.38155700  0.14859500  0.38902700  1
  O  O16  1  0.24340200  0.00807800  0.72910300  1
  O  O17  1  0.75659800  0.99192200  0.27089700  1
  O  O18  1  0.44623400  0.30705700  0.73211400  1
  O  O19  1  0.55376600  0.69294300  0.26788600  1
  O  O20  1  0.60993400  0.67395500  0.63077700  1
  O  O21  1  0.39006600  0.32604500  0.36922300  1
  O  O22  1  0.90522300  0.51138500  0.79002400  1
  O  O23  1  0.09477700  0.48861500  0.20997600  1
  O  O24  1  0.03261100  0.22019200  0.62599500  1
  O  O25  1  0.96738900  0.77980800  0.37400500  1
  O  O26  1  0.38654700  0.85025000  0.50922500  1
  O  O27  1  0.61345300  0.14975000  0.49077500  1
  O  O28  1  0.11296500  0.70178800  0.64453400  1
  O  O29  1  0.88703500  0.29821200  0.35546600  1
  O  O30  1  0.15795200  0.78480400  0.94570700  1
  O  O31  1  0.84204800  0.21519600  0.05429300  1
  O  O32  1  0.68014400  0.94897500  0.77919100  1
  O  O33  1  0.31985600  0.05102500  0.22080900  1
  O  O34  1  0.20322300  0.07352000  0.46813100  1
  O  O35  1  0.79677700  0.92648000  0.53186900  1
  O  O36  1  0.22291100  0.21808700  0.91335000  1
  O  O37  1  0.77708900  0.78191300  0.08665000  1
  O  O38  1  0.30491000  0.56645300  0.86463200  1
  O  O39  1  0.69509000  0.43354700  0.13536800  1
