# generated using pymatgen
data_BaRe3Se4O7
_symmetry_space_group_name_H-M   'P 1'
_cell_length_a   8.70477500
_cell_length_b   9.03757144
_cell_length_c   9.22735324
_cell_angle_alpha   70.40962633
_cell_angle_beta   63.96244217
_cell_angle_gamma   79.39199229
_symmetry_Int_Tables_number   1
_chemical_formula_structural   BaRe3Se4O7
_chemical_formula_sum   'Ba2 Re6 Se8 O14'
_cell_volume   613.90026490
_cell_formula_units_Z   2
loop_
 _symmetry_equiv_pos_site_id
 _symmetry_equiv_pos_as_xyz
  1  'x, y, z'
loop_
 _atom_site_type_symbol
 _atom_site_label
 _atom_site_symmetry_multiplicity
 _atom_site_fract_x
 _atom_site_fract_y
 _atom_site_fract_z
 _atom_site_occupancy
  Ba  Ba0  1  0.32693400  0.86257100  0.75649600  1
  Ba  Ba1  1  0.67306600  0.13742900  0.24350400  1
  Re  Re2  1  0.81721400  0.68329400  0.50491300  1
  Re  Re3  1  0.18278600  0.31670600  0.49508700  1
  Re  Re4  1  0.87731800  0.33714900  0.47966700  1
  Re  Re5  1  0.12268200  0.66285100  0.52033300  1
  Re  Re6  1  0.87946500  0.46824100  0.76962800  1
  Re  Re7  1  0.12053500  0.53175900  0.23037200  1
  Se  Se8  1  0.63538800  0.44762100  0.70086000  1
  Se  Se9  1  0.36461200  0.55237900  0.29914000  1
  Se  Se10  1  0.80976200  0.57347100  0.27677600  1
  Se  Se11  1  0.19023800  0.42652900  0.72322400  1
  Se  Se12  1  0.23068300  0.24274800  0.22537700  1
  Se  Se13  1  0.76931700  0.75725200  0.77462300  1
  Se  Se14  1  0.93204300  0.18312300  0.73788100  1
  Se  Se15  1  0.06795700  0.81687700  0.26211900  1
  O  O16  1  0.64515300  0.83498500  0.50015600  1
  O  O17  1  0.35484700  0.16501500  0.49984400  1
  O  O18  1  0.85696300  0.18881900  0.40589600  1
  O  O19  1  0.14303700  0.81118100  0.59410400  1
  O  O20  1  0.78827200  0.42750000  0.99293200  1
  O  O21  1  0.21172800  0.57250000  0.00706800  1
  O  O22  1  0.55021300  0.74229400  0.88126300  1
  O  O23  1  0.44978700  0.25770600  0.11873700  1
  O  O24  1  0.02487600  0.98043200  0.92715600  1
  O  O25  1  0.97512400  0.01956800  0.07284400  1
  O  O26  1  0.49178800  0.12928300  0.83897600  1
  O  O27  1  0.50821200  0.87071700  0.16102400  1
  O  O28  1  0.33324500  0.11001000  0.90517800  1
  O  O29  1  0.66675500  0.88999000  0.09482200  1
