# generated using pymatgen
data_NaGdH2S2O9
_symmetry_space_group_name_H-M   'P 1'
_cell_length_a   7.02400855
_cell_length_b   7.02400855
_cell_length_c   12.86684500
_cell_angle_alpha   90.00000000
_cell_angle_beta   90.00000000
_cell_angle_gamma   120.00000518
_symmetry_Int_Tables_number   1
_chemical_formula_structural   NaGdH2S2O9
_chemical_formula_sum   'Na3 Gd3 H6 S6 O27'
_cell_volume   549.75949823
_cell_formula_units_Z   3
loop_
 _symmetry_equiv_pos_site_id
 _symmetry_equiv_pos_as_xyz
  1  'x, y, z'
loop_
 _atom_site_type_symbol
 _atom_site_label
 _atom_site_symmetry_multiplicity
 _atom_site_fract_x
 _atom_site_fract_y
 _atom_site_fract_z
 _atom_site_occupancy
  Na  Na0  1  0.47077400  0.47077200  0.66664200  1
  Na  Na1  1  0.52922800  0.00000100  0.99997600  1
  Na  Na2  1  0.99999900  0.52922600  0.33330900  1
  Gd  Gd3  1  0.55881700  0.00000300  0.50000200  1
  Gd  Gd4  1  0.99999700  0.55881300  0.83333600  1
  Gd  Gd5  1  0.44118700  0.44118300  0.16666900  1
  H  H6  1  0.03472200  0.09802200  0.45983000  1
  H  H7  1  0.90197800  0.93670000  0.79316400  1
  H  H8  1  0.06330000  0.96527800  0.12649700  1
  H  H9  1  0.96526400  0.06329500  0.20683700  1
  H  H10  1  0.93670500  0.90196900  0.54017100  1
  H  H11  1  0.09803100  0.03473600  0.87350400  1
  S  S12  1  0.55661000  0.01346600  0.74091200  1
  S  S13  1  0.98653400  0.54314400  0.07424600  1
  S  S14  1  0.45685600  0.44339000  0.40757900  1
  S  S15  1  0.44337700  0.45686400  0.92576200  1
  S  S16  1  0.54313600  0.98651300  0.25909600  1
  S  S17  1  0.01348700  0.55662300  0.59242900  1
  O  O18  1  0.75263800  0.16871700  0.80233100  1
  O  O19  1  0.83128300  0.58392100  0.13566500  1
  O  O20  1  0.41607900  0.24736200  0.46899800  1
  O  O21  1  0.24736700  0.41608300  0.86434200  1
  O  O22  1  0.58391700  0.83128500  0.19767600  1
  O  O23  1  0.16871500  0.75263300  0.53100900  1
  O  O24  1  0.37972600  0.87525900  0.81562400  1
  O  O25  1  0.12474100  0.50446600  0.14895800  1
  O  O26  1  0.49553400  0.62027400  0.48229100  1
  O  O27  1  0.62027600  0.49552500  0.85104300  1
  O  O28  1  0.50447500  0.12475100  0.18437700  1
  O  O29  1  0.87524900  0.37972400  0.51771000  1
  O  O30  1  0.61354300  0.87494700  0.67314500  1
  O  O31  1  0.12505300  0.73859600  0.00647900  1
  O  O32  1  0.26140400  0.38645700  0.33981200  1
  O  O33  1  0.38645300  0.26140200  0.99352700  1
  O  O34  1  0.73859800  0.12505100  0.32686100  1
  O  O35  1  0.87494900  0.61354700  0.66019400  1
  O  O36  1  0.48754700  0.13193800  0.66694200  1
  O  O37  1  0.86806200  0.35560900  0.00027600  1
  O  O38  1  0.64439100  0.51245300  0.33360900  1
  O  O39  1  0.51245300  0.64438400  0.99972700  1
  O  O40  1  0.35561600  0.86806900  0.33306100  1
  O  O41  1  0.13193100  0.48754700  0.66639400  1
  O  O42  1  0.90447100  0.00001100  0.50002900  1
  O  O43  1  0.99998900  0.90446100  0.83336300  1
  O  O44  1  0.09553900  0.09552900  0.16669600  1
