# generated using pymatgen
data_As4(Pb3S5)3
_symmetry_space_group_name_H-M   'P 1'
_cell_length_a   8.80297300
_cell_length_b   10.85735465
_cell_length_c   10.85735465
_cell_angle_alpha   112.98175748
_cell_angle_beta   105.67982846
_cell_angle_gamma   105.67982846
_symmetry_Int_Tables_number   1
_chemical_formula_structural   As4(Pb3S5)3
_chemical_formula_sum   'As4 Pb9 S15'
_cell_volume   833.04499580
_cell_formula_units_Z   1
loop_
 _symmetry_equiv_pos_site_id
 _symmetry_equiv_pos_as_xyz
  1  'x, y, z'
loop_
 _atom_site_type_symbol
 _atom_site_label
 _atom_site_symmetry_multiplicity
 _atom_site_fract_x
 _atom_site_fract_y
 _atom_site_fract_z
 _atom_site_occupancy
  As  As0  1  0.43272300  0.37391800  0.00000000  1
  As  As1  1  0.05880500  0.62608200  0.62608200  1
  As  As2  1  0.43272300  0.00000000  0.37391800  1
  As  As3  1  0.94792100  0.00000000  0.00000000  1
  Pb  Pb4  1  0.73025900  0.76703000  0.52335200  1
  Pb  Pb5  1  0.96322800  0.75632200  0.23297000  1
  Pb  Pb6  1  0.20690700  0.47664800  0.24367800  1
  Pb  Pb7  1  0.20690700  0.24367800  0.47664800  1
  Pb  Pb8  1  0.96322800  0.23297000  0.75632200  1
  Pb  Pb9  1  0.73025900  0.52335200  0.76703000  1
  Pb  Pb10  1  0.39138400  0.69249900  0.00000000  1
  Pb  Pb11  1  0.69888400  0.30750100  0.30750100  1
  Pb  Pb12  1  0.39138400  0.00000000  0.69249900  1
  S  S13  1  0.61601900  0.61332000  0.19178700  1
  S  S14  1  0.00269900  0.57846700  0.38668000  1
  S  S15  1  0.42423200  0.80821300  0.42153300  1
  S  S16  1  0.42423200  0.42153300  0.80821300  1
  S  S17  1  0.00269900  0.38668000  0.57846700  1
  S  S18  1  0.61601900  0.19178700  0.61332000  1
  S  S19  1  0.76512900  0.80469100  0.00000000  1
  S  S20  1  0.96043700  0.19530900  0.19530900  1
  S  S21  1  0.76512900  0.00000000  0.80469100  1
  S  S22  1  0.58613700  0.24360700  0.00000000  1
  S  S23  1  0.34252900  0.75639300  0.75639300  1
  S  S24  1  0.58613700  0.00000000  0.24360700  1
  S  S25  1  0.06049500  0.51039400  0.00000000  1
  S  S26  1  0.55010100  0.48960600  0.48960600  1
  S  S27  1  0.06049500  0.00000000  0.51039400  1
