# generated using pymatgen
data_Si2Te(H3C)6
_symmetry_space_group_name_H-M   'P 1'
_cell_length_a   7.86918522
_cell_length_b   7.86918522
_cell_length_c   12.48704840
_cell_angle_alpha   98.29041088
_cell_angle_beta   98.29041088
_cell_angle_gamma   100.77687382
_symmetry_Int_Tables_number   1
_chemical_formula_structural   Si2Te(H3C)6
_chemical_formula_sum   'Si4 Te2 H36 C12'
_cell_volume   739.93081028
_cell_formula_units_Z   2
loop_
 _symmetry_equiv_pos_site_id
 _symmetry_equiv_pos_as_xyz
  1  'x, y, z'
loop_
 _atom_site_type_symbol
 _atom_site_label
 _atom_site_symmetry_multiplicity
 _atom_site_fract_x
 _atom_site_fract_y
 _atom_site_fract_z
 _atom_site_occupancy
  Si  Si0  1  0.43168700  0.20187900  0.79234800  1
  Si  Si1  1  0.79812100  0.56831300  0.70765200  1
  Si  Si2  1  0.56831300  0.79812100  0.20765200  1
  Si  Si3  1  0.20187900  0.43168700  0.29234800  1
  Te  Te4  1  0.48591800  0.51408200  0.75000000  1
  Te  Te5  1  0.51408200  0.48591800  0.25000000  1
  H  H6  1  0.48583600  0.05266900  0.61435900  1
  H  H7  1  0.94733100  0.51416400  0.88564100  1
  H  H8  1  0.51416400  0.94733100  0.38564100  1
  H  H9  1  0.05266900  0.48583600  0.11435900  1
  H  H10  1  0.34862200  0.90287700  0.67601000  1
  H  H11  1  0.09712300  0.65137800  0.82399000  1
  H  H12  1  0.65137800  0.09712300  0.32399000  1
  H  H13  1  0.90287700  0.34862200  0.17601000  1
  H  H14  1  0.26036100  0.05987700  0.60763200  1
  H  H15  1  0.94012300  0.73963900  0.89236800  1
  H  H16  1  0.73963900  0.94012300  0.39236800  1
  H  H17  1  0.05987700  0.26036100  0.10763200  1
  H  H18  1  0.74409200  0.18260700  0.84448900  1
  H  H19  1  0.81739300  0.25590800  0.65551100  1
  H  H20  1  0.25590800  0.81739300  0.15551100  1
  H  H21  1  0.18260700  0.74409200  0.34448900  1
  H  H22  1  0.65652400  0.25716800  0.96203000  1
  H  H23  1  0.74283200  0.34347600  0.53797000  1
  H  H24  1  0.34347600  0.74283200  0.03797000  1
  H  H25  1  0.25716800  0.65652400  0.46203000  1
  H  H26  1  0.60408800  0.02951200  0.90196100  1
  H  H27  1  0.97048800  0.39591200  0.59803900  1
  H  H28  1  0.39591200  0.97048800  0.09803900  1
  H  H29  1  0.02951200  0.60408800  0.40196100  1
  H  H30  1  0.20759000  0.05278600  0.88506200  1
  H  H31  1  0.94721400  0.79241000  0.61493800  1
  H  H32  1  0.79241000  0.94721400  0.11493800  1
  H  H33  1  0.05278600  0.20759000  0.38506200  1
  H  H34  1  0.26348000  0.28138900  0.94133500  1
  H  H35  1  0.71861100  0.73652000  0.55866500  1
  H  H36  1  0.73652000  0.71861100  0.05866500  1
  H  H37  1  0.28138900  0.26348000  0.44133500  1
  H  H38  1  0.11958400  0.20410000  0.81211700  1
  H  H39  1  0.79590000  0.88041600  0.68788300  1
  H  H40  1  0.88041600  0.79590000  0.18788300  1
  H  H41  1  0.20410000  0.11958400  0.31211700  1
  C  C42  1  0.37614100  0.03873100  0.66020100  1
  C  C43  1  0.96126900  0.62385900  0.83979900  1
  C  C44  1  0.62385900  0.96126900  0.33979900  1
  C  C45  1  0.03873100  0.37614100  0.16020100  1
  C  C46  1  0.62744600  0.16431300  0.88410400  1
  C  C47  1  0.83568700  0.37255400  0.61589600  1
  C  C48  1  0.37255400  0.83568700  0.11589600  1
  C  C49  1  0.16431300  0.62744600  0.38410400  1
  C  C50  1  0.23693200  0.18563100  0.86463600  1
  C  C51  1  0.81436900  0.76306800  0.63536400  1
  C  C52  1  0.76306800  0.81436900  0.13536400  1
  C  C53  1  0.18563100  0.23693200  0.36463600  1
