# generated using pymatgen
data_SrC4(O2F3)2
_symmetry_space_group_name_H-M   'P 1'
_cell_length_a   13.17733516
_cell_length_b   13.17733516
_cell_length_c   13.17733568
_cell_angle_alpha   114.34189156
_cell_angle_beta   114.34189156
_cell_angle_gamma   114.34189669
_symmetry_Int_Tables_number   1
_chemical_formula_structural   SrC4(O2F3)2
_chemical_formula_sum   'Sr6 C24 O24 F36'
_cell_volume   1354.20112389
_cell_formula_units_Z   6
loop_
 _symmetry_equiv_pos_site_id
 _symmetry_equiv_pos_as_xyz
  1  'x, y, z'
loop_
 _atom_site_type_symbol
 _atom_site_label
 _atom_site_symmetry_multiplicity
 _atom_site_fract_x
 _atom_site_fract_y
 _atom_site_fract_z
 _atom_site_occupancy
  Sr  Sr0  1  0.51385500  0.08783300  0.89451800  1
  Sr  Sr1  1  0.08783300  0.89451800  0.51385500  1
  Sr  Sr2  1  0.89451800  0.51385500  0.08783300  1
  Sr  Sr3  1  0.48614500  0.91216700  0.10548200  1
  Sr  Sr4  1  0.91216700  0.10548200  0.48614500  1
  Sr  Sr5  1  0.10548200  0.48614500  0.91216700  1
  C  C6  1  0.21202800  0.87330600  0.80752300  1
  C  C7  1  0.87330600  0.80752300  0.21202800  1
  C  C8  1  0.80752300  0.21202800  0.87330600  1
  C  C9  1  0.78797200  0.12669400  0.19247700  1
  C  C10  1  0.12669400  0.19247700  0.78797200  1
  C  C11  1  0.19247700  0.78797200  0.12669400  1
  C  C12  1  0.06388700  0.77260800  0.77414300  1
  C  C13  1  0.77260800  0.77414300  0.06388700  1
  C  C14  1  0.77414300  0.06388700  0.77260800  1
  C  C15  1  0.93611300  0.22739200  0.22585700  1
  C  C16  1  0.22739200  0.22585700  0.93611300  1
  C  C17  1  0.22585700  0.93611300  0.22739200  1
  C  C18  1  0.75926700  0.47604500  0.25587000  1
  C  C19  1  0.47604500  0.25587000  0.75926700  1
  C  C20  1  0.25587000  0.75926700  0.47604500  1
  C  C21  1  0.24073300  0.52395500  0.74413000  1
  C  C22  1  0.52395500  0.74413000  0.24073300  1
  C  C23  1  0.74413000  0.24073300  0.52395500  1
  C  C24  1  0.67296100  0.38833400  0.28593300  1
  C  C25  1  0.38833400  0.28593300  0.67296100  1
  C  C26  1  0.28593300  0.67296100  0.38833400  1
  C  C27  1  0.32703900  0.61166600  0.71406700  1
  C  C28  1  0.61166600  0.71406700  0.32703900  1
  C  C29  1  0.71406700  0.32703900  0.61166600  1
  O  O30  1  0.20747900  0.91735700  0.73863800  1
  O  O31  1  0.91735700  0.73863800  0.20747900  1
  O  O32  1  0.73863800  0.20747900  0.91735700  1
  O  O33  1  0.79252100  0.08264300  0.26136200  1
  O  O34  1  0.08264300  0.26136200  0.79252100  1
  O  O35  1  0.26136200  0.79252100  0.08264300  1
  O  O36  1  0.32966400  0.90553200  0.90487700  1
  O  O37  1  0.90553200  0.90487700  0.32966400  1
  O  O38  1  0.90487700  0.32966400  0.90553200  1
  O  O39  1  0.67033600  0.09446800  0.09512300  1
  O  O40  1  0.09446800  0.09512300  0.67033600  1
  O  O41  1  0.09512300  0.67033600  0.09446800  1
  O  O42  1  0.72472400  0.39040300  0.13107300  1
  O  O43  1  0.39040300  0.13107300  0.72472400  1
  O  O44  1  0.13107300  0.72472400  0.39040300  1
  O  O45  1  0.27527600  0.60959700  0.86892700  1
  O  O46  1  0.60959700  0.86892700  0.27527600  1
  O  O47  1  0.86892700  0.27527600  0.60959700  1
  O  O48  1  0.85765500  0.62110400  0.36073200  1
  O  O49  1  0.62110400  0.36073200  0.85765500  1
  O  O50  1  0.36073200  0.85765500  0.62110400  1
  O  O51  1  0.14234500  0.37889600  0.63926800  1
  O  O52  1  0.37889600  0.63926800  0.14234500  1
  O  O53  1  0.63926800  0.14234500  0.37889600  1
  F  F54  1  0.94032100  0.73508500  0.66277700  1
  F  F55  1  0.73508500  0.66277700  0.94032100  1
  F  F56  1  0.66277700  0.94032100  0.73508500  1
  F  F57  1  0.05967900  0.26491500  0.33722300  1
  F  F58  1  0.26491500  0.33722300  0.05967900  1
  F  F59  1  0.33722300  0.05967900  0.26491500  1
  F  F60  1  0.02184600  0.63658800  0.72648800  1
  F  F61  1  0.63658800  0.72648800  0.02184600  1
  F  F62  1  0.72648800  0.02184600  0.63658800  1
  F  F63  1  0.97815400  0.36341200  0.27351200  1
  F  F64  1  0.36341200  0.27351200  0.97815400  1
  F  F65  1  0.27351200  0.97815400  0.36341200  1
  F  F66  1  0.09467000  0.85017400  0.90635600  1
  F  F67  1  0.85017400  0.90635600  0.09467000  1
  F  F68  1  0.90635600  0.09467000  0.85017400  1
  F  F69  1  0.90533000  0.14982600  0.09364400  1
  F  F70  1  0.14982600  0.09364400  0.90533000  1
  F  F71  1  0.09364400  0.90533000  0.14982600  1
  F  F72  1  0.54036700  0.23144500  0.15107000  1
  F  F73  1  0.23144500  0.15107000  0.54036700  1
  F  F74  1  0.15107000  0.54036700  0.23144500  1
  F  F75  1  0.45963300  0.76855500  0.84893000  1
  F  F76  1  0.76855500  0.84893000  0.45963300  1
  F  F77  1  0.84893000  0.45963300  0.76855500  1
  F  F78  1  0.76997500  0.39462300  0.38826600  1
  F  F79  1  0.39462300  0.38826600  0.76997500  1
  F  F80  1  0.38826600  0.76997500  0.39462300  1
  F  F81  1  0.23002500  0.60537700  0.61173400  1
  F  F82  1  0.60537700  0.61173400  0.23002500  1
  F  F83  1  0.61173400  0.23002500  0.60537700  1
  F  F84  1  0.62813000  0.44793600  0.34373700  1
  F  F85  1  0.44793600  0.34373700  0.62813000  1
  F  F86  1  0.34373700  0.62813000  0.44793600  1
  F  F87  1  0.37187000  0.55206400  0.65626300  1
  F  F88  1  0.55206400  0.65626300  0.37187000  1
  F  F89  1  0.65626300  0.37187000  0.55206400  1
