# generated using pymatgen
data_K4U3(AsO8)2
_symmetry_space_group_name_H-M   'P 1'
_cell_length_a   17.55044200
_cell_length_b   7.02716000
_cell_length_c   7.19057849
_cell_angle_alpha   81.49179961
_cell_angle_beta   90.00000000
_cell_angle_gamma   90.00000000
_symmetry_Int_Tables_number   1
_chemical_formula_structural   K4U3(AsO8)2
_chemical_formula_sum   'K8 U6 As4 O32'
_cell_volume   877.05271025
_cell_formula_units_Z   2
loop_
 _symmetry_equiv_pos_site_id
 _symmetry_equiv_pos_as_xyz
  1  'x, y, z'
loop_
 _atom_site_type_symbol
 _atom_site_label
 _atom_site_symmetry_multiplicity
 _atom_site_fract_x
 _atom_site_fract_y
 _atom_site_fract_z
 _atom_site_occupancy
  K  K0  1  0.55154400  0.96203200  0.25758900  1
  K  K1  1  0.05154400  0.03796800  0.24241100  1
  K  K2  1  0.44845600  0.03796800  0.74241100  1
  K  K3  1  0.94845600  0.96203200  0.75758900  1
  K  K4  1  0.20149900  0.17044500  0.72252200  1
  K  K5  1  0.70149900  0.82955500  0.77747800  1
  K  K6  1  0.79850100  0.82955500  0.27747800  1
  K  K7  1  0.29850100  0.17044500  0.22252200  1
  U  U8  1  0.10230900  0.56929600  0.98389600  1
  U  U9  1  0.60230900  0.43070400  0.51610400  1
  U  U10  1  0.89769100  0.43070400  0.01610400  1
  U  U11  1  0.39769100  0.56929600  0.48389600  1
  U  U12  1  0.00000000  0.50000000  0.50000000  1
  U  U13  1  0.50000000  0.50000000  0.00000000  1
  As  As14  1  0.18126700  0.70063300  0.47063400  1
  As  As15  1  0.68126700  0.29936700  0.02936600  1
  As  As16  1  0.81873300  0.29936700  0.52936600  1
  As  As17  1  0.31873300  0.70063300  0.97063400  1
  O  O18  1  0.18820300  0.94203400  0.45225300  1
  O  O19  1  0.68820300  0.05796600  0.04774700  1
  O  O20  1  0.81179700  0.05796600  0.54774700  1
  O  O21  1  0.31179700  0.94203400  0.95225300  1
  O  O22  1  0.23341000  0.58327100  0.97541100  1
  O  O23  1  0.73341000  0.41672900  0.52458900  1
  O  O24  1  0.76659000  0.41672900  0.02458900  1
  O  O25  1  0.26659000  0.58327100  0.47541100  1
  O  O26  1  0.12632300  0.58545400  0.65635900  1
  O  O27  1  0.62632300  0.41454600  0.84364100  1
  O  O28  1  0.87367700  0.41454600  0.34364100  1
  O  O29  1  0.37367700  0.58545400  0.15635900  1
  O  O30  1  0.12103100  0.62981600  0.30158400  1
  O  O31  1  0.62103100  0.37018400  0.19841600  1
  O  O32  1  0.87896900  0.37018400  0.69841600  1
  O  O33  1  0.37896900  0.62981600  0.80158400  1
  O  O34  1  0.08451000  0.83340000  0.93994000  1
  O  O35  1  0.58451000  0.16660000  0.56006000  1
  O  O36  1  0.91549000  0.16660000  0.06006000  1
  O  O37  1  0.41549000  0.83340000  0.43994000  1
  O  O38  1  0.12628900  0.30856400  0.01800800  1
  O  O39  1  0.62628900  0.69143600  0.48199200  1
  O  O40  1  0.87371100  0.69143600  0.98199200  1
  O  O41  1  0.37371100  0.30856400  0.51800800  1
  O  O42  1  0.50222300  0.51629200  0.31502100  1
  O  O43  1  0.00222300  0.48370800  0.18497900  1
  O  O44  1  0.49777700  0.48370800  0.68497900  1
  O  O45  1  0.99777700  0.51629200  0.81502100  1
  O  O46  1  0.03318600  0.24777700  0.54243700  1
  O  O47  1  0.53318600  0.75222300  0.95756300  1
  O  O48  1  0.96681400  0.75222300  0.45756300  1
  O  O49  1  0.46681400  0.24777700  0.04243700  1
