# generated using pymatgen
data_Na2NdGeO5
_symmetry_space_group_name_H-M   'P 1'
_cell_length_a   6.83990100
_cell_length_b   7.60468700
_cell_length_c   9.57512000
_cell_angle_alpha   90.00000000
_cell_angle_beta   90.00000000
_cell_angle_gamma   90.00000000
_symmetry_Int_Tables_number   1
_chemical_formula_structural   Na2NdGeO5
_chemical_formula_sum   'Na8 Nd4 Ge4 O20'
_cell_volume   498.05279885
_cell_formula_units_Z   4
loop_
 _symmetry_equiv_pos_site_id
 _symmetry_equiv_pos_as_xyz
  1  'x, y, z'
loop_
 _atom_site_type_symbol
 _atom_site_label
 _atom_site_symmetry_multiplicity
 _atom_site_fract_x
 _atom_site_fract_y
 _atom_site_fract_z
 _atom_site_occupancy
  Na  Na0  1  0.36780100  0.03364000  0.17468600  1
  Na  Na1  1  0.13219900  0.46636000  0.67468600  1
  Na  Na2  1  0.63219900  0.53364000  0.82531400  1
  Na  Na3  1  0.86780100  0.96636000  0.32531400  1
  Na  Na4  1  0.63219900  0.96636000  0.82531400  1
  Na  Na5  1  0.86780100  0.53364000  0.32531400  1
  Na  Na6  1  0.36780100  0.46636000  0.17468600  1
  Na  Na7  1  0.13219900  0.03364000  0.67468600  1
  Nd  Nd8  1  0.87848900  0.25000000  0.04203000  1
  Nd  Nd9  1  0.62151100  0.25000000  0.54203000  1
  Nd  Nd10  1  0.12151100  0.75000000  0.95797000  1
  Nd  Nd11  1  0.37848900  0.75000000  0.45797000  1
  Ge  Ge12  1  0.32183900  0.25000000  0.90622100  1
  Ge  Ge13  1  0.17816100  0.25000000  0.40622100  1
  Ge  Ge14  1  0.67816100  0.75000000  0.09377900  1
  Ge  Ge15  1  0.82183900  0.75000000  0.59377900  1
  O  O16  1  0.16622200  0.06661100  0.93903500  1
  O  O17  1  0.33377800  0.43338900  0.43903500  1
  O  O18  1  0.83377800  0.56661100  0.06096500  1
  O  O19  1  0.66622200  0.93338900  0.56096500  1
  O  O20  1  0.83377800  0.93338900  0.06096500  1
  O  O21  1  0.66622200  0.56661100  0.56096500  1
  O  O22  1  0.16622200  0.43338900  0.93903500  1
  O  O23  1  0.33377800  0.06661100  0.43903500  1
  O  O24  1  0.52570400  0.25000000  0.01932700  1
  O  O25  1  0.97429600  0.25000000  0.51932700  1
  O  O26  1  0.47429600  0.75000000  0.98067300  1
  O  O27  1  0.02570400  0.75000000  0.48067300  1
  O  O28  1  0.38864200  0.25000000  0.72878400  1
  O  O29  1  0.11135800  0.25000000  0.22878400  1
  O  O30  1  0.61135800  0.75000000  0.27121600  1
  O  O31  1  0.88864200  0.75000000  0.77121600  1
  O  O32  1  0.78060300  0.25000000  0.78696500  1
  O  O33  1  0.71939700  0.25000000  0.28696500  1
  O  O34  1  0.21939700  0.75000000  0.21303500  1
  O  O35  1  0.28060300  0.75000000  0.71303500  1
