# generated using pymatgen
data_K7(FeTe2)4
_symmetry_space_group_name_H-M   'P 1'
_cell_length_a   12.23307800
_cell_length_b   12.23307800
_cell_length_c   8.69776600
_cell_angle_alpha   90.00000000
_cell_angle_beta   90.00000000
_cell_angle_gamma   90.00000000
_symmetry_Int_Tables_number   1
_chemical_formula_structural   K7(FeTe2)4
_chemical_formula_sum   'K14 Fe8 Te16'
_cell_volume   1301.60500291
_cell_formula_units_Z   2
loop_
 _symmetry_equiv_pos_site_id
 _symmetry_equiv_pos_as_xyz
  1  'x, y, z'
loop_
 _atom_site_type_symbol
 _atom_site_label
 _atom_site_symmetry_multiplicity
 _atom_site_fract_x
 _atom_site_fract_y
 _atom_site_fract_z
 _atom_site_occupancy
  K  K0  1  0.00000000  0.00000000  0.00000000  1
  K  K1  1  0.50000000  0.50000000  0.50000000  1
  K  K2  1  0.50000000  0.00000000  0.95816400  1
  K  K3  1  0.50000000  0.00000000  0.45816400  1
  K  K4  1  0.00000000  0.50000000  0.54183600  1
  K  K5  1  0.00000000  0.50000000  0.04183600  1
  K  K6  1  0.75824600  0.24175400  0.00000000  1
  K  K7  1  0.75824600  0.75824600  0.00000000  1
  K  K8  1  0.24175400  0.24175400  0.00000000  1
  K  K9  1  0.24175400  0.75824600  0.00000000  1
  K  K10  1  0.74175400  0.25824600  0.50000000  1
  K  K11  1  0.74175400  0.74175400  0.50000000  1
  K  K12  1  0.25824600  0.25824600  0.50000000  1
  K  K13  1  0.25824600  0.74175400  0.50000000  1
  Fe  Fe14  1  0.50000000  0.39522000  0.89396900  1
  Fe  Fe15  1  0.50000000  0.60478000  0.89396900  1
  Fe  Fe16  1  0.89522000  0.00000000  0.39396900  1
  Fe  Fe17  1  0.10478000  0.00000000  0.39396900  1
  Fe  Fe18  1  0.00000000  0.10478000  0.60603100  1
  Fe  Fe19  1  0.00000000  0.89522000  0.60603100  1
  Fe  Fe20  1  0.60478000  0.50000000  0.10603100  1
  Fe  Fe21  1  0.39522000  0.50000000  0.10603100  1
  Te  Te22  1  0.50000000  0.31875200  0.17476700  1
  Te  Te23  1  0.50000000  0.68124800  0.17476700  1
  Te  Te24  1  0.81875200  0.00000000  0.67476700  1
  Te  Te25  1  0.18124800  0.00000000  0.67476700  1
  Te  Te26  1  0.00000000  0.18124800  0.32523300  1
  Te  Te27  1  0.00000000  0.81875200  0.32523300  1
  Te  Te28  1  0.68124800  0.50000000  0.82523300  1
  Te  Te29  1  0.31875200  0.50000000  0.82523300  1
  Te  Te30  1  0.50000000  0.77291300  0.71378500  1
  Te  Te31  1  0.50000000  0.22708700  0.71378500  1
  Te  Te32  1  0.27291300  0.00000000  0.21378500  1
  Te  Te33  1  0.72708700  0.00000000  0.21378500  1
  Te  Te34  1  0.00000000  0.72708700  0.78621500  1
  Te  Te35  1  0.00000000  0.27291300  0.78621500  1
  Te  Te36  1  0.22708700  0.50000000  0.28621500  1
  Te  Te37  1  0.77291300  0.50000000  0.28621500  1
