# generated using pymatgen
data_Na4H6Se2O11
_symmetry_space_group_name_H-M   'P 1'
_cell_length_a   5.58353291
_cell_length_b   5.58353291
_cell_length_c   18.29789639
_cell_angle_alpha   96.74568174
_cell_angle_beta   96.74568174
_cell_angle_gamma   103.30429614
_symmetry_Int_Tables_number   1
_chemical_formula_structural   Na4H6Se2O11
_chemical_formula_sum   'Na8 H12 Se4 O22'
_cell_volume   545.10243432
_cell_formula_units_Z   2
loop_
 _symmetry_equiv_pos_site_id
 _symmetry_equiv_pos_as_xyz
  1  'x, y, z'
loop_
 _atom_site_type_symbol
 _atom_site_label
 _atom_site_symmetry_multiplicity
 _atom_site_fract_x
 _atom_site_fract_y
 _atom_site_fract_z
 _atom_site_occupancy
  Na  Na0  1  0.05224200  0.37275500  0.80872100  1
  Na  Na1  1  0.56403400  0.24352000  0.19127900  1
  Na  Na2  1  0.49352000  0.31403400  0.69127900  1
  Na  Na3  1  0.62275500  0.80224200  0.30872100  1
  Na  Na4  1  0.30841800  0.89370400  0.99464600  1
  Na  Na5  1  0.89905900  0.31377200  0.00535400  1
  Na  Na6  1  0.56377200  0.64905900  0.50535400  1
  Na  Na7  1  0.14370400  0.05841800  0.49464600  1
  H  H8  1  0.47035800  0.09484700  0.82860200  1
  H  H9  1  0.26624500  0.64175700  0.17139800  1
  H  H10  1  0.89175700  0.01624500  0.67139800  1
  H  H11  1  0.34484700  0.22035800  0.32860200  1
  H  H12  1  0.26586500  0.91996900  0.76759100  1
  H  H13  1  0.15237800  0.49827400  0.23240900  1
  H  H14  1  0.74827400  0.90237800  0.73240900  1
  H  H15  1  0.16996900  0.01586500  0.26759100  1
  H  H16  1  0.46386900  0.41531100  0.04203500  1
  H  H17  1  0.37327700  0.42183500  0.95796500  1
  H  H18  1  0.67183500  0.12327700  0.45796500  1
  H  H19  1  0.66531100  0.21386900  0.54203500  1
  Se  Se20  1  0.71388500  0.73971900  0.87702000  1
  Se  Se21  1  0.86269800  0.83686500  0.12298000  1
  Se  Se22  1  0.08686500  0.61269800  0.62298000  1
  Se  Se23  1  0.98971900  0.46388500  0.37702000  1
  O  O24  1  0.42386900  0.62356700  0.89493000  1
  O  O25  1  0.72863700  0.52893900  0.10507000  1
  O  O26  1  0.77893900  0.47863700  0.60507000  1
  O  O27  1  0.87356700  0.17386900  0.39493000  1
  O  O28  1  0.91897800  0.64856000  0.93465800  1
  O  O29  1  0.71390200  0.98432100  0.06534200  1
  O  O30  1  0.23432100  0.46390200  0.56534200  1
  O  O31  1  0.89856000  0.66897800  0.43465800  1
  O  O32  1  0.74473000  0.63582900  0.78990200  1
  O  O33  1  0.84592700  0.95482900  0.21009800  1
  O  O34  1  0.20482900  0.59592700  0.71009800  1
  O  O35  1  0.88582900  0.49473000  0.28990200  1
  O  O36  1  0.76221200  0.05105000  0.88785700  1
  O  O37  1  0.16319300  0.87435600  0.11214300  1
  O  O38  1  0.12435600  0.91319300  0.61214300  1
  O  O39  1  0.30105000  0.51221200  0.38785700  1
  O  O40  1  0.32247700  0.09362100  0.79312400  1
  O  O41  1  0.30049700  0.52935300  0.20687600  1
  O  O42  1  0.77935300  0.05049700  0.70687600  1
  O  O43  1  0.34362100  0.07247700  0.29312400  1
  O  O44  1  0.32926700  0.32926700  0.00000000  1
  O  O45  1  0.57926700  0.07926700  0.50000000  1
