# generated using pymatgen
data_Ba7GeB3BrO13
_symmetry_space_group_name_H-M   'P 1'
_cell_length_a   7.56704900
_cell_length_b   11.33207800
_cell_length_c   20.66018900
_cell_angle_alpha   90.00000000
_cell_angle_beta   90.00000000
_cell_angle_gamma   90.00000000
_symmetry_Int_Tables_number   1
_chemical_formula_structural   Ba7GeB3BrO13
_chemical_formula_sum   'Ba28 Ge4 B12 Br4 O52'
_cell_volume   1771.61925385
_cell_formula_units_Z   4
loop_
 _symmetry_equiv_pos_site_id
 _symmetry_equiv_pos_as_xyz
  1  'x, y, z'
loop_
 _atom_site_type_symbol
 _atom_site_label
 _atom_site_symmetry_multiplicity
 _atom_site_fract_x
 _atom_site_fract_y
 _atom_site_fract_z
 _atom_site_occupancy
  Ba  Ba0  1  0.53231700  0.50000000  0.72565500  1
  Ba  Ba1  1  0.46768300  0.50000000  0.27434500  1
  Ba  Ba2  1  0.96768300  0.50000000  0.22565500  1
  Ba  Ba3  1  0.03231700  0.50000000  0.77434500  1
  Ba  Ba4  1  0.61774600  0.00000000  0.62764900  1
  Ba  Ba5  1  0.38225400  0.00000000  0.37235100  1
  Ba  Ba6  1  0.88225400  0.00000000  0.12764900  1
  Ba  Ba7  1  0.11774600  0.00000000  0.87235100  1
  Ba  Ba8  1  0.86594700  0.50000000  0.58348800  1
  Ba  Ba9  1  0.13405300  0.50000000  0.41651200  1
  Ba  Ba10  1  0.63405300  0.50000000  0.08348800  1
  Ba  Ba11  1  0.36594700  0.50000000  0.91651200  1
  Ba  Ba12  1  0.00000000  0.81167700  0.50000000  1
  Ba  Ba13  1  0.50000000  0.18832300  0.00000000  1
  Ba  Ba14  1  0.00000000  0.18832300  0.50000000  1
  Ba  Ba15  1  0.50000000  0.81167700  0.00000000  1
  Ba  Ba16  1  0.50000000  0.73078100  0.50000000  1
  Ba  Ba17  1  0.00000000  0.26921900  0.00000000  1
  Ba  Ba18  1  0.50000000  0.26921900  0.50000000  1
  Ba  Ba19  1  0.00000000  0.73078100  0.00000000  1
  Ba  Ba20  1  0.20877500  0.76449200  0.68410000  1
  Ba  Ba21  1  0.79122500  0.76449200  0.31590000  1
  Ba  Ba22  1  0.29122500  0.23550800  0.18410000  1
  Ba  Ba23  1  0.70877500  0.23550800  0.81590000  1
  Ba  Ba24  1  0.79122500  0.23550800  0.31590000  1
  Ba  Ba25  1  0.20877500  0.23550800  0.68410000  1
  Ba  Ba26  1  0.70877500  0.76449200  0.81590000  1
  Ba  Ba27  1  0.29122500  0.76449200  0.18410000  1
  Ge  Ge28  1  0.29103100  0.50000000  0.58293100  1
  Ge  Ge29  1  0.70896900  0.50000000  0.41706900  1
  Ge  Ge30  1  0.20896900  0.50000000  0.08293100  1
  Ge  Ge31  1  0.79103100  0.50000000  0.91706900  1
  B  B32  1  0.72600800  0.72174400  0.65958300  1
  B  B33  1  0.27399200  0.72174400  0.34041700  1
  B  B34  1  0.77399200  0.27825600  0.15958300  1
  B  B35  1  0.22600800  0.27825600  0.84041700  1
  B  B36  1  0.27399200  0.27825600  0.34041700  1
  B  B37  1  0.72600800  0.27825600  0.65958300  1
  B  B38  1  0.22600800  0.72174400  0.84041700  1
  B  B39  1  0.77399200  0.72174400  0.15958300  1
  B  B40  1  0.28052300  0.00000000  0.54870000  1
  B  B41  1  0.71947700  0.00000000  0.45130000  1
  B  B42  1  0.21947700  0.00000000  0.04870000  1
  B  B43  1  0.78052300  0.00000000  0.95130000  1
  Br  Br44  1  0.95336400  0.00000000  0.72138500  1
  Br  Br45  1  0.04663600  0.00000000  0.27861500  1
  Br  Br46  1  0.54663600  0.00000000  0.22138500  1
  Br  Br47  1  0.45336400  0.00000000  0.77861500  1
  O  O48  1  0.77703000  0.00000000  0.51513700  1
  O  O49  1  0.22297000  0.00000000  0.48486300  1
  O  O50  1  0.72297000  0.00000000  0.01513700  1
  O  O51  1  0.27703000  0.00000000  0.98486300  1
  O  O52  1  0.33307800  0.35546700  0.80403600  1
  O  O53  1  0.66692200  0.35546700  0.19596400  1
  O  O54  1  0.16692200  0.64453300  0.30403500  1
  O  O55  1  0.83307800  0.64453300  0.69596400  1
  O  O56  1  0.66692200  0.64453300  0.19596400  1
  O  O57  1  0.33307800  0.64453300  0.80403600  1
  O  O58  1  0.83307800  0.35546700  0.69596400  1
  O  O59  1  0.16692200  0.35546700  0.30403500  1
  O  O60  1  0.56697600  0.75830600  0.68689700  1
  O  O61  1  0.43302400  0.75830600  0.31310300  1
  O  O62  1  0.93302400  0.24169400  0.18689700  1
  O  O63  1  0.06697600  0.24169400  0.81310300  1
  O  O64  1  0.43302400  0.24169400  0.31310300  1
  O  O65  1  0.56697600  0.24169400  0.68689700  1
  O  O66  1  0.06697600  0.75830600  0.81310300  1
  O  O67  1  0.93302400  0.75830600  0.18689700  1
  O  O68  1  0.31103200  0.89313700  0.58017400  1
  O  O69  1  0.68896800  0.89313700  0.41982600  1
  O  O70  1  0.18896800  0.10686300  0.08017400  1
  O  O71  1  0.81103200  0.10686300  0.91982600  1
  O  O72  1  0.68896800  0.10686300  0.41982600  1
  O  O73  1  0.31103200  0.10686300  0.58017400  1
  O  O74  1  0.81103200  0.89313700  0.91982600  1
  O  O75  1  0.18896800  0.89313700  0.08017400  1
  O  O76  1  0.77828300  0.75602900  0.59799100  1
  O  O77  1  0.22171700  0.75602900  0.40200900  1
  O  O78  1  0.72171700  0.24397100  0.09799100  1
  O  O79  1  0.27828300  0.24397100  0.90200900  1
  O  O80  1  0.22171700  0.24397100  0.40200900  1
  O  O81  1  0.77828300  0.24397100  0.59799100  1
  O  O82  1  0.27828300  0.75602900  0.90200900  1
  O  O83  1  0.72171700  0.75602900  0.09799100  1
  O  O84  1  0.19376200  0.62566400  0.54558000  1
  O  O85  1  0.80623800  0.62566400  0.45442000  1
  O  O86  1  0.30623800  0.37433600  0.04558000  1
  O  O87  1  0.69376200  0.37433600  0.95442000  1
  O  O88  1  0.80623800  0.37433600  0.45442000  1
  O  O89  1  0.19376200  0.37433600  0.54558000  1
  O  O90  1  0.69376200  0.62566400  0.95442000  1
  O  O91  1  0.30623800  0.62566400  0.04558000  1
  O  O92  1  0.21802100  0.50000000  0.66525100  1
  O  O93  1  0.78197900  0.50000000  0.33474900  1
  O  O94  1  0.28197900  0.50000000  0.16525100  1
  O  O95  1  0.71802100  0.50000000  0.83474900  1
  O  O96  1  0.52333100  0.50000000  0.58075100  1
  O  O97  1  0.47666900  0.50000000  0.41924900  1
  O  O98  1  0.97666900  0.50000000  0.08075100  1
  O  O99  1  0.02333100  0.50000000  0.91924900  1
