# generated using pymatgen
data_NaNbO3
_symmetry_space_group_name_H-M   'P 1'
_cell_length_a   5.63061400
_cell_length_b   5.64571200
_cell_length_c   47.84336800
_cell_angle_alpha   90.00000000
_cell_angle_beta   90.00000000
_cell_angle_gamma   90.00000000
_symmetry_Int_Tables_number   1
_chemical_formula_structural   NaNbO3
_chemical_formula_sum   'Na24 Nb24 O72'
_cell_volume   1520.88445406
_cell_formula_units_Z   24
loop_
 _symmetry_equiv_pos_site_id
 _symmetry_equiv_pos_as_xyz
  1  'x, y, z'
loop_
 _atom_site_type_symbol
 _atom_site_label
 _atom_site_symmetry_multiplicity
 _atom_site_fract_x
 _atom_site_fract_y
 _atom_site_fract_z
 _atom_site_occupancy
  Na  Na0  1  0.99851900  0.48739500  0.04099100  1
  Na  Na1  1  0.50148100  0.98739500  0.45900900  1
  Na  Na2  1  0.00148100  0.51260500  0.54099100  1
  Na  Na3  1  0.49851900  0.01260500  0.95900900  1
  Na  Na4  1  0.00148100  0.51260500  0.95900900  1
  Na  Na5  1  0.49851900  0.01260500  0.54099100  1
  Na  Na6  1  0.99851900  0.48739500  0.45900900  1
  Na  Na7  1  0.50148100  0.98739500  0.04099100  1
  Na  Na8  1  0.99507600  0.47558800  0.12433900  1
  Na  Na9  1  0.50492400  0.97558800  0.37566100  1
  Na  Na10  1  0.00492400  0.52441200  0.62433900  1
  Na  Na11  1  0.49507600  0.02441200  0.87566100  1
  Na  Na12  1  0.00492400  0.52441200  0.87566100  1
  Na  Na13  1  0.49507600  0.02441200  0.62433900  1
  Na  Na14  1  0.99507600  0.47558800  0.37566100  1
  Na  Na15  1  0.50492400  0.97558800  0.12433900  1
  Na  Na16  1  0.98574400  0.47621700  0.20826700  1
  Na  Na17  1  0.51425600  0.97621700  0.29173300  1
  Na  Na18  1  0.01425600  0.52378300  0.70826700  1
  Na  Na19  1  0.48574400  0.02378300  0.79173300  1
  Na  Na20  1  0.01425600  0.52378300  0.79173300  1
  Na  Na21  1  0.48574400  0.02378300  0.70826700  1
  Na  Na22  1  0.98574400  0.47621700  0.29173300  1
  Na  Na23  1  0.51425600  0.97621700  0.20826700  1
  Nb  Nb24  1  0.50000000  0.50000000  0.00000000  1
  Nb  Nb25  1  0.00000000  0.00000000  0.50000000  1
  Nb  Nb26  1  0.50000000  0.50000000  0.50000000  1
  Nb  Nb27  1  0.00000000  0.00000000  0.00000000  1
  Nb  Nb28  1  0.50290400  0.47923600  0.08330000  1
  Nb  Nb29  1  0.99709600  0.97923600  0.41670000  1
  Nb  Nb30  1  0.49709600  0.52076400  0.58330000  1
  Nb  Nb31  1  0.00290400  0.02076400  0.91670000  1
  Nb  Nb32  1  0.49709600  0.52076400  0.91670000  1
  Nb  Nb33  1  0.00290400  0.02076400  0.58330000  1
  Nb  Nb34  1  0.50290400  0.47923600  0.41670000  1
  Nb  Nb35  1  0.99709600  0.97923600  0.08330000  1
  Nb  Nb36  1  0.49270800  0.47631800  0.16655700  1
  Nb  Nb37  1  0.00729200  0.97631800  0.33344300  1
  Nb  Nb38  1  0.50729200  0.52368200  0.66655700  1
  Nb  Nb39  1  0.99270800  0.02368200  0.83344300  1
  Nb  Nb40  1  0.50729200  0.52368200  0.83344300  1
  Nb  Nb41  1  0.99270800  0.02368200  0.66655700  1
  Nb  Nb42  1  0.49270800  0.47631800  0.33344300  1
  Nb  Nb43  1  0.00729200  0.97631800  0.16655700  1
  Nb  Nb44  1  0.49326200  0.47554000  0.25000000  1
  Nb  Nb45  1  0.00673800  0.97554000  0.25000000  1
  Nb  Nb46  1  0.50673800  0.52446000  0.75000000  1
  Nb  Nb47  1  0.99326200  0.02446000  0.75000000  1
  O  O48  1  0.48965900  0.50889100  0.04164100  1
  O  O49  1  0.01034100  0.00889100  0.45835900  1
  O  O50  1  0.51034100  0.49110900  0.54164100  1
  O  O51  1  0.98965900  0.99110900  0.95835900  1
  O  O52  1  0.51034100  0.49110900  0.95835900  1
  O  O53  1  0.98965900  0.99110900  0.54164100  1
  O  O54  1  0.48965900  0.50889100  0.45835900  1
  O  O55  1  0.01034100  0.00889100  0.04164100  1
  O  O56  1  0.49849700  0.51947000  0.12504300  1
  O  O57  1  0.00150300  0.01947000  0.37495700  1
  O  O58  1  0.50150300  0.48053000  0.62504300  1
  O  O59  1  0.99849700  0.98053000  0.87495700  1
  O  O60  1  0.50150300  0.48053000  0.87495700  1
  O  O61  1  0.99849700  0.98053000  0.62504300  1
  O  O62  1  0.49849700  0.51947000  0.37495700  1
  O  O63  1  0.00150300  0.01947000  0.12504300  1
  O  O64  1  0.50996800  0.51623200  0.20832000  1
  O  O65  1  0.99003200  0.01623200  0.29168000  1
  O  O66  1  0.49003200  0.48376800  0.70832000  1
  O  O67  1  0.00996800  0.98376800  0.79168000  1
  O  O68  1  0.49003200  0.48376800  0.79168000  1
  O  O69  1  0.00996800  0.98376800  0.70832000  1
  O  O70  1  0.50996800  0.51623200  0.29168000  1
  O  O71  1  0.99003200  0.01623200  0.20832000  1
  O  O72  1  0.29432800  0.79403100  0.99898100  1
  O  O73  1  0.20567200  0.29403100  0.50101900  1
  O  O74  1  0.70567200  0.20596900  0.49898100  1
  O  O75  1  0.79432800  0.70596900  0.00101900  1
  O  O76  1  0.70567200  0.20596900  0.00101900  1
  O  O77  1  0.79432800  0.70596900  0.49898100  1
  O  O78  1  0.29432800  0.79403100  0.50101900  1
  O  O79  1  0.20567200  0.29403100  0.99898100  1
  O  O80  1  0.21199600  0.72026200  0.08356900  1
  O  O81  1  0.28800400  0.22026200  0.41643100  1
  O  O82  1  0.78800400  0.27973800  0.58356900  1
  O  O83  1  0.71199600  0.77973800  0.91643100  1
  O  O84  1  0.78800400  0.27973800  0.91643100  1
  O  O85  1  0.71199600  0.77973800  0.58356900  1
  O  O86  1  0.21199600  0.72026200  0.41643100  1
  O  O87  1  0.28800400  0.22026200  0.08356900  1
  O  O88  1  0.78916900  0.29670900  0.08266200  1
  O  O89  1  0.71083100  0.79670900  0.41733800  1
  O  O90  1  0.21083100  0.70329100  0.58266200  1
  O  O91  1  0.28916900  0.20329100  0.91733800  1
  O  O92  1  0.21083100  0.70329100  0.91733800  1
  O  O93  1  0.28916900  0.20329100  0.58266200  1
  O  O94  1  0.78916900  0.29670900  0.41733800  1
  O  O95  1  0.71083100  0.79670900  0.08266200  1
  O  O96  1  0.29888400  0.80763100  0.16711000  1
  O  O97  1  0.20111600  0.30763100  0.33289000  1
  O  O98  1  0.70111600  0.19236900  0.66711000  1
  O  O99  1  0.79888400  0.69236900  0.83289000  1
  O  O100  1  0.70111600  0.19236900  0.83289000  1
  O  O101  1  0.79888400  0.69236900  0.66711000  1
  O  O102  1  0.29888400  0.80763100  0.33289000  1
  O  O103  1  0.20111600  0.30763100  0.16711000  1
  O  O104  1  0.70018100  0.21184000  0.16595800  1
  O  O105  1  0.79981900  0.71184000  0.33404200  1
  O  O106  1  0.29981900  0.78816000  0.66595800  1
  O  O107  1  0.20018100  0.28816000  0.83404200  1
  O  O108  1  0.29981900  0.78816000  0.83404200  1
  O  O109  1  0.20018100  0.28816000  0.66595800  1
  O  O110  1  0.70018100  0.21184000  0.33404200  1
  O  O111  1  0.79981900  0.71184000  0.16595800  1
  O  O112  1  0.29784100  0.80631300  0.25000000  1
  O  O113  1  0.20215900  0.30631300  0.25000000  1
  O  O114  1  0.70215900  0.19368700  0.75000000  1
  O  O115  1  0.79784100  0.69368700  0.75000000  1
  O  O116  1  0.69938700  0.20924300  0.25000000  1
  O  O117  1  0.80061300  0.70924300  0.25000000  1
  O  O118  1  0.30061300  0.79075700  0.75000000  1
  O  O119  1  0.19938700  0.29075700  0.75000000  1
