# generated using pymatgen
data_Si17O37
_symmetry_space_group_name_H-M   'P 1'
_cell_length_a   14.12898467
_cell_length_b   14.12898467
_cell_length_c   12.41564161
_cell_angle_alpha   73.57255001
_cell_angle_beta   73.57255001
_cell_angle_gamma   59.44912845
_symmetry_Int_Tables_number   1
_chemical_formula_structural   Si17O37
_chemical_formula_sum   'Si34 O74'
_cell_volume   2018.09287693
_cell_formula_units_Z   2
loop_
 _symmetry_equiv_pos_site_id
 _symmetry_equiv_pos_as_xyz
  1  'x, y, z'
loop_
 _atom_site_type_symbol
 _atom_site_label
 _atom_site_symmetry_multiplicity
 _atom_site_fract_x
 _atom_site_fract_y
 _atom_site_fract_z
 _atom_site_occupancy
  Si  Si0  1  0.51503500  0.09693400  0.75458400  1
  Si  Si1  1  0.09693400  0.51503500  0.75458400  1
  Si  Si2  1  0.48496500  0.90306600  0.24541600  1
  Si  Si3  1  0.90306600  0.48496500  0.24541600  1
  Si  Si4  1  0.52125300  0.10360200  0.49738400  1
  Si  Si5  1  0.10360200  0.52125300  0.49738400  1
  Si  Si6  1  0.47874700  0.89639800  0.50261600  1
  Si  Si7  1  0.89639800  0.47874700  0.50261600  1
  Si  Si8  1  0.52670000  0.11656200  0.12991900  1
  Si  Si9  1  0.11656200  0.52670000  0.12991900  1
  Si  Si10  1  0.47330000  0.88343800  0.87008100  1
  Si  Si11  1  0.88343800  0.47330000  0.87008100  1
  Si  Si12  1  0.68261900  0.05633600  0.90242000  1
  Si  Si13  1  0.05633600  0.68261900  0.90242000  1
  Si  Si14  1  0.31738100  0.94366400  0.09758000  1
  Si  Si15  1  0.94366400  0.31738100  0.09758000  1
  Si  Si16  1  0.69022000  0.08073300  0.27477500  1
  Si  Si17  1  0.08073300  0.69022000  0.27477500  1
  Si  Si18  1  0.30978000  0.91926700  0.72522500  1
  Si  Si19  1  0.91926700  0.30978000  0.72522500  1
  Si  Si20  1  0.27221000  0.27221000  0.20255500  1
  Si  Si21  1  0.72779000  0.72779000  0.79744500  1
  Si  Si22  1  0.71694200  0.71694200  0.18416500  1
  Si  Si23  1  0.28305800  0.28305800  0.81583500  1
  Si  Si24  1  0.81597700  0.81597700  0.30199400  1
  Si  Si25  1  0.18402300  0.18402300  0.69800600  1
  Si  Si26  1  0.72217300  0.72217300  0.54274900  1
  Si  Si27  1  0.27782700  0.27782700  0.45725100  1
  Si  Si28  1  0.79853700  0.79853700  0.94516200  1
  Si  Si29  1  0.20146300  0.20146300  0.05483800  1
  Si  Si30  1  0.11023800  0.88214100  0.87167800  1
  Si  Si31  1  0.88214100  0.11023800  0.87167800  1
  Si  Si32  1  0.88976200  0.11785900  0.12832200  1
  Si  Si33  1  0.11785900  0.88976200  0.12832200  1
  O  O34  1  0.41678800  0.22298200  0.77078800  1
  O  O35  1  0.22298200  0.41678800  0.77078800  1
  O  O36  1  0.58321200  0.77701800  0.22921200  1
  O  O37  1  0.77701800  0.58321200  0.22921200  1
  O  O38  1  0.62511200  0.07169200  0.79797200  1
  O  O39  1  0.07169200  0.62511200  0.79797200  1
  O  O40  1  0.37488800  0.92830800  0.20202800  1
  O  O41  1  0.92830800  0.37488800  0.20202800  1
  O  O42  1  0.54929300  0.09126300  0.61956900  1
  O  O43  1  0.09126300  0.54929300  0.61956900  1
  O  O44  1  0.45070700  0.90873700  0.38043100  1
  O  O45  1  0.90873700  0.45070700  0.38043100  1
  O  O46  1  0.47056700  0.00536900  0.82223600  1
  O  O47  1  0.00536900  0.47056700  0.82223600  1
  O  O48  1  0.52943300  0.99463100  0.17776400  1
  O  O49  1  0.99463100  0.52943300  0.17776400  1
  O  O50  1  0.40930600  0.21902800  0.46733500  1
  O  O51  1  0.21902800  0.40930600  0.46733500  1
  O  O52  1  0.59069400  0.78097200  0.53266500  1
  O  O53  1  0.78097200  0.59069400  0.53266500  1
  O  O54  1  0.50000000  0.00000000  0.50000000  1
  O  O55  1  0.00000000  0.50000000  0.50000000  1
  O  O56  1  0.63138500  0.10006500  0.40580300  1
  O  O57  1  0.10006500  0.63138500  0.40580300  1
  O  O58  1  0.36861500  0.89993500  0.59419700  1
  O  O59  1  0.89993500  0.36861500  0.59419700  1
  O  O60  1  0.58591100  0.12734400  0.99758100  1
  O  O61  1  0.12734400  0.58591100  0.99758100  1
  O  O62  1  0.41408900  0.87265600  0.00241900  1
  O  O63  1  0.87265600  0.41408900  0.00241900  1
  O  O64  1  0.39995000  0.21511400  0.13951500  1
  O  O65  1  0.21511400  0.39995000  0.13951500  1
  O  O66  1  0.60005000  0.78488600  0.86048500  1
  O  O67  1  0.78488600  0.60005000  0.86048500  1
  O  O68  1  0.58930900  0.14003500  0.20270500  1
  O  O69  1  0.14003500  0.58930900  0.20270500  1
  O  O70  1  0.41069100  0.85996500  0.79729500  1
  O  O71  1  0.85996500  0.41069100  0.79729500  1
  O  O72  1  0.73913300  0.92659700  0.96251700  1
  O  O73  1  0.92659700  0.73913300  0.96251700  1
  O  O74  1  0.26086700  0.07340300  0.03748300  1
  O  O75  1  0.07340300  0.26086700  0.03748300  1
  O  O76  1  0.76155900  0.94929900  0.26655000  1
  O  O77  1  0.94929900  0.76155900  0.26655000  1
  O  O78  1  0.23844100  0.05070100  0.73345000  1
  O  O79  1  0.05070100  0.23844100  0.73345000  1
  O  O80  1  0.20982200  0.20982200  0.18057500  1
  O  O81  1  0.79017800  0.79017800  0.81942500  1
  O  O82  1  0.26333700  0.26333700  0.33830200  1
  O  O83  1  0.73666300  0.73666300  0.66169800  1
  O  O84  1  0.73646400  0.73646400  0.04569100  1
  O  O85  1  0.26353600  0.26353600  0.95430900  1
  O  O86  1  0.77205300  0.77205300  0.22939600  1
  O  O87  1  0.22794700  0.22794700  0.77060400  1
  O  O88  1  0.78350000  0.78350000  0.43920300  1
  O  O89  1  0.21650000  0.21650000  0.56079700  1
  O  O90  1  0.22314500  0.86802000  0.77898000  1
  O  O91  1  0.86802000  0.22314500  0.77898000  1
  O  O92  1  0.77685500  0.13198000  0.22102000  1
  O  O93  1  0.13198000  0.77685500  0.22102000  1
  O  O94  1  0.09216400  0.78115600  0.85941800  1
  O  O95  1  0.78115600  0.09216400  0.85941800  1
  O  O96  1  0.90783600  0.21884400  0.14058200  1
  O  O97  1  0.21884400  0.90783600  0.14058200  1
  O  O98  1  0.87041300  0.12958700  0.00000000  1
  O  O99  1  0.12958700  0.87041300  0.00000000  1
  O  O100  1  0.00340200  0.00340200  0.84052300  1
  O  O101  1  0.99659800  0.99659800  0.15947700  1
  O  O102  1  0.22078700  0.72391700  0.40864800  1
  O  O103  1  0.72391700  0.22078700  0.40864800  1
  O  O104  1  0.77921300  0.27608300  0.59135200  1
  O  O105  1  0.27608300  0.77921300  0.59135200  1
  O  O106  1  0.42918700  0.42918700  0.41593200  1
  O  O107  1  0.57081300  0.57081300  0.58406800  1
