# generated using pymatgen
data_HgTe5H36C12N3(OF5)5
_symmetry_space_group_name_H-M   'P 1'
_cell_length_a   11.31584579
_cell_length_b   11.31584579
_cell_length_c   16.96926069
_cell_angle_alpha   89.66187665
_cell_angle_beta   89.66187665
_cell_angle_gamma   83.47775156
_symmetry_Int_Tables_number   1
_chemical_formula_structural   HgTe5H36C12N3(OF5)5
_chemical_formula_sum   'Hg2 Te10 H72 C24 N6 O10 F50'
_cell_volume   2158.75528369
_cell_formula_units_Z   2
loop_
 _symmetry_equiv_pos_site_id
 _symmetry_equiv_pos_as_xyz
  1  'x, y, z'
loop_
 _atom_site_type_symbol
 _atom_site_label
 _atom_site_symmetry_multiplicity
 _atom_site_fract_x
 _atom_site_fract_y
 _atom_site_fract_z
 _atom_site_occupancy
  Hg  Hg0  1  0.90959100  0.32771700  0.65631800  1
  Hg  Hg1  1  0.32771700  0.90959100  0.15631800  1
  Te  Te2  1  0.84852500  0.46639100  0.45202400  1
  Te  Te3  1  0.46639100  0.84852500  0.95202400  1
  Te  Te4  1  0.15360600  0.09440800  0.64836200  1
  Te  Te5  1  0.09440800  0.15360600  0.14836200  1
  Te  Te6  1  0.10839100  0.56849200  0.68080100  1
  Te  Te7  1  0.56849200  0.10839100  0.18080100  1
  Te  Te8  1  0.66351600  0.13726800  0.61511600  1
  Te  Te9  1  0.13726800  0.66351600  0.11511600  1
  Te  Te10  1  0.78776100  0.38016700  0.86255900  1
  Te  Te11  1  0.38016700  0.78776100  0.36255900  1
  H  H12  1  0.78369900  0.81002500  0.40143000  1
  H  H13  1  0.81002500  0.78369900  0.90143000  1
  H  H14  1  0.74158800  0.93491900  0.33782700  1
  H  H15  1  0.93491900  0.74158800  0.83782700  1
  H  H16  1  0.75009700  0.95609700  0.44219300  1
  H  H17  1  0.95609700  0.75009700  0.94219300  1
  H  H18  1  0.49191800  0.29108700  0.45420100  1
  H  H19  1  0.29108700  0.49191800  0.95420100  1
  H  H20  1  0.47382200  0.42309000  0.39413900  1
  H  H21  1  0.42309000  0.47382200  0.89413900  1
  H  H22  1  0.48464700  0.27854100  0.34933900  1
  H  H23  1  0.27854100  0.48464700  0.84933900  1
  H  H24  1  0.31469100  0.36366800  0.52898600  1
  H  H25  1  0.36366800  0.31469100  0.02898600  1
  H  H26  1  0.17714000  0.40583000  0.47935800  1
  H  H27  1  0.40583000  0.17714000  0.97935800  1
  H  H28  1  0.29669400  0.49601800  0.46846700  1
  H  H29  1  0.49601800  0.29669400  0.96846700  1
  H  H30  1  0.49248100  0.85422900  0.69402900  1
  H  H31  1  0.85422900  0.49248100  0.19402900  1
  H  H32  1  0.37761500  0.77910500  0.65080500  1
  H  H33  1  0.77910500  0.37761500  0.15080500  1
  H  H34  1  0.48684800  0.83655100  0.58894200  1
  H  H35  1  0.83655100  0.48684800  0.08894200  1
  H  H36  1  0.29665700  0.33528500  0.28107200  1
  H  H37  1  0.33528500  0.29665700  0.78107200  1
  H  H38  1  0.28528600  0.47953400  0.32639000  1
  H  H39  1  0.47953400  0.28528600  0.82639000  1
  H  H40  1  0.16639000  0.38851600  0.33685700  1
  H  H41  1  0.38851600  0.16639000  0.83685700  1
  H  H42  1  0.96593400  0.76244800  0.32369500  1
  H  H43  1  0.76244800  0.96593400  0.82369500  1
  H  H44  1  0.06374700  0.87412500  0.30703600  1
  H  H45  1  0.87412500  0.06374700  0.80703600  1
  H  H46  1  0.92135800  0.88855200  0.26080900  1
  H  H47  1  0.88855200  0.92135800  0.76080900  1
  H  H48  1  0.97734400  0.78908900  0.46528000  1
  H  H49  1  0.78908900  0.97734400  0.96528000  1
  H  H50  1  0.94333400  0.93466400  0.50712900  1
  H  H51  1  0.93466400  0.94333400  0.00712900  1
  H  H52  1  0.07667200  0.90010900  0.45011200  1
  H  H53  1  0.90010900  0.07667200  0.95011200  1
  H  H54  1  0.53639100  0.64026500  0.53128900  1
  H  H55  1  0.64026500  0.53639100  0.03128900  1
  H  H56  1  0.42671900  0.58312400  0.59334100  1
  H  H57  1  0.58312400  0.42671900  0.09334100  1
  H  H58  1  0.57815300  0.51393700  0.59352500  1
  H  H59  1  0.51393700  0.57815300  0.09352500  1
  H  H60  1  0.33013000  0.16893900  0.46800200  1
  H  H61  1  0.16893900  0.33013000  0.96800200  1
  H  H62  1  0.32218800  0.15660000  0.36273600  1
  H  H63  1  0.15660000  0.32218800  0.86273600  1
  H  H64  1  0.19192100  0.21077800  0.41858900  1
  H  H65  1  0.21077800  0.19192100  0.91858900  1
  H  H66  1  0.69624700  0.76035700  0.69490100  1
  H  H67  1  0.76035700  0.69624700  0.19490100  1
  H  H68  1  0.69266300  0.74155200  0.59034200  1
  H  H69  1  0.74155200  0.69266300  0.09034200  1
  H  H70  1  0.73256900  0.61510000  0.65314800  1
  H  H71  1  0.61510000  0.73256900  0.15314800  1
  H  H72  1  0.01968200  0.06923000  0.36437700  1
  H  H73  1  0.06923000  0.01968200  0.86437700  1
  H  H74  1  0.88646200  0.10534500  0.42173600  1
  H  H75  1  0.10534500  0.88646200  0.92173600  1
  H  H76  1  0.87751100  0.08533800  0.31711300  1
  H  H77  1  0.08533800  0.87751100  0.81711300  1
  H  H78  1  0.54720500  0.68220000  0.77805800  1
  H  H79  1  0.68220000  0.54720500  0.27805800  1
  H  H80  1  0.58458800  0.53832300  0.73511700  1
  H  H81  1  0.53832300  0.58458800  0.23511700  1
  H  H82  1  0.43288900  0.60707100  0.73420600  1
  H  H83  1  0.60707100  0.43288900  0.23420600  1
  C  C84  1  0.78876400  0.90515100  0.39185000  1
  C  C85  1  0.90515100  0.78876400  0.89185000  1
  C  C86  1  0.45231800  0.33153000  0.40036100  1
  C  C87  1  0.33153000  0.45231800  0.90036100  1
  C  C88  1  0.27384000  0.40509400  0.47578600  1
  C  C89  1  0.40509400  0.27384000  0.97578600  1
  C  C90  1  0.47078100  0.79598300  0.64618500  1
  C  C91  1  0.79598300  0.47078100  0.14618500  1
  C  C92  1  0.26298700  0.38815300  0.33195000  1
  C  C93  1  0.38815300  0.26298700  0.83195000  1
  C  C94  1  0.97083900  0.85751700  0.31364400  1
  C  C95  1  0.85751700  0.97083900  0.81364400  1
  C  C96  1  0.98345900  0.88429700  0.45693000  1
  C  C97  1  0.88429700  0.98345900  0.95693000  1
  C  C98  1  0.52032000  0.59797100  0.58791300  1
  C  C99  1  0.59797100  0.52032000  0.08791300  1
  C  C100  1  0.28878900  0.20797500  0.41424400  1
  C  C101  1  0.20797500  0.28878900  0.91424400  1
  C  C102  1  0.67715500  0.70042600  0.64743500  1
  C  C103  1  0.70042600  0.67715500  0.14743500  1
  C  C104  1  0.92568200  0.05616400  0.37081400  1
  C  C105  1  0.05616400  0.92568200  0.87081400  1
  C  C106  1  0.52659500  0.62230500  0.73095700  1
  C  C107  1  0.62230500  0.52659600  0.23095700  1
  N  N108  1  0.54858200  0.67953400  0.65297400  1
  N  N109  1  0.67953400  0.54858200  0.15297400  1
  N  N110  1  0.31948300  0.33326100  0.40552000  1
  N  N111  1  0.33326100  0.31948300  0.90552000  1
  N  N112  1  0.91712900  0.92568500  0.38340800  1
  N  N113  1  0.92568500  0.91712900  0.88340800  1
  O  O114  1  0.80454000  0.42812600  0.55191900  1
  O  O115  1  0.42812600  0.80454000  0.05191900  1
  O  O116  1  0.80010400  0.17293900  0.66222000  1
  O  O117  1  0.17293900  0.80010400  0.16222000  1
  O  O118  1  0.80330700  0.43071800  0.76113300  1
  O  O119  1  0.43071800  0.80330700  0.26113300  1
  O  O120  1  0.05120000  0.44772500  0.62751700  1
  O  O121  1  0.44772500  0.05120000  0.12751700  1
  O  O122  1  0.05659700  0.19244000  0.71296900  1
  O  O123  1  0.19244000  0.05659700  0.21296900  1
  F  F124  1  0.59481000  0.08693700  0.71025400  1
  F  F125  1  0.08693700  0.59481000  0.21025400  1
  F  F126  1  0.97795800  0.34376300  0.44096500  1
  F  F127  1  0.34376300  0.97795800  0.94096500  1
  F  F128  1  0.93332700  0.27753800  0.86779600  1
  F  F129  1  0.27753800  0.93332700  0.36779600  1
  F  F130  1  0.57569000  0.29075100  0.62458900  1
  F  F131  1  0.29075100  0.57569000  0.12458900  1
  F  F132  1  0.16018000  0.64252200  0.58815800  1
  F  F133  1  0.64252200  0.16018000  0.08815800  1
  F  F134  1  0.96445000  0.67389800  0.68235300  1
  F  F135  1  0.67389800  0.96445000  0.18235300  1
  F  F136  1  0.70879500  0.17319600  0.50997600  1
  F  F137  1  0.17319600  0.70879500  0.00997600  1
  F  F138  1  0.74555400  0.37017400  0.40045300  1
  F  F139  1  0.37017400  0.74555400  0.90045300  1
  F  F140  1  0.24851900  0.02526600  0.73249900  1
  F  F141  1  0.02526600  0.24851900  0.23249900  1
  F  F142  1  0.86053000  0.50604900  0.90924400  1
  F  F143  1  0.50604900  0.86053000  0.40924400  1
  F  F144  1  0.88937200  0.50831400  0.34709900  1
  F  F145  1  0.50831400  0.88937200  0.84709900  1
  F  F146  1  0.17286100  0.69322100  0.73479400  1
  F  F147  1  0.69322100  0.17286100  0.23479400  1
  F  F148  1  0.07433300  0.51467200  0.78434200  1
  F  F149  1  0.51467200  0.07433300  0.28434200  1
  F  F150  1  0.26705900  0.20403000  0.63094700  1
  F  F151  1  0.20403000  0.26705900  0.13094700  1
  F  F152  1  0.25370800  0.99336600  0.58144600  1
  F  F153  1  0.99336600  0.25370800  0.08144600  1
  F  F154  1  0.76697600  0.33129900  0.96855000  1
  F  F155  1  0.33129900  0.76697600  0.46855000  1
  F  F156  1  0.26620400  0.48821000  0.69074800  1
  F  F157  1  0.48821000  0.26620400  0.19074800  1
  F  F158  1  0.07479900  0.14641500  0.55259800  1
  F  F159  1  0.14641500  0.07479900  0.05259800  1
  F  F160  1  0.70595500  0.24649200  0.83863500  1
  F  F161  1  0.24649200  0.70595500  0.33863500  1
  F  F162  1  0.95648300  0.57676800  0.47954500  1
  F  F163  1  0.57676800  0.95648300  0.97954500  1
  F  F164  1  0.72601700  0.97538900  0.59671100  1
  F  F165  1  0.97538900  0.72601700  0.09671100  1
  F  F166  1  0.63575200  0.47052000  0.87771100  1
  F  F167  1  0.47052000  0.63575200  0.37771100  1
  F  F168  1  0.72794300  0.59835100  0.44266000  1
  F  F169  1  0.59835100  0.72794300  0.94266000  1
  F  F170  1  0.06069200  0.96428100  0.65381100  1
  F  F171  1  0.96428100  0.06069200  0.15381100  1
  F  F172  1  0.52409200  0.09456200  0.56676900  1
  F  F173  1  0.09456200  0.52409200  0.06676900  1
