# generated using pymatgen
data_Fe2H14C8NO12
_symmetry_space_group_name_H-M   'P 1'
_cell_length_a   14.52867026
_cell_length_b   14.53032069
_cell_length_c   16.36113857
_cell_angle_alpha   63.63743760
_cell_angle_beta   63.63162227
_cell_angle_gamma   59.99623857
_symmetry_Int_Tables_number   1
_chemical_formula_structural   Fe2H14C8NO12
_chemical_formula_sum   'Fe12 H84 C48 N6 O72'
_cell_volume   2567.89331687
_cell_formula_units_Z   6
loop_
 _symmetry_equiv_pos_site_id
 _symmetry_equiv_pos_as_xyz
  1  'x, y, z'
loop_
 _atom_site_type_symbol
 _atom_site_label
 _atom_site_symmetry_multiplicity
 _atom_site_fract_x
 _atom_site_fract_y
 _atom_site_fract_z
 _atom_site_occupancy
  Fe  Fe0  1  0.49999434  0.50003652  0.49994205  1
  Fe  Fe1  1  0.99999434  0.00002709  0.99994205  1
  Fe  Fe2  1  0.33605941  0.33604421  0.99182412  1
  Fe  Fe3  1  0.83605941  0.83607226  0.49182412  1
  Fe  Fe4  1  0.66392263  0.66393641  0.00820565  1
  Fe  Fe5  1  0.16392263  0.16393532  0.50820565  1
  Fe  Fe6  1  0.24998220  0.92362548  0.24997042  1
  Fe  Fe7  1  0.92352497  0.57642907  0.25004376  1
  Fe  Fe8  1  0.57645976  0.24996078  0.24995141  1
  Fe  Fe9  1  0.74998220  0.07642090  0.74997042  1
  Fe  Fe10  1  0.07645976  0.42362706  0.74995141  1
  Fe  Fe11  1  0.42352497  0.75000119  0.75004376  1
  H  H12  1  0.63480346  0.87507874  0.34266792  1
  H  H13  1  0.87507780  0.14745699  0.34267348  1
  H  H14  1  0.14744789  0.63479468  0.34267565  1
  H  H15  1  0.13480346  0.64744989  0.84266792  1
  H  H16  1  0.64744789  0.37508178  0.84267565  1
  H  H17  1  0.37507780  0.13479174  0.84267348  1
  H  H18  1  0.36519496  0.12491974  0.65733680  1
  H  H19  1  0.12492107  0.85254238  0.65733151  1
  H  H20  1  0.85255284  0.36520281  0.65732936  1
  H  H21  1  0.86519496  0.35254850  0.15733680  1
  H  H22  1  0.35255284  0.62491498  0.15732936  1
  H  H23  1  0.62492107  0.86520504  0.15733151  1
  H  H24  1  0.34962572  0.09668530  0.08569611  1
  H  H25  1  0.09668235  0.46798884  0.08568930  1
  H  H26  1  0.46800639  0.34959893  0.08570833  1
  H  H27  1  0.84962572  0.96799287  0.58569611  1
  H  H28  1  0.96800639  0.59668635  0.58570833  1
  H  H29  1  0.59668235  0.84963951  0.58568930  1
  H  H30  1  0.65034516  0.90330356  0.91432718  1
  H  H31  1  0.90331352  0.53201714  0.91432313  1
  H  H32  1  0.53200074  0.65038791  0.91429976  1
  H  H33  1  0.15034516  0.03202410  0.41432718  1
  H  H34  1  0.03200074  0.40331158  0.41429976  1
  H  H35  1  0.40331352  0.15034622  0.41432313  1
  H  H36  1  0.07505355  0.81897099  0.38142855  1
  H  H37  1  0.81895086  0.72457162  0.38144290  1
  H  H38  1  0.72454607  0.07504946  0.38142500  1
  H  H39  1  0.57505355  0.22454692  0.88142855  1
  H  H40  1  0.22454607  0.31897947  0.88142500  1
  H  H41  1  0.31895086  0.57503462  0.88144290  1
  H  H42  1  0.92497298  0.18103577  0.61855799  1
  H  H43  1  0.18105485  0.27541773  0.61855248  1
  H  H44  1  0.27544594  0.92495923  0.61857241  1
  H  H45  1  0.42497298  0.77543326  0.11855799  1
  H  H46  1  0.77544594  0.68102243  0.11857241  1
  H  H47  1  0.68105485  0.42497494  0.11855248  1
  H  H48  1  0.40133619  0.74307132  0.38876521  1
  H  H49  1  0.74310121  0.46682216  0.38874828  1
  H  H50  1  0.46682546  0.40134049  0.38876443  1
  H  H51  1  0.90133619  0.96682728  0.88876521  1
  H  H52  1  0.96682546  0.24306962  0.88876443  1
  H  H53  1  0.24310121  0.90132835  0.88874828  1
  H  H54  1  0.59867221  0.25690925  0.61124770  1
  H  H55  1  0.25688967  0.53317352  0.61125752  1
  H  H56  1  0.53317978  0.59866267  0.61123877  1
  H  H57  1  0.09867221  0.03317084  0.11124770  1
  H  H58  1  0.03317978  0.75691878  0.11123877  1
  H  H59  1  0.75688967  0.09867929  0.11125752  1
  H  H60  1  0.52383141  0.04428947  0.24723897  1
  H  H61  1  0.04429696  0.18463667  0.24723902  1
  H  H62  1  0.18462810  0.52382808  0.24726335  1
  H  H63  1  0.02383141  0.68464015  0.74723897  1
  H  H64  1  0.68462810  0.54428047  0.74726335  1
  H  H65  1  0.54429696  0.02382735  0.74723902  1
  H  H66  1  0.47616814  0.95571317  0.75275910  1
  H  H67  1  0.95571385  0.81536330  0.75274921  1
  H  H68  1  0.81537215  0.47617008  0.75273503  1
  H  H69  1  0.97616814  0.31535959  0.25275910  1
  H  H70  1  0.31537215  0.45572274  0.25273503  1
  H  H71  1  0.45571385  0.97617364  0.25274921  1
  H  H72  1  0.56684698  0.80199786  0.34046041  1
  H  H73  1  0.80197790  0.29069948  0.34046836  1
  H  H74  1  0.29070480  0.56684670  0.34045885  1
  H  H75  1  0.06684698  0.79069475  0.84046041  1
  H  H76  1  0.79070480  0.30198965  0.84045885  1
  H  H77  1  0.30197790  0.06685426  0.84046836  1
  H  H78  1  0.43315486  0.19799380  0.65954620  1
  H  H79  1  0.19801489  0.70929948  0.65953840  1
  H  H80  1  0.70929584  0.43315624  0.65954815  1
  H  H81  1  0.93315486  0.20930515  0.15954620  1
  H  H82  1  0.20929584  0.69799977  0.15954815  1
  H  H83  1  0.69801489  0.93314722  0.15953840  1
  H  H84  1  0.49027446  0.90678109  0.40085379  1
  H  H85  1  0.90678189  0.20209068  0.40084679  1
  H  H86  1  0.20208440  0.49028138  0.40085125  1
  H  H87  1  0.99027446  0.70209066  0.90085379  1
  H  H88  1  0.70208440  0.40678297  0.90085125  1
  H  H89  1  0.40678189  0.99028064  0.90084679  1
  H  H90  1  0.50972860  0.09321125  0.59915643  1
  H  H91  1  0.09321215  0.79790455  0.59916257  1
  H  H92  1  0.79791199  0.50971928  0.59915839  1
  H  H93  1  0.00972860  0.29790372  0.09915643  1
  H  H94  1  0.29791199  0.59321033  0.09915839  1
  H  H95  1  0.59321215  0.00972074  0.09916257  1
  C  C96  1  0.26105440  0.14766583  0.11133487  1
  C  C97  1  0.14762261  0.47995424  0.11133994  1
  C  C98  1  0.47993799  0.26105555  0.11132128  1
  C  C99  1  0.76105440  0.97994491  0.61133487  1
  C  C100  1  0.97993799  0.64768518  0.61132128  1
  C  C101  1  0.64762261  0.76108321  0.61133994  1
  C  C102  1  0.73890584  0.85235305  0.88867662  1
  C  C103  1  0.85238624  0.52005261  0.88866347  1
  C  C104  1  0.52005743  0.73893321  0.88867505  1
  C  C105  1  0.23890584  0.02006448  0.38867662  1
  C  C106  1  0.02005743  0.35233431  0.38867505  1
  C  C107  1  0.35238624  0.23889768  0.38866347  1
  C  C108  1  0.02636316  0.90803415  0.37647167  1
  C  C109  1  0.90802113  0.68915787  0.37647304  1
  C  C110  1  0.68912307  0.02636147  0.37647205  1
  C  C111  1  0.52636316  0.18913102  0.87647167  1
  C  C112  1  0.18912307  0.40804341  0.87647205  1
  C  C113  1  0.40802113  0.52634796  0.87647304  1
  C  C114  1  0.97365537  0.09197122  0.62353612  1
  C  C115  1  0.09198659  0.31083002  0.62352934  1
  C  C116  1  0.31086630  0.97364273  0.62353399  1
  C  C117  1  0.47365537  0.81083729  0.12353612  1
  C  C118  1  0.81086630  0.59195698  0.12353399  1
  C  C119  1  0.59198659  0.47365405  0.12352934  1
  C  C120  1  0.36158386  0.70019268  0.38144914  1
  C  C121  1  0.70024810  0.55677266  0.38142504  1
  C  C122  1  0.55677487  0.36160360  0.38145919  1
  C  C123  1  0.86158386  0.05677432  0.88144914  1
  C  C124  1  0.05677487  0.20016233  0.88145919  1
  C  C125  1  0.20024810  0.86155419  0.88142504  1
  C  C126  1  0.63843630  0.29977690  0.61855484  1
  C  C127  1  0.29973576  0.44322100  0.61858574  1
  C  C128  1  0.44322797  0.63840647  0.61854986  1
  C  C129  1  0.13843630  0.94323196  0.11855484  1
  C  C130  1  0.94322797  0.79981570  0.11854986  1
  C  C131  1  0.79973576  0.13845751  0.11858574  1
  C  C132  1  0.55814442  0.88171775  0.33947320  1
  C  C133  1  0.88170668  0.22066481  0.33947819  1
  C  C134  1  0.22066905  0.55814184  0.33947537  1
  C  C135  1  0.05814442  0.72066463  0.83947320  1
  C  C136  1  0.72066905  0.38171374  0.83947537  1
  C  C137  1  0.38170668  0.05815031  0.83947819  1
  C  C138  1  0.44185427  0.11827459  0.66053516  1
  C  C139  1  0.11828880  0.77933620  0.66052783  1
  C  C140  1  0.77933294  0.44185528  0.66053264  1
  C  C141  1  0.94185427  0.27933598  0.16053516  1
  C  C142  1  0.27933294  0.61827914  0.16053264  1
  C  C143  1  0.61828880  0.94184718  0.16052783  1
  N  N144  1  0.53239474  0.96760285  0.25000590  1
  N  N145  1  0.96760196  0.25000190  0.25000253  1
  N  N146  1  0.24999961  0.53239501  0.25000426  1
  N  N147  1  0.03239474  0.74999551  0.75000590  1
  N  N148  1  0.74999961  0.46760012  0.75000426  1
  N  N149  1  0.46760196  0.03239261  0.75000253  1
  O  O150  1  0.19563810  0.09895679  0.17203533  1
  O  O151  1  0.09880445  0.53337639  0.17206369  1
  O  O152  1  0.53336438  0.19560572  0.17203167  1
  O  O153  1  0.69563810  0.03336979  0.67203533  1
  O  O154  1  0.03336438  0.59899823  0.67203167  1
  O  O155  1  0.59880445  0.69575547  0.67206369  1
  O  O156  1  0.80422604  0.90120597  0.82794543  1
  O  O157  1  0.90125750  0.46663152  0.82792827  1
  O  O158  1  0.46662358  0.80433745  0.82797090  1
  O  O159  1  0.30422604  0.96662256  0.32794543  1
  O  O160  1  0.96662358  0.40106807  0.32797090  1
  O  O161  1  0.40125750  0.30418270  0.32792827  1
  O  O162  1  0.28895984  0.75649912  0.33747522  1
  O  O163  1  0.75659083  0.61704664  0.33744333  1
  O  O164  1  0.61709757  0.28894989  0.33748907  1
  O  O165  1  0.78895984  0.11706582  0.83747522  1
  O  O166  1  0.11709757  0.25646347  0.83748907  1
  O  O167  1  0.25659083  0.78891921  0.83744333  1
  O  O168  1  0.71109748  0.24338883  0.66256333  1
  O  O169  1  0.24336257  0.38295692  0.66257941  1
  O  O170  1  0.38292185  0.71106003  0.66252776  1
  O  O171  1  0.21109748  0.88295035  0.16256333  1
  O  O172  1  0.88292185  0.74349036  0.16252776  1
  O  O173  1  0.74336257  0.21110109  0.16257941  1
  O  O174  1  0.07662729  0.97367003  0.33560625  1
  O  O175  1  0.97363270  0.61412880  0.33559713  1
  O  O176  1  0.61408706  0.07662434  0.33560362  1
  O  O177  1  0.57662729  0.11409643  0.83560625  1
  O  O178  1  0.11408706  0.47368498  0.83560362  1
  O  O179  1  0.47363270  0.57664138  0.83559713  1
  O  O180  1  0.92334887  0.02638656  0.66440669  1
  O  O181  1  0.02639337  0.38585424  0.66440954  1
  O  O182  1  0.38588886  0.92336928  0.66440588  1
  O  O183  1  0.42334887  0.88585787  0.16440669  1
  O  O184  1  0.88588886  0.52633597  0.16440588  1
  O  O185  1  0.52639337  0.42334285  0.16440954  1
  O  O186  1  0.39255947  0.59498452  0.41846832  1
  O  O187  1  0.59504673  0.59401973  0.41843241  1
  O  O188  1  0.59397945  0.39257908  0.41847789  1
  O  O189  1  0.89255947  0.09398769  0.91846832  1
  O  O190  1  0.09397945  0.09496357  0.91847789  1
  O  O191  1  0.09504673  0.89250114  0.91843241  1
  O  O192  1  0.60749282  0.40493815  0.58158143  1
  O  O193  1  0.40492673  0.40596857  0.58159713  1
  O  O194  1  0.40601246  0.60743312  0.58154925  1
  O  O195  1  0.10749282  0.90598761  0.08158143  1
  O  O196  1  0.90601246  0.90500516  0.08154925  1
  O  O197  1  0.90492673  0.10750757  0.08159713  1
  O  O198  1  0.92078001  0.93873313  0.41290770  1
  O  O199  1  0.93872739  0.72757337  0.41291726  1
  O  O200  1  0.72756476  0.92079821  0.41290947  1
  O  O201  1  0.42078001  0.22757916  0.91290770  1
  O  O202  1  0.22756476  0.43872756  0.91290947  1
  O  O203  1  0.43872739  0.42078199  0.91291726  1
  O  O204  1  0.07924526  0.06126346  0.58707190  1
  O  O205  1  0.06127215  0.27242965  0.58707511  1
  O  O206  1  0.27243669  0.07921281  0.58707669  1
  O  O207  1  0.57924526  0.77241938  0.08707190  1
  O  O208  1  0.77243669  0.56127382  0.08707669  1
  O  O209  1  0.56127215  0.57922310  0.08707511  1
  O  O210  1  0.23008430  0.25292969  0.07798746  1
  O  O211  1  0.25289725  0.43903784  0.07801155  1
  O  O212  1  0.43897386  0.23011821  0.07797342  1
  O  O213  1  0.73008430  0.93899855  0.57798746  1
  O  O214  1  0.93897386  0.75293452  0.57797342  1
  O  O215  1  0.75289725  0.73005337  0.57801155  1
  O  O216  1  0.76995299  0.74710381  0.92197678  1
  O  O217  1  0.74711286  0.56095246  0.92197473  1
  O  O218  1  0.56102172  0.76989379  0.92200916  1
  O  O219  1  0.26995299  0.06096641  0.42197678  1
  O  O220  1  0.06102172  0.24707533  0.42200916  1
  O  O221  1  0.24711286  0.26995995  0.42197473  1
