# generated using pymatgen
data_Na2ScSiO5
_symmetry_space_group_name_H-M   'P 1'
_cell_length_a   5.37269400
_cell_length_b   12.20353900
_cell_length_c   13.72470200
_cell_angle_alpha   90.00000000
_cell_angle_beta   90.00000000
_cell_angle_gamma   90.00000000
_symmetry_Int_Tables_number   1
_chemical_formula_structural   Na2ScSiO5
_chemical_formula_sum   'Na16 Sc8 Si8 O40'
_cell_volume   899.87217485
_cell_formula_units_Z   8
loop_
 _symmetry_equiv_pos_site_id
 _symmetry_equiv_pos_as_xyz
  1  'x, y, z'
loop_
 _atom_site_type_symbol
 _atom_site_label
 _atom_site_symmetry_multiplicity
 _atom_site_fract_x
 _atom_site_fract_y
 _atom_site_fract_z
 _atom_site_occupancy
  Na  Na0  1  0.97134200  0.07030300  0.51342800  1
  Na  Na1  1  0.02865800  0.57030300  0.48657200  1
  Na  Na2  1  0.97134200  0.57030300  0.98657200  1
  Na  Na3  1  0.02865800  0.07030300  0.01342800  1
  Na  Na4  1  0.52140500  0.24962300  0.73542400  1
  Na  Na5  1  0.47859500  0.74962300  0.26457600  1
  Na  Na6  1  0.52140500  0.74962300  0.76457600  1
  Na  Na7  1  0.47859500  0.24962300  0.23542400  1
  Na  Na8  1  0.98169700  0.34286400  0.85372100  1
  Na  Na9  1  0.01830300  0.84286400  0.14627900  1
  Na  Na10  1  0.98169700  0.84286400  0.64627900  1
  Na  Na11  1  0.01830300  0.34286400  0.35372100  1
  Na  Na12  1  0.53018900  0.47912900  0.60230500  1
  Na  Na13  1  0.46981100  0.97912900  0.39769500  1
  Na  Na14  1  0.53018900  0.97912900  0.89769500  1
  Na  Na15  1  0.46981100  0.47912900  0.10230500  1
  Sc  Sc16  1  0.98508200  0.09090300  0.77808800  1
  Sc  Sc17  1  0.01491800  0.59090300  0.22191200  1
  Sc  Sc18  1  0.98508200  0.59090300  0.72191200  1
  Sc  Sc19  1  0.01491800  0.09090300  0.27808800  1
  Sc  Sc20  1  0.48975300  0.23145300  0.97075000  1
  Sc  Sc21  1  0.51024700  0.73145300  0.02925000  1
  Sc  Sc22  1  0.48975300  0.73145300  0.52925000  1
  Sc  Sc23  1  0.51024700  0.23145300  0.47075000  1
  Si  Si24  1  0.46202000  0.00294900  0.63935800  1
  Si  Si25  1  0.53798000  0.50294900  0.36064200  1
  Si  Si26  1  0.46202000  0.50294900  0.86064200  1
  Si  Si27  1  0.53798000  0.00294900  0.13935800  1
  Si  Si28  1  0.96287600  0.31937600  0.11008100  1
  Si  Si29  1  0.03712400  0.81937600  0.88991900  1
  Si  Si30  1  0.96287600  0.81937600  0.38991900  1
  Si  Si31  1  0.03712400  0.31937600  0.61008100  1
  O  O32  1  0.53904100  0.07658200  0.54412300  1
  O  O33  1  0.46095900  0.57658200  0.45587700  1
  O  O34  1  0.53904100  0.57658200  0.95587700  1
  O  O35  1  0.46095900  0.07658200  0.04412300  1
  O  O36  1  0.62180200  0.04514300  0.73582100  1
  O  O37  1  0.37819800  0.54514300  0.26417900  1
  O  O38  1  0.62180200  0.54514300  0.76417900  1
  O  O39  1  0.37819800  0.04514300  0.23582100  1
  O  O40  1  0.52904500  0.87293600  0.62265000  1
  O  O41  1  0.47095500  0.37293600  0.37735000  1
  O  O42  1  0.52904500  0.37293600  0.87735000  1
  O  O43  1  0.47095500  0.87293600  0.12265000  1
  O  O44  1  0.16184300  0.01628600  0.66166900  1
  O  O45  1  0.83815700  0.51628600  0.33833100  1
  O  O46  1  0.16184300  0.51628600  0.83833100  1
  O  O47  1  0.83815700  0.01628600  0.16166900  1
  O  O48  1  0.12807000  0.28256500  0.01267900  1
  O  O49  1  0.87193000  0.78256500  0.98732100  1
  O  O50  1  0.12807000  0.78256500  0.48732100  1
  O  O51  1  0.87193000  0.28256500  0.51267900  1
  O  O52  1  0.02015500  0.44977000  0.12787100  1
  O  O53  1  0.97984500  0.94977000  0.87212900  1
  O  O54  1  0.02015500  0.94977000  0.37212900  1
  O  O55  1  0.97984500  0.44977000  0.62787100  1
  O  O56  1  0.04281700  0.24487900  0.20433400  1
  O  O57  1  0.95718300  0.74487900  0.79566600  1
  O  O58  1  0.04281700  0.74487900  0.29566600  1
  O  O59  1  0.95718300  0.24487900  0.70433400  1
  O  O60  1  0.66317700  0.30462200  0.08828500  1
  O  O61  1  0.33682300  0.80462200  0.91171500  1
  O  O62  1  0.66317700  0.80462200  0.41171500  1
  O  O63  1  0.33682300  0.30462200  0.58828500  1
  O  O64  1  0.29731500  0.15052400  0.85444900  1
  O  O65  1  0.70268500  0.65052400  0.14555100  1
  O  O66  1  0.29731500  0.65052400  0.64555100  1
  O  O67  1  0.70268500  0.15052400  0.35444900  1
  O  O68  1  0.80186200  0.16935100  0.89691900  1
  O  O69  1  0.19813800  0.66935100  0.10308100  1
  O  O70  1  0.80186200  0.66935100  0.60308100  1
  O  O71  1  0.19813800  0.16935100  0.39691900  1
