# generated using pymatgen
data_NbTlV2O8
_symmetry_space_group_name_H-M   'P 1'
_cell_length_a   5.69560300
_cell_length_b   8.87648300
_cell_length_c   15.24415800
_cell_angle_alpha   90.00000000
_cell_angle_beta   90.00000000
_cell_angle_gamma   90.00000000
_symmetry_Int_Tables_number   1
_chemical_formula_structural   NbTlV2O8
_chemical_formula_sum   'Nb4 Tl4 V8 O32'
_cell_volume   770.69772532
_cell_formula_units_Z   4
loop_
 _symmetry_equiv_pos_site_id
 _symmetry_equiv_pos_as_xyz
  1  'x, y, z'
loop_
 _atom_site_type_symbol
 _atom_site_label
 _atom_site_symmetry_multiplicity
 _atom_site_fract_x
 _atom_site_fract_y
 _atom_site_fract_z
 _atom_site_occupancy
  Nb  Nb0  1  0.25000000  0.81345700  0.61976200  1
  Nb  Nb1  1  0.25000000  0.68654300  0.11976200  1
  Nb  Nb2  1  0.75000000  0.18654300  0.38023800  1
  Nb  Nb3  1  0.75000000  0.31345700  0.88023800  1
  Tl  Tl4  1  0.25000000  0.93494900  0.87942400  1
  Tl  Tl5  1  0.25000000  0.56505100  0.37942400  1
  Tl  Tl6  1  0.75000000  0.06505100  0.12057600  1
  Tl  Tl7  1  0.75000000  0.43494900  0.62057600  1
  V  V8  1  0.25000000  0.51041900  0.78458900  1
  V  V9  1  0.25000000  0.98958100  0.28458900  1
  V  V10  1  0.75000000  0.48958100  0.21541100  1
  V  V11  1  0.75000000  0.01041900  0.71541100  1
  V  V12  1  0.25000000  0.20431400  0.52814900  1
  V  V13  1  0.25000000  0.29568600  0.02814900  1
  V  V14  1  0.75000000  0.79568600  0.47185100  1
  V  V15  1  0.75000000  0.70431400  0.97185100  1
  O  O16  1  0.00708800  0.89839600  0.70377300  1
  O  O17  1  0.49291200  0.60160400  0.20377300  1
  O  O18  1  0.50708800  0.10160400  0.29622700  1
  O  O19  1  0.99291200  0.39839600  0.79622700  1
  O  O20  1  0.99291200  0.10160400  0.29622700  1
  O  O21  1  0.50708800  0.39839600  0.79622700  1
  O  O22  1  0.49291200  0.89839600  0.70377300  1
  O  O23  1  0.00708800  0.60160400  0.20377300  1
  O  O24  1  0.99985300  0.74463900  0.53757600  1
  O  O25  1  0.50014700  0.75536100  0.03757600  1
  O  O26  1  0.49985300  0.25536100  0.46242400  1
  O  O27  1  0.00014700  0.24463900  0.96242400  1
  O  O28  1  0.00014700  0.25536100  0.46242400  1
  O  O29  1  0.49985300  0.24463900  0.96242400  1
  O  O30  1  0.50014700  0.74463900  0.53757600  1
  O  O31  1  0.99985300  0.75536100  0.03757600  1
  O  O32  1  0.25000000  0.61986000  0.68500200  1
  O  O33  1  0.25000000  0.88014000  0.18500200  1
  O  O34  1  0.75000000  0.38014000  0.31499800  1
  O  O35  1  0.75000000  0.11986000  0.81499800  1
  O  O36  1  0.25000000  0.01385300  0.55786000  1
  O  O37  1  0.25000000  0.48614600  0.05786000  1
  O  O38  1  0.75000000  0.98614700  0.44214000  1
  O  O39  1  0.75000000  0.51385300  0.94214000  1
  O  O40  1  0.25000000  0.63201200  0.86579300  1
  O  O41  1  0.25000000  0.86798800  0.36579300  1
  O  O42  1  0.75000000  0.36798800  0.13420700  1
  O  O43  1  0.75000000  0.13201200  0.63420700  1
  O  O44  1  0.75000000  0.81265300  0.88407600  1
  O  O45  1  0.75000000  0.68734700  0.38407600  1
  O  O46  1  0.25000000  0.18734700  0.11592400  1
  O  O47  1  0.25000000  0.31265300  0.61592400  1
