# generated using pymatgen
data_Ca2B5H3O11
_symmetry_space_group_name_H-M   'P 1'
_cell_length_a   6.37697639
_cell_length_b   6.37697639
_cell_length_c   11.86252107
_cell_angle_alpha   97.31906819
_cell_angle_beta   99.26823741
_cell_angle_gamma   117.60798307
_symmetry_Int_Tables_number   1
_chemical_formula_structural   Ca2B5H3O11
_chemical_formula_sum   'Ca4 B10 H6 O22'
_cell_volume   410.48093976
_cell_formula_units_Z   2
loop_
 _symmetry_equiv_pos_site_id
 _symmetry_equiv_pos_as_xyz
  1  'x, y, z'
loop_
 _atom_site_type_symbol
 _atom_site_label
 _atom_site_symmetry_multiplicity
 _atom_site_fract_x
 _atom_site_fract_y
 _atom_site_fract_z
 _atom_site_occupancy
  Ca  Ca0  1  0.54558500  0.64403000  0.38623400  1
  Ca  Ca1  1  0.24220500  0.84064900  0.88623400  1
  Ca  Ca2  1  0.72410000  0.54582800  0.08881400  1
  Ca  Ca3  1  0.04298600  0.36471400  0.58881400  1
  B  B4  1  0.13366300  0.44845200  0.10008800  1
  B  B5  1  0.15163500  0.96642500  0.60008800  1
  B  B6  1  0.83763000  0.01124200  0.06299400  1
  B  B7  1  0.55175200  0.22536400  0.56299400  1
  B  B8  1  0.43023300  0.89561800  0.13191300  1
  B  B9  1  0.73629500  0.70168000  0.63191300  1
  B  B10  1  0.76099600  0.85105700  0.84052700  1
  B  B11  1  0.48947000  0.07953000  0.34052700  1
  B  B12  1  0.26579100  0.17193500  0.18141200  1
  B  B13  1  0.50947700  0.91562100  0.68141200  1
  H  H14  1  0.96053800  0.82558200  0.29380400  1
  H  H15  1  0.96822200  0.33326600  0.79380400  1
  H  H16  1  0.99955900  0.58446700  0.35749400  1
  H  H17  1  0.27302600  0.35793400  0.85749400  1
  H  H18  1  0.22219100  0.69232600  0.47461400  1
  H  H19  1  0.28228800  0.25242300  0.97461400  1
  O  O20  1  0.89564300  0.26300400  0.05600700  1
  O  O21  1  0.29300300  0.16036500  0.55600700  1
  O  O22  1  0.85217400  0.65623000  0.29538500  1
  O  O23  1  0.13915600  0.44321100  0.79538500  1
  O  O24  1  0.39890100  0.09930000  0.10844700  1
  O  O25  1  0.50914700  0.70954600  0.60844700  1
  O  O26  1  0.58347600  0.85541200  0.06311300  1
  O  O27  1  0.70770100  0.47963700  0.56311300  1
  O  O28  1  0.00557700  0.01088000  0.16153000  1
  O  O29  1  0.65065000  0.15595200  0.66153000  1
  O  O30  1  0.31731900  0.41709000  0.15957600  1
  O  O31  1  0.24248600  0.84225700  0.65957600  1
  O  O32  1  0.59170300  0.92337600  0.80853300  1
  O  O33  1  0.38515700  0.21682900  0.30853300  1
  O  O34  1  0.50981800  0.91864600  0.25951500  1
  O  O35  1  0.84086900  0.74969700  0.75951500  1
  O  O36  1  0.87298400  0.88404200  0.95533200  1
  O  O37  1  0.57129100  0.08234900  0.45533200  1
  O  O38  1  0.17661400  0.67103700  0.08190600  1
  O  O39  1  0.91087000  0.90529200  0.58190600  1
  O  O40  1  0.12666600  0.54352900  0.41258200  1
  O  O41  1  0.36905400  0.28591600  0.91258200  1
