# generated using pymatgen
data_TlB3O5
_symmetry_space_group_name_H-M   'P 1'
_cell_length_a   6.72467607
_cell_length_b   6.72467607
_cell_length_c   9.21911311
_cell_angle_alpha   80.16712185
_cell_angle_beta   80.16712185
_cell_angle_gamma   83.15471285
_symmetry_Int_Tables_number   1
_chemical_formula_structural   TlB3O5
_chemical_formula_sum   'Tl4 B12 O20'
_cell_volume   402.99760596
_cell_formula_units_Z   4
loop_
 _symmetry_equiv_pos_site_id
 _symmetry_equiv_pos_as_xyz
  1  'x, y, z'
loop_
 _atom_site_type_symbol
 _atom_site_label
 _atom_site_symmetry_multiplicity
 _atom_site_fract_x
 _atom_site_fract_y
 _atom_site_fract_z
 _atom_site_occupancy
  Tl  Tl0  1  0.26906000  0.57046700  0.94021400  1
  Tl  Tl1  1  0.42953300  0.73094000  0.55978600  1
  Tl  Tl2  1  0.73094000  0.42953300  0.05978600  1
  Tl  Tl3  1  0.57046700  0.26906000  0.44021400  1
  B  B4  1  0.80931600  0.78997900  0.73446200  1
  B  B5  1  0.21002100  0.19068400  0.76553800  1
  B  B6  1  0.19068400  0.21002100  0.26553800  1
  B  B7  1  0.78997900  0.80931600  0.23446200  1
  B  B8  1  0.93057200  0.42778100  0.68014200  1
  B  B9  1  0.57221900  0.06942800  0.81985800  1
  B  B10  1  0.06942800  0.57221900  0.31985800  1
  B  B11  1  0.42778100  0.93057200  0.18014200  1
  B  B12  1  0.03507200  0.11168900  0.56688900  1
  B  B13  1  0.88831100  0.96492800  0.93311100  1
  B  B14  1  0.96492800  0.88831100  0.43311100  1
  B  B15  1  0.11168900  0.03507200  0.06688900  1
  O  O16  1  0.93242800  0.90927000  0.59793400  1
  O  O17  1  0.09073000  0.06757200  0.90206600  1
  O  O18  1  0.06757200  0.09073000  0.40206600  1
  O  O19  1  0.90927000  0.93242800  0.09793400  1
  O  O20  1  0.90364800  0.78435700  0.86700800  1
  O  O21  1  0.21564300  0.09635200  0.63299200  1
  O  O22  1  0.09635200  0.21564300  0.13299200  1
  O  O23  1  0.78435700  0.90364800  0.36700800  1
  O  O24  1  0.10249700  0.39756800  0.74747500  1
  O  O25  1  0.60243200  0.89750300  0.75252500  1
  O  O26  1  0.89750300  0.60243200  0.25252500  1
  O  O27  1  0.39756800  0.10249700  0.24747500  1
  O  O28  1  0.79062200  0.59213600  0.69631800  1
  O  O29  1  0.40786400  0.20937800  0.80368200  1
  O  O30  1  0.20937800  0.40786400  0.30368200  1
  O  O31  1  0.59213600  0.79062200  0.19631800  1
  O  O32  1  0.89393300  0.28569300  0.59748700  1
  O  O33  1  0.71430700  0.10606700  0.90251300  1
  O  O34  1  0.10606700  0.71430700  0.40251300  1
  O  O35  1  0.28569300  0.89393300  0.09748700  1
