# generated using pymatgen
data_VCdCoO5
_symmetry_space_group_name_H-M   'P 1'
_cell_length_a   5.94092400
_cell_length_b   8.00800900
_cell_length_c   8.84148400
_cell_angle_alpha   90.00000000
_cell_angle_beta   90.00000000
_cell_angle_gamma   90.00000000
_symmetry_Int_Tables_number   1
_chemical_formula_structural   VCdCoO5
_chemical_formula_sum   'V4 Cd4 Co4 O20'
_cell_volume   420.63336134
_cell_formula_units_Z   4
loop_
 _symmetry_equiv_pos_site_id
 _symmetry_equiv_pos_as_xyz
  1  'x, y, z'
loop_
 _atom_site_type_symbol
 _atom_site_label
 _atom_site_symmetry_multiplicity
 _atom_site_fract_x
 _atom_site_fract_y
 _atom_site_fract_z
 _atom_site_occupancy
  V  V0  1  0.75000000  0.34787700  0.68223400  1
  V  V1  1  0.75000000  0.84787700  0.81776600  1
  V  V2  1  0.25000000  0.65212300  0.31776600  1
  V  V3  1  0.25000000  0.15212300  0.18223400  1
  Cd  Cd4  1  0.25000000  0.63361600  0.68078000  1
  Cd  Cd5  1  0.25000000  0.13361600  0.81922000  1
  Cd  Cd6  1  0.75000000  0.36638400  0.31922000  1
  Cd  Cd7  1  0.75000000  0.86638400  0.18078000  1
  Co  Co8  1  0.00000000  0.00000000  0.50000000  1
  Co  Co9  1  0.50000000  0.50000000  0.00000000  1
  Co  Co10  1  0.50000000  0.00000000  0.50000000  1
  Co  Co11  1  0.00000000  0.50000000  0.00000000  1
  O  O12  1  0.50492200  0.36582900  0.79433700  1
  O  O13  1  0.99507800  0.86582900  0.70566300  1
  O  O14  1  0.00492200  0.63417100  0.20566300  1
  O  O15  1  0.49507800  0.13417100  0.29433700  1
  O  O16  1  0.49507800  0.63417100  0.20566300  1
  O  O17  1  0.00492200  0.13417100  0.29433700  1
  O  O18  1  0.99507800  0.36582900  0.79433700  1
  O  O19  1  0.50492200  0.86582900  0.70566300  1
  O  O20  1  0.75000000  0.15103300  0.59273700  1
  O  O21  1  0.75000000  0.65103300  0.90726300  1
  O  O22  1  0.25000000  0.84896700  0.40726300  1
  O  O23  1  0.25000000  0.34896700  0.09273700  1
  O  O24  1  0.25000000  0.11914100  0.57313600  1
  O  O25  1  0.25000000  0.61914100  0.92686400  1
  O  O26  1  0.75000000  0.88085900  0.42686400  1
  O  O27  1  0.75000000  0.38085900  0.07313600  1
  O  O28  1  0.75000000  0.49362900  0.53966100  1
  O  O29  1  0.75000000  0.99362900  0.96033900  1
  O  O30  1  0.25000000  0.50637100  0.46033900  1
  O  O31  1  0.25000000  0.00637100  0.03966100  1
