# generated using pymatgen
data_Ba3V4CoO14
_symmetry_space_group_name_H-M   'P 1'
_cell_length_a   14.18988900
_cell_length_b   7.29494600
_cell_length_c   14.25666370
_cell_angle_alpha   71.09500311
_cell_angle_beta   90.00000000
_cell_angle_gamma   90.00000000
_symmetry_Int_Tables_number   1
_chemical_formula_structural   Ba3V4CoO14
_chemical_formula_sum   'Ba12 V16 Co4 O56'
_cell_volume   1396.16368280
_cell_formula_units_Z   4
loop_
 _symmetry_equiv_pos_site_id
 _symmetry_equiv_pos_as_xyz
  1  'x, y, z'
loop_
 _atom_site_type_symbol
 _atom_site_label
 _atom_site_symmetry_multiplicity
 _atom_site_fract_x
 _atom_site_fract_y
 _atom_site_fract_z
 _atom_site_occupancy
  Ba  Ba0  1  0.89394500  0.73021600  0.01472500  1
  Ba  Ba1  1  0.39394500  0.26978400  0.48527500  1
  Ba  Ba2  1  0.10605500  0.26978400  0.98527500  1
  Ba  Ba3  1  0.60605500  0.73021600  0.51472500  1
  Ba  Ba4  1  0.94451600  0.61040200  0.71723700  1
  Ba  Ba5  1  0.44451600  0.38959800  0.78276300  1
  Ba  Ba6  1  0.05548400  0.38959800  0.28276300  1
  Ba  Ba7  1  0.55548400  0.61040200  0.21723700  1
  Ba  Ba8  1  0.73057100  0.05982000  0.70278300  1
  Ba  Ba9  1  0.23057100  0.94018000  0.79721700  1
  Ba  Ba10  1  0.26942900  0.94018000  0.29721700  1
  Ba  Ba11  1  0.76942900  0.05982000  0.20278300  1
  V  V12  1  0.97313900  0.10068400  0.73887000  1
  V  V13  1  0.47313900  0.89931600  0.76113000  1
  V  V14  1  0.02686100  0.89931600  0.26113000  1
  V  V15  1  0.52686100  0.10068400  0.23887000  1
  V  V16  1  0.11093500  0.11144600  0.54899700  1
  V  V17  1  0.61093500  0.88855400  0.95100300  1
  V  V18  1  0.88906500  0.88855400  0.45100300  1
  V  V19  1  0.38906500  0.11144600  0.04899700  1
  V  V20  1  0.82963500  0.30468400  0.94876900  1
  V  V21  1  0.32963500  0.69531600  0.55123100  1
  V  V22  1  0.17036500  0.69531600  0.05123100  1
  V  V23  1  0.67036500  0.30468400  0.44876900  1
  V  V24  1  0.68673800  0.48615500  0.76816500  1
  V  V25  1  0.18673800  0.51384500  0.73183500  1
  V  V26  1  0.31326200  0.51384500  0.23183500  1
  V  V27  1  0.81326200  0.48615500  0.26816500  1
  Co  Co28  1  0.59771500  0.38000700  0.00620600  1
  Co  Co29  1  0.09771500  0.61999300  0.49379400  1
  Co  Co30  1  0.40228500  0.61999300  0.99379400  1
  Co  Co31  1  0.90228500  0.38000700  0.50620600  1
  O  O32  1  0.90148400  0.90895700  0.79905600  1
  O  O33  1  0.40148400  0.09104300  0.70094400  1
  O  O34  1  0.09851600  0.09104300  0.20094400  1
  O  O35  1  0.59851600  0.90895700  0.29905600  1
  O  O36  1  0.02408000  0.19571100  0.81985400  1
  O  O37  1  0.52408000  0.80428900  0.68014600  1
  O  O38  1  0.97592000  0.80428900  0.18014600  1
  O  O39  1  0.47592000  0.19571100  0.31985400  1
  O  O40  1  0.90273100  0.27776300  0.65718300  1
  O  O41  1  0.40273100  0.72223700  0.84281700  1
  O  O42  1  0.09726900  0.72223700  0.34281700  1
  O  O43  1  0.59726900  0.27776300  0.15718300  1
  O  O44  1  0.05927200  0.99624500  0.67415500  1
  O  O45  1  0.55927200  0.00375500  0.82584500  1
  O  O46  1  0.94072800  0.00375500  0.32584500  1
  O  O47  1  0.44072800  0.99624500  0.17415500  1
  O  O48  1  0.05456300  0.33788700  0.48712100  1
  O  O49  1  0.55456300  0.66211300  0.01287900  1
  O  O50  1  0.94543700  0.66211300  0.51287900  1
  O  O51  1  0.44543700  0.33788700  0.98712100  1
  O  O52  1  0.22342700  0.14902800  0.57522200  1
  O  O53  1  0.72342700  0.85097200  0.92477800  1
  O  O54  1  0.77657300  0.85097200  0.42477800  1
  O  O55  1  0.27657300  0.14902800  0.07522200  1
  O  O56  1  0.10938800  0.95754200  0.48027000  1
  O  O57  1  0.60938800  0.04245800  0.01973000  1
  O  O58  1  0.89061200  0.04245800  0.51973000  1
  O  O59  1  0.39061200  0.95754200  0.98027000  1
  O  O60  1  0.92398800  0.46217200  0.92201900  1
  O  O61  1  0.42398800  0.53782800  0.57798100  1
  O  O62  1  0.07601200  0.53782800  0.07798100  1
  O  O63  1  0.57601200  0.46217200  0.42201900  1
  O  O64  1  0.74805300  0.38557900  0.01530100  1
  O  O65  1  0.24805300  0.61442100  0.48469900  1
  O  O66  1  0.25194700  0.61442100  0.98469900  1
  O  O67  1  0.75194700  0.38557900  0.51530100  1
  O  O68  1  0.86848800  0.08602200  0.02346900  1
  O  O69  1  0.36848800  0.91397800  0.47653100  1
  O  O70  1  0.13151200  0.91397800  0.97653100  1
  O  O71  1  0.63151200  0.08602200  0.52346900  1
  O  O72  1  0.77788800  0.30984700  0.82766300  1
  O  O73  1  0.27788800  0.69015300  0.67233700  1
  O  O74  1  0.22211200  0.69015300  0.17233700  1
  O  O75  1  0.72211200  0.30984700  0.32766300  1
  O  O76  1  0.74274700  0.69644200  0.70015200  1
  O  O77  1  0.24274700  0.30355800  0.79984800  1
  O  O78  1  0.25725300  0.30355800  0.29984800  1
  O  O79  1  0.75725300  0.69644200  0.20015200  1
  O  O80  1  0.60794200  0.49856000  0.85828800  1
  O  O81  1  0.10794200  0.50144000  0.64171200  1
  O  O82  1  0.39205800  0.50144000  0.14171200  1
  O  O83  1  0.89205800  0.49856000  0.35828800  1
  O  O84  1  0.62431000  0.39876300  0.68917100  1
  O  O85  1  0.12431000  0.60123700  0.81082900  1
  O  O86  1  0.37569000  0.60123700  0.31082900  1
  O  O87  1  0.87569000  0.39876300  0.18917100  1
