# generated using pymatgen
data_Na3U6FeF30
_symmetry_space_group_name_H-M   'P 1'
_cell_length_a   9.88123925
_cell_length_b   9.88123925
_cell_length_c   13.09917000
_cell_angle_alpha   90.00000000
_cell_angle_beta   90.00000000
_cell_angle_gamma   119.99999501
_symmetry_Int_Tables_number   1
_chemical_formula_structural   Na3U6FeF30
_chemical_formula_sum   'Na6 U12 Fe2 F60'
_cell_volume   1107.63650844
_cell_formula_units_Z   2
loop_
 _symmetry_equiv_pos_site_id
 _symmetry_equiv_pos_as_xyz
  1  'x, y, z'
loop_
 _atom_site_type_symbol
 _atom_site_label
 _atom_site_symmetry_multiplicity
 _atom_site_fract_x
 _atom_site_fract_y
 _atom_site_fract_z
 _atom_site_occupancy
  Na  Na0  1  0.66666700  0.33333300  0.66048400  1
  Na  Na1  1  0.66666700  0.33333300  0.16048400  1
  Na  Na2  1  0.33333300  0.66666700  0.33951600  1
  Na  Na3  1  0.33333300  0.66666700  0.83951600  1
  Na  Na4  1  0.00000000  0.00000000  0.50000000  1
  Na  Na5  1  0.00000000  0.00000000  0.00000000  1
  U  U6  1  0.07651800  0.67808200  0.60239200  1
  U  U7  1  0.60156400  0.92348200  0.60239200  1
  U  U8  1  0.32191800  0.39843600  0.60239200  1
  U  U9  1  0.07651800  0.39843600  0.10239200  1
  U  U10  1  0.32191800  0.92348200  0.10239200  1
  U  U11  1  0.60156400  0.67808200  0.10239200  1
  U  U12  1  0.92348200  0.32191800  0.39760800  1
  U  U13  1  0.39843600  0.07651800  0.39760800  1
  U  U14  1  0.67808200  0.60156400  0.39760800  1
  U  U15  1  0.92348200  0.60156400  0.89760800  1
  U  U16  1  0.67808200  0.07651800  0.89760800  1
  U  U17  1  0.39843600  0.32191800  0.89760800  1
  Fe  Fe18  1  0.00000000  0.00000000  0.75000000  1
  Fe  Fe19  1  0.00000000  0.00000000  0.25000000  1
  F  F20  1  0.86971900  0.56386500  0.71497400  1
  F  F21  1  0.69414700  0.13028100  0.71497400  1
  F  F22  1  0.43613500  0.30585300  0.71497400  1
  F  F23  1  0.86971900  0.30585300  0.21497400  1
  F  F24  1  0.43613500  0.13028100  0.21497400  1
  F  F25  1  0.69414700  0.56386500  0.21497400  1
  F  F26  1  0.13028100  0.43613500  0.28502600  1
  F  F27  1  0.30585300  0.86971900  0.28502600  1
  F  F28  1  0.56386500  0.69414700  0.28502600  1
  F  F29  1  0.13028100  0.69414700  0.78502600  1
  F  F30  1  0.56386500  0.86971900  0.78502600  1
  F  F31  1  0.30585300  0.43613500  0.78502600  1
  F  F32  1  0.88388500  0.68909100  0.51976800  1
  F  F33  1  0.80520600  0.11611500  0.51976800  1
  F  F34  1  0.31090900  0.19479400  0.51976800  1
  F  F35  1  0.88388500  0.19479400  0.01976800  1
  F  F36  1  0.31090900  0.11611500  0.01976800  1
  F  F37  1  0.80520600  0.68909100  0.01976800  1
  F  F38  1  0.11611500  0.31090900  0.48023200  1
  F  F39  1  0.19479400  0.88388500  0.48023200  1
  F  F40  1  0.68909100  0.80520600  0.48023200  1
  F  F41  1  0.11611500  0.80520600  0.98023200  1
  F  F42  1  0.68909100  0.88388500  0.98023200  1
  F  F43  1  0.19479400  0.31090900  0.98023200  1
  F  F44  1  0.11915600  0.58841700  0.45026700  1
  F  F45  1  0.46926000  0.88084400  0.45026700  1
  F  F46  1  0.41158300  0.53074000  0.45026700  1
  F  F47  1  0.11915600  0.53074000  0.95026700  1
  F  F48  1  0.41158300  0.88084400  0.95026700  1
  F  F49  1  0.46926000  0.58841700  0.95026700  1
  F  F50  1  0.88084400  0.41158300  0.54973300  1
  F  F51  1  0.53074000  0.11915600  0.54973300  1
  F  F52  1  0.58841700  0.46926000  0.54973300  1
  F  F53  1  0.88084400  0.46926000  0.04973300  1
  F  F54  1  0.58841700  0.11915600  0.04973300  1
  F  F55  1  0.53074000  0.41158300  0.04973300  1
  F  F56  1  0.08353000  0.89390000  0.65768300  1
  F  F57  1  0.81036900  0.91647000  0.65768300  1
  F  F58  1  0.10610000  0.18963100  0.65768300  1
  F  F59  1  0.08353000  0.18963100  0.15768300  1
  F  F60  1  0.10610000  0.91647000  0.15768300  1
  F  F61  1  0.81036900  0.89390000  0.15768300  1
  F  F62  1  0.91647000  0.10610000  0.34231700  1
  F  F63  1  0.18963100  0.08353000  0.34231700  1
  F  F64  1  0.89390000  0.81036900  0.34231700  1
  F  F65  1  0.91647000  0.81036900  0.84231700  1
  F  F66  1  0.89390000  0.08353000  0.84231700  1
  F  F67  1  0.18963100  0.10610000  0.84231700  1
  F  F68  1  0.33945700  0.82713800  0.63664300  1
  F  F69  1  0.48768100  0.66054300  0.63664300  1
  F  F70  1  0.17286200  0.51231900  0.63664300  1
  F  F71  1  0.33945700  0.51231900  0.13664300  1
  F  F72  1  0.17286200  0.66054300  0.13664300  1
  F  F73  1  0.48768100  0.82713800  0.13664300  1
  F  F74  1  0.66054300  0.17286200  0.36335700  1
  F  F75  1  0.51231900  0.33945700  0.36335700  1
  F  F76  1  0.82713800  0.48768100  0.36335700  1
  F  F77  1  0.66054300  0.48768100  0.86335700  1
  F  F78  1  0.82713800  0.33945700  0.86335700  1
  F  F79  1  0.51231900  0.17286200  0.86335700  1
