# generated using pymatgen
data_S2Xe(O3F)2
_symmetry_space_group_name_H-M   'P 1'
_cell_length_a   13.88423700
_cell_length_b   7.05325800
_cell_length_c   10.18991108
_cell_angle_alpha   53.35295114
_cell_angle_beta   90.00000000
_cell_angle_gamma   90.00000000
_symmetry_Int_Tables_number   1
_chemical_formula_structural   S2Xe(O3F)2
_chemical_formula_sum   'S8 Xe4 O24 F8'
_cell_volume   800.63379918
_cell_formula_units_Z   4
loop_
 _symmetry_equiv_pos_site_id
 _symmetry_equiv_pos_as_xyz
  1  'x, y, z'
loop_
 _atom_site_type_symbol
 _atom_site_label
 _atom_site_symmetry_multiplicity
 _atom_site_fract_x
 _atom_site_fract_y
 _atom_site_fract_z
 _atom_site_occupancy
  S  S0  1  0.96315800  0.08646900  0.74562400  1
  S  S1  1  0.53684200  0.08646900  0.24562400  1
  S  S2  1  0.03684200  0.91353100  0.25437600  1
  S  S3  1  0.46315800  0.91353100  0.75437600  1
  S  S4  1  0.29880900  0.38248800  0.79289800  1
  S  S5  1  0.20119100  0.38248800  0.29289800  1
  S  S6  1  0.70119100  0.61751200  0.20710200  1
  S  S7  1  0.79880900  0.61751200  0.70710200  1
  Xe  Xe8  1  0.12751300  0.72543100  0.77361300  1
  Xe  Xe9  1  0.37248700  0.72543100  0.27361300  1
  Xe  Xe10  1  0.87248700  0.27456900  0.22638700  1
  Xe  Xe11  1  0.62751300  0.27456900  0.72638700  1
  O  O12  1  0.22524900  0.57773700  0.67789100  1
  O  O13  1  0.27475100  0.57773700  0.17789100  1
  O  O14  1  0.77475100  0.42226300  0.32210900  1
  O  O15  1  0.72524900  0.42226300  0.82210900  1
  O  O16  1  0.95709500  0.13563300  0.58806000  1
  O  O17  1  0.54290500  0.13563300  0.08806000  1
  O  O18  1  0.04290500  0.86436700  0.41194000  1
  O  O19  1  0.45709500  0.86436700  0.91194000  1
  O  O20  1  0.37787500  0.40764900  0.69325800  1
  O  O21  1  0.12212500  0.40764900  0.19325800  1
  O  O22  1  0.62212500  0.59235100  0.30674200  1
  O  O23  1  0.87787500  0.59235100  0.80674200  1
  O  O24  1  0.31278400  0.34957900  0.94421900  1
  O  O25  1  0.18721600  0.34957900  0.44421900  1
  O  O26  1  0.68721600  0.65042100  0.05578100  1
  O  O27  1  0.81278400  0.65042100  0.55578100  1
  O  O28  1  0.87978900  0.06834200  0.83491300  1
  O  O29  1  0.62021100  0.06834200  0.33491300  1
  O  O30  1  0.12021100  0.93165800  0.16508700  1
  O  O31  1  0.37978900  0.93165800  0.66508700  1
  O  O32  1  0.02821400  0.87141200  0.86750100  1
  O  O33  1  0.47178600  0.87141200  0.36750100  1
  O  O34  1  0.97178600  0.12858800  0.13249900  1
  O  O35  1  0.52821400  0.12858800  0.63249900  1
  F  F36  1  0.24232400  0.15220000  0.83924600  1
  F  F37  1  0.25767600  0.15220000  0.33924600  1
  F  F38  1  0.75767600  0.84780000  0.16075400  1
  F  F39  1  0.74232400  0.84780000  0.66075400  1
  F  F40  1  0.02582200  0.29590700  0.72029500  1
  F  F41  1  0.47417800  0.29590700  0.22029500  1
  F  F42  1  0.97417800  0.70409300  0.27970500  1
  F  F43  1  0.52582200  0.70409300  0.77970500  1
