# generated using pymatgen
data_BaH2PdN4O9
_symmetry_space_group_name_H-M   'P 1'
_cell_length_a   10.83236000
_cell_length_b   7.74321900
_cell_length_c   14.62376610
_cell_angle_alpha   90.00000000
_cell_angle_beta   128.98639327
_cell_angle_gamma   90.00000000
_symmetry_Int_Tables_number   1
_chemical_formula_structural   BaH2PdN4O9
_chemical_formula_sum   'Ba4 H8 Pd4 N16 O36'
_cell_volume   953.43250138
_cell_formula_units_Z   4
loop_
 _symmetry_equiv_pos_site_id
 _symmetry_equiv_pos_as_xyz
  1  'x, y, z'
loop_
 _atom_site_type_symbol
 _atom_site_label
 _atom_site_symmetry_multiplicity
 _atom_site_fract_x
 _atom_site_fract_y
 _atom_site_fract_z
 _atom_site_occupancy
  Ba  Ba0  1  0.79392800  0.58122100  0.67992100  1
  Ba  Ba1  1  0.79392800  0.91877900  0.17992100  1
  Ba  Ba2  1  0.20607200  0.41877900  0.32007900  1
  Ba  Ba3  1  0.20607200  0.08122100  0.82007900  1
  H  H4  1  0.11380900  0.66036400  0.95472500  1
  H  H5  1  0.11380900  0.83963600  0.45472500  1
  H  H6  1  0.88619100  0.33963600  0.04527500  1
  H  H7  1  0.88619100  0.16036400  0.54527500  1
  H  H8  1  0.08390300  0.47415100  0.97662700  1
  H  H9  1  0.08390300  0.02584900  0.47662700  1
  H  H10  1  0.91609700  0.52584900  0.02337300  1
  H  H11  1  0.91609700  0.97415100  0.52337300  1
  Pd  Pd12  1  0.63614600  0.09914900  0.75195800  1
  Pd  Pd13  1  0.63614600  0.40085100  0.25195800  1
  Pd  Pd14  1  0.36385400  0.90085100  0.24804200  1
  Pd  Pd15  1  0.36385400  0.59914900  0.74804200  1
  N  N16  1  0.82978300  0.08781000  0.75592100  1
  N  N17  1  0.82978300  0.41219000  0.25592100  1
  N  N18  1  0.17021700  0.91219000  0.24407900  1
  N  N19  1  0.17021700  0.58781000  0.74407900  1
  N  N20  1  0.49505400  0.20180100  0.58464700  1
  N  N21  1  0.49505400  0.29819900  0.08464700  1
  N  N22  1  0.50494600  0.79819900  0.41535300  1
  N  N23  1  0.50494600  0.70180100  0.91535300  1
  N  N24  1  0.44614600  0.10928900  0.75190300  1
  N  N25  1  0.44614600  0.39071100  0.25190300  1
  N  N26  1  0.55385400  0.89071100  0.24809700  1
  N  N27  1  0.55385400  0.60928900  0.74809700  1
  N  N28  1  0.76986400  0.00142700  0.92112800  1
  N  N29  1  0.76986400  0.49857300  0.42112800  1
  N  N30  1  0.23013600  0.99857300  0.07887200  1
  N  N31  1  0.23013600  0.50142700  0.57887200  1
  O  O32  1  0.89057800  0.94602800  0.76298800  1
  O  O33  1  0.89057800  0.55397200  0.26298800  1
  O  O34  1  0.10942200  0.05397200  0.23701200  1
  O  O35  1  0.10942200  0.44602800  0.73701200  1
  O  O36  1  0.89380700  0.22409400  0.75605300  1
  O  O37  1  0.89380700  0.27590600  0.25605300  1
  O  O38  1  0.10619300  0.77590600  0.24394700  1
  O  O39  1  0.10619300  0.72409400  0.74394700  1
  O  O40  1  0.53191700  0.34578900  0.56709000  1
  O  O41  1  0.53191700  0.15421100  0.06709000  1
  O  O42  1  0.46808300  0.65421100  0.43291000  1
  O  O43  1  0.46808300  0.84578900  0.93291000  1
  O  O44  1  0.36846500  0.13209300  0.50221100  1
  O  O45  1  0.36846500  0.36790700  0.00221100  1
  O  O46  1  0.63153500  0.86790700  0.49778900  1
  O  O47  1  0.63153500  0.63209300  0.99778900  1
  O  O48  1  0.33266200  0.00582200  0.69187300  1
  O  O49  1  0.33266200  0.49417800  0.19187300  1
  O  O50  1  0.66733800  0.99417800  0.30812700  1
  O  O51  1  0.66733800  0.50582200  0.80812700  1
  O  O52  1  0.44865000  0.21779300  0.81656700  1
  O  O53  1  0.44865000  0.28220700  0.31656700  1
  O  O54  1  0.55135000  0.78220700  0.18343300  1
  O  O55  1  0.55135000  0.71779300  0.68343300  1
  O  O56  1  0.83031100  0.85643600  0.94326500  1
  O  O57  1  0.83031100  0.64356400  0.44326500  1
  O  O58  1  0.16968900  0.14356400  0.05673500  1
  O  O59  1  0.16968900  0.35643600  0.55673500  1
  O  O60  1  0.77985100  0.08730100  0.99913400  1
  O  O61  1  0.77985100  0.41269900  0.49913400  1
  O  O62  1  0.22014900  0.91269900  0.00086600  1
  O  O63  1  0.22014900  0.58730100  0.50086600  1
  O  O64  1  0.03595500  0.56647300  0.91828800  1
  O  O65  1  0.03595500  0.93352700  0.41828800  1
  O  O66  1  0.96404500  0.43352700  0.08171200  1
  O  O67  1  0.96404500  0.06647300  0.58171200  1
