# generated using pymatgen
data_NaSbO6
_symmetry_space_group_name_H-M   'P 1'
_cell_length_a   8.70288000
_cell_length_b   8.70288000
_cell_length_c   6.88190600
_cell_angle_alpha   90.00000000
_cell_angle_beta   90.00000000
_cell_angle_gamma   90.00000000
_symmetry_Int_Tables_number   1
_chemical_formula_structural   NaSbO6
_chemical_formula_sum   'Na4 Sb4 O24'
_cell_volume   521.23638829
_cell_formula_units_Z   4
loop_
 _symmetry_equiv_pos_site_id
 _symmetry_equiv_pos_as_xyz
  1  'x, y, z'
loop_
 _atom_site_type_symbol
 _atom_site_label
 _atom_site_symmetry_multiplicity
 _atom_site_fract_x
 _atom_site_fract_y
 _atom_site_fract_z
 _atom_site_occupancy
  Na  Na0  1  0.25000000  0.75000000  0.75000000  1
  Na  Na1  1  0.75000000  0.25000000  0.75000000  1
  Na  Na2  1  0.75000000  0.75000000  0.25000000  1
  Na  Na3  1  0.25000000  0.25000000  0.25000000  1
  Sb  Sb4  1  0.25000000  0.25000000  0.75000000  1
  Sb  Sb5  1  0.75000000  0.75000000  0.75000000  1
  Sb  Sb6  1  0.25000000  0.75000000  0.25000000  1
  Sb  Sb7  1  0.75000000  0.25000000  0.25000000  1
  O  O8  1  0.00079200  0.25398900  0.90882000  1
  O  O9  1  0.99920800  0.74601100  0.90882000  1
  O  O10  1  0.24601100  0.50079200  0.40882000  1
  O  O11  1  0.75398900  0.49920800  0.40882000  1
  O  O12  1  0.49920800  0.24601100  0.59118000  1
  O  O13  1  0.50079200  0.75398900  0.59118000  1
  O  O14  1  0.25398900  0.99920800  0.09118000  1
  O  O15  1  0.74601100  0.00079200  0.09118000  1
  O  O16  1  0.28819000  0.00356400  0.90199600  1
  O  O17  1  0.71181000  0.99643600  0.90199600  1
  O  O18  1  0.49643600  0.78819000  0.40199600  1
  O  O19  1  0.50356400  0.21181000  0.40199600  1
  O  O20  1  0.21181000  0.49643600  0.59800400  1
  O  O21  1  0.78819000  0.50356400  0.59800400  1
  O  O22  1  0.00356400  0.71181000  0.09800400  1
  O  O23  1  0.99643600  0.28819000  0.09800400  1
  O  O24  1  0.16484000  0.15080600  0.54119600  1
  O  O25  1  0.83516000  0.84919400  0.54119600  1
  O  O26  1  0.34919400  0.66484000  0.04119600  1
  O  O27  1  0.65080600  0.33516000  0.04119600  1
  O  O28  1  0.33516000  0.34919400  0.95880400  1
  O  O29  1  0.66484000  0.65080600  0.95880400  1
  O  O30  1  0.15080600  0.83516000  0.45880400  1
  O  O31  1  0.84919400  0.16484000  0.45880400  1
