# generated using pymatgen
data_H8PbC5S2IN
_symmetry_space_group_name_H-M   'P 1'
_cell_length_a   4.98707000
_cell_length_b   11.45990800
_cell_length_c   20.69057425
_cell_angle_alpha   90.00000000
_cell_angle_beta   94.78397241
_cell_angle_gamma   90.00000000
_symmetry_Int_Tables_number   1
_chemical_formula_structural   H8PbC5S2IN
_chemical_formula_sum   'H32 Pb4 C20 S8 I4 N4'
_cell_volume   1178.37498599
_cell_formula_units_Z   4
loop_
 _symmetry_equiv_pos_site_id
 _symmetry_equiv_pos_as_xyz
  1  'x, y, z'
loop_
 _atom_site_type_symbol
 _atom_site_label
 _atom_site_symmetry_multiplicity
 _atom_site_fract_x
 _atom_site_fract_y
 _atom_site_fract_z
 _atom_site_occupancy
  H  H0  1  0.08072800  0.46980500  0.57019600  1
  H  H1  1  0.91927200  0.96980500  0.92980400  1
  H  H2  1  0.91927200  0.53019500  0.42980400  1
  H  H3  1  0.08072800  0.03019500  0.07019600  1
  H  H4  1  0.80433500  0.56841600  0.56357100  1
  H  H5  1  0.19566500  0.06841600  0.93642900  1
  H  H6  1  0.19566500  0.43158400  0.43642900  1
  H  H7  1  0.80433500  0.93158400  0.06357100  1
  H  H8  1  0.12284700  0.69414000  0.62289500  1
  H  H9  1  0.87715300  0.19414000  0.87710500  1
  H  H10  1  0.87715300  0.30586000  0.37710500  1
  H  H11  1  0.12284700  0.80586000  0.12289500  1
  H  H12  1  0.30794100  0.57373800  0.65748000  1
  H  H13  1  0.69205900  0.07373800  0.84252000  1
  H  H14  1  0.69205900  0.42626200  0.34252000  1
  H  H15  1  0.30794100  0.92626200  0.15748000  1
  H  H16  1  0.78214800  0.67558300  0.69858500  1
  H  H17  1  0.21785200  0.17558300  0.80141500  1
  H  H18  1  0.21785200  0.32441700  0.30141500  1
  H  H19  1  0.78214800  0.82441700  0.19858500  1
  H  H20  1  0.06997200  0.63219000  0.74929000  1
  H  H21  1  0.93002800  0.13219000  0.75071000  1
  H  H22  1  0.93002800  0.36781000  0.25071000  1
  H  H23  1  0.06997200  0.86781000  0.24929000  1
  H  H24  1  0.96291700  0.42755400  0.73668900  1
  H  H25  1  0.03708300  0.92755400  0.76331100  1
  H  H26  1  0.03708300  0.57244600  0.26331100  1
  H  H27  1  0.96291700  0.07244600  0.23668900  1
  H  H28  1  0.63100200  0.48483100  0.72885800  1
  H  H29  1  0.36899800  0.98483100  0.77114200  1
  H  H30  1  0.36899800  0.51516900  0.27114200  1
  H  H31  1  0.63100200  0.01516900  0.22885800  1
  Pb  Pb32  1  0.27896600  0.14547400  0.56403300  1
  Pb  Pb33  1  0.72103400  0.64547400  0.93596700  1
  Pb  Pb34  1  0.72103400  0.85452600  0.43596700  1
  Pb  Pb35  1  0.27896600  0.35452600  0.06403300  1
  C  C36  1  0.65476100  0.35501000  0.61969500  1
  C  C37  1  0.34523900  0.85501000  0.88030500  1
  C  C38  1  0.34523900  0.64499000  0.38030500  1
  C  C39  1  0.65476100  0.14499000  0.11969500  1
  C  C40  1  0.94890700  0.52321500  0.59816900  1
  C  C41  1  0.05109300  0.02321500  0.90183100  1
  C  C42  1  0.05109300  0.47678500  0.40183100  1
  C  C43  1  0.94890700  0.97678500  0.09816900  1
  C  C44  1  0.10461500  0.60763700  0.64473600  1
  C  C45  1  0.89538500  0.10763700  0.85526400  1
  C  C46  1  0.89538500  0.39236300  0.35526400  1
  C  C47  1  0.10461500  0.89236300  0.14473600  1
  C  C48  1  0.94392800  0.61046100  0.70487600  1
  C  C49  1  0.05607200  0.11046100  0.79512400  1
  C  C50  1  0.05607200  0.38953900  0.29512400  1
  C  C51  1  0.94392800  0.88953900  0.20487600  1
  C  C52  1  0.82670000  0.48779800  0.70832500  1
  C  C53  1  0.17330000  0.98779800  0.79167500  1
  C  C54  1  0.17330000  0.51220200  0.29167500  1
  C  C55  1  0.82670000  0.01220200  0.20832500  1
  S  S56  1  0.65934300  0.31184500  0.53912500  1
  S  S57  1  0.34065700  0.81184500  0.96087500  1
  S  S58  1  0.34065700  0.68815500  0.46087500  1
  S  S59  1  0.65934300  0.18815500  0.03912500  1
  S  S60  1  0.46817700  0.27936800  0.67223000  1
  S  S61  1  0.53182300  0.77936800  0.82777000  1
  S  S62  1  0.53182300  0.72063200  0.32777000  1
  S  S63  1  0.46817700  0.22063200  0.17223000  1
  I  I64  1  0.66275400  0.94235900  0.59894600  1
  I  I65  1  0.33724600  0.44235900  0.90105400  1
  I  I66  1  0.33724600  0.05764100  0.40105400  1
  I  I67  1  0.66275400  0.55764100  0.09894600  1
  N  N68  1  0.79778400  0.44776000  0.64030200  1
  N  N69  1  0.20221600  0.94776000  0.85969800  1
  N  N70  1  0.20221600  0.55224000  0.35969800  1
  N  N71  1  0.79778400  0.05224000  0.14030200  1
