# generated using pymatgen
data_NaCo2As3O10
_symmetry_space_group_name_H-M   'P 1'
_cell_length_a   6.96672853
_cell_length_b   7.89789589
_cell_length_c   8.83597771
_cell_angle_alpha   107.26768185
_cell_angle_beta   108.86360187
_cell_angle_gamma   100.66473398
_symmetry_Int_Tables_number   1
_chemical_formula_structural   NaCo2As3O10
_chemical_formula_sum   'Na2 Co4 As6 O20'
_cell_volume   417.54285863
_cell_formula_units_Z   2
loop_
 _symmetry_equiv_pos_site_id
 _symmetry_equiv_pos_as_xyz
  1  'x, y, z'
loop_
 _atom_site_type_symbol
 _atom_site_label
 _atom_site_symmetry_multiplicity
 _atom_site_fract_x
 _atom_site_fract_y
 _atom_site_fract_z
 _atom_site_occupancy
  Na  Na0  1  0.25446100  0.30469900  0.45090100  1
  Na  Na1  1  0.74541600  0.69525600  0.54904400  1
  Co  Co2  1  0.88920100  0.16793300  0.06106800  1
  Co  Co3  1  0.11168400  0.83248600  0.93883700  1
  Co  Co4  1  0.54792000  0.35147800  0.86273500  1
  Co  Co5  1  0.45209700  0.64870700  0.13753500  1
  As  As6  1  0.98586400  0.62406400  0.20657100  1
  As  As7  1  0.01409400  0.37579500  0.79349800  1
  As  As8  1  0.54630500  0.74464000  0.83368600  1
  As  As9  1  0.45347300  0.25529600  0.16619200  1
  As  As10  1  0.23582100  0.92444700  0.62071800  1
  As  As11  1  0.76419600  0.07551600  0.37917700  1
  O  O12  1  0.15637700  0.71274400  0.12566700  1
  O  O13  1  0.84318000  0.28713900  0.87419300  1
  O  O14  1  0.43413500  0.80198400  0.98099300  1
  O  O15  1  0.56578300  0.19805400  0.01900300  1
  O  O16  1  0.72619200  0.60044000  0.08421900  1
  O  O17  1  0.27380500  0.39948100  0.91573900  1
  O  O18  1  0.37740200  0.12570500  0.62782100  1
  O  O19  1  0.62239000  0.87425200  0.37205400  1
  O  O20  1  0.39768800  0.77702000  0.63879400  1
  O  O21  1  0.60221100  0.22288500  0.36108900  1
  O  O22  1  0.52063700  0.51807900  0.72494800  1
  O  O23  1  0.47912300  0.48181800  0.27501800  1
  O  O24  1  0.02387300  0.43624800  0.25246000  1
  O  O25  1  0.97674500  0.56356300  0.74749100  1
  O  O26  1  0.09128900  0.92055400  0.74085700  1
  O  O27  1  0.90916800  0.07985200  0.25954400  1
  O  O28  1  0.79679300  0.89083100  0.89727100  1
  O  O29  1  0.20289400  0.10919100  0.10284600  1
  O  O30  1  0.02898000  0.79834800  0.40990800  1
  O  O31  1  0.97080400  0.20149400  0.59012300  1
