# generated using pymatgen
data_Na2Cu5TeS3O19
_symmetry_space_group_name_H-M   'P 1'
_cell_length_a   11.76652300
_cell_length_b   7.46354900
_cell_length_c   9.28141862
_cell_angle_alpha   68.49984945
_cell_angle_beta   90.00000000
_cell_angle_gamma   90.00000000
_symmetry_Int_Tables_number   1
_chemical_formula_structural   Na2Cu5TeS3O19
_chemical_formula_sum   'Na4 Cu10 Te2 S6 O38'
_cell_volume   758.37734361
_cell_formula_units_Z   2
loop_
 _symmetry_equiv_pos_site_id
 _symmetry_equiv_pos_as_xyz
  1  'x, y, z'
loop_
 _atom_site_type_symbol
 _atom_site_label
 _atom_site_symmetry_multiplicity
 _atom_site_fract_x
 _atom_site_fract_y
 _atom_site_fract_z
 _atom_site_occupancy
  Na  Na0  1  0.25000000  0.98128300  0.96721100  1
  Na  Na1  1  0.75000000  0.01871700  0.03278900  1
  Na  Na2  1  0.50000000  0.00000000  0.50000000  1
  Na  Na3  1  0.00000000  0.00000000  0.50000000  1
  Cu  Cu4  1  0.37575700  0.45009200  0.78643300  1
  Cu  Cu5  1  0.87575700  0.54990800  0.21356700  1
  Cu  Cu6  1  0.62424300  0.54990800  0.21356700  1
  Cu  Cu7  1  0.12424300  0.45009200  0.78643300  1
  Cu  Cu8  1  0.36721700  0.50990200  0.21736700  1
  Cu  Cu9  1  0.86721700  0.49009800  0.78263300  1
  Cu  Cu10  1  0.63278300  0.49009800  0.78263300  1
  Cu  Cu11  1  0.13278300  0.50990200  0.21736700  1
  Cu  Cu12  1  0.50000000  0.50000000  0.50000000  1
  Cu  Cu13  1  0.00000000  0.50000000  0.50000000  1
  Te  Te14  1  0.25000000  0.78692400  0.42007600  1
  Te  Te15  1  0.75000000  0.21307600  0.57992400  1
  S  S16  1  0.52568500  0.80835100  0.88733000  1
  S  S17  1  0.02568500  0.19164900  0.11267000  1
  S  S18  1  0.47431500  0.19164900  0.11267000  1
  S  S19  1  0.97431500  0.80835100  0.88733000  1
  S  S20  1  0.25000000  0.17459200  0.57112000  1
  S  S21  1  0.75000000  0.82540800  0.42888000  1
  O  O22  1  0.25000000  0.66650300  0.25741300  1
  O  O23  1  0.75000000  0.33349700  0.74258700  1
  O  O24  1  0.25000000  0.54742900  0.83932600  1
  O  O25  1  0.75000000  0.45257100  0.16067400  1
  O  O26  1  0.48647900  0.61532600  0.28883700  1
  O  O27  1  0.98647900  0.38467400  0.71116300  1
  O  O28  1  0.51352100  0.38467400  0.71116300  1
  O  O29  1  0.01352100  0.61532600  0.28883700  1
  O  O30  1  0.37346600  0.64293900  0.54702000  1
  O  O31  1  0.87346600  0.35706100  0.45298000  1
  O  O32  1  0.62653400  0.35706100  0.45298000  1
  O  O33  1  0.12653400  0.64293900  0.54702000  1
  O  O34  1  0.25000000  0.41645300  0.14215100  1
  O  O35  1  0.75000000  0.58354700  0.85784900  1
  O  O36  1  0.61818100  0.77533500  0.00541100  1
  O  O37  1  0.11818100  0.22466500  0.99458900  1
  O  O38  1  0.38181900  0.22466500  0.99458900  1
  O  O39  1  0.88181900  0.77533500  0.00541100  1
  O  O40  1  0.41370100  0.81349400  0.95324400  1
  O  O41  1  0.91370100  0.18650600  0.04675600  1
  O  O42  1  0.58629900  0.18650600  0.04675600  1
  O  O43  1  0.08629900  0.81349400  0.95324400  1
  O  O44  1  0.51872500  0.63228700  0.83730800  1
  O  O45  1  0.01872500  0.36771300  0.16269200  1
  O  O46  1  0.48127500  0.36771300  0.16269200  1
  O  O47  1  0.98127500  0.63228700  0.83730800  1
  O  O48  1  0.25000000  0.21484200  0.71695000  1
  O  O49  1  0.75000000  0.78515800  0.28305000  1
  O  O50  1  0.55416800  0.97843500  0.75141500  1
  O  O51  1  0.05416800  0.02156500  0.24858500  1
  O  O52  1  0.44583200  0.02156500  0.24858500  1
  O  O53  1  0.94583200  0.97843500  0.75141500  1
  O  O54  1  0.35484000  0.25565200  0.48022900  1
  O  O55  1  0.85484000  0.74434800  0.51977100  1
  O  O56  1  0.64516000  0.74434800  0.51977100  1
  O  O57  1  0.14516000  0.25565200  0.48022900  1
  O  O58  1  0.25000000  0.95920700  0.61025500  1
  O  O59  1  0.75000000  0.04079300  0.38974500  1
