# generated using pymatgen
data_CsSm(PO3)4
_symmetry_space_group_name_H-M   'P 1'
_cell_length_a   9.08159900
_cell_length_b   10.59097600
_cell_length_c   13.10810998
_cell_angle_alpha   56.46117462
_cell_angle_beta   90.00000000
_cell_angle_gamma   90.00000000
_symmetry_Int_Tables_number   1
_chemical_formula_structural   CsSm(PO3)4
_chemical_formula_sum   'Cs4 Sm4 P16 O48'
_cell_volume   1050.87253422
_cell_formula_units_Z   4
loop_
 _symmetry_equiv_pos_site_id
 _symmetry_equiv_pos_as_xyz
  1  'x, y, z'
loop_
 _atom_site_type_symbol
 _atom_site_label
 _atom_site_symmetry_multiplicity
 _atom_site_fract_x
 _atom_site_fract_y
 _atom_site_fract_z
 _atom_site_occupancy
  Cs  Cs0  1  0.06588500  0.72342700  0.96112600  1
  Cs  Cs1  1  0.43411500  0.72342700  0.46112600  1
  Cs  Cs2  1  0.93411500  0.27657300  0.03887400  1
  Cs  Cs3  1  0.56588500  0.27657300  0.53887400  1
  Sm  Sm4  1  0.77420300  0.81637500  0.68119900  1
  Sm  Sm5  1  0.72579700  0.81637500  0.18119900  1
  Sm  Sm6  1  0.22579700  0.18362500  0.31880100  1
  Sm  Sm7  1  0.27420300  0.18362500  0.81880100  1
  P  P8  1  0.40852800  0.88670700  0.75877000  1
  P  P9  1  0.09147200  0.88670700  0.25877000  1
  P  P10  1  0.59147200  0.11329300  0.24123000  1
  P  P11  1  0.90852800  0.11329300  0.74123000  1
  P  P12  1  0.03030000  0.53445400  0.71304400  1
  P  P13  1  0.46970000  0.53445400  0.21304400  1
  P  P14  1  0.96970000  0.46554600  0.28695600  1
  P  P15  1  0.53030000  0.46554600  0.78695600  1
  P  P16  1  0.17422600  0.82661300  0.63454000  1
  P  P17  1  0.32577400  0.82661300  0.13454000  1
  P  P18  1  0.82577400  0.17338700  0.36546000  1
  P  P19  1  0.67422600  0.17338700  0.86546000  1
  P  P20  1  0.89535500  0.70139500  0.47366300  1
  P  P21  1  0.60464500  0.70139500  0.97366300  1
  P  P22  1  0.10464500  0.29860500  0.52633700  1
  P  P23  1  0.39535500  0.29860500  0.02633700  1
  O  O24  1  0.09774900  0.38043000  0.79052800  1
  O  O25  1  0.40225100  0.38043000  0.29052800  1
  O  O26  1  0.90225100  0.61957000  0.20947200  1
  O  O27  1  0.59774900  0.61957000  0.70947200  1
  O  O28  1  0.29328000  0.78152600  0.74254100  1
  O  O29  1  0.20672000  0.78152600  0.24254100  1
  O  O30  1  0.70672000  0.21847400  0.25745900  1
  O  O31  1  0.79328000  0.21847400  0.75745900  1
  O  O32  1  0.16143500  0.66051700  0.65517900  1
  O  O33  1  0.33856500  0.66051700  0.15517900  1
  O  O34  1  0.83856500  0.33948300  0.34482100  1
  O  O35  1  0.66143500  0.33948300  0.84482100  1
  O  O36  1  0.96151900  0.54791400  0.59259700  1
  O  O37  1  0.53848100  0.54791400  0.09259700  1
  O  O38  1  0.03848100  0.45208600  0.40740300  1
  O  O39  1  0.46151900  0.45208600  0.90740300  1
  O  O40  1  0.45011700  0.76706100  0.90022600  1
  O  O41  1  0.04988300  0.76706100  0.40022600  1
  O  O42  1  0.54988300  0.23293900  0.09977400  1
  O  O43  1  0.95011700  0.23293900  0.59977400  1
  O  O44  1  0.91792300  0.57879000  0.77243700  1
  O  O45  1  0.58207700  0.57879000  0.27243700  1
  O  O46  1  0.08207700  0.42121000  0.22756300  1
  O  O47  1  0.41792300  0.42121000  0.72756300  1
  O  O48  1  0.79164300  0.66542500  0.40357300  1
  O  O49  1  0.70835700  0.66542500  0.90357300  1
  O  O50  1  0.20835700  0.33457500  0.59642700  1
  O  O51  1  0.29164300  0.33457500  0.09642700  1
  O  O52  1  0.53991700  0.92014700  0.67821900  1
  O  O53  1  0.96008300  0.92014700  0.17821900  1
  O  O54  1  0.46008300  0.07985300  0.32178100  1
  O  O55  1  0.03991700  0.07985300  0.82178100  1
  O  O56  1  0.32606200  0.01569200  0.74848400  1
  O  O57  1  0.17393800  0.01569200  0.24848400  1
  O  O58  1  0.67393800  0.98430800  0.25151600  1
  O  O59  1  0.82606200  0.98430800  0.75151600  1
  O  O60  1  0.83894000  0.79958400  0.51444600  1
  O  O61  1  0.66106000  0.79958400  0.01444600  1
  O  O62  1  0.16106000  0.20041600  0.48555400  1
  O  O63  1  0.33894000  0.20041600  0.98555400  1
  O  O64  1  0.24268200  0.92995500  0.51142600  1
  O  O65  1  0.25731800  0.92995500  0.01142600  1
  O  O66  1  0.75731800  0.07004500  0.48857400  1
  O  O67  1  0.74268200  0.07004500  0.98857400  1
  O  O68  1  0.03292700  0.86733000  0.66873600  1
  O  O69  1  0.46707300  0.86733000  0.16873600  1
  O  O70  1  0.96707300  0.13267000  0.33126400  1
  O  O71  1  0.53292700  0.13267000  0.83126400  1
