# generated using pymatgen
data_NaCaMn3Si5HO15
_symmetry_space_group_name_H-M   'P 1'
_cell_length_a   6.88200997
_cell_length_b   7.80432588
_cell_length_c   12.12800660
_cell_angle_alpha   110.93483247
_cell_angle_beta   84.50278834
_cell_angle_gamma   94.31812245
_symmetry_Int_Tables_number   1
_chemical_formula_structural   NaCaMn3Si5HO15
_chemical_formula_sum   'Na2 Ca2 Mn6 Si10 H2 O30'
_cell_volume   604.99958918
_cell_formula_units_Z   2
loop_
 _symmetry_equiv_pos_site_id
 _symmetry_equiv_pos_as_xyz
  1  'x, y, z'
loop_
 _atom_site_type_symbol
 _atom_site_label
 _atom_site_symmetry_multiplicity
 _atom_site_fract_x
 _atom_site_fract_y
 _atom_site_fract_z
 _atom_site_occupancy
  Na  Na0  1  0.36203700  0.52687700  0.86057900  1
  Na  Na1  1  0.63796300  0.47312300  0.13942100  1
  Ca  Ca2  1  0.28136100  0.70645000  0.47497700  1
  Ca  Ca3  1  0.71863900  0.29355000  0.52502300  1
  Mn  Mn4  1  0.13361100  0.86414700  0.05640600  1
  Mn  Mn5  1  0.86638900  0.13585300  0.94359400  1
  Mn  Mn6  1  0.06302500  0.93962800  0.34861100  1
  Mn  Mn7  1  0.93697500  0.06037200  0.65138900  1
  Mn  Mn8  1  0.17092100  0.81019400  0.76634200  1
  Mn  Mn9  1  0.82907900  0.18980600  0.23365800  1
  Si  Si10  1  0.35647200  0.20690000  0.94561700  1
  Si  Si11  1  0.64352800  0.79310000  0.05438300  1
  Si  Si12  1  0.42287700  0.12961700  0.67343100  1
  Si  Si13  1  0.57712300  0.87038300  0.32656900  1
  Si  Si14  1  0.21470800  0.35556400  0.55145400  1
  Si  Si15  1  0.78529200  0.64443600  0.44854600  1
  Si  Si16  1  0.29902500  0.27381800  0.27856400  1
  Si  Si17  1  0.70097500  0.72618200  0.72143600  1
  Si  Si18  1  0.11979600  0.48795200  0.14637300  1
  Si  Si19  1  0.88020400  0.51204800  0.85362700  1
  H  H20  1  0.47785000  0.81953800  0.89142500  1
  H  H21  1  0.52215000  0.18046200  0.10857500  1
  O  O22  1  0.55586800  0.17871600  0.99875100  1
  O  O23  1  0.44413200  0.82128400  0.00124900  1
  O  O24  1  0.17869200  0.05306800  0.93655900  1
  O  O25  1  0.82130800  0.94693200  0.06344100  1
  O  O26  1  0.41824900  0.23291700  0.81797700  1
  O  O27  1  0.58175100  0.76708300  0.18202300  1
  O  O28  1  0.24917300  0.97039100  0.64703800  1
  O  O29  1  0.75082700  0.02960900  0.35296200  1
  O  O30  1  0.35893700  0.92425100  0.38322600  1
  O  O31  1  0.64106300  0.07574900  0.61677400  1
  O  O32  1  0.37802600  0.30206400  0.62604800  1
  O  O33  1  0.62197400  0.69793600  0.37395200  1
  O  O34  1  0.16723500  0.56970000  0.61129800  1
  O  O35  1  0.83276500  0.43030000  0.38870300  1
  O  O36  1  0.03279500  0.20592300  0.52997500  1
  O  O37  1  0.96720500  0.79407700  0.47002500  1
  O  O38  1  0.33535900  0.34561000  0.42117200  1
  O  O39  1  0.66464100  0.65439000  0.57882800  1
  O  O40  1  0.13416500  0.10766000  0.23657100  1
  O  O41  1  0.86583500  0.89234000  0.76342900  1
  O  O42  1  0.48615900  0.78279100  0.79237600  1
  O  O43  1  0.51384100  0.21720900  0.20762400  1
  O  O44  1  0.23533000  0.46272100  0.25778200  1
  O  O45  1  0.76467000  0.53727900  0.74221800  1
  O  O46  1  0.07665000  0.70233300  0.17688500  1
  O  O47  1  0.92335000  0.29766700  0.82311500  1
  O  O48  1  0.06990400  0.65493000  0.88059300  1
  O  O49  1  0.93009600  0.34507000  0.11940700  1
  O  O50  1  0.28222600  0.41609400  0.02964800  1
  O  O51  1  0.71777400  0.58390600  0.97035200  1
