# generated using pymatgen
data_Rb3Bi2I9
_symmetry_space_group_name_H-M   'P 1'
_cell_length_a   8.85491600
_cell_length_b   14.95499900
_cell_length_c   20.75444929
_cell_angle_alpha   86.66206212
_cell_angle_beta   90.00000000
_cell_angle_gamma   90.00000000
_symmetry_Int_Tables_number   1
_chemical_formula_structural   Rb3Bi2I9
_chemical_formula_sum   'Rb12 Bi8 I36'
_cell_volume   2743.75061002
_cell_formula_units_Z   4
loop_
 _symmetry_equiv_pos_site_id
 _symmetry_equiv_pos_as_xyz
  1  'x, y, z'
loop_
 _atom_site_type_symbol
 _atom_site_label
 _atom_site_symmetry_multiplicity
 _atom_site_fract_x
 _atom_site_fract_y
 _atom_site_fract_z
 _atom_site_occupancy
  Rb  Rb0  1  0.57224300  0.50460200  0.73839500  1
  Rb  Rb1  1  0.07224300  0.99539800  0.26160500  1
  Rb  Rb2  1  0.42775700  0.49539800  0.26160500  1
  Rb  Rb3  1  0.92775700  0.00460200  0.73839500  1
  Rb  Rb4  1  0.56504000  0.17746700  0.07865300  1
  Rb  Rb5  1  0.06504000  0.32253300  0.92134700  1
  Rb  Rb6  1  0.43496000  0.82253300  0.92134700  1
  Rb  Rb7  1  0.93496000  0.67746700  0.07865300  1
  Rb  Rb8  1  0.42604700  0.16031900  0.58388900  1
  Rb  Rb9  1  0.92604700  0.33968100  0.41611100  1
  Rb  Rb10  1  0.57395300  0.83968100  0.41611100  1
  Rb  Rb11  1  0.07395300  0.66031900  0.58388900  1
  Bi  Bi12  1  0.50658300  0.16352300  0.34057100  1
  Bi  Bi13  1  0.00658300  0.33647700  0.65942900  1
  Bi  Bi14  1  0.49341700  0.83647700  0.65942900  1
  Bi  Bi15  1  0.99341700  0.66352300  0.34057100  1
  Bi  Bi16  1  0.50503900  0.16913200  0.84050000  1
  Bi  Bi17  1  0.00503900  0.33086800  0.15950000  1
  Bi  Bi18  1  0.49496100  0.83086800  0.15950000  1
  Bi  Bi19  1  0.99496100  0.66913200  0.84050000  1
  I  I20  1  0.99039200  0.47800000  0.77037900  1
  I  I21  1  0.49039200  0.02200000  0.22962100  1
  I  I22  1  0.00960800  0.52200000  0.22962100  1
  I  I23  1  0.50960800  0.97800000  0.77037900  1
  I  I24  1  0.99192200  0.15740100  0.09740400  1
  I  I25  1  0.49192200  0.34259900  0.90259600  1
  I  I26  1  0.00807800  0.84259900  0.90259600  1
  I  I27  1  0.50807800  0.65740100  0.09740400  1
  I  I28  1  0.00728800  0.18832600  0.56827800  1
  I  I29  1  0.50728800  0.31167400  0.43172200  1
  I  I30  1  0.99271200  0.81167400  0.43172200  1
  I  I31  1  0.49271200  0.68832600  0.56827800  1
  I  I32  1  0.82137700  0.42025400  0.05356200  1
  I  I33  1  0.32137700  0.07974600  0.94643800  1
  I  I34  1  0.17862300  0.57974600  0.94643800  1
  I  I35  1  0.67862300  0.92025400  0.05356200  1
  I  I36  1  0.81906500  0.45885400  0.57267900  1
  I  I37  1  0.31906500  0.04114600  0.42732100  1
  I  I38  1  0.18093500  0.54114600  0.42732100  1
  I  I39  1  0.68093500  0.95885400  0.57267900  1
  I  I40  1  0.79800400  0.08539500  0.38881600  1
  I  I41  1  0.29800400  0.41460500  0.61118400  1
  I  I42  1  0.20199600  0.91460500  0.61118400  1
  I  I43  1  0.70199600  0.58539500  0.38881600  1
  I  I44  1  0.80063200  0.11849200  0.89950100  1
  I  I45  1  0.30063200  0.38150800  0.10049900  1
  I  I46  1  0.19936800  0.88150800  0.10049900  1
  I  I47  1  0.69936800  0.61849200  0.89950100  1
  I  I48  1  0.82373500  0.75787800  0.71219800  1
  I  I49  1  0.32373500  0.74212200  0.28780200  1
  I  I50  1  0.17626500  0.24212200  0.28780200  1
  I  I51  1  0.67626500  0.25787800  0.71219800  1
  I  I52  1  0.82175600  0.79689200  0.23511100  1
  I  I53  1  0.32175600  0.70310800  0.76488900  1
  I  I54  1  0.17824400  0.20310800  0.76488900  1
  I  I55  1  0.67824400  0.29689200  0.23511100  1
