# generated using pymatgen
data_K2Na2H16XeO14
_symmetry_space_group_name_H-M   'P 1'
_cell_length_a   8.32919977
_cell_length_b   8.32919977
_cell_length_c   10.95049393
_cell_angle_alpha   102.13937413
_cell_angle_beta   102.13937413
_cell_angle_gamma   97.76651944
_symmetry_Int_Tables_number   1
_chemical_formula_structural   K2Na2H16XeO14
_chemical_formula_sum   'K4 Na4 H32 Xe2 O28'
_cell_volume   713.20187373
_cell_formula_units_Z   2
loop_
 _symmetry_equiv_pos_site_id
 _symmetry_equiv_pos_as_xyz
  1  'x, y, z'
loop_
 _atom_site_type_symbol
 _atom_site_label
 _atom_site_symmetry_multiplicity
 _atom_site_fract_x
 _atom_site_fract_y
 _atom_site_fract_z
 _atom_site_occupancy
  K  K0  1  0.23114200  0.03424700  0.47796700  1
  K  K1  1  0.96575300  0.76885800  0.02203300  1
  K  K2  1  0.76885800  0.96575300  0.52203300  1
  K  K3  1  0.03424700  0.23114200  0.97796700  1
  Na  Na4  1  0.15006200  0.84993800  0.75000000  1
  Na  Na5  1  0.84993800  0.15006200  0.25000000  1
  Na  Na6  1  0.59083800  0.40916200  0.25000000  1
  Na  Na7  1  0.40916200  0.59083800  0.75000000  1
  H  H8  1  0.06707100  0.69325300  0.44701300  1
  H  H9  1  0.30674700  0.93292900  0.05298700  1
  H  H10  1  0.93292900  0.30674700  0.55298700  1
  H  H11  1  0.69325300  0.06707100  0.94701300  1
  H  H12  1  0.90974200  0.66770000  0.50444100  1
  H  H13  1  0.33230000  0.09025800  0.99555900  1
  H  H14  1  0.09025800  0.33230000  0.49555900  1
  H  H15  1  0.66770000  0.90974200  0.00444100  1
  H  H16  1  0.40503300  0.80500600  0.58790200  1
  H  H17  1  0.19499400  0.59496700  0.91209800  1
  H  H18  1  0.59496700  0.19499400  0.41209800  1
  H  H19  1  0.80500600  0.40503300  0.08790200  1
  H  H20  1  0.49938800  0.94131300  0.71800600  1
  H  H21  1  0.05868700  0.50061200  0.78199400  1
  H  H22  1  0.50061200  0.05868700  0.28199400  1
  H  H23  1  0.94131300  0.49938800  0.21800600  1
  H  H24  1  0.93158800  0.80051000  0.28170700  1
  H  H25  1  0.19949000  0.06841200  0.21829300  1
  H  H26  1  0.06841200  0.19949000  0.71829300  1
  H  H27  1  0.80051000  0.93158800  0.78170700  1
  H  H28  1  0.73349800  0.79968300  0.25425900  1
  H  H29  1  0.20031700  0.26650200  0.24574100  1
  H  H30  1  0.26650200  0.20031700  0.74574100  1
  H  H31  1  0.79968300  0.73349800  0.75425900  1
  H  H32  1  0.59397500  0.63944500  0.45892200  1
  H  H33  1  0.36055500  0.40602500  0.04107800  1
  H  H34  1  0.40602500  0.36055500  0.54107800  1
  H  H35  1  0.63944500  0.59397500  0.95892200  1
  H  H36  1  0.68481200  0.54656300  0.55731700  1
  H  H37  1  0.45343700  0.31518800  0.94268300  1
  H  H38  1  0.31518800  0.45343700  0.44268300  1
  H  H39  1  0.54656300  0.68481200  0.05731700  1
  Xe  Xe40  1  0.32059900  0.67940100  0.25000000  1
  Xe  Xe41  1  0.67940100  0.32059900  0.75000000  1
  O  O42  1  0.31636000  0.90448900  0.21163700  1
  O  O43  1  0.09551100  0.68364000  0.28836300  1
  O  O44  1  0.68364000  0.09551100  0.78836300  1
  O  O45  1  0.90448900  0.31636000  0.71163700  1
  O  O46  1  0.32390800  0.45963000  0.29111500  1
  O  O47  1  0.54037000  0.67609200  0.20888500  1
  O  O48  1  0.67609200  0.54037000  0.70888500  1
  O  O49  1  0.45963000  0.32390800  0.79111500  1
  O  O50  1  0.43539400  0.78863000  0.43209500  1
  O  O51  1  0.21137000  0.56460600  0.06790500  1
  O  O52  1  0.56460600  0.21137000  0.56790500  1
  O  O53  1  0.78863000  0.43539400  0.93209500  1
  O  O54  1  0.02535100  0.73149000  0.52492000  1
  O  O55  1  0.26851000  0.97464900  0.97508000  1
  O  O56  1  0.97464900  0.26851000  0.47508000  1
  O  O57  1  0.73149000  0.02535100  0.02492000  1
  O  O58  1  0.40595200  0.84267400  0.68062200  1
  O  O59  1  0.15732600  0.59404800  0.81937800  1
  O  O60  1  0.59404800  0.15732600  0.31937800  1
  O  O61  1  0.84267400  0.40595200  0.18062200  1
  O  O62  1  0.84597500  0.87271000  0.27586800  1
  O  O63  1  0.12729000  0.15402500  0.22413200  1
  O  O64  1  0.15402500  0.12729000  0.72413200  1
  O  O65  1  0.87271000  0.84597500  0.77586800  1
  O  O66  1  0.69041400  0.58221300  0.47596400  1
  O  O67  1  0.41778700  0.30958600  0.02403600  1
  O  O68  1  0.30958600  0.41778700  0.52403600  1
  O  O69  1  0.58221300  0.69041400  0.97596400  1
