# generated using pymatgen
data_Na2SrV2CoO8
_symmetry_space_group_name_H-M   'P 1'
_cell_length_a   5.57985000
_cell_length_b   9.70002200
_cell_length_c   13.85622375
_cell_angle_alpha   89.90828519
_cell_angle_beta   90.00000000
_cell_angle_gamma   90.00000000
_symmetry_Int_Tables_number   1
_chemical_formula_structural   Na2SrV2CoO8
_chemical_formula_sum   'Na8 Sr4 V8 Co4 O32'
_cell_volume   749.96254612
_cell_formula_units_Z   4
loop_
 _symmetry_equiv_pos_site_id
 _symmetry_equiv_pos_as_xyz
  1  'x, y, z'
loop_
 _atom_site_type_symbol
 _atom_site_label
 _atom_site_symmetry_multiplicity
 _atom_site_fract_x
 _atom_site_fract_y
 _atom_site_fract_z
 _atom_site_occupancy
  Na  Na0  1  0.48083300  0.81918300  0.91659200  1
  Na  Na1  1  0.98083300  0.68081700  0.08340800  1
  Na  Na2  1  0.51916700  0.18081700  0.08340800  1
  Na  Na3  1  0.01916700  0.31918300  0.91659200  1
  Na  Na4  1  0.51942200  0.15024100  0.58353800  1
  Na  Na5  1  0.01942200  0.34975900  0.41646200  1
  Na  Na6  1  0.48057800  0.84975900  0.41646200  1
  Na  Na7  1  0.98057800  0.65024100  0.58353800  1
  Sr  Sr8  1  0.55444300  0.46188200  0.75046300  1
  Sr  Sr9  1  0.05444300  0.03811800  0.24953700  1
  Sr  Sr10  1  0.44555700  0.53811800  0.24953700  1
  Sr  Sr11  1  0.94555700  0.96188200  0.75046300  1
  V  V12  1  0.46854900  0.81711100  0.63494900  1
  V  V13  1  0.96854900  0.68288900  0.36505100  1
  V  V14  1  0.53145100  0.18288900  0.36505100  1
  V  V15  1  0.03145100  0.31711100  0.63494900  1
  V  V16  1  0.48254500  0.15031000  0.86533200  1
  V  V17  1  0.98254500  0.34969000  0.13466800  1
  V  V18  1  0.51745500  0.84969000  0.13466800  1
  V  V19  1  0.01745500  0.65031000  0.86533200  1
  Co  Co20  1  0.50000000  0.50000000  0.50000000  1
  Co  Co21  1  0.00000000  0.00000000  0.50000000  1
  Co  Co22  1  0.50000000  0.50000000  0.00000000  1
  Co  Co23  1  0.00000000  0.00000000  0.00000000  1
  O  O24  1  0.49373600  0.63779100  0.61511700  1
  O  O25  1  0.99373600  0.86220900  0.38488300  1
  O  O26  1  0.50626400  0.36220900  0.38488300  1
  O  O27  1  0.00626400  0.13779100  0.61511700  1
  O  O28  1  0.69675600  0.90591200  0.57652500  1
  O  O29  1  0.19675600  0.59408800  0.42347500  1
  O  O30  1  0.30324400  0.09408800  0.42347500  1
  O  O31  1  0.80324400  0.40591200  0.57652500  1
  O  O32  1  0.19409500  0.08055000  0.88287200  1
  O  O33  1  0.69409500  0.41945000  0.11712800  1
  O  O34  1  0.80590500  0.91945000  0.11712800  1
  O  O35  1  0.30590500  0.58055000  0.88287200  1
  O  O36  1  0.70031800  0.04130400  0.91597100  1
  O  O37  1  0.20031800  0.45869600  0.08402900  1
  O  O38  1  0.29968200  0.95869600  0.08402900  1
  O  O39  1  0.79968200  0.54130400  0.91597100  1
  O  O40  1  0.49269000  0.30788700  0.92502500  1
  O  O41  1  0.99269000  0.19211300  0.07497500  1
  O  O42  1  0.50731000  0.69211300  0.07497500  1
  O  O43  1  0.00731000  0.80788700  0.92502500  1
  O  O44  1  0.19576900  0.87291100  0.58561300  1
  O  O45  1  0.69576900  0.62708900  0.41438700  1
  O  O46  1  0.80423100  0.12708900  0.41438700  1
  O  O47  1  0.30423100  0.37291100  0.58561300  1
  O  O48  1  0.47843200  0.85986200  0.75447400  1
  O  O49  1  0.97843200  0.64013800  0.24552600  1
  O  O50  1  0.52156800  0.14013800  0.24552600  1
  O  O51  1  0.02156800  0.35986200  0.75447400  1
  O  O52  1  0.55189900  0.18287000  0.74698800  1
  O  O53  1  0.05189900  0.31713000  0.25301200  1
  O  O54  1  0.44810100  0.81713000  0.25301200  1
  O  O55  1  0.94810100  0.68287000  0.74698800  1
