# generated using pymatgen
data_Ca2Co2O5
_symmetry_space_group_name_H-M   'P 1'
_cell_length_a   15.10223900
_cell_length_b   5.33269200
_cell_length_c   11.12037042
_cell_angle_alpha   89.59601303
_cell_angle_beta   90.00000000
_cell_angle_gamma   90.00000000
_symmetry_Int_Tables_number   1
_chemical_formula_structural   Ca2Co2O5
_chemical_formula_sum   'Ca16 Co16 O40'
_cell_volume   895.56332111
_cell_formula_units_Z   8
loop_
 _symmetry_equiv_pos_site_id
 _symmetry_equiv_pos_as_xyz
  1  'x, y, z'
loop_
 _atom_site_type_symbol
 _atom_site_label
 _atom_site_symmetry_multiplicity
 _atom_site_fract_x
 _atom_site_fract_y
 _atom_site_fract_z
 _atom_site_occupancy
  Ca  Ca0  1  0.38970100  0.02076800  0.26026800  1
  Ca  Ca1  1  0.88970100  0.97923200  0.73973200  1
  Ca  Ca2  1  0.61029900  0.97923200  0.73973200  1
  Ca  Ca3  1  0.11029900  0.02076800  0.26026800  1
  Ca  Ca4  1  0.89043500  0.02031700  0.23763600  1
  Ca  Ca5  1  0.39043500  0.97968300  0.76236400  1
  Ca  Ca6  1  0.10956500  0.97968300  0.76236400  1
  Ca  Ca7  1  0.60956500  0.02031700  0.23763600  1
  Ca  Ca8  1  0.89060700  0.48854400  0.01057400  1
  Ca  Ca9  1  0.39060700  0.51145600  0.98942600  1
  Ca  Ca10  1  0.10939300  0.51145600  0.98942600  1
  Ca  Ca11  1  0.60939300  0.48854400  0.01057400  1
  Ca  Ca12  1  0.38972500  0.48824400  0.48899800  1
  Ca  Ca13  1  0.88972500  0.51175600  0.51100200  1
  Ca  Ca14  1  0.61027500  0.51175600  0.51100200  1
  Ca  Ca15  1  0.11027500  0.48824400  0.48899800  1
  Co  Co16  1  0.25000000  0.44698700  0.71967700  1
  Co  Co17  1  0.75000000  0.55301300  0.28032300  1
  Co  Co18  1  0.25000000  0.55243000  0.21879000  1
  Co  Co19  1  0.75000000  0.44757000  0.78121000  1
  Co  Co20  1  0.25000000  0.04379800  0.02892700  1
  Co  Co21  1  0.75000000  0.95620200  0.97107300  1
  Co  Co22  1  0.25000000  0.95563600  0.53023100  1
  Co  Co23  1  0.75000000  0.04436400  0.46976900  1
  Co  Co24  1  0.50000000  0.00000000  0.50000000  1
  Co  Co25  1  0.00000000  0.00000000  0.50000000  1
  Co  Co26  1  0.50000000  0.00000000  0.00000000  1
  Co  Co27  1  0.00000000  0.00000000  0.00000000  1
  Co  Co28  1  0.49972600  0.50872100  0.24895800  1
  Co  Co29  1  0.99972600  0.49127900  0.75104200  1
  Co  Co30  1  0.50027400  0.49127900  0.75104200  1
  Co  Co31  1  0.00027400  0.50872100  0.24895800  1
  O  O32  1  0.25000000  0.08266800  0.69345500  1
  O  O33  1  0.75000000  0.91733200  0.30654500  1
  O  O34  1  0.25000000  0.91627000  0.19337900  1
  O  O35  1  0.75000000  0.08373000  0.80662100  1
  O  O36  1  0.25000000  0.59003900  0.55816400  1
  O  O37  1  0.75000000  0.40996100  0.44183600  1
  O  O38  1  0.25000000  0.41058200  0.05829400  1
  O  O39  1  0.75000000  0.58941800  0.94170600  1
  O  O40  1  0.35834800  0.02588500  0.46750700  1
  O  O41  1  0.85834800  0.97411500  0.53249300  1
  O  O42  1  0.64165200  0.97411500  0.53249300  1
  O  O43  1  0.14165200  0.02588500  0.46750700  1
  O  O44  1  0.85783500  0.02550800  0.03241300  1
  O  O45  1  0.35783500  0.97449200  0.96758700  1
  O  O46  1  0.14216500  0.97449200  0.96758700  1
  O  O47  1  0.64216500  0.02550800  0.03241300  1
  O  O48  1  0.85910500  0.49234300  0.21764500  1
  O  O49  1  0.35910500  0.50765700  0.78235500  1
  O  O50  1  0.14089500  0.50765700  0.78235500  1
  O  O51  1  0.64089500  0.49234300  0.21764500  1
  O  O52  1  0.35907500  0.49238200  0.28274200  1
  O  O53  1  0.85907500  0.50761800  0.71725800  1
  O  O54  1  0.64092500  0.50761800  0.71725800  1
  O  O55  1  0.14092500  0.49238200  0.28274200  1
  O  O56  1  0.49015600  0.23006300  0.62149600  1
  O  O57  1  0.99015600  0.76993700  0.37850400  1
  O  O58  1  0.50984400  0.76993700  0.37850400  1
  O  O59  1  0.00984400  0.23006300  0.62149600  1
  O  O60  1  0.48974200  0.75390300  0.13274800  1
  O  O61  1  0.98974200  0.24609700  0.86725200  1
  O  O62  1  0.51025800  0.24609700  0.86725200  1
  O  O63  1  0.01025800  0.75390300  0.13274800  1
  O  O64  1  0.98519000  0.27202400  0.37188200  1
  O  O65  1  0.48519000  0.72797600  0.62811800  1
  O  O66  1  0.01481000  0.72797600  0.62811800  1
  O  O67  1  0.51481000  0.27202400  0.37188200  1
  O  O68  1  0.48420100  0.25437700  0.12069900  1
  O  O69  1  0.98420100  0.74562300  0.87930100  1
  O  O70  1  0.51579900  0.74562300  0.87930100  1
  O  O71  1  0.01579900  0.25437700  0.12069900  1
