# generated using pymatgen
data_MnPb2WO6
_symmetry_space_group_name_H-M   'P 1'
_cell_length_a   5.90713800
_cell_length_b   8.17556300
_cell_length_c   11.84830700
_cell_angle_alpha   90.00000000
_cell_angle_beta   90.00000000
_cell_angle_gamma   90.00000000
_symmetry_Int_Tables_number   1
_chemical_formula_structural   MnPb2WO6
_chemical_formula_sum   'Mn4 Pb8 W4 O24'
_cell_volume   572.20425755
_cell_formula_units_Z   4
loop_
 _symmetry_equiv_pos_site_id
 _symmetry_equiv_pos_as_xyz
  1  'x, y, z'
loop_
 _atom_site_type_symbol
 _atom_site_label
 _atom_site_symmetry_multiplicity
 _atom_site_fract_x
 _atom_site_fract_y
 _atom_site_fract_z
 _atom_site_occupancy
  Mn  Mn0  1  0.25910100  0.12039600  0.11767900  1
  Mn  Mn1  1  0.74089900  0.62039600  0.88232100  1
  Mn  Mn2  1  0.75910100  0.62039600  0.38232100  1
  Mn  Mn3  1  0.24089900  0.12039600  0.61767900  1
  Pb  Pb4  1  0.79256700  0.37689900  0.14826500  1
  Pb  Pb5  1  0.20743300  0.87689900  0.85173500  1
  Pb  Pb6  1  0.29256700  0.87689900  0.35173500  1
  Pb  Pb7  1  0.70743300  0.37689900  0.64826500  1
  Pb  Pb8  1  0.79651600  0.86541000  0.14502800  1
  Pb  Pb9  1  0.20348400  0.36541000  0.85497200  1
  Pb  Pb10  1  0.29651600  0.36541000  0.35497200  1
  Pb  Pb11  1  0.70348400  0.86541000  0.64502800  1
  W  W12  1  0.25106000  0.61809200  0.11831600  1
  W  W13  1  0.74894000  0.11809200  0.88168400  1
  W  W14  1  0.75106000  0.11809200  0.38168400  1
  W  W15  1  0.24894000  0.61809200  0.61831600  1
  O  O16  1  0.96607700  0.62405300  0.23049600  1
  O  O17  1  0.03392300  0.12405300  0.76950400  1
  O  O18  1  0.46607700  0.12405300  0.26950400  1
  O  O19  1  0.53392300  0.62405300  0.73049600  1
  O  O20  1  0.44528900  0.61245800  0.25369500  1
  O  O21  1  0.55471100  0.11245800  0.74630500  1
  O  O22  1  0.94528900  0.11245800  0.24630500  1
  O  O23  1  0.05471100  0.61245800  0.75369500  1
  O  O24  1  0.49158500  0.61272000  0.01737100  1
  O  O25  1  0.50841500  0.11272000  0.98262900  1
  O  O26  1  0.99158500  0.11272000  0.48262900  1
  O  O27  1  0.00841500  0.61272000  0.51737100  1
  O  O28  1  0.23073700  0.85655000  0.13884700  1
  O  O29  1  0.76926300  0.35655000  0.86115300  1
  O  O30  1  0.73073700  0.35655000  0.36115300  1
  O  O31  1  0.26926300  0.85655000  0.63884700  1
  O  O32  1  0.21069200  0.38140800  0.13910100  1
  O  O33  1  0.78930800  0.88140800  0.86089900  1
  O  O34  1  0.71069200  0.88140800  0.36089900  1
  O  O35  1  0.28930800  0.38140800  0.63910100  1
  O  O36  1  0.02176100  0.62251400  0.00308200  1
  O  O37  1  0.97823900  0.12251400  0.99691800  1
  O  O38  1  0.52176100  0.12251400  0.49691800  1
  O  O39  1  0.47823900  0.62251400  0.50308200  1
