# generated using pymatgen
data_Mn(H15N8)2
_symmetry_space_group_name_H-M   'P 1'
_cell_length_a   6.91445300
_cell_length_b   12.23399400
_cell_length_c   10.95777530
_cell_angle_alpha   90.00000000
_cell_angle_beta   95.28438230
_cell_angle_gamma   90.00000000
_symmetry_Int_Tables_number   1
_chemical_formula_structural   Mn(H15N8)2
_chemical_formula_sum   'Mn2 H60 N32'
_cell_volume   922.99368121
_cell_formula_units_Z   2
loop_
 _symmetry_equiv_pos_site_id
 _symmetry_equiv_pos_as_xyz
  1  'x, y, z'
loop_
 _atom_site_type_symbol
 _atom_site_label
 _atom_site_symmetry_multiplicity
 _atom_site_fract_x
 _atom_site_fract_y
 _atom_site_fract_z
 _atom_site_occupancy
  Mn  Mn0  1  0.50000000  0.00000000  0.50000000  1
  Mn  Mn1  1  0.50000000  0.50000000  0.00000000  1
  H  H2  1  0.48373300  0.85866400  0.28911500  1
  H  H3  1  0.51626700  0.35866400  0.21088500  1
  H  H4  1  0.51626700  0.14133600  0.71088500  1
  H  H5  1  0.48373300  0.64133600  0.78911500  1
  H  H6  1  0.25967200  0.89599500  0.31215900  1
  H  H7  1  0.74032800  0.39599500  0.18784100  1
  H  H8  1  0.74032800  0.10400500  0.68784100  1
  H  H9  1  0.25967200  0.60400500  0.81215900  1
  H  H10  1  0.36688500  0.79868200  0.39708000  1
  H  H11  1  0.63311500  0.29868200  0.10292000  1
  H  H12  1  0.63311500  0.20131800  0.60292000  1
  H  H13  1  0.36688500  0.70131800  0.89708000  1
  H  H14  1  0.33977000  0.81862900  0.60893300  1
  H  H15  1  0.66023000  0.31862900  0.89106700  1
  H  H16  1  0.66023000  0.18137100  0.39106700  1
  H  H17  1  0.33977000  0.68137100  0.10893300  1
  H  H18  1  0.25383200  0.92740500  0.67592400  1
  H  H19  1  0.74616800  0.42740500  0.82407600  1
  H  H20  1  0.74616800  0.07259500  0.32407600  1
  H  H21  1  0.25383200  0.57259500  0.17592400  1
  H  H22  1  0.47881200  0.88482100  0.71843300  1
  H  H23  1  0.52118800  0.38482100  0.78156700  1
  H  H24  1  0.52118800  0.11517900  0.28156700  1
  H  H25  1  0.47881200  0.61517900  0.21843300  1
  H  H26  1  0.86177100  0.90118700  0.45520600  1
  H  H27  1  0.13822900  0.40118700  0.04479400  1
  H  H28  1  0.13822900  0.09881300  0.54479400  1
  H  H29  1  0.86177100  0.59881300  0.95520600  1
  H  H30  1  0.88072200  0.94311700  0.59866300  1
  H  H31  1  0.11927800  0.44311700  0.90133700  1
  H  H32  1  0.11927800  0.05688300  0.40133700  1
  H  H33  1  0.88072200  0.55688300  0.09866300  1
  H  H34  1  0.77288300  0.82565700  0.56286400  1
  H  H35  1  0.22711700  0.32565700  0.93713600  1
  H  H36  1  0.22711700  0.17434300  0.43713600  1
  H  H37  1  0.77288300  0.67434300  0.06286400  1
  H  H38  1  0.82251900  0.92640400  0.82784400  1
  H  H39  1  0.17748100  0.42640400  0.67215600  1
  H  H40  1  0.17748100  0.07359600  0.17215600  1
  H  H41  1  0.82251900  0.57359600  0.32784400  1
  H  H42  1  0.75656000  0.79798400  0.80941200  1
  H  H43  1  0.24344000  0.29798400  0.69058800  1
  H  H44  1  0.24344000  0.20201600  0.19058800  1
  H  H45  1  0.75656000  0.70201600  0.30941200  1
  H  H46  1  0.71719800  0.86305600  0.93722300  1
  H  H47  1  0.28280200  0.36305600  0.56277700  1
  H  H48  1  0.28280200  0.13694400  0.06277700  1
  H  H49  1  0.71719800  0.63694400  0.43722300  1
  H  H50  1  0.21651700  0.88560500  0.92666000  1
  H  H51  1  0.78348300  0.38560500  0.57334000  1
  H  H52  1  0.78348300  0.11439500  0.07334000  1
  H  H53  1  0.21651700  0.61439500  0.42666000  1
  H  H54  1  0.16856100  0.86672800  0.06808200  1
  H  H55  1  0.83143900  0.36672800  0.43191800  1
  H  H56  1  0.83143900  0.13327200  0.93191800  1
  H  H57  1  0.16856100  0.63327200  0.56808200  1
  H  H58  1  0.39427800  0.88278900  0.03708800  1
  H  H59  1  0.60572200  0.38278900  0.46291200  1
  H  H60  1  0.60572200  0.11721100  0.96291200  1
  H  H61  1  0.39427800  0.61721100  0.53708800  1
  N  N62  1  0.72691400  0.84267800  0.15109000  1
  N  N63  1  0.27308600  0.34267800  0.34891000  1
  N  N64  1  0.27308600  0.15732200  0.84891000  1
  N  N65  1  0.72691400  0.65732200  0.65109000  1
  N  N66  1  0.84778700  0.89911100  0.20285200  1
  N  N67  1  0.15221300  0.39911100  0.29714800  1
  N  N68  1  0.15221300  0.10088900  0.79714800  1
  N  N69  1  0.84778700  0.60088900  0.70285200  1
  N  N70  1  0.96782500  0.95605100  0.25574300  1
  N  N71  1  0.03217500  0.45605100  0.24425700  1
  N  N72  1  0.03217500  0.04394900  0.74425700  1
  N  N73  1  0.96782500  0.54394900  0.75574300  1
  N  N74  1  0.39121100  0.87224300  0.35559800  1
  N  N75  1  0.60878900  0.37224300  0.14440200  1
  N  N76  1  0.60878900  0.12775700  0.64440200  1
  N  N77  1  0.39121100  0.62775700  0.85559800  1
  N  N78  1  0.37606700  0.89447100  0.64407700  1
  N  N79  1  0.62393300  0.39447100  0.85592300  1
  N  N80  1  0.62393300  0.10552900  0.35592300  1
  N  N81  1  0.37606700  0.60552900  0.14407700  1
  N  N82  1  0.79003100  0.90438800  0.53296300  1
  N  N83  1  0.20996900  0.40438800  0.96703700  1
  N  N84  1  0.20996900  0.09561200  0.46703700  1
  N  N85  1  0.79003100  0.59561200  0.03296300  1
  N  N86  1  0.71588800  0.87136500  0.84402600  1
  N  N87  1  0.28411200  0.37136500  0.65597400  1
  N  N88  1  0.28411200  0.12863500  0.15597400  1
  N  N89  1  0.71588800  0.62863500  0.34402600  1
  N  N90  1  0.26514400  0.84692700  0.00634300  1
  N  N91  1  0.73485600  0.34692700  0.49365700  1
  N  N92  1  0.73485600  0.15307300  0.99365700  1
  N  N93  1  0.26514400  0.65307300  0.50634300  1
