# generated using pymatgen
data_BaTe3O7
_symmetry_space_group_name_H-M   'P 1'
_cell_length_a   5.36352000
_cell_length_b   10.46983000
_cell_length_c   15.89084601
_cell_angle_alpha   59.21254719
_cell_angle_beta   90.00000000
_cell_angle_gamma   90.00000000
_symmetry_Int_Tables_number   1
_chemical_formula_structural   BaTe3O7
_chemical_formula_sum   'Ba4 Te12 O28'
_cell_volume   766.59524676
_cell_formula_units_Z   4
loop_
 _symmetry_equiv_pos_site_id
 _symmetry_equiv_pos_as_xyz
  1  'x, y, z'
loop_
 _atom_site_type_symbol
 _atom_site_label
 _atom_site_symmetry_multiplicity
 _atom_site_fract_x
 _atom_site_fract_y
 _atom_site_fract_z
 _atom_site_occupancy
  Ba  Ba0  1  0.73994400  0.41906200  0.39596800  1
  Ba  Ba1  1  0.76005600  0.41906200  0.89596800  1
  Ba  Ba2  1  0.26005600  0.58093800  0.60403200  1
  Ba  Ba3  1  0.23994400  0.58093800  0.10403200  1
  Te  Te4  1  0.22496100  0.73576800  0.29212200  1
  Te  Te5  1  0.27503900  0.73576800  0.79212200  1
  Te  Te6  1  0.77503900  0.26423200  0.70787800  1
  Te  Te7  1  0.72496100  0.26423200  0.20787800  1
  Te  Te8  1  0.73725300  0.81144700  0.39358400  1
  Te  Te9  1  0.76274700  0.81144700  0.89358400  1
  Te  Te10  1  0.26274700  0.18855300  0.60641600  1
  Te  Te11  1  0.23725300  0.18855300  0.10641600  1
  Te  Te12  1  0.30852400  0.07563100  0.40729300  1
  Te  Te13  1  0.19147600  0.07563100  0.90729300  1
  Te  Te14  1  0.69147600  0.92436900  0.59270700  1
  Te  Te15  1  0.80852400  0.92436900  0.09270700  1
  O  O16  1  0.28085500  0.56408300  0.28791200  1
  O  O17  1  0.21914500  0.56408300  0.78791200  1
  O  O18  1  0.71914500  0.43591700  0.71208800  1
  O  O19  1  0.78085500  0.43591700  0.21208800  1
  O  O20  1  0.02622500  0.65894400  0.41115200  1
  O  O21  1  0.47377500  0.65894400  0.91115200  1
  O  O22  1  0.97377500  0.34105600  0.58884800  1
  O  O23  1  0.52622500  0.34105600  0.08884800  1
  O  O24  1  0.86960600  0.76054000  0.23098400  1
  O  O25  1  0.63039400  0.76054000  0.73098400  1
  O  O26  1  0.13039400  0.23946000  0.76901600  1
  O  O27  1  0.36960600  0.23946000  0.26901600  1
  O  O28  1  0.52119800  0.65793400  0.40425800  1
  O  O29  1  0.97880200  0.65793400  0.90425800  1
  O  O30  1  0.47880200  0.34206600  0.59574200  1
  O  O31  1  0.02119800  0.34206600  0.09574200  1
  O  O32  1  0.77296000  0.74422700  0.52714100  1
  O  O33  1  0.72704000  0.74422700  0.02714100  1
  O  O34  1  0.22704000  0.25577300  0.47285900  1
  O  O35  1  0.27296000  0.25577300  0.97285900  1
  O  O36  1  0.38072700  0.91823200  0.38017200  1
  O  O37  1  0.11927300  0.91823200  0.88017200  1
  O  O38  1  0.61927300  0.08176800  0.61982800  1
  O  O39  1  0.88072700  0.08176800  0.11982800  1
  O  O40  1  0.64826400  0.10387200  0.43350200  1
  O  O41  1  0.85173600  0.10387200  0.93350200  1
  O  O42  1  0.35173600  0.89612800  0.56649800  1
  O  O43  1  0.14826400  0.89612800  0.06649800  1
