# generated using pymatgen
data_NaFeH22C10(NO6)2
_symmetry_space_group_name_H-M   'P 1'
_cell_length_a   8.40435189
_cell_length_b   9.41451549
_cell_length_c   12.74637729
_cell_angle_alpha   92.36224302
_cell_angle_beta   89.85386685
_cell_angle_gamma   90.37676159
_symmetry_Int_Tables_number   1
_chemical_formula_structural   NaFeH22C10(NO6)2
_chemical_formula_sum   'Na2 Fe2 H44 C20 N4 O24'
_cell_volume   1007.64889990
_cell_formula_units_Z   2
loop_
 _symmetry_equiv_pos_site_id
 _symmetry_equiv_pos_as_xyz
  1  'x, y, z'
loop_
 _atom_site_type_symbol
 _atom_site_label
 _atom_site_symmetry_multiplicity
 _atom_site_fract_x
 _atom_site_fract_y
 _atom_site_fract_z
 _atom_site_occupancy
  Na  Na0  1  0.76888200  0.74551200  0.75280800  1
  Na  Na1  1  0.23111800  0.25448800  0.24719200  1
  Fe  Fe2  1  0.26588400  0.25580500  0.74705500  1
  Fe  Fe3  1  0.73411600  0.74419500  0.25294500  1
  H  H4  1  0.91652700  0.18720700  0.98595300  1
  H  H5  1  0.08347300  0.81279300  0.01404700  1
  H  H6  1  0.75515100  0.12735300  0.91262100  1
  H  H7  1  0.24484900  0.87264700  0.08737900  1
  H  H8  1  0.79260500  0.18717400  0.38978700  1
  H  H9  1  0.20739500  0.81282600  0.61021300  1
  H  H10  1  0.59870400  0.21528200  0.43418800  1
  H  H11  1  0.40129600  0.78471800  0.56581200  1
  H  H12  1  0.80515100  0.37832900  0.88958300  1
  H  H13  1  0.19484900  0.62167100  0.11041700  1
  H  H14  1  0.62123800  0.35066800  0.95693600  1
  H  H15  1  0.37876200  0.64933200  0.04306400  1
  H  H16  1  0.79294700  0.40795100  0.02961100  1
  H  H17  1  0.20705300  0.59204900  0.97038900  1
  H  H18  1  0.24450400  0.97585000  0.91874900  1
  H  H19  1  0.75549600  0.02415000  0.08125100  1
  H  H20  1  0.40936900  0.85733900  0.93114000  1
  H  H21  1  0.59063100  0.14266100  0.06886000  1
  H  H22  1  0.23874900  0.80128700  0.85740000  1
  H  H23  1  0.76125100  0.19871300  0.14260000  1
  H  H24  1  0.32824900  0.56447100  0.48268200  1
  H  H25  1  0.67175100  0.43552900  0.51731800  1
  H  H26  1  0.28642300  0.56827500  0.62091700  1
  H  H27  1  0.71357700  0.43172500  0.37908300  1
  H  H28  1  0.12867200  0.58697700  0.52843100  1
  H  H29  1  0.87132800  0.41302300  0.47156900  1
  H  H30  1  0.69097000  0.21593300  0.61285500  1
  H  H31  1  0.30903000  0.78406700  0.38714500  1
  H  H32  1  0.73137700  0.05122500  0.54335500  1
  H  H33  1  0.26862300  0.94877500  0.45664500  1
  H  H34  1  0.88781100  0.18045000  0.56569100  1
  H  H35  1  0.11218900  0.81955000  0.43430900  1
  H  H36  1  0.31483600  0.30462200  0.98553000  1
  H  H37  1  0.68516400  0.69537800  0.01447000  1
  H  H38  1  0.96421600  0.05997500  0.75464600  1
  H  H39  1  0.03578400  0.94002500  0.24535400  1
  H  H40  1  0.05548400  0.49022000  0.80701000  1
  H  H41  1  0.94451600  0.50978000  0.19299000  1
  H  H42  1  0.56504300  0.43340300  0.73024700  1
  H  H43  1  0.43495700  0.56659700  0.26975300  1
  H  H44  1  0.48063900  0.00030000  0.71039100  1
  H  H45  1  0.51936100  0.99970000  0.28960900  1
  H  H46  1  0.18615000  0.23464100  0.51948300  1
  H  H47  1  0.81385000  0.76535900  0.48051700  1
  C  C48  1  0.19303900  0.25937800  0.97833200  1
  C  C49  1  0.80696100  0.74062200  0.02166800  1
  C  C50  1  0.05662300  0.99559600  0.71316900  1
  C  C51  1  0.94337700  0.00440400  0.28683100  1
  C  C52  1  0.00227900  0.45449700  0.73072400  1
  C  C53  1  0.99772100  0.54550300  0.26927600  1
  C  C54  1  0.48473000  0.50299100  0.77846000  1
  C  C55  1  0.51527000  0.49700900  0.22154000  1
  C  C56  1  0.53770500  0.05859400  0.77777000  1
  C  C57  1  0.46229500  0.94140600  0.22223000  1
  C  C58  1  0.31813000  0.24038900  0.51737300  1
  C  C59  1  0.68187000  0.75961100  0.48262700  1
  C  C60  1  0.75057800  0.34277200  0.96216300  1
  C  C61  1  0.24942200  0.65722800  0.03783700  1
  C  C62  1  0.27992200  0.86502100  0.92580000  1
  C  C63  1  0.72007800  0.13497900  0.07420000  1
  C  C64  1  0.25362900  0.61094000  0.54546700  1
  C  C65  1  0.74637100  0.38906000  0.45453300  1
  C  C66  1  0.76097500  0.16471600  0.54968200  1
  C  C67  1  0.23902500  0.83528400  0.45031800  1
  N  N68  1  0.79310300  0.19173000  0.97791000  1
  N  N69  1  0.20689700  0.80827000  0.02209000  1
  N  N70  1  0.72072800  0.23241400  0.44965300  1
  N  N71  1  0.27927200  0.76758600  0.55034700  1
  O  O72  1  0.34521300  0.44981100  0.79771800  1
  O  O73  1  0.65478700  0.55018900  0.20228200  1
  O  O74  1  0.14183000  0.23177900  0.88419500  1
  O  O75  1  0.85817000  0.76822100  0.11580500  1
  O  O76  1  0.38759900  0.26362200  0.60633200  1
  O  O77  1  0.61240100  0.73637800  0.39366800  1
  O  O78  1  0.07034500  0.34481700  0.68487300  1
  O  O79  1  0.92965500  0.65518300  0.31512700  1
  O  O80  1  0.19180900  0.05640300  0.69721700  1
  O  O81  1  0.80819100  0.94359700  0.30278300  1
  O  O82  1  0.46539300  0.17042900  0.81363300  1
  O  O83  1  0.53460700  0.82957200  0.18636700  1
  O  O84  1  0.88679700  0.51907500  0.69532200  1
  O  O85  1  0.11320300  0.48092500  0.30467800  1
  O  O86  1  0.66531100  0.01233300  0.81390800  1
  O  O87  1  0.33468900  0.98766700  0.18609200  1
  O  O88  1  0.02544900  0.86957800  0.68443500  1
  O  O89  1  0.97455100  0.13042200  0.31556500  1
  O  O90  1  0.53072500  0.62341600  0.80956500  1
  O  O91  1  0.46927500  0.37658400  0.19043500  1
  O  O92  1  0.38779200  0.22449500  0.43052600  1
  O  O93  1  0.61220800  0.77550500  0.56947400  1
  O  O94  1  0.11317000  0.23777000  0.05909800  1
  O  O95  1  0.88683000  0.76223000  0.94090200  1
