# generated using pymatgen
data_H8C5
_symmetry_space_group_name_H-M   'P 1'
_cell_length_a   6.85401200
_cell_length_b   6.85401200
_cell_length_c   9.35084200
_cell_angle_alpha   90.00000000
_cell_angle_beta   90.00000000
_cell_angle_gamma   90.00000000
_symmetry_Int_Tables_number   1
_chemical_formula_structural   H8C5
_chemical_formula_sum   'H32 C20'
_cell_volume   439.27899768
_cell_formula_units_Z   4
loop_
 _symmetry_equiv_pos_site_id
 _symmetry_equiv_pos_as_xyz
  1  'x, y, z'
loop_
 _atom_site_type_symbol
 _atom_site_label
 _atom_site_symmetry_multiplicity
 _atom_site_fract_x
 _atom_site_fract_y
 _atom_site_fract_z
 _atom_site_occupancy
  H  H0  1  0.81078000  0.44792100  0.66352900  1
  H  H1  1  0.31078000  0.05207900  0.83647100  1
  H  H2  1  0.18922000  0.55207900  0.66352900  1
  H  H3  1  0.68922000  0.94792100  0.83647100  1
  H  H4  1  0.44792100  0.18922000  0.33647100  1
  H  H5  1  0.05207900  0.68922000  0.16352900  1
  H  H6  1  0.55207900  0.81078000  0.33647100  1
  H  H7  1  0.94792100  0.31078000  0.16352900  1
  H  H8  1  0.51976000  0.62709200  0.76233600  1
  H  H9  1  0.01976000  0.87290800  0.73766400  1
  H  H10  1  0.48024000  0.37290800  0.76233600  1
  H  H11  1  0.98024000  0.12709200  0.73766400  1
  H  H12  1  0.62709200  0.48024000  0.23766400  1
  H  H13  1  0.87290800  0.98024000  0.26233600  1
  H  H14  1  0.37290800  0.51976000  0.23766400  1
  H  H15  1  0.12709200  0.01976000  0.26233600  1
  H  H16  1  0.73335000  0.78076600  0.56702600  1
  H  H17  1  0.23335000  0.71923400  0.93297400  1
  H  H18  1  0.26665000  0.21923400  0.56702600  1
  H  H19  1  0.76665000  0.28076600  0.93297400  1
  H  H20  1  0.78076600  0.26665000  0.43297400  1
  H  H21  1  0.71923400  0.76665000  0.06702600  1
  H  H22  1  0.21923400  0.73335000  0.43297400  1
  H  H23  1  0.28076600  0.23335000  0.06702600  1
  H  H24  1  0.84314400  0.63103700  0.43503100  1
  H  H25  1  0.34314400  0.86896300  0.06496900  1
  H  H26  1  0.15685600  0.36896300  0.43503100  1
  H  H27  1  0.65685600  0.13103700  0.06496900  1
  H  H28  1  0.63103700  0.15685600  0.56496900  1
  H  H29  1  0.86896300  0.65685600  0.93503100  1
  H  H30  1  0.36896300  0.84314400  0.56496900  1
  H  H31  1  0.13103700  0.34314400  0.93503100  1
  C  C32  1  0.68048700  0.46984300  0.59595100  1
  C  C33  1  0.18048700  0.03015700  0.90404900  1
  C  C34  1  0.31951300  0.53015700  0.59595100  1
  C  C35  1  0.81951300  0.96984300  0.90404900  1
  C  C36  1  0.46984300  0.31951300  0.40404900  1
  C  C37  1  0.03015700  0.81951300  0.09595100  1
  C  C38  1  0.53015700  0.68048700  0.40404900  1
  C  C39  1  0.96984300  0.18048700  0.09595100  1
  C  C40  1  0.71036900  0.65031200  0.50043500  1
  C  C41  1  0.21036900  0.84968800  0.99956500  1
  C  C42  1  0.28963100  0.34968800  0.50043500  1
  C  C43  1  0.78963100  0.15031200  0.99956500  1
  C  C44  1  0.65031200  0.28963100  0.49956500  1
  C  C45  1  0.84968800  0.78963100  0.00043500  1
  C  C46  1  0.34968800  0.71036900  0.49956500  1
  C  C47  1  0.15031200  0.21036900  0.00043500  1
  C  C48  1  0.50000000  0.50000000  0.69128900  1
  C  C49  1  0.00000000  0.00000000  0.80871100  1
  C  C50  1  0.50000000  0.50000000  0.30871100  1
  C  C51  1  0.00000000  0.00000000  0.19128900  1
