# generated using pymatgen
data_Ba3V2H12(C5O14)2
_symmetry_space_group_name_H-M   'P 1'
_cell_length_a   9.34804833
_cell_length_b   9.34804833
_cell_length_c   18.29047170
_cell_angle_alpha   85.19044399
_cell_angle_beta   85.19044399
_cell_angle_gamma   111.67507619
_symmetry_Int_Tables_number   1
_chemical_formula_structural   Ba3V2H12(C5O14)2
_chemical_formula_sum   'Ba6 V4 H24 C20 O56'
_cell_volume   1468.66871106
_cell_formula_units_Z   2
loop_
 _symmetry_equiv_pos_site_id
 _symmetry_equiv_pos_as_xyz
  1  'x, y, z'
loop_
 _atom_site_type_symbol
 _atom_site_label
 _atom_site_symmetry_multiplicity
 _atom_site_fract_x
 _atom_site_fract_y
 _atom_site_fract_z
 _atom_site_occupancy
  Ba  Ba0  1  0.21718200  0.78281800  0.25000000  1
  Ba  Ba1  1  0.78281800  0.21718200  0.75000000  1
  Ba  Ba2  1  0.85075500  0.78174900  0.44745400  1
  Ba  Ba3  1  0.21825100  0.14924500  0.05254600  1
  Ba  Ba4  1  0.14924500  0.21825100  0.55254600  1
  Ba  Ba5  1  0.78174900  0.85075500  0.94745400  1
  V  V6  1  0.20594800  0.40514900  0.34360000  1
  V  V7  1  0.59485100  0.79405200  0.15640000  1
  V  V8  1  0.79405200  0.59485100  0.65640000  1
  V  V9  1  0.40514900  0.20594800  0.84360000  1
  H  H10  1  0.80563800  0.12287400  0.45983500  1
  H  H11  1  0.87712600  0.19436200  0.04016500  1
  H  H12  1  0.19436200  0.87712600  0.54016500  1
  H  H13  1  0.12287400  0.80563800  0.95983500  1
  H  H14  1  0.73893500  0.04019600  0.53982500  1
  H  H15  1  0.95980400  0.26106500  0.96017500  1
  H  H16  1  0.26106500  0.95980400  0.46017500  1
  H  H17  1  0.04019600  0.73893500  0.03982500  1
  H  H18  1  0.09436600  0.52783800  0.11370100  1
  H  H19  1  0.47216200  0.90563400  0.38629900  1
  H  H20  1  0.90563400  0.47216200  0.88629900  1
  H  H21  1  0.52783800  0.09436600  0.61370100  1
  H  H22  1  0.92135700  0.50256100  0.12552600  1
  H  H23  1  0.49743900  0.07864300  0.37447400  1
  H  H24  1  0.07864300  0.49743900  0.87447400  1
  H  H25  1  0.50256100  0.92135700  0.62552600  1
  H  H26  1  0.69393000  0.33031900  0.41196500  1
  H  H27  1  0.66968100  0.30607000  0.08803500  1
  H  H28  1  0.30607000  0.66968100  0.58803500  1
  H  H29  1  0.33031900  0.69393000  0.91196500  1
  H  H30  1  0.80792100  0.31194300  0.35025400  1
  H  H31  1  0.68805700  0.19207900  0.14974600  1
  H  H32  1  0.19207900  0.68805700  0.64974600  1
  H  H33  1  0.31194300  0.80792100  0.85025400  1
  C  C34  1  0.48544600  0.64176900  0.37910000  1
  C  C35  1  0.35823100  0.51455400  0.12090000  1
  C  C36  1  0.51455400  0.35823100  0.62090000  1
  C  C37  1  0.64176900  0.48544600  0.87910000  1
  C  C38  1  0.49944900  0.48867600  0.41082500  1
  C  C39  1  0.51132400  0.50055100  0.08917500  1
  C  C40  1  0.50055100  0.51132400  0.58917500  1
  C  C41  1  0.48867600  0.49944900  0.91082500  1
  C  C42  1  0.90731600  0.85459100  0.17095400  1
  C  C43  1  0.14540900  0.09268400  0.32904600  1
  C  C44  1  0.09268400  0.14540900  0.82904600  1
  C  C45  1  0.85459100  0.90731600  0.67095400  1
  C  C46  1  0.81290900  0.72545900  0.23501400  1
  C  C47  1  0.27454100  0.18709100  0.26498600  1
  C  C48  1  0.18709100  0.27454100  0.76498600  1
  C  C49  1  0.72545900  0.81290900  0.73501400  1
  C  C50  1  0.04303600  0.51709300  0.45987600  1
  C  C51  1  0.48290700  0.95696400  0.04012400  1
  C  C52  1  0.95696400  0.48290700  0.54012400  1
  C  C53  1  0.51709300  0.04303600  0.95987600  1
  O  O54  1  0.36877800  0.62322000  0.34282000  1
  O  O55  1  0.37678000  0.63122200  0.15718000  1
  O  O56  1  0.63122200  0.37678000  0.65718000  1
  O  O57  1  0.62322000  0.36877800  0.84282000  1
  O  O58  1  0.57890300  0.77046700  0.39194700  1
  O  O59  1  0.22953300  0.42109700  0.10805300  1
  O  O60  1  0.42109700  0.22953300  0.60805300  1
  O  O61  1  0.77046700  0.57890300  0.89194700  1
  O  O62  1  0.37531700  0.36810200  0.41268300  1
  O  O63  1  0.63189800  0.62468300  0.08731700  1
  O  O64  1  0.62468300  0.63189800  0.58731700  1
  O  O65  1  0.36810200  0.37531700  0.91268300  1
  O  O66  1  0.62416200  0.49235100  0.43300800  1
  O  O67  1  0.50764900  0.37583800  0.06699200  1
  O  O68  1  0.37583800  0.50764900  0.56699200  1
  O  O69  1  0.49235100  0.62416200  0.93300800  1
  O  O70  1  0.05159900  0.90873700  0.16388800  1
  O  O71  1  0.09126300  0.94840100  0.33611200  1
  O  O72  1  0.94840100  0.09126300  0.83611200  1
  O  O73  1  0.90873700  0.05159900  0.66388800  1
  O  O74  1  0.82632600  0.90201200  0.12800600  1
  O  O75  1  0.09798800  0.17367400  0.37199400  1
  O  O76  1  0.17367400  0.09798800  0.87199400  1
  O  O77  1  0.90201200  0.82632600  0.62800600  1
  O  O78  1  0.88141100  0.68281700  0.28222000  1
  O  O79  1  0.31718300  0.11858900  0.21778000  1
  O  O80  1  0.11858900  0.31718300  0.71778000  1
  O  O81  1  0.68281700  0.88141100  0.78222000  1
  O  O82  1  0.66477300  0.67517800  0.23358200  1
  O  O83  1  0.32482200  0.33522700  0.26641800  1
  O  O84  1  0.33522700  0.32482200  0.76641800  1
  O  O85  1  0.67517800  0.66477300  0.73358200  1
  O  O86  1  0.10789900  0.42070800  0.44540200  1
  O  O87  1  0.57929200  0.89210100  0.05459800  1
  O  O88  1  0.89210100  0.57929200  0.55459800  1
  O  O89  1  0.42070800  0.10789900  0.94540200  1
  O  O90  1  0.04393700  0.62818900  0.41720100  1
  O  O91  1  0.37181100  0.95606300  0.08279900  1
  O  O92  1  0.95606300  0.37181100  0.58279900  1
  O  O93  1  0.62818900  0.04393700  0.91720100  1
  O  O94  1  0.09505200  0.46210700  0.29192600  1
  O  O95  1  0.53789300  0.90494800  0.20807400  1
  O  O96  1  0.90494800  0.53789300  0.70807400  1
  O  O97  1  0.46210700  0.09505200  0.79192600  1
  O  O98  1  0.81988000  0.05070000  0.49854200  1
  O  O99  1  0.94930000  0.18012000  0.00145800  1
  O  O100  1  0.18012000  0.94930000  0.50145800  1
  O  O101  1  0.05070000  0.81988000  0.99854200  1
  O  O102  1  0.02469300  0.58575400  0.11717500  1
  O  O103  1  0.41424600  0.97530700  0.38282500  1
  O  O104  1  0.97530700  0.41424600  0.88282500  1
  O  O105  1  0.58575400  0.02469300  0.61717500  1
  O  O106  1  0.73279200  0.25364400  0.39301600  1
  O  O107  1  0.74635600  0.26720800  0.10698400  1
  O  O108  1  0.26720800  0.74635600  0.60698400  1
  O  O109  1  0.25364400  0.73279200  0.89301600  1
