# generated using pymatgen
data_Na5UH3S4O19
_symmetry_space_group_name_H-M   'P 1'
_cell_length_a   5.43822690
_cell_length_b   11.66276114
_cell_length_c   13.69779765
_cell_angle_alpha   102.73311517
_cell_angle_beta   97.67766241
_cell_angle_gamma   90.96895735
_symmetry_Int_Tables_number   1
_chemical_formula_structural   Na5UH3S4O19
_chemical_formula_sum   'Na10 U2 H6 S8 O38'
_cell_volume   838.85064397
_cell_formula_units_Z   2
loop_
 _symmetry_equiv_pos_site_id
 _symmetry_equiv_pos_as_xyz
  1  'x, y, z'
loop_
 _atom_site_type_symbol
 _atom_site_label
 _atom_site_symmetry_multiplicity
 _atom_site_fract_x
 _atom_site_fract_y
 _atom_site_fract_z
 _atom_site_occupancy
  Na  Na0  1  0.00000000  0.50000000  0.00000000  1
  Na  Na1  1  0.47456700  0.67387300  0.90923900  1
  Na  Na2  1  0.52543300  0.32612700  0.09076100  1
  Na  Na3  1  0.00000000  0.00000000  0.50000000  1
  Na  Na4  1  0.99377600  0.50875800  0.75297800  1
  Na  Na5  1  0.00622400  0.49124200  0.24702200  1
  Na  Na6  1  0.04781000  0.78797900  0.67378500  1
  Na  Na7  1  0.95219000  0.21202100  0.32621500  1
  Na  Na8  1  0.40592800  0.03661700  0.88686700  1
  Na  Na9  1  0.59407200  0.96338300  0.11313300  1
  U  U10  1  0.48438900  0.27245900  0.57965700  1
  U  U11  1  0.51561100  0.72754100  0.42034300  1
  H  H12  1  0.07324900  0.86314700  0.09600900  1
  H  H13  1  0.92675100  0.13685300  0.90399100  1
  H  H14  1  0.94916400  0.08058000  0.74794200  1
  H  H15  1  0.05083600  0.91942000  0.25205800  1
  H  H16  1  0.09747100  0.20334600  0.79069700  1
  H  H17  1  0.90252900  0.79665400  0.20930300  1
  S  S18  1  0.46613300  0.38781000  0.85087000  1
  S  S19  1  0.53386700  0.61219000  0.14913000  1
  S  S20  1  0.50734300  0.97551900  0.63752000  1
  S  S21  1  0.49265700  0.02448100  0.36248000  1
  S  S22  1  0.52404100  0.39561400  0.35667900  1
  S  S23  1  0.47595900  0.60438600  0.64332100  1
  S  S24  1  0.96055200  0.82453800  0.93181300  1
  S  S25  1  0.03944800  0.17546200  0.06818700  1
  O  O26  1  0.48072800  0.29788000  0.91141000  1
  O  O27  1  0.51927200  0.70212000  0.08859000  1
  O  O28  1  0.71209000  0.44380500  0.85044100  1
  O  O29  1  0.28791000  0.55619500  0.14955900  1
  O  O30  1  0.29393900  0.48075500  0.88836400  1
  O  O31  1  0.70606100  0.51924500  0.11163600  1
  O  O32  1  0.35193000  0.32938300  0.74246600  1
  O  O33  1  0.64807000  0.67061700  0.25753400  1
  O  O34  1  0.43228300  0.93181800  0.72223000  1
  O  O35  1  0.56771700  0.06818200  0.27777000  1
  O  O36  1  0.78220700  0.98316900  0.64209500  1
  O  O37  1  0.21779300  0.01683100  0.35790500  1
  O  O38  1  0.39945900  0.09314000  0.63635400  1
  O  O39  1  0.60054100  0.90686000  0.36364600  1
  O  O40  1  0.39058800  0.89486600  0.53924900  1
  O  O41  1  0.60941200  0.10513400  0.46075100  1
  O  O42  1  0.74411500  0.63256700  0.67191200  1
  O  O43  1  0.25588500  0.36743300  0.32808800  1
  O  O44  1  0.33445100  0.64182200  0.72931800  1
  O  O45  1  0.66554900  0.35817800  0.27068200  1
  O  O46  1  0.43094500  0.47337100  0.60487600  1
  O  O47  1  0.56905500  0.52662900  0.39512400  1
  O  O48  1  0.62965700  0.33705600  0.43930600  1
  O  O49  1  0.37034300  0.66294400  0.56069400  1
  O  O50  1  0.06399300  0.87383700  0.85573800  1
  O  O51  1  0.93600700  0.12616300  0.14426200  1
  O  O52  1  0.96930400  0.69529400  0.91311900  1
  O  O53  1  0.03069600  0.30470600  0.08688100  1
  O  O54  1  0.70967300  0.86316900  0.94985000  1
  O  O55  1  0.29032700  0.13683100  0.05015000  1
  O  O56  1  0.14525300  0.87686500  0.03241400  1
  O  O57  1  0.85474700  0.12313500  0.96758600  1
  O  O58  1  0.79679700  0.28907600  0.64667800  1
  O  O59  1  0.20320300  0.71092400  0.35332200  1
  O  O60  1  0.17601300  0.24369000  0.50696300  1
  O  O61  1  0.82398700  0.75631000  0.49303700  1
  O  O62  1  0.04432400  0.13155000  0.80970400  1
  O  O63  1  0.95567600  0.86845000  0.19029600  1
