# generated using pymatgen
data_CaAl2Si3O10
_symmetry_space_group_name_H-M   'P 1'
_cell_length_a   8.91484428
_cell_length_b   8.91484428
_cell_length_c   9.17853742
_cell_angle_alpha   83.96525128
_cell_angle_beta   83.96525128
_cell_angle_gamma   136.64545308
_symmetry_Int_Tables_number   1
_chemical_formula_structural   CaAl2Si3O10
_chemical_formula_sum   'Ca2 Al4 Si6 O20'
_cell_volume   480.06989957
_cell_formula_units_Z   2
loop_
 _symmetry_equiv_pos_site_id
 _symmetry_equiv_pos_as_xyz
  1  'x, y, z'
loop_
 _atom_site_type_symbol
 _atom_site_label
 _atom_site_symmetry_multiplicity
 _atom_site_fract_x
 _atom_site_fract_y
 _atom_site_fract_z
 _atom_site_occupancy
  Ca  Ca0  1  0.08410900  0.31738900  0.34963000  1
  Ca  Ca1  1  0.31738900  0.08410900  0.84963000  1
  Al  Al2  1  0.78355000  0.58684900  0.70561700  1
  Al  Al3  1  0.58684900  0.78355000  0.20561700  1
  Al  Al4  1  0.98724500  0.68083700  0.28256500  1
  Al  Al5  1  0.68083700  0.98724500  0.78256500  1
  Si  Si6  1  0.24483800  0.01790600  0.50293200  1
  Si  Si7  1  0.01790600  0.24483800  0.00293200  1
  Si  Si8  1  0.50489000  0.53254800  0.94837400  1
  Si  Si9  1  0.53254800  0.50489000  0.44837400  1
  Si  Si10  1  0.27005300  0.73646800  0.03874900  1
  Si  Si11  1  0.73646800  0.27005300  0.53874900  1
  O  O12  1  0.06085300  0.86625400  0.67264000  1
  O  O13  1  0.86625400  0.06085300  0.17264000  1
  O  O14  1  0.16766300  0.88950200  0.37341500  1
  O  O15  1  0.88950200  0.16766300  0.87341500  1
  O  O16  1  0.23566900  0.29071100  0.95471800  1
  O  O17  1  0.29071100  0.23566900  0.45471800  1
  O  O18  1  0.10946000  0.47304000  0.03693100  1
  O  O19  1  0.47304000  0.10946000  0.53693100  1
  O  O20  1  0.91365600  0.43608400  0.36986900  1
  O  O21  1  0.43608400  0.91365600  0.86986900  1
  O  O22  1  0.57909200  0.51049400  0.61416100  1
  O  O23  1  0.51049400  0.57909200  0.11416100  1
  O  O24  1  0.39698400  0.78329300  0.17018200  1
  O  O25  1  0.78329300  0.39698400  0.67018200  1
  O  O26  1  0.60935800  0.74429800  0.81765400  1
  O  O27  1  0.74429800  0.60935800  0.31765400  1
  O  O28  1  0.62382300  0.46038400  0.89838500  1
  O  O29  1  0.46038400  0.62382300  0.39838500  1
  O  O30  1  0.11724900  0.77405100  0.08337800  1
  O  O31  1  0.77405100  0.11724900  0.58337800  1
