# generated using pymatgen
data_Ba4Fe3(Se3F2)2
_symmetry_space_group_name_H-M   'P 1'
_cell_length_a   6.49398800
_cell_length_b   13.23404500
_cell_length_c   19.49555200
_cell_angle_alpha   90.00000000
_cell_angle_beta   90.00000000
_cell_angle_gamma   90.00000000
_symmetry_Int_Tables_number   1
_chemical_formula_structural   Ba4Fe3(Se3F2)2
_chemical_formula_sum   'Ba16 Fe12 Se24 F16'
_cell_volume   1675.48145491
_cell_formula_units_Z   4
loop_
 _symmetry_equiv_pos_site_id
 _symmetry_equiv_pos_as_xyz
  1  'x, y, z'
loop_
 _atom_site_type_symbol
 _atom_site_label
 _atom_site_symmetry_multiplicity
 _atom_site_fract_x
 _atom_site_fract_y
 _atom_site_fract_z
 _atom_site_occupancy
  Ba  Ba0  1  0.26643200  0.74780900  0.57398000  1
  Ba  Ba1  1  0.23356800  0.24780900  0.92602000  1
  Ba  Ba2  1  0.73356800  0.25219100  0.07398000  1
  Ba  Ba3  1  0.76643200  0.75219100  0.42602000  1
  Ba  Ba4  1  0.73356800  0.25219100  0.42602000  1
  Ba  Ba5  1  0.76643200  0.75219100  0.07398000  1
  Ba  Ba6  1  0.26643200  0.74780900  0.92602000  1
  Ba  Ba7  1  0.23356800  0.24780900  0.57398000  1
  Ba  Ba8  1  0.75591700  0.50258900  0.57417300  1
  Ba  Ba9  1  0.74408300  0.00258900  0.92582700  1
  Ba  Ba10  1  0.24408300  0.49741100  0.07417300  1
  Ba  Ba11  1  0.25591700  0.99741100  0.42582700  1
  Ba  Ba12  1  0.24408300  0.49741100  0.42582700  1
  Ba  Ba13  1  0.25591700  0.99741100  0.07417300  1
  Ba  Ba14  1  0.75591700  0.50258900  0.92582700  1
  Ba  Ba15  1  0.74408300  0.00258900  0.57417300  1
  Fe  Fe16  1  0.64732200  0.70435900  0.75000000  1
  Fe  Fe17  1  0.85267800  0.20435900  0.75000000  1
  Fe  Fe18  1  0.35267800  0.29564100  0.25000000  1
  Fe  Fe19  1  0.14732200  0.79564100  0.25000000  1
  Fe  Fe20  1  0.50448400  0.62452600  0.25000000  1
  Fe  Fe21  1  0.99551600  0.12452600  0.25000000  1
  Fe  Fe22  1  0.49551600  0.37547400  0.75000000  1
  Fe  Fe23  1  0.00448400  0.87547400  0.75000000  1
  Fe  Fe24  1  0.14228300  0.54730400  0.75000000  1
  Fe  Fe25  1  0.35771700  0.04730400  0.75000000  1
  Fe  Fe26  1  0.85771700  0.45269600  0.25000000  1
  Fe  Fe27  1  0.64228300  0.95269600  0.25000000  1
  Se  Se28  1  0.26763800  0.72455400  0.75000000  1
  Se  Se29  1  0.23236200  0.22455400  0.75000000  1
  Se  Se30  1  0.73236200  0.27544600  0.25000000  1
  Se  Se31  1  0.76763800  0.77544600  0.25000000  1
  Se  Se32  1  0.76251700  0.52549800  0.75000000  1
  Se  Se33  1  0.73748300  0.02549800  0.75000000  1
  Se  Se34  1  0.23748300  0.47450200  0.25000000  1
  Se  Se35  1  0.26251700  0.97450200  0.25000000  1
  Se  Se36  1  0.78188900  0.77152900  0.85436400  1
  Se  Se37  1  0.71811100  0.27152900  0.64563600  1
  Se  Se38  1  0.21811100  0.22847100  0.35436400  1
  Se  Se39  1  0.28188900  0.72847100  0.14563600  1
  Se  Se40  1  0.21811100  0.22847100  0.14563600  1
  Se  Se41  1  0.28188900  0.72847100  0.35436400  1
  Se  Se42  1  0.78188900  0.77152900  0.64563600  1
  Se  Se43  1  0.71811100  0.27152900  0.85436400  1
  Se  Se44  1  0.27372600  0.47869500  0.64579400  1
  Se  Se45  1  0.22627400  0.97869500  0.85420600  1
  Se  Se46  1  0.72627400  0.52130500  0.14579400  1
  Se  Se47  1  0.77372600  0.02130500  0.35420600  1
  Se  Se48  1  0.72627400  0.52130500  0.35420600  1
  Se  Se49  1  0.77372600  0.02130500  0.14579400  1
  Se  Se50  1  0.27372600  0.47869500  0.85420600  1
  Se  Se51  1  0.22627400  0.97869500  0.64579400  1
  F  F52  1  0.51155800  0.62529400  0.50144800  1
  F  F53  1  0.98844200  0.12529400  0.99855200  1
  F  F54  1  0.48844200  0.37470600  0.00144800  1
  F  F55  1  0.01155800  0.87470600  0.49855200  1
  F  F56  1  0.48844200  0.37470600  0.49855200  1
  F  F57  1  0.01155800  0.87470600  0.00144800  1
  F  F58  1  0.51155800  0.62529400  0.99855200  1
  F  F59  1  0.98844200  0.12529400  0.50144800  1
  F  F60  1  0.51093100  0.87510000  0.49800800  1
  F  F61  1  0.98906900  0.37510000  0.00199200  1
  F  F62  1  0.48906900  0.12490000  0.99800800  1
  F  F63  1  0.01093100  0.62490000  0.50199200  1
  F  F64  1  0.48906900  0.12490000  0.50199200  1
  F  F65  1  0.01093100  0.62490000  0.99800800  1
  F  F66  1  0.51093100  0.87510000  0.00199200  1
  F  F67  1  0.98906900  0.37510000  0.49800800  1
