# generated using pymatgen
data_P2H38Pt(C2N)6
_symmetry_space_group_name_H-M   'P 1'
_cell_length_a   8.23507900
_cell_length_b   8.38215850
_cell_length_c   10.16498772
_cell_angle_alpha   87.68505166
_cell_angle_beta   73.18876953
_cell_angle_gamma   60.99747622
_symmetry_Int_Tables_number   1
_chemical_formula_structural   P2H38Pt(C2N)6
_chemical_formula_sum   'P2 H38 Pt1 C12 N6'
_cell_volume   583.25764950
_cell_formula_units_Z   1
loop_
 _symmetry_equiv_pos_site_id
 _symmetry_equiv_pos_as_xyz
  1  'x, y, z'
loop_
 _atom_site_type_symbol
 _atom_site_label
 _atom_site_symmetry_multiplicity
 _atom_site_fract_x
 _atom_site_fract_y
 _atom_site_fract_z
 _atom_site_occupancy
  P  P0  1  0.39105800  0.19029000  0.69595400  1
  P  P1  1  0.60894200  0.80971000  0.30404600  1
  H  H2  1  0.85167600  0.16083800  0.68379700  1
  H  H3  1  0.14832400  0.83916200  0.31620300  1
  H  H4  1  0.80572900  0.97359800  0.70428500  1
  H  H5  1  0.19427100  0.02640200  0.29571500  1
  H  H6  1  0.80686400  0.07611800  0.54791400  1
  H  H7  1  0.19313600  0.92388200  0.45208600  1
  H  H8  1  0.64050300  0.39429500  0.81329400  1
  H  H9  1  0.35949700  0.60570500  0.18670600  1
  H  H10  1  0.39899100  0.52289400  0.80405100  1
  H  H11  1  0.60100900  0.47710600  0.19594900  1
  H  H12  1  0.45051900  0.36806800  0.92966400  1
  H  H13  1  0.54948100  0.63193200  0.07033600  1
  H  H14  1  0.10800500  0.66829700  0.64362400  1
  H  H15  1  0.89199500  0.33170300  0.35637600  1
  H  H16  1  0.36271800  0.54229500  0.62215300  1
  H  H17  1  0.63728200  0.45770500  0.37784700  1
  H  H18  1  0.26690200  0.48116500  0.50841000  1
  H  H19  1  0.73309800  0.51883500  0.49159000  1
  H  H20  1  0.90143500  0.56804100  0.74003400  1
  H  H21  1  0.09856500  0.43195900  0.25996600  1
  H  H22  1  0.02009800  0.35961900  0.62734600  1
  H  H23  1  0.97990200  0.64038100  0.37265400  1
  H  H24  1  0.97125200  0.35512000  0.81124700  1
  H  H25  1  0.02874800  0.64488000  0.18875300  1
  H  H26  1  0.23458600  0.91211500  0.92846900  1
  H  H27  1  0.76541400  0.08788500  0.07153100  1
  H  H28  1  0.20309700  0.94421700  0.76137600  1
  H  H29  1  0.79690300  0.05578300  0.23862400  1
  H  H30  1  0.44140000  0.82011000  0.77708500  1
  H  H31  1  0.55860000  0.17989000  0.22291500  1
  H  H32  1  0.16643300  0.13334800  0.05023400  1
  H  H33  1  0.83356700  0.86665200  0.94976600  1
  H  H34  1  0.32570100  0.22439900  0.00782900  1
  H  H35  1  0.67429900  0.77560100  0.99217100  1
  H  H36  1  0.09183300  0.34831200  0.98248700  1
  H  H37  1  0.90816700  0.65168800  0.01751300  1
  H  H38  1  0.66046200  0.82990600  0.56157000  1
  H  H39  1  0.33953800  0.17009400  0.43843000  1
  Pt  Pt40  1  0.50000000  0.00000000  0.50000000  1
  C  C41  1  0.76486300  0.10552800  0.66087900  1
  C  C42  1  0.23513700  0.89447200  0.33912100  1
  C  C43  1  0.50770200  0.38824700  0.82199300  1
  C  C44  1  0.49229800  0.61175300  0.17800700  1
  C  C45  1  0.23743700  0.53082600  0.61665200  1
  C  C46  1  0.76256300  0.46917400  0.38334800  1
  C  C47  1  0.01424800  0.42267100  0.72362100  1
  C  C48  1  0.98575200  0.57732900  0.27637900  1
  C  C49  1  0.29506700  0.93823300  0.82389800  1
  C  C50  1  0.70493300  0.06176700  0.17610200  1
  C  C51  1  0.21677800  0.20998300  0.97511500  1
  C  C52  1  0.78322200  0.79001700  0.02488500  1
  N  N53  1  0.55714800  0.24143500  0.71905900  1
  N  N54  1  0.44285200  0.75856500  0.28094100  1
  N  N55  1  0.20012300  0.41121900  0.71524700  1
  N  N56  1  0.79987700  0.58878100  0.28475300  1
  N  N57  1  0.29965300  0.10946500  0.83679400  1
  N  N58  1  0.70034700  0.89053500  0.16320600  1
