# generated using pymatgen
data_Gd6Mo10O39
_symmetry_space_group_name_H-M   'P 1'
_cell_length_a   11.76088688
_cell_length_b   11.76088688
_cell_length_c   14.02230548
_cell_angle_alpha   84.02864353
_cell_angle_beta   84.02864353
_cell_angle_gamma   115.89579174
_symmetry_Int_Tables_number   1
_chemical_formula_structural   Gd6Mo10O39
_chemical_formula_sum   'Gd12 Mo20 O78'
_cell_volume   1710.94114143
_cell_formula_units_Z   2
loop_
 _symmetry_equiv_pos_site_id
 _symmetry_equiv_pos_as_xyz
  1  'x, y, z'
loop_
 _atom_site_type_symbol
 _atom_site_label
 _atom_site_symmetry_multiplicity
 _atom_site_fract_x
 _atom_site_fract_y
 _atom_site_fract_z
 _atom_site_occupancy
  Gd  Gd0  1  0.64302700  0.52773100  0.41633500  1
  Gd  Gd1  1  0.47226900  0.35697300  0.08366500  1
  Gd  Gd2  1  0.35697300  0.47226900  0.58366500  1
  Gd  Gd3  1  0.52773100  0.64302700  0.91633500  1
  Gd  Gd4  1  0.97182400  0.28324400  0.35357100  1
  Gd  Gd5  1  0.71675600  0.02817600  0.14642900  1
  Gd  Gd6  1  0.02817600  0.71675600  0.64642900  1
  Gd  Gd7  1  0.28324400  0.97182400  0.85357100  1
  Gd  Gd8  1  0.06131500  0.76464100  0.08456600  1
  Gd  Gd9  1  0.23535900  0.93868500  0.41543400  1
  Gd  Gd10  1  0.93868500  0.23535900  0.91543400  1
  Gd  Gd11  1  0.76464100  0.06131500  0.58456600  1
  Mo  Mo12  1  0.31520700  0.31469000  0.36086800  1
  Mo  Mo13  1  0.68531000  0.68479300  0.13913200  1
  Mo  Mo14  1  0.68479300  0.68531000  0.63913200  1
  Mo  Mo15  1  0.31469000  0.31520700  0.86086800  1
  Mo  Mo16  1  0.07271200  0.11513500  0.13843100  1
  Mo  Mo17  1  0.88486500  0.92728800  0.36156900  1
  Mo  Mo18  1  0.92728800  0.88486500  0.86156900  1
  Mo  Mo19  1  0.11513500  0.07271200  0.63843100  1
  Mo  Mo20  1  0.81986400  0.38634900  0.13902700  1
  Mo  Mo21  1  0.61365100  0.18013600  0.36097300  1
  Mo  Mo22  1  0.18013600  0.61365100  0.86097300  1
  Mo  Mo23  1  0.38634900  0.81986400  0.63902700  1
  Mo  Mo24  1  0.99630200  0.61613300  0.38186200  1
  Mo  Mo25  1  0.38386700  0.00369800  0.11813800  1
  Mo  Mo26  1  0.00369800  0.38386700  0.61813800  1
  Mo  Mo27  1  0.61613300  0.99630200  0.88186200  1
  Mo  Mo28  1  0.25875600  0.56947800  0.16035300  1
  Mo  Mo29  1  0.43052200  0.74124400  0.33964700  1
  Mo  Mo30  1  0.74124400  0.43052200  0.83964700  1
  Mo  Mo31  1  0.56947800  0.25875600  0.66035300  1
  O  O32  1  0.84693900  0.71569100  0.11147900  1
  O  O33  1  0.28430900  0.15306100  0.38852100  1
  O  O34  1  0.15306100  0.28430900  0.88852200  1
  O  O35  1  0.71569100  0.84693900  0.61147900  1
  O  O36  1  0.17052000  0.32605500  0.38798400  1
  O  O37  1  0.67394500  0.82948000  0.11201600  1
  O  O38  1  0.82948000  0.67394500  0.61201600  1
  O  O39  1  0.32605500  0.17052000  0.88798400  1
  O  O40  1  0.63137700  0.61928100  0.26606400  1
  O  O41  1  0.38071900  0.36862300  0.23393600  1
  O  O42  1  0.36862300  0.38071900  0.73393600  1
  O  O43  1  0.61928100  0.63137700  0.76606400  1
  O  O44  1  0.57899000  0.57765000  0.06502900  1
  O  O45  1  0.42235000  0.42101000  0.43497100  1
  O  O46  1  0.42101000  0.42235000  0.93497100  1
  O  O47  1  0.57765000  0.57899000  0.56502900  1
  O  O48  1  0.03890600  0.93286700  0.36024600  1
  O  O49  1  0.06713300  0.96109400  0.13975400  1
  O  O50  1  0.96109400  0.06713300  0.63975400  1
  O  O51  1  0.93286700  0.03890600  0.86024600  1
  O  O52  1  0.77452100  0.76462000  0.41356400  1
  O  O53  1  0.23538000  0.22547900  0.08643600  1
  O  O54  1  0.22547900  0.23538000  0.58643600  1
  O  O55  1  0.76462000  0.77452100  0.91356400  1
  O  O56  1  0.04549500  0.16037300  0.25615500  1
  O  O57  1  0.83962700  0.95450500  0.24384500  1
  O  O58  1  0.95450500  0.83962700  0.74384500  1
  O  O59  1  0.16037300  0.04549500  0.75615500  1
  O  O60  1  0.95757600  0.12925300  0.06390700  1
  O  O61  1  0.87074700  0.04242400  0.43609300  1
  O  O62  1  0.04242400  0.87074700  0.93609300  1
  O  O63  1  0.12925300  0.95757600  0.56390700  1
  O  O64  1  0.67143700  0.39655600  0.14457200  1
  O  O65  1  0.60344400  0.32856300  0.35542800  1
  O  O66  1  0.32856300  0.60344400  0.85542800  1
  O  O67  1  0.39655600  0.67143700  0.64457200  1
  O  O68  1  0.94253600  0.54070900  0.08328600  1
  O  O69  1  0.45929100  0.05746400  0.41671400  1
  O  O70  1  0.05746400  0.45929100  0.91671400  1
  O  O71  1  0.54070900  0.94253600  0.58328600  1
  O  O72  1  0.85779300  0.35703600  0.25899800  1
  O  O73  1  0.64296400  0.14220700  0.24100200  1
  O  O74  1  0.14220700  0.64296400  0.74100200  1
  O  O75  1  0.35703600  0.85779300  0.75899800  1
  O  O76  1  0.82505600  0.26551500  0.06970500  1
  O  O77  1  0.73448500  0.17494400  0.43029500  1
  O  O78  1  0.17494400  0.73448500  0.93029500  1
  O  O79  1  0.26551500  0.82505600  0.56970500  1
  O  O80  1  0.02078800  0.70171800  0.26353800  1
  O  O81  1  0.29828200  0.97921200  0.23646200  1
  O  O82  1  0.97921200  0.29828200  0.73646200  1
  O  O83  1  0.70171800  0.02078800  0.76353800  1
  O  O84  1  0.05969400  0.50323400  0.37667600  1
  O  O85  1  0.49676600  0.94030600  0.12332400  1
  O  O86  1  0.94030600  0.49676600  0.62332400  1
  O  O87  1  0.50323400  0.05969400  0.87667600  1
  O  O88  1  0.82800600  0.52377200  0.42310500  1
  O  O89  1  0.47622800  0.17199400  0.07689500  1
  O  O90  1  0.17199400  0.47622800  0.57689500  1
  O  O91  1  0.52377200  0.82800600  0.92310500  1
  O  O92  1  0.06442600  0.72578300  0.46783500  1
  O  O93  1  0.27421700  0.93557400  0.03216500  1
  O  O94  1  0.93557400  0.27421700  0.53216500  1
  O  O95  1  0.72578300  0.06442600  0.96783500  1
  O  O96  1  0.34599200  0.56242400  0.05302300  1
  O  O97  1  0.43757600  0.65400800  0.44697700  1
  O  O98  1  0.65400800  0.43757600  0.94697700  1
  O  O99  1  0.56242400  0.34599200  0.55302300  1
  O  O100  1  0.20532100  0.68636000  0.13446800  1
  O  O101  1  0.31364000  0.79467900  0.36553200  1
  O  O102  1  0.79467900  0.31364000  0.86553200  1
  O  O103  1  0.68636000  0.20532100  0.63446800  1
  O  O104  1  0.12546000  0.41951600  0.20288500  1
  O  O105  1  0.58048400  0.87454000  0.29711500  1
  O  O106  1  0.87454000  0.58048400  0.79711500  1
  O  O107  1  0.41951600  0.12546000  0.70288500  1
  O  O108  1  0.37539400  0.62460600  0.25000000  1
  O  O109  1  0.62460600  0.37539400  0.75000000  1
