# generated using pymatgen
data_BaAgSbS3O
_symmetry_space_group_name_H-M   'P 1'
_cell_length_a   8.78403100
_cell_length_b   9.12985000
_cell_length_c   19.04252300
_cell_angle_alpha   90.00000000
_cell_angle_beta   90.00000000
_cell_angle_gamma   90.00000000
_symmetry_Int_Tables_number   1
_chemical_formula_structural   BaAgSbS3O
_chemical_formula_sum   'Ba8 Ag8 Sb8 S24 O8'
_cell_volume   1527.15103524
_cell_formula_units_Z   8
loop_
 _symmetry_equiv_pos_site_id
 _symmetry_equiv_pos_as_xyz
  1  'x, y, z'
loop_
 _atom_site_type_symbol
 _atom_site_label
 _atom_site_symmetry_multiplicity
 _atom_site_fract_x
 _atom_site_fract_y
 _atom_site_fract_z
 _atom_site_occupancy
  Ba  Ba0  1  0.70533400  0.26472700  0.70843700  1
  Ba  Ba1  1  0.29466600  0.76472700  0.29156300  1
  Ba  Ba2  1  0.20533400  0.76472700  0.79156300  1
  Ba  Ba3  1  0.79466600  0.26472700  0.20843700  1
  Ba  Ba4  1  0.07362300  0.05588600  0.55073700  1
  Ba  Ba5  1  0.92637700  0.55588600  0.44926300  1
  Ba  Ba6  1  0.57362300  0.55588600  0.94926300  1
  Ba  Ba7  1  0.42637700  0.05588600  0.05073700  1
  Ag  Ag8  1  0.09270000  0.52588000  0.14270700  1
  Ag  Ag9  1  0.90730000  0.02588000  0.85729300  1
  Ag  Ag10  1  0.59270000  0.02588000  0.35729300  1
  Ag  Ag11  1  0.40730000  0.52588000  0.64270700  1
  Ag  Ag12  1  0.06066400  0.99043800  0.14527400  1
  Ag  Ag13  1  0.93933600  0.49043800  0.85472600  1
  Ag  Ag14  1  0.56066400  0.49043800  0.35472600  1
  Ag  Ag15  1  0.43933600  0.99043800  0.64527400  1
  Sb  Sb16  1  0.54185700  0.25589100  0.50701900  1
  Sb  Sb17  1  0.45814300  0.75589100  0.49298100  1
  Sb  Sb18  1  0.04185700  0.75589100  0.99298100  1
  Sb  Sb19  1  0.95814300  0.25589100  0.00701900  1
  Sb  Sb20  1  0.17569300  0.25855500  0.75452000  1
  Sb  Sb21  1  0.82430700  0.75855500  0.24548000  1
  Sb  Sb22  1  0.67569300  0.75855500  0.74548000  1
  Sb  Sb23  1  0.32430700  0.25855500  0.25452000  1
  S  S24  1  0.20054600  0.76695700  0.10366300  1
  S  S25  1  0.79945400  0.26695700  0.89633700  1
  S  S26  1  0.70054600  0.26695700  0.39633700  1
  S  S27  1  0.29945400  0.76695700  0.60366300  1
  S  S28  1  0.32145600  0.25493400  0.64258100  1
  S  S29  1  0.67854400  0.75493400  0.35741900  1
  S  S30  1  0.82145600  0.75493400  0.85741900  1
  S  S31  1  0.17854400  0.25493400  0.14258100  1
  S  S32  1  0.67784600  0.06129400  0.56990400  1
  S  S33  1  0.32215400  0.56129400  0.43009600  1
  S  S34  1  0.17784600  0.56129400  0.93009600  1
  S  S35  1  0.82215400  0.06129400  0.06990400  1
  S  S36  1  0.65354300  0.46857000  0.56914900  1
  S  S37  1  0.34645700  0.96857000  0.43085100  1
  S  S38  1  0.15354300  0.96857000  0.93085100  1
  S  S39  1  0.84645700  0.46857000  0.06914900  1
  S  S40  1  0.00352200  0.05276800  0.72533300  1
  S  S41  1  0.99647800  0.55276800  0.27466700  1
  S  S42  1  0.50352200  0.55276800  0.77466700  1
  S  S43  1  0.49647800  0.05276800  0.22533300  1
  S  S44  1  0.01150600  0.46575400  0.72497400  1
  S  S45  1  0.98849400  0.96575400  0.27502600  1
  S  S46  1  0.51150600  0.96575400  0.77502600  1
  S  S47  1  0.48849400  0.46575400  0.22497400  1
  O  O48  1  0.50911400  0.33722500  0.03732000  1
  O  O49  1  0.49088600  0.83722500  0.96268000  1
  O  O50  1  0.00911400  0.83722500  0.46268000  1
  O  O51  1  0.99088600  0.33722500  0.53732000  1
  O  O52  1  0.51229800  0.78323200  0.02859000  1
  O  O53  1  0.48770200  0.28323200  0.97141000  1
  O  O54  1  0.01229800  0.28323200  0.47141000  1
  O  O55  1  0.98770200  0.78323200  0.52859000  1
