# generated using pymatgen
data_MnB2(H7N)2
_symmetry_space_group_name_H-M   'P 1'
_cell_length_a   8.82837800
_cell_length_b   9.45307600
_cell_length_c   18.03328900
_cell_angle_alpha   90.00000000
_cell_angle_beta   90.00000000
_cell_angle_gamma   90.00000000
_symmetry_Int_Tables_number   1
_chemical_formula_structural   MnB2(H7N)2
_chemical_formula_sum   'Mn8 B16 H112 N16'
_cell_volume   1504.97405185
_cell_formula_units_Z   8
loop_
 _symmetry_equiv_pos_site_id
 _symmetry_equiv_pos_as_xyz
  1  'x, y, z'
loop_
 _atom_site_type_symbol
 _atom_site_label
 _atom_site_symmetry_multiplicity
 _atom_site_fract_x
 _atom_site_fract_y
 _atom_site_fract_z
 _atom_site_occupancy
  Mn  Mn0  1  0.52663900  0.63710800  0.87667400  1
  Mn  Mn1  1  0.97336100  0.36289200  0.37667400  1
  Mn  Mn2  1  0.02663900  0.86289200  0.12332600  1
  Mn  Mn3  1  0.47336100  0.13710800  0.62332600  1
  Mn  Mn4  1  0.47336100  0.36289200  0.12332600  1
  Mn  Mn5  1  0.02663900  0.63710800  0.62332600  1
  Mn  Mn6  1  0.97336100  0.13710800  0.87667400  1
  Mn  Mn7  1  0.52663900  0.86289200  0.37667400  1
  B  B8  1  0.77279400  0.57728300  0.86451200  1
  B  B9  1  0.72720600  0.42271700  0.36451200  1
  B  B10  1  0.27279400  0.92271700  0.13548800  1
  B  B11  1  0.22720600  0.07728300  0.63548800  1
  B  B12  1  0.22720600  0.42271700  0.13548800  1
  B  B13  1  0.27279400  0.57728300  0.63548800  1
  B  B14  1  0.72720600  0.07728300  0.86451200  1
  B  B15  1  0.77279400  0.92271700  0.36451200  1
  B  B16  1  0.32560200  0.47449900  0.89170900  1
  B  B17  1  0.17439800  0.52550100  0.39170900  1
  B  B18  1  0.82560200  0.02550100  0.10829100  1
  B  B19  1  0.67439800  0.97449900  0.60829100  1
  B  B20  1  0.67439800  0.52550100  0.10829100  1
  B  B21  1  0.82560200  0.47449900  0.60829100  1
  B  B22  1  0.17439800  0.97449900  0.89170900  1
  B  B23  1  0.32560200  0.02550100  0.39170900  1
  H  H24  1  0.42197000  0.85168000  0.96660600  1
  H  H25  1  0.07803000  0.14832000  0.46660600  1
  H  H26  1  0.92197000  0.64832000  0.03339400  1
  H  H27  1  0.57803000  0.35168000  0.53339400  1
  H  H28  1  0.57803000  0.14832000  0.03339400  1
  H  H29  1  0.92197000  0.85168000  0.53339400  1
  H  H30  1  0.07803000  0.35168000  0.96660600  1
  H  H31  1  0.42197000  0.64832000  0.46660600  1
  H  H32  1  0.60832000  0.85806300  0.96887000  1
  H  H33  1  0.89168000  0.14193700  0.46887000  1
  H  H34  1  0.10832000  0.64193700  0.03113000  1
  H  H35  1  0.39168000  0.35806300  0.53113000  1
  H  H36  1  0.39168000  0.14193700  0.03113000  1
  H  H37  1  0.10832000  0.85806300  0.53113000  1
  H  H38  1  0.89168000  0.35806300  0.96887000  1
  H  H39  1  0.60832000  0.64193700  0.46887000  1
  H  H40  1  0.51851600  0.74111900  0.01973600  1
  H  H41  1  0.98148400  0.25888100  0.51973600  1
  H  H42  1  0.01851600  0.75888100  0.98026400  1
  H  H43  1  0.48148400  0.24111900  0.48026400  1
  H  H44  1  0.48148400  0.25888100  0.98026400  1
  H  H45  1  0.01851600  0.74111900  0.48026400  1
  H  H46  1  0.98148400  0.24111900  0.01973600  1
  H  H47  1  0.51851600  0.75888100  0.51973600  1
  H  H48  1  0.36504200  0.83625200  0.80245900  1
  H  H49  1  0.13495800  0.16374800  0.30245900  1
  H  H50  1  0.86504200  0.66374800  0.19754100  1
  H  H51  1  0.63495800  0.33625200  0.69754100  1
  H  H52  1  0.63495800  0.16374800  0.19754100  1
  H  H53  1  0.86504200  0.83625200  0.69754100  1
  H  H54  1  0.13495800  0.33625200  0.80245900  1
  H  H55  1  0.36504200  0.66374800  0.30245900  1
  H  H56  1  0.44705400  0.73717700  0.73869100  1
  H  H57  1  0.05294600  0.26282300  0.23869100  1
  H  H58  1  0.94705400  0.76282300  0.26130900  1
  H  H59  1  0.55294600  0.23717700  0.76130900  1
  H  H60  1  0.55294600  0.26282300  0.26130900  1
  H  H61  1  0.94705400  0.73717700  0.76130900  1
  H  H62  1  0.05294600  0.23717700  0.73869100  1
  H  H63  1  0.44705400  0.76282300  0.23869100  1
  H  H64  1  0.54364300  0.86298000  0.78125500  1
  H  H65  1  0.95635700  0.13702000  0.28125500  1
  H  H66  1  0.04364300  0.63702000  0.21874500  1
  H  H67  1  0.45635700  0.36298000  0.71874500  1
  H  H68  1  0.45635700  0.13702000  0.21874500  1
  H  H69  1  0.04364300  0.86298000  0.71874500  1
  H  H70  1  0.95635700  0.36298000  0.78125500  1
  H  H71  1  0.54364300  0.63702000  0.28125500  1
  H  H72  1  0.75583000  0.70720500  0.86731200  1
  H  H73  1  0.74417000  0.29279500  0.36731200  1
  H  H74  1  0.25583000  0.79279500  0.13268800  1
  H  H75  1  0.24417000  0.20720500  0.63268800  1
  H  H76  1  0.24417000  0.29279500  0.13268800  1
  H  H77  1  0.25583000  0.70720500  0.63268800  1
  H  H78  1  0.74417000  0.20720500  0.86731200  1
  H  H79  1  0.75583000  0.79279500  0.36731200  1
  H  H80  1  0.90179800  0.55112800  0.84673300  1
  H  H81  1  0.59820200  0.44887200  0.34673300  1
  H  H82  1  0.40179800  0.94887200  0.15326700  1
  H  H83  1  0.09820200  0.05112800  0.65326700  1
  H  H84  1  0.09820200  0.44887200  0.15326700  1
  H  H85  1  0.40179800  0.55112800  0.65326700  1
  H  H86  1  0.59820200  0.05112800  0.84673300  1
  H  H87  1  0.90179800  0.94887200  0.34673300  1
  H  H88  1  0.73922500  0.52649800  0.92536000  1
  H  H89  1  0.76077500  0.47350200  0.42536000  1
  H  H90  1  0.23922500  0.97350200  0.07464000  1
  H  H91  1  0.26077500  0.02649800  0.57464000  1
  H  H92  1  0.26077500  0.47350200  0.07464000  1
  H  H93  1  0.23922500  0.52649800  0.57464000  1
  H  H94  1  0.76077500  0.02649800  0.92536000  1
  H  H95  1  0.73922500  0.97350200  0.42536000  1
  H  H96  1  0.68456100  0.52875000  0.81677800  1
  H  H97  1  0.81543900  0.47125000  0.31677800  1
  H  H98  1  0.18456100  0.97125000  0.18322200  1
  H  H99  1  0.31543900  0.02875000  0.68322200  1
  H  H100  1  0.31543900  0.47125000  0.18322200  1
  H  H101  1  0.18456100  0.52875000  0.68322200  1
  H  H102  1  0.81543900  0.02875000  0.81677800  1
  H  H103  1  0.68456100  0.97125000  0.31677800  1
  H  H104  1  0.37814400  0.48839900  0.82804400  1
  H  H105  1  0.12185600  0.51160100  0.32804400  1
  H  H106  1  0.87814400  0.01160100  0.17195600  1
  H  H107  1  0.62185600  0.98839900  0.67195600  1
  H  H108  1  0.62185600  0.51160100  0.17195600  1
  H  H109  1  0.87814400  0.48839900  0.67195600  1
  H  H110  1  0.12185600  0.98839900  0.82804400  1
  H  H111  1  0.37814400  0.01160100  0.32804400  1
  H  H112  1  0.21485600  0.54971200  0.89978600  1
  H  H113  1  0.28514400  0.45028800  0.39978600  1
  H  H114  1  0.71485600  0.95028800  0.10021400  1
  H  H115  1  0.78514400  0.04971200  0.60021400  1
  H  H116  1  0.78514400  0.45028800  0.10021400  1
  H  H117  1  0.71485600  0.54971200  0.60021400  1
  H  H118  1  0.28514400  0.04971200  0.89978600  1
  H  H119  1  0.21485600  0.95028800  0.39978600  1
  H  H120  1  0.30001900  0.34964200  0.90185500  1
  H  H121  1  0.19998100  0.65035800  0.40185500  1
  H  H122  1  0.80001900  0.15035800  0.09814500  1
  H  H123  1  0.69998100  0.84964200  0.59814500  1
  H  H124  1  0.69998100  0.65035800  0.09814500  1
  H  H125  1  0.80001900  0.34964200  0.59814500  1
  H  H126  1  0.19998100  0.84964200  0.90185500  1
  H  H127  1  0.30001900  0.15035800  0.40185500  1
  H  H128  1  0.42347800  0.50465500  0.93945200  1
  H  H129  1  0.07652200  0.49534500  0.43945200  1
  H  H130  1  0.92347800  0.99534500  0.06054800  1
  H  H131  1  0.57652200  0.00465500  0.56054800  1
  H  H132  1  0.57652200  0.49534500  0.06054800  1
  H  H133  1  0.92347800  0.50465500  0.56054800  1
  H  H134  1  0.07652200  0.00465500  0.93945200  1
  H  H135  1  0.42347800  0.99534500  0.43945200  1
  N  N136  1  0.51798900  0.79032900  0.96905100  1
  N  N137  1  0.98201100  0.20967100  0.46905100  1
  N  N138  1  0.01798900  0.70967100  0.03094900  1
  N  N139  1  0.48201100  0.29032900  0.53094900  1
  N  N140  1  0.48201100  0.20967100  0.03094900  1
  N  N141  1  0.01798900  0.79032900  0.53094900  1
  N  N142  1  0.98201100  0.29032900  0.96905100  1
  N  N143  1  0.51798900  0.70967100  0.46905100  1
  N  N144  1  0.46401100  0.78541100  0.78891800  1
  N  N145  1  0.03598900  0.21458900  0.28891800  1
  N  N146  1  0.96401100  0.71458900  0.21108200  1
  N  N147  1  0.53598900  0.28541100  0.71108200  1
  N  N148  1  0.53598900  0.21458900  0.21108200  1
  N  N149  1  0.96401100  0.78541100  0.71108200  1
  N  N150  1  0.03598900  0.28541100  0.78891800  1
  N  N151  1  0.46401100  0.71458900  0.28891800  1
