# generated using pymatgen
data_RbH3CN2O
_symmetry_space_group_name_H-M   'P 1'
_cell_length_a   7.35918200
_cell_length_b   7.62961300
_cell_length_c   14.28016500
_cell_angle_alpha   90.00000000
_cell_angle_beta   90.00000000
_cell_angle_gamma   90.00000000
_symmetry_Int_Tables_number   1
_chemical_formula_structural   RbH3CN2O
_chemical_formula_sum   'Rb8 H24 C8 N16 O8'
_cell_volume   801.79857255
_cell_formula_units_Z   8
loop_
 _symmetry_equiv_pos_site_id
 _symmetry_equiv_pos_as_xyz
  1  'x, y, z'
loop_
 _atom_site_type_symbol
 _atom_site_label
 _atom_site_symmetry_multiplicity
 _atom_site_fract_x
 _atom_site_fract_y
 _atom_site_fract_z
 _atom_site_occupancy
  Rb  Rb0  1  0.39510100  0.95750700  0.18948300  1
  Rb  Rb1  1  0.89510100  0.54249300  0.81051700  1
  Rb  Rb2  1  0.60489900  0.45750700  0.31051700  1
  Rb  Rb3  1  0.10489900  0.04249300  0.68948300  1
  Rb  Rb4  1  0.60489900  0.04249300  0.81051700  1
  Rb  Rb5  1  0.10489900  0.45750700  0.18948300  1
  Rb  Rb6  1  0.39510100  0.54249300  0.68948300  1
  Rb  Rb7  1  0.89510100  0.95750700  0.31051700  1
  H  H8  1  0.88940200  0.91036000  0.96245900  1
  H  H9  1  0.38940200  0.58964000  0.03754100  1
  H  H10  1  0.11059800  0.41036000  0.53754100  1
  H  H11  1  0.61059800  0.08964000  0.46245900  1
  H  H12  1  0.11059800  0.08964000  0.03754100  1
  H  H13  1  0.61059800  0.41036000  0.96245900  1
  H  H14  1  0.88940200  0.58964000  0.46245900  1
  H  H15  1  0.38940200  0.91036000  0.53754100  1
  H  H16  1  0.71498000  0.75983300  0.97744900  1
  H  H17  1  0.21498000  0.74016700  0.02255100  1
  H  H18  1  0.28502000  0.25983300  0.52255100  1
  H  H19  1  0.78502000  0.24016700  0.47744900  1
  H  H20  1  0.28502000  0.24016700  0.02255100  1
  H  H21  1  0.78502000  0.25983300  0.97744900  1
  H  H22  1  0.71498000  0.74016700  0.47744900  1
  H  H23  1  0.21498000  0.75983300  0.52255100  1
  H  H24  1  0.67112400  0.64693900  0.11963500  1
  H  H25  1  0.17112400  0.85306100  0.88036500  1
  H  H26  1  0.32887600  0.14693900  0.38036500  1
  H  H27  1  0.82887600  0.35306100  0.61963500  1
  H  H28  1  0.32887600  0.35306100  0.88036500  1
  H  H29  1  0.82887600  0.14693900  0.11963500  1
  H  H30  1  0.67112400  0.85306100  0.61963500  1
  H  H31  1  0.17112400  0.64693900  0.38036500  1
  C  C32  1  0.88092200  0.79408400  0.09306300  1
  C  C33  1  0.38092200  0.70591600  0.90693700  1
  C  C34  1  0.11907800  0.29408400  0.40693700  1
  C  C35  1  0.61907800  0.20591600  0.59306300  1
  C  C36  1  0.11907800  0.20591600  0.90693700  1
  C  C37  1  0.61907800  0.29408400  0.09306300  1
  C  C38  1  0.88092200  0.70591600  0.59306300  1
  C  C39  1  0.38092200  0.79408400  0.40693700  1
  N  N40  1  0.84008800  0.80252500  0.99751000  1
  N  N41  1  0.34008800  0.69747500  0.00249000  1
  N  N42  1  0.15991200  0.30252500  0.50249000  1
  N  N43  1  0.65991200  0.19747500  0.49751000  1
  N  N44  1  0.15991200  0.19747500  0.00249000  1
  N  N45  1  0.65991200  0.30252500  0.99751000  1
  N  N46  1  0.84008800  0.69747500  0.49751000  1
  N  N47  1  0.34008800  0.80252500  0.50249000  1
  N  N48  1  0.78031400  0.70240300  0.15315900  1
  N  N49  1  0.28031400  0.79759700  0.84684100  1
  N  N50  1  0.21968600  0.20240300  0.34684100  1
  N  N51  1  0.71968600  0.29759700  0.65315900  1
  N  N52  1  0.21968600  0.29759700  0.84684100  1
  N  N53  1  0.71968600  0.20240300  0.15315900  1
  N  N54  1  0.78031400  0.79759700  0.65315900  1
  N  N55  1  0.28031400  0.70240300  0.34684100  1
  O  O56  1  0.02791100  0.87489800  0.11882100  1
  O  O57  1  0.52791100  0.62510200  0.88117900  1
  O  O58  1  0.97208900  0.37489800  0.38117900  1
  O  O59  1  0.47208900  0.12510200  0.61882100  1
  O  O60  1  0.97208900  0.12510200  0.88117900  1
  O  O61  1  0.47208900  0.37489800  0.11882100  1
  O  O62  1  0.02791100  0.62510200  0.61882100  1
  O  O63  1  0.52791100  0.87489800  0.38117900  1
