# generated using pymatgen
data_Zn7H10(SO9)2
_symmetry_space_group_name_H-M   'P 1'
_cell_length_a   5.57187940
_cell_length_b   8.16619909
_cell_length_c   9.02969937
_cell_angle_alpha   67.10147984
_cell_angle_beta   86.34061660
_cell_angle_gamma   85.50586126
_symmetry_Int_Tables_number   1
_chemical_formula_structural   Zn7H10(SO9)2
_chemical_formula_sum   'Zn7 H10 S2 O18'
_cell_volume   377.07095243
_cell_formula_units_Z   1
loop_
 _symmetry_equiv_pos_site_id
 _symmetry_equiv_pos_as_xyz
  1  'x, y, z'
loop_
 _atom_site_type_symbol
 _atom_site_label
 _atom_site_symmetry_multiplicity
 _atom_site_fract_x
 _atom_site_fract_y
 _atom_site_fract_z
 _atom_site_occupancy
  Zn  Zn0  1  0.50000000  0.00000000  0.00000000  1
  Zn  Zn1  1  0.00106000  0.19008000  0.81279900  1
  Zn  Zn2  1  0.99894000  0.80992000  0.18720100  1
  Zn  Zn3  1  0.49704400  0.34432500  0.67021900  1
  Zn  Zn4  1  0.50295600  0.65567500  0.32978100  1
  Zn  Zn5  1  0.03282300  0.35260000  0.39233000  1
  Zn  Zn6  1  0.96717600  0.64740000  0.60767000  1
  H  H7  1  0.27145700  0.11213800  0.60107400  1
  H  H8  1  0.72854300  0.88786200  0.39892600  1
  H  H9  1  0.60517500  0.32112100  0.40068200  1
  H  H10  1  0.39482500  0.67887900  0.59931800  1
  H  H11  1  0.71708700  0.66889600  0.05446900  1
  H  H12  1  0.28291300  0.33110400  0.94553100  1
  H  H13  1  0.71518900  0.00337900  0.73977800  1
  H  H14  1  0.28481100  0.99662100  0.26022200  1
  H  H15  1  0.75881900  0.44509300  0.85419200  1
  H  H16  1  0.24118100  0.55490700  0.14580800  1
  S  S17  1  0.78858600  0.21366700  0.18182700  1
  S  S18  1  0.21141400  0.78633300  0.81817300  1
  O  O19  1  0.82309200  0.09377000  0.08681000  1
  O  O20  1  0.17690800  0.90623000  0.91319000  1
  O  O21  1  0.72462000  0.39600200  0.07074600  1
  O  O22  1  0.27538000  0.60399800  0.92925400  1
  O  O23  1  0.39707400  0.85912800  0.68890900  1
  O  O24  1  0.60292600  0.14087200  0.31109100  1
  O  O25  1  0.02710600  0.20446000  0.25781400  1
  O  O26  1  0.97289400  0.79554000  0.74218600  1
  O  O27  1  0.20396100  0.23026000  0.59409200  1
  O  O28  1  0.79603900  0.76974000  0.40590800  1
  O  O29  1  0.68142200  0.40231300  0.43846300  1
  O  O30  1  0.31857800  0.59768700  0.56153700  1
  O  O31  1  0.69780100  0.75410200  0.10693800  1
  O  O32  1  0.30219900  0.24589800  0.89306200  1
  O  O33  1  0.69096600  0.09500900  0.78500000  1
  O  O34  1  0.30903400  0.90499100  0.21500000  1
  O  O35  1  0.79830200  0.43551300  0.74921000  1
  O  O36  1  0.20169800  0.56448700  0.25079000  1
