# generated using pymatgen
data_Na2Sb5C2S2N2(OF3)3
_symmetry_space_group_name_H-M   'P 1'
_cell_length_a   7.15035100
_cell_length_b   9.55283981
_cell_length_c   13.66604994
_cell_angle_alpha   74.09554908
_cell_angle_beta   77.39551676
_cell_angle_gamma   82.85713374
_symmetry_Int_Tables_number   1
_chemical_formula_structural   Na2Sb5C2S2N2(OF3)3
_chemical_formula_sum   'Na4 Sb10 C4 S4 N4 O6 F18'
_cell_volume   874.03189583
_cell_formula_units_Z   2
loop_
 _symmetry_equiv_pos_site_id
 _symmetry_equiv_pos_as_xyz
  1  'x, y, z'
loop_
 _atom_site_type_symbol
 _atom_site_label
 _atom_site_symmetry_multiplicity
 _atom_site_fract_x
 _atom_site_fract_y
 _atom_site_fract_z
 _atom_site_occupancy
  Na  Na0  1  0.87833900  0.70429100  0.45964800  1
  Na  Na1  1  0.12166100  0.29570900  0.54035200  1
  Na  Na2  1  0.33544700  0.85710600  0.58567800  1
  Na  Na3  1  0.66455300  0.14289400  0.41432200  1
  Sb  Sb4  1  0.56143400  0.35686900  0.61442800  1
  Sb  Sb5  1  0.43856600  0.64313100  0.38557200  1
  Sb  Sb6  1  0.23604200  0.08009400  0.79824700  1
  Sb  Sb7  1  0.76395800  0.91990600  0.20175300  1
  Sb  Sb8  1  0.70412700  0.95728100  0.72485600  1
  Sb  Sb9  1  0.29587300  0.04271900  0.27514400  1
  Sb  Sb10  1  0.45193600  0.65838700  0.85796000  1
  Sb  Sb11  1  0.54806400  0.34161300  0.14204000  1
  Sb  Sb12  1  0.95930900  0.57252000  0.73635300  1
  Sb  Sb13  1  0.04069100  0.42748000  0.26364700  1
  C  C14  1  0.74337800  0.26542400  0.87191800  1
  C  C15  1  0.25662200  0.73457600  0.12808200  1
  C  C16  1  0.95800700  0.71111400  0.95575200  1
  C  C17  1  0.04199300  0.28888600  0.04424800  1
  S  S18  1  0.75359300  0.09193300  0.92258900  1
  S  S19  1  0.24640700  0.90806700  0.07741100  1
  S  S20  1  0.75218700  0.70208900  0.03469500  1
  S  S21  1  0.24781300  0.29791100  0.96530500  1
  N  N22  1  0.73199400  0.39470500  0.83527300  1
  N  N23  1  0.26800600  0.60529500  0.16472700  1
  N  N24  1  0.10489500  0.72038300  0.89367400  1
  N  N25  1  0.89510500  0.27961700  0.10632600  1
  O  O26  1  0.50111500  0.14177200  0.72614300  1
  O  O27  1  0.49888500  0.85822800  0.27385700  1
  O  O28  1  0.44581800  0.87904200  0.80794200  1
  O  O29  1  0.55418200  0.12095800  0.19205800  1
  O  O30  1  0.72774100  0.70459100  0.77097700  1
  O  O31  1  0.27225900  0.29540900  0.22902300  1
  F  F32  1  0.46269700  0.25913700  0.52531000  1
  F  F33  1  0.53730300  0.74086300  0.47469000  1
  F  F34  1  0.81059500  0.23067300  0.59749100  1
  F  F35  1  0.18940500  0.76932700  0.40250900  1
  F  F36  1  0.69613600  0.47401100  0.46649200  1
  F  F37  1  0.30386400  0.52598900  0.53350800  1
  F  F38  1  0.18145600  0.02746000  0.67463000  1
  F  F39  1  0.81854400  0.97254000  0.32537000  1
  F  F40  1  0.16113200  0.28770000  0.71261600  1
  F  F41  1  0.83886800  0.71230000  0.28738400  1
  F  F42  1  0.64010900  0.94940700  0.58979900  1
  F  F43  1  0.35989100  0.05059300  0.41020100  1
  F  F44  1  0.38789200  0.64284400  0.72749900  1
  F  F45  1  0.61210800  0.35715600  0.27250100  1
  F  F46  1  0.86982000  0.52904600  0.61916200  1
  F  F47  1  0.13018000  0.47095400  0.38083800  1
  F  F48  1  0.04072700  0.76018800  0.62586700  1
  F  F49  1  0.95927300  0.23981200  0.37413300  1
