# generated using pymatgen
data_Ir(SeBr3)3
_symmetry_space_group_name_H-M   'P 1'
_cell_length_a   9.96267400
_cell_length_b   12.60141800
_cell_length_c   18.97283906
_cell_angle_alpha   49.48364891
_cell_angle_beta   90.00000000
_cell_angle_gamma   90.00000000
_symmetry_Int_Tables_number   1
_chemical_formula_structural   Ir(SeBr3)3
_chemical_formula_sum   'Ir4 Se12 Br36'
_cell_volume   1810.78667853
_cell_formula_units_Z   4
loop_
 _symmetry_equiv_pos_site_id
 _symmetry_equiv_pos_as_xyz
  1  'x, y, z'
loop_
 _atom_site_type_symbol
 _atom_site_label
 _atom_site_symmetry_multiplicity
 _atom_site_fract_x
 _atom_site_fract_y
 _atom_site_fract_z
 _atom_site_occupancy
  Ir  Ir0  1  0.75971300  0.74999800  0.50248900  1
  Ir  Ir1  1  0.74028700  0.74999800  0.00248900  1
  Ir  Ir2  1  0.24028700  0.25000200  0.49751100  1
  Ir  Ir3  1  0.25971300  0.25000200  0.99751100  1
  Se  Se4  1  0.74292000  0.75588600  0.37286300  1
  Se  Se5  1  0.75708000  0.75588600  0.87286300  1
  Se  Se6  1  0.25708000  0.24411400  0.62713700  1
  Se  Se7  1  0.24292000  0.24411400  0.12713700  1
  Se  Se8  1  0.80898800  0.99563800  0.41192200  1
  Se  Se9  1  0.69101200  0.99563800  0.91192200  1
  Se  Se10  1  0.19101200  0.00436200  0.58807800  1
  Se  Se11  1  0.30898800  0.00436200  0.08807800  1
  Se  Se12  1  0.99016100  0.67369000  0.53913400  1
  Se  Se13  1  0.50983900  0.67369000  0.03913400  1
  Se  Se14  1  0.00983900  0.32631000  0.46086600  1
  Se  Se15  1  0.49016100  0.32631000  0.96086600  1
  Br  Br16  1  0.51058800  0.77779300  0.46747700  1
  Br  Br17  1  0.98941200  0.77779300  0.96747700  1
  Br  Br18  1  0.48941200  0.22220700  0.53252300  1
  Br  Br19  1  0.01058800  0.22220700  0.03252300  1
  Br  Br20  1  0.73472600  0.78609800  0.61828000  1
  Br  Br21  1  0.76527400  0.78609800  0.11828000  1
  Br  Br22  1  0.26527400  0.21390200  0.38172000  1
  Br  Br23  1  0.23472600  0.21390200  0.88172000  1
  Br  Br24  1  0.74122200  0.48772000  0.62731900  1
  Br  Br25  1  0.75877800  0.48772000  0.12731900  1
  Br  Br26  1  0.25877800  0.51228000  0.37268100  1
  Br  Br27  1  0.24122200  0.51228000  0.87268100  1
  Br  Br28  1  0.96367100  0.72220000  0.33986200  1
  Br  Br29  1  0.53632900  0.72220000  0.83986200  1
  Br  Br30  1  0.03632900  0.27780000  0.66013800  1
  Br  Br31  1  0.46367100  0.27780000  0.16013800  1
  Br  Br32  1  0.64276700  0.54952700  0.41549200  1
  Br  Br33  1  0.85723300  0.54952700  0.91549200  1
  Br  Br34  1  0.35723300  0.45047300  0.58450800  1
  Br  Br35  1  0.14276700  0.45047300  0.08450800  1
  Br  Br36  1  0.85426000  0.09652900  0.25434000  1
  Br  Br37  1  0.64574000  0.09652900  0.75434000  1
  Br  Br38  1  0.14574000  0.90347100  0.74566000  1
  Br  Br39  1  0.35426000  0.90347100  0.24566000  1
  Br  Br40  1  0.61309000  0.12233600  0.38806300  1
  Br  Br41  1  0.88691000  0.12233600  0.88806300  1
  Br  Br42  1  0.38691000  0.87766400  0.61193700  1
  Br  Br43  1  0.11309000  0.87766400  0.11193700  1
  Br  Br44  1  0.12861300  0.87930600  0.44441500  1
  Br  Br45  1  0.37138700  0.87930600  0.94441500  1
  Br  Br46  1  0.87138700  0.12069400  0.55558500  1
  Br  Br47  1  0.62861300  0.12069400  0.05558500  1
  Br  Br48  1  0.06369300  0.59719900  0.68544400  1
  Br  Br49  1  0.43630700  0.59719900  0.18544400  1
  Br  Br50  1  0.93630700  0.40280100  0.31455600  1
  Br  Br51  1  0.56369300  0.40280100  0.81455600  1
