# generated using pymatgen
data_V4Cu13(O13F2)2
_symmetry_space_group_name_H-M   'P 1'
_cell_length_a   5.64151300
_cell_length_b   10.43459237
_cell_length_c   10.98513667
_cell_angle_alpha   107.78046774
_cell_angle_beta   103.27580410
_cell_angle_gamma   96.66791476
_symmetry_Int_Tables_number   1
_chemical_formula_structural   V4Cu13(O13F2)2
_chemical_formula_sum   'V4 Cu13 O26 F4'
_cell_volume   587.09079320
_cell_formula_units_Z   1
loop_
 _symmetry_equiv_pos_site_id
 _symmetry_equiv_pos_as_xyz
  1  'x, y, z'
loop_
 _atom_site_type_symbol
 _atom_site_label
 _atom_site_symmetry_multiplicity
 _atom_site_fract_x
 _atom_site_fract_y
 _atom_site_fract_z
 _atom_site_occupancy
  V  V0  1  0.76025200  0.80327800  0.15293400  1
  V  V1  1  0.23974800  0.19672200  0.84706600  1
  V  V2  1  0.00766300  0.80100900  0.65613900  1
  V  V3  1  0.99233600  0.19899100  0.34386100  1
  Cu  Cu4  1  0.00000000  0.00000000  0.00000000  1
  Cu  Cu5  1  0.50000000  0.00000000  0.00000000  1
  Cu  Cu6  1  0.37033200  0.99587700  0.25010600  1
  Cu  Cu7  1  0.62966800  0.00412300  0.74989400  1
  Cu  Cu8  1  0.75189300  0.00034500  0.49828900  1
  Cu  Cu9  1  0.24810700  0.99965500  0.50171100  1
  Cu  Cu10  1  0.54771600  0.52318600  0.17017800  1
  Cu  Cu11  1  0.45228400  0.47681400  0.82982200  1
  Cu  Cu12  1  0.70675400  0.49130900  0.41654200  1
  Cu  Cu13  1  0.29324600  0.50869100  0.58345800  1
  Cu  Cu14  1  0.86219000  0.51779800  0.71625600  1
  Cu  Cu15  1  0.13781000  0.48220200  0.28374400  1
  Cu  Cu16  1  0.00000000  0.50000000  0.00000000  1
  O  O17  1  0.74153700  0.89039400  0.02918300  1
  O  O18  1  0.25846300  0.10960600  0.97081700  1
  O  O19  1  0.57993200  0.86580300  0.25752100  1
  O  O20  1  0.42006800  0.13419700  0.74247900  1
  O  O21  1  0.67004300  0.62144800  0.07457600  1
  O  O22  1  0.32995700  0.37855200  0.92542400  1
  O  O23  1  0.05166300  0.84383100  0.24972000  1
  O  O24  1  0.94833700  0.15616900  0.75028000  1
  O  O25  1  0.99306900  0.89281400  0.53806900  1
  O  O26  1  0.00693100  0.10718600  0.46193100  1
  O  O27  1  0.92612200  0.61029600  0.59199200  1
  O  O28  1  0.07387800  0.38970400  0.40800800  1
  O  O29  1  0.82704900  0.86841000  0.75661700  1
  O  O30  1  0.17295100  0.13159000  0.24338300  1
  O  O31  1  0.29507100  0.84483600  0.75542700  1
  O  O32  1  0.70492900  0.15516400  0.24457300  1
  O  O33  1  0.26462700  0.92380500  0.06430200  1
  O  O34  1  0.73537300  0.07619500  0.93569800  1
  O  O35  1  0.48281900  0.07469800  0.43661200  1
  O  O36  1  0.51718100  0.92530200  0.56338800  1
  O  O37  1  0.85358200  0.55526700  0.30172500  1
  O  O38  1  0.14641800  0.44473300  0.69827500  1
  O  O39  1  0.43493400  0.41968700  0.26241200  1
  O  O40  1  0.56506600  0.58031300  0.73758800  1
  O  O41  1  0.77345500  0.43443700  0.83625600  1
  O  O42  1  0.22654500  0.56556300  0.16374400  1
  F  F43  1  0.58905100  0.37946100  0.50282600  1
  F  F44  1  0.41094900  0.62053900  0.49717400  1
  F  F45  1  0.14222900  0.63396300  0.94932800  1
  F  F46  1  0.85777100  0.36603700  0.05067200  1
