# generated using pymatgen
data_U3W2O17F2
_symmetry_space_group_name_H-M   'P 1'
_cell_length_a   11.02467225
_cell_length_b   11.02467225
_cell_length_c   10.03595796
_cell_angle_alpha   68.85576564
_cell_angle_beta   68.85576564
_cell_angle_gamma   102.17996345
_symmetry_Int_Tables_number   1
_chemical_formula_structural   U3W2O17F2
_chemical_formula_sum   'U6 W4 O34 F4'
_cell_volume   976.10872901
_cell_formula_units_Z   2
loop_
 _symmetry_equiv_pos_site_id
 _symmetry_equiv_pos_as_xyz
  1  'x, y, z'
loop_
 _atom_site_type_symbol
 _atom_site_label
 _atom_site_symmetry_multiplicity
 _atom_site_fract_x
 _atom_site_fract_y
 _atom_site_fract_z
 _atom_site_occupancy
  U  U0  1  0.29868700  0.80029600  0.65342000  1
  U  U1  1  0.80029600  0.29868700  0.65342000  1
  U  U2  1  0.70131300  0.19970400  0.34658000  1
  U  U3  1  0.19970400  0.70131300  0.34658000  1
  U  U4  1  0.17077800  0.17077800  0.88389700  1
  U  U5  1  0.82922200  0.82922200  0.11610300  1
  W  W6  1  0.00308700  0.47327500  0.84812900  1
  W  W7  1  0.47327500  0.00308700  0.84812900  1
  W  W8  1  0.99691300  0.52672500  0.15187100  1
  W  W9  1  0.52672500  0.99691300  0.15187100  1
  O  O10  1  0.12479100  0.63198600  0.63626200  1
  O  O11  1  0.63198600  0.12479100  0.63626200  1
  O  O12  1  0.87520900  0.36801400  0.36373800  1
  O  O13  1  0.36801400  0.87520900  0.36373800  1
  O  O14  1  0.86474800  0.37485100  0.82143700  1
  O  O15  1  0.37485100  0.86474800  0.82143700  1
  O  O16  1  0.13525200  0.62514900  0.17856300  1
  O  O17  1  0.62514900  0.13525200  0.17856300  1
  O  O18  1  0.88968800  0.39193700  0.08875700  1
  O  O19  1  0.39193700  0.88968800  0.08875700  1
  O  O20  1  0.11031200  0.60806300  0.91124300  1
  O  O21  1  0.60806300  0.11031200  0.91124300  1
  O  O22  1  0.87732700  0.59251500  0.85329400  1
  O  O23  1  0.59251500  0.87732700  0.85329400  1
  O  O24  1  0.12267300  0.40748500  0.14670600  1
  O  O25  1  0.40748500  0.12267300  0.14670600  1
  O  O26  1  0.39876700  0.69197300  0.64528700  1
  O  O27  1  0.69197300  0.39876700  0.64528700  1
  O  O28  1  0.60123300  0.30802700  0.35471300  1
  O  O29  1  0.30802700  0.60123300  0.35471300  1
  O  O30  1  0.11012500  0.36903600  0.84482700  1
  O  O31  1  0.36903600  0.11012500  0.84482700  1
  O  O32  1  0.88987500  0.63096400  0.15517300  1
  O  O33  1  0.63096400  0.88987500  0.15517300  1
  O  O34  1  0.19420700  0.90382600  0.66090500  1
  O  O35  1  0.90382600  0.19420700  0.66090500  1
  O  O36  1  0.80579300  0.09617400  0.33909500  1
  O  O37  1  0.09617400  0.80579300  0.33909500  1
  O  O38  1  0.15701100  0.15701100  0.07309600  1
  O  O39  1  0.84298900  0.84298900  0.92690400  1
  O  O40  1  0.38439100  0.38439100  0.73621700  1
  O  O41  1  0.61560900  0.61560900  0.26378300  1
  O  O42  1  0.19541400  0.19541400  0.68713100  1
  O  O43  1  0.80458600  0.80458600  0.31286900  1
  F  F44  1  0.92515100  0.07484900  0.00000000  1
  F  F45  1  0.07484900  0.92515100  0.00000000  1
  F  F46  1  0.50000000  0.00000000  0.50000000  1
  F  F47  1  0.00000000  0.50000000  0.50000000  1
