# generated using pymatgen
data_FeC4N2O9
_symmetry_space_group_name_H-M   'P 1'
_cell_length_a   10.27028135
_cell_length_b   10.27028135
_cell_length_c   7.69563276
_cell_angle_alpha   89.76922665
_cell_angle_beta   89.76922665
_cell_angle_gamma   59.43512233
_symmetry_Int_Tables_number   1
_chemical_formula_structural   FeC4N2O9
_chemical_formula_sum   'Fe3 C12 N6 O27'
_cell_volume   698.93162017
_cell_formula_units_Z   3
loop_
 _symmetry_equiv_pos_site_id
 _symmetry_equiv_pos_as_xyz
  1  'x, y, z'
loop_
 _atom_site_type_symbol
 _atom_site_label
 _atom_site_symmetry_multiplicity
 _atom_site_fract_x
 _atom_site_fract_y
 _atom_site_fract_z
 _atom_site_occupancy
  Fe  Fe0  1  0.61786200  0.38213800  0.00000000  1
  Fe  Fe1  1  0.38339200  0.99774600  0.97168800  1
  Fe  Fe2  1  0.00225400  0.61660800  0.02831200  1
  C  C3  1  0.65880600  0.40058900  0.40009000  1
  C  C4  1  0.40609900  0.95689900  0.40776000  1
  C  C5  1  0.95686900  0.65204200  0.41731000  1
  C  C6  1  0.59941100  0.34119400  0.59991000  1
  C  C7  1  0.34795800  0.04313100  0.58269000  1
  C  C8  1  0.04310100  0.59390100  0.59224000  1
  C  C9  1  0.30213500  0.61055300  0.99932400  1
  C  C10  1  0.60558400  0.08823600  0.98939500  1
  C  C11  1  0.08865900  0.30363300  0.99652000  1
  C  C12  1  0.38944700  0.69786500  0.00067600  1
  C  C13  1  0.69636700  0.91134100  0.00348000  1
  C  C14  1  0.91176400  0.39441600  0.01060500  1
  N  N15  1  0.58474400  0.71676600  0.30355200  1
  N  N16  1  0.28323400  0.41525600  0.69644800  1
  N  N17  1  0.35005100  0.31722400  0.27930000  1
  N  N18  1  0.68277600  0.64994900  0.72070000  1
  N  N19  1  0.99819100  0.00014500  0.25434400  1
  N  N20  1  0.99985500  0.00180900  0.74565600  1
  O  O21  1  0.61010100  0.37046900  0.26740000  1
  O  O22  1  0.37704100  0.01339700  0.26412300  1
  O  O23  1  0.03995600  0.59666000  0.28012700  1
  O  O24  1  0.62953100  0.38989900  0.73260000  1
  O  O25  1  0.40334000  0.96004400  0.71987300  1
  O  O26  1  0.98660300  0.62295900  0.73587700  1
  O  O27  1  0.72826000  0.46227500  0.44105800  1
  O  O28  1  0.50751500  0.79846500  0.43427500  1
  O  O29  1  0.81990400  0.74089400  0.42853500  1
  O  O30  1  0.53772500  0.27174000  0.55894200  1
  O  O31  1  0.25910600  0.18009600  0.57146500  1
  O  O32  1  0.20153500  0.49248500  0.56572500  1
  O  O33  1  0.38925400  0.46804900  0.00055800  1
  O  O34  1  0.46390000  0.14317800  0.97455200  1
  O  O35  1  0.14481700  0.38871500  0.99608800  1
  O  O36  1  0.53195100  0.61074600  0.99944200  1
  O  O37  1  0.61128500  0.85518300  0.00391200  1
  O  O38  1  0.85682200  0.53610000  0.02544800  1
  O  O39  1  0.15943800  0.68105000  0.99556800  1
  O  O40  1  0.67364500  0.16161100  0.99309100  1
  O  O41  1  0.16110200  0.16095500  0.98770700  1
  O  O42  1  0.31895000  0.84056200  0.00443200  1
  O  O43  1  0.83904500  0.83889800  0.01229300  1
  O  O44  1  0.83838900  0.32635500  0.00690900  1
  O  O45  1  0.75469700  0.99770200  0.49964200  1
  O  O46  1  0.00229800  0.24530300  0.50035800  1
  O  O47  1  0.24523200  0.75476800  0.50000000  1
