# generated using pymatgen
data_H10C5NO6
_symmetry_space_group_name_H-M   'P 1'
_cell_length_a   5.74054205
_cell_length_b   7.97451581
_cell_length_c   10.47145334
_cell_angle_alpha   75.92618720
_cell_angle_beta   89.71227070
_cell_angle_gamma   70.54209417
_symmetry_Int_Tables_number   1
_chemical_formula_structural   H10C5NO6
_chemical_formula_sum   'H20 C10 N2 O12'
_cell_volume   436.90185133
_cell_formula_units_Z   2
loop_
 _symmetry_equiv_pos_site_id
 _symmetry_equiv_pos_as_xyz
  1  'x, y, z'
loop_
 _atom_site_type_symbol
 _atom_site_label
 _atom_site_symmetry_multiplicity
 _atom_site_fract_x
 _atom_site_fract_y
 _atom_site_fract_z
 _atom_site_occupancy
  H  H0  1  0.00857000  0.64451200  0.58527300  1
  H  H1  1  0.99143000  0.35548800  0.41472700  1
  H  H2  1  0.61307500  0.60283300  0.83092100  1
  H  H3  1  0.38692500  0.39716700  0.16907900  1
  H  H4  1  0.68928000  0.21687400  0.65848500  1
  H  H5  1  0.31072000  0.78312600  0.34151500  1
  H  H6  1  0.83964200  0.25586600  0.78123600  1
  H  H7  1  0.16035800  0.74413400  0.21876400  1
  H  H8  1  0.69649100  0.06060300  0.94746300  1
  H  H9  1  0.30350900  0.93939700  0.05253700  1
  H  H10  1  0.44426800  0.24571800  0.84524100  1
  H  H11  1  0.55573200  0.75428200  0.15475900  1
  H  H12  1  0.53296000  0.01756200  0.82111600  1
  H  H13  1  0.46704000  0.98243800  0.17888400  1
  H  H14  1  0.08795300  0.93168300  0.84993400  1
  H  H15  1  0.91204700  0.06831700  0.15006600  1
  H  H16  1  0.92465600  0.89544100  0.72090600  1
  H  H17  1  0.07534400  0.10455900  0.27909400  1
  H  H18  1  0.11727100  0.03576300  0.67959300  1
  H  H19  1  0.88272900  0.96423700  0.32040700  1
  C  C20  1  0.42263500  0.65152800  0.61286100  1
  C  C21  1  0.57736500  0.34847200  0.38713900  1
  C  C22  1  0.64978700  0.69213700  0.54780300  1
  C  C23  1  0.35021300  0.30786300  0.45219700  1
  C  C24  1  0.91668100  0.48131600  0.95079100  1
  C  C25  1  0.08331900  0.51868400  0.04920900  1
  C  C26  1  0.59875800  0.11875700  0.84873300  1
  C  C27  1  0.40124200  0.88124300  0.15126700  1
  C  C28  1  0.99346800  0.99406900  0.75053200  1
  C  C29  1  0.00653200  0.00593100  0.24946800  1
  N  N30  1  0.77781600  0.16012100  0.75372700  1
  N  N31  1  0.22218400  0.83987900  0.24627300  1
  O  O32  1  0.24164200  0.67995800  0.53170600  1
  O  O33  1  0.75835800  0.32004200  0.46829400  1
  O  O34  1  0.43010900  0.59606300  0.73713500  1
  O  O35  1  0.56989100  0.40393700  0.26286500  1
  O  O36  1  0.85483100  0.61753500  0.62738100  1
  O  O37  1  0.14516900  0.38246500  0.37261900  1
  O  O38  1  0.62758900  0.78611600  0.43308100  1
  O  O39  1  0.37241100  0.21388400  0.56691900  1
  O  O40  1  0.71779500  0.62480600  0.90373000  1
  O  O41  1  0.28220500  0.37519400  0.09627000  1
  O  O42  1  0.97401300  0.33084500  0.92377000  1
  O  O43  1  0.02598700  0.66915500  0.07623000  1
