# generated using pymatgen
data_GaAs(H2O3)2
_symmetry_space_group_name_H-M   'P 1'
_cell_length_a   9.01892800
_cell_length_b   10.07174600
_cell_length_c   10.49616100
_cell_angle_alpha   90.00000000
_cell_angle_beta   90.00000000
_cell_angle_gamma   90.00000000
_symmetry_Int_Tables_number   1
_chemical_formula_structural   GaAs(H2O3)2
_chemical_formula_sum   'Ga8 As8 H32 O48'
_cell_volume   953.43297533
_cell_formula_units_Z   8
loop_
 _symmetry_equiv_pos_site_id
 _symmetry_equiv_pos_as_xyz
  1  'x, y, z'
loop_
 _atom_site_type_symbol
 _atom_site_label
 _atom_site_symmetry_multiplicity
 _atom_site_fract_x
 _atom_site_fract_y
 _atom_site_fract_z
 _atom_site_occupancy
  Ga  Ga0  1  0.84688100  0.81949200  0.86955600  1
  Ga  Ga1  1  0.34688100  0.68050800  0.13044400  1
  Ga  Ga2  1  0.15311900  0.31949200  0.63044400  1
  Ga  Ga3  1  0.65311900  0.18050800  0.36955600  1
  Ga  Ga4  1  0.15311900  0.18050800  0.13044400  1
  Ga  Ga5  1  0.65311900  0.31949200  0.86955600  1
  Ga  Ga6  1  0.84688100  0.68050800  0.36955600  1
  Ga  Ga7  1  0.34688100  0.81949200  0.63044400  1
  As  As8  1  0.52739000  0.63763100  0.85188400  1
  As  As9  1  0.02739000  0.86236900  0.14811600  1
  As  As10  1  0.47261000  0.13763100  0.64811600  1
  As  As11  1  0.97261000  0.36236900  0.35188400  1
  As  As12  1  0.47261000  0.36236900  0.14811600  1
  As  As13  1  0.97261000  0.13763100  0.85188400  1
  As  As14  1  0.52739000  0.86236900  0.35188400  1
  As  As15  1  0.02739000  0.63763100  0.64811600  1
  H  H16  1  0.66568900  0.90938500  0.68214600  1
  H  H17  1  0.16568900  0.59061500  0.31785400  1
  H  H18  1  0.33431100  0.40938500  0.81785400  1
  H  H19  1  0.83431100  0.09061500  0.18214600  1
  H  H20  1  0.33431100  0.09061500  0.31785400  1
  H  H21  1  0.83431100  0.40938500  0.68214600  1
  H  H22  1  0.66568900  0.59061500  0.18214600  1
  H  H23  1  0.16568900  0.90938500  0.81785400  1
  H  H24  1  0.80672500  0.82211600  0.62912700  1
  H  H25  1  0.30672500  0.67788400  0.37087300  1
  H  H26  1  0.19327500  0.32211600  0.87087300  1
  H  H27  1  0.69327500  0.17788400  0.12912700  1
  H  H28  1  0.19327500  0.17788400  0.37087300  1
  H  H29  1  0.69327500  0.32211600  0.62912700  1
  H  H30  1  0.80672500  0.67788400  0.12912700  1
  H  H31  1  0.30672500  0.82211600  0.87087300  1
  H  H32  1  0.70539400  0.03340200  0.92076700  1
  H  H33  1  0.20539400  0.46659800  0.07923300  1
  H  H34  1  0.29460600  0.53340200  0.57923300  1
  H  H35  1  0.79460600  0.96659800  0.42076700  1
  H  H36  1  0.29460600  0.96659800  0.07923300  1
  H  H37  1  0.79460600  0.53340200  0.92076700  1
  H  H38  1  0.70539400  0.46659800  0.42076700  1
  H  H39  1  0.20539400  0.03340200  0.57923300  1
  H  H40  1  0.58227200  0.91326200  0.92628800  1
  H  H41  1  0.08227200  0.58673800  0.07371200  1
  H  H42  1  0.41772800  0.41326200  0.57371200  1
  H  H43  1  0.91772800  0.08673800  0.42628800  1
  H  H44  1  0.41772800  0.08673800  0.07371200  1
  H  H45  1  0.91772800  0.41326200  0.92628800  1
  H  H46  1  0.58227200  0.58673800  0.42628800  1
  H  H47  1  0.08227200  0.91326200  0.57371200  1
  O  O48  1  0.49314600  0.69923600  0.70334300  1
  O  O49  1  0.99314600  0.80076400  0.29665700  1
  O  O50  1  0.50685400  0.19923600  0.79665700  1
  O  O51  1  0.00685400  0.30076400  0.20334300  1
  O  O52  1  0.50685400  0.30076400  0.29665700  1
  O  O53  1  0.00685400  0.19923600  0.70334300  1
  O  O54  1  0.49314600  0.80076400  0.20334300  1
  O  O55  1  0.99314600  0.69923600  0.79665700  1
  O  O56  1  0.49917000  0.46830700  0.86010800  1
  O  O57  1  0.99917000  0.03169300  0.13989200  1
  O  O58  1  0.50083000  0.96830700  0.63989200  1
  O  O59  1  0.00083000  0.53169300  0.36010800  1
  O  O60  1  0.50083000  0.53169300  0.13989200  1
  O  O61  1  0.00083000  0.96830700  0.86010800  1
  O  O62  1  0.49917000  0.03169300  0.36010800  1
  O  O63  1  0.99917000  0.46830700  0.63989200  1
  O  O64  1  0.41666900  0.72634900  0.95702200  1
  O  O65  1  0.91666900  0.77365100  0.04297800  1
  O  O66  1  0.58333100  0.22634900  0.54297800  1
  O  O67  1  0.08333100  0.27365100  0.45702200  1
  O  O68  1  0.58333100  0.27365100  0.04297800  1
  O  O69  1  0.08333100  0.22634900  0.95702200  1
  O  O70  1  0.41666900  0.77365100  0.45702200  1
  O  O71  1  0.91666900  0.72634900  0.54297800  1
  O  O72  1  0.71153800  0.66410500  0.88812200  1
  O  O73  1  0.21153800  0.83589500  0.11187800  1
  O  O74  1  0.28846200  0.16410500  0.61187800  1
  O  O75  1  0.78846200  0.33589500  0.38812200  1
  O  O76  1  0.28846200  0.33589500  0.11187800  1
  O  O77  1  0.78846200  0.16410500  0.88812200  1
  O  O78  1  0.71153800  0.83589500  0.38812200  1
  O  O79  1  0.21153800  0.66410500  0.61187800  1
  O  O80  1  0.77054900  0.88104300  0.69985200  1
  O  O81  1  0.27054900  0.61895700  0.30014800  1
  O  O82  1  0.22945100  0.38104300  0.80014800  1
  O  O83  1  0.72945100  0.11895700  0.19985200  1
  O  O84  1  0.22945100  0.11895700  0.30014800  1
  O  O85  1  0.72945100  0.38104300  0.69985200  1
  O  O86  1  0.77054900  0.61895700  0.19985200  1
  O  O87  1  0.27054900  0.88104300  0.80014800  1
  O  O88  1  0.68420900  0.93735200  0.94652600  1
  O  O89  1  0.18420900  0.56264800  0.05347400  1
  O  O90  1  0.31579100  0.43735200  0.55347400  1
  O  O91  1  0.81579100  0.06264800  0.44652600  1
  O  O92  1  0.31579100  0.06264800  0.05347400  1
  O  O93  1  0.81579100  0.43735200  0.94652600  1
  O  O94  1  0.68420900  0.56264800  0.44652600  1
  O  O95  1  0.18420900  0.93735200  0.55347400  1
