# generated using pymatgen
data_CoH13C2N4O9
_symmetry_space_group_name_H-M   'P 1'
_cell_length_a   7.81651800
_cell_length_b   10.12973700
_cell_length_c   14.07517854
_cell_angle_alpha   90.00000000
_cell_angle_beta   109.00677273
_cell_angle_gamma   90.00000000
_symmetry_Int_Tables_number   1
_chemical_formula_structural   CoH13C2N4O9
_chemical_formula_sum   'Co4 H52 C8 N16 O36'
_cell_volume   1053.70198972
_cell_formula_units_Z   4
loop_
 _symmetry_equiv_pos_site_id
 _symmetry_equiv_pos_as_xyz
  1  'x, y, z'
loop_
 _atom_site_type_symbol
 _atom_site_label
 _atom_site_symmetry_multiplicity
 _atom_site_fract_x
 _atom_site_fract_y
 _atom_site_fract_z
 _atom_site_occupancy
  Co  Co0  1  0.10766900  0.37082500  0.67739700  1
  Co  Co1  1  0.10766900  0.12917500  0.17739700  1
  Co  Co2  1  0.89233100  0.62917500  0.32260300  1
  Co  Co3  1  0.89233100  0.87082500  0.82260300  1
  H  H4  1  0.10680100  0.54438700  0.80211400  1
  H  H5  1  0.10680100  0.95561300  0.30211400  1
  H  H6  1  0.89319900  0.45561300  0.19788600  1
  H  H7  1  0.89319900  0.04438700  0.69788600  1
  H  H8  1  0.30167200  0.46107400  0.84319500  1
  H  H9  1  0.30167200  0.03892600  0.34319500  1
  H  H10  1  0.69832800  0.53892600  0.15680500  1
  H  H11  1  0.69832800  0.96107400  0.65680500  1
  H  H12  1  0.11303600  0.39634100  0.85395900  1
  H  H13  1  0.11303600  0.10365900  0.35395900  1
  H  H14  1  0.88696400  0.60365900  0.14604100  1
  H  H15  1  0.88696400  0.89634100  0.64604100  1
  H  H16  1  0.25615100  0.15271400  0.69809000  1
  H  H17  1  0.25615100  0.34728600  0.19809000  1
  H  H18  1  0.74384900  0.84728600  0.30191000  1
  H  H19  1  0.74384900  0.65271400  0.80191000  1
  H  H20  1  0.33994000  0.23685400  0.80408800  1
  H  H21  1  0.33994000  0.26314600  0.30408800  1
  H  H22  1  0.66006000  0.76314600  0.19591200  1
  H  H23  1  0.66006000  0.73685400  0.69591200  1
  H  H24  1  0.41961600  0.26227800  0.70971300  1
  H  H25  1  0.41961600  0.23772200  0.20971300  1
  H  H26  1  0.58038400  0.73772200  0.29028700  1
  H  H27  1  0.58038400  0.76227800  0.79028700  1
  H  H28  1  0.17163300  0.53856600  0.56923000  1
  H  H29  1  0.17163300  0.96143400  0.06923000  1
  H  H30  1  0.82836700  0.46143400  0.43077000  1
  H  H31  1  0.82836700  0.03856600  0.93077000  1
  H  H32  1  0.27570500  0.58430700  0.68697600  1
  H  H33  1  0.27570500  0.91569300  0.18697600  1
  H  H34  1  0.72429500  0.41569300  0.31302400  1
  H  H35  1  0.72429500  0.08430700  0.81302400  1
  H  H36  1  0.37462600  0.47623200  0.63301700  1
  H  H37  1  0.37462600  0.02376800  0.13301700  1
  H  H38  1  0.62537400  0.52376800  0.36698300  1
  H  H39  1  0.62537400  0.97623200  0.86698300  1
  H  H40  1  0.15006100  0.27178100  0.51924800  1
  H  H41  1  0.15006100  0.22821900  0.01924800  1
  H  H42  1  0.84993900  0.72821900  0.48075200  1
  H  H43  1  0.84993900  0.77178100  0.98075200  1
  H  H44  1  0.94094200  0.23420600  0.51751100  1
  H  H45  1  0.94094200  0.26579400  0.01751100  1
  H  H46  1  0.05905800  0.76579400  0.48248900  1
  H  H47  1  0.05905800  0.73420600  0.98248900  1
  H  H48  1  0.64086200  0.64997200  0.54491800  1
  H  H49  1  0.64086200  0.85002800  0.04491800  1
  H  H50  1  0.35913800  0.35002800  0.45508200  1
  H  H51  1  0.35913800  0.14997200  0.95508200  1
  H  H52  1  0.56178800  0.78420300  0.49231300  1
  H  H53  1  0.56178800  0.71579700  0.99231300  1
  H  H54  1  0.43821200  0.21579700  0.50768700  1
  H  H55  1  0.43821200  0.28420300  0.00768700  1
  C  C56  1  0.75696000  0.43616900  0.64019200  1
  C  C57  1  0.75696000  0.06383100  0.14019200  1
  C  C58  1  0.24304000  0.56383100  0.35980800  1
  C  C59  1  0.24304000  0.93616900  0.85980800  1
  C  C60  1  0.78298400  0.29829500  0.69060500  1
  C  C61  1  0.78298400  0.20170500  0.19060500  1
  C  C62  1  0.21701600  0.70170500  0.30939500  1
  C  C63  1  0.21701600  0.79829500  0.80939500  1
  N  N64  1  0.16435000  0.45197400  0.80882000  1
  N  N65  1  0.16435000  0.04802600  0.30882000  1
  N  N66  1  0.83565000  0.54802600  0.19118000  1
  N  N67  1  0.83565000  0.95197400  0.69118000  1
  N  N68  1  0.30358400  0.24415000  0.72737200  1
  N  N69  1  0.30358400  0.25585000  0.22737200  1
  N  N70  1  0.69641600  0.75585000  0.27262800  1
  N  N71  1  0.69641600  0.74415000  0.77262800  1
  N  N72  1  0.25138200  0.50501600  0.63833900  1
  N  N73  1  0.25138200  0.99498400  0.13833900  1
  N  N74  1  0.74861800  0.49498400  0.36166100  1
  N  N75  1  0.74861800  0.00501600  0.86166100  1
  N  N76  1  0.71619100  0.07603800  0.40936900  1
  N  N77  1  0.71619100  0.42396200  0.90936900  1
  N  N78  1  0.28380900  0.92396200  0.59063100  1
  N  N79  1  0.28380900  0.57603800  0.09063100  1
  O  O80  1  0.90096200  0.48431900  0.62759700  1
  O  O81  1  0.90096200  0.01568100  0.12759700  1
  O  O82  1  0.09903800  0.51568100  0.37240300  1
  O  O83  1  0.09903800  0.98431900  0.87240300  1
  O  O84  1  0.94517200  0.24995000  0.71051500  1
  O  O85  1  0.94517200  0.25005000  0.21051500  1
  O  O86  1  0.05482800  0.75005000  0.28948500  1
  O  O87  1  0.05482800  0.74995000  0.78948500  1
  O  O88  1  0.60770100  0.49368900  0.61292700  1
  O  O89  1  0.60770100  0.00631100  0.11292700  1
  O  O90  1  0.39229900  0.50631100  0.38707300  1
  O  O91  1  0.39229900  0.99368900  0.88707300  1
  O  O92  1  0.65698500  0.23907900  0.70822500  1
  O  O93  1  0.65698500  0.26092100  0.20822500  1
  O  O94  1  0.34301500  0.76092100  0.29177500  1
  O  O95  1  0.34301500  0.73907900  0.79177500  1
  O  O96  1  0.04705800  0.29695500  0.54281100  1
  O  O97  1  0.04705800  0.20304500  0.04281100  1
  O  O98  1  0.95294200  0.70304500  0.45718900  1
  O  O99  1  0.95294200  0.79695500  0.95718900  1
  O  O100  1  0.67507300  0.73878200  0.52766400  1
  O  O101  1  0.67507300  0.76121800  0.02766400  1
  O  O102  1  0.32492700  0.26121800  0.47233600  1
  O  O103  1  0.32492700  0.23878200  0.97233600  1
  O  O104  1  0.73603200  0.17381200  0.47029500  1
  O  O105  1  0.73603200  0.32618800  0.97029500  1
  O  O106  1  0.26396800  0.82618800  0.52970500  1
  O  O107  1  0.26396800  0.67381200  0.02970500  1
  O  O108  1  0.56425600  0.01946700  0.37637600  1
  O  O109  1  0.56425600  0.48053300  0.87637600  1
  O  O110  1  0.43574400  0.98053300  0.62362400  1
  O  O111  1  0.43574400  0.51946700  0.12362400  1
  O  O112  1  0.84809700  0.03703300  0.38342100  1
  O  O113  1  0.84809700  0.46296700  0.88342100  1
  O  O114  1  0.15190300  0.96296700  0.61657900  1
  O  O115  1  0.15190300  0.53703300  0.11657900  1
