# generated using pymatgen
data_TlH(CO2)2
_symmetry_space_group_name_H-M   'P 1'
_cell_length_a   6.64060100
_cell_length_b   6.49766300
_cell_length_c   10.44962422
_cell_angle_alpha   84.84888550
_cell_angle_beta   90.00000000
_cell_angle_gamma   90.00000000
_symmetry_Int_Tables_number   1
_chemical_formula_structural   TlH(CO2)2
_chemical_formula_sum   'Tl4 H4 C8 O16'
_cell_volume   449.06347645
_cell_formula_units_Z   4
loop_
 _symmetry_equiv_pos_site_id
 _symmetry_equiv_pos_as_xyz
  1  'x, y, z'
loop_
 _atom_site_type_symbol
 _atom_site_label
 _atom_site_symmetry_multiplicity
 _atom_site_fract_x
 _atom_site_fract_y
 _atom_site_fract_z
 _atom_site_occupancy
  Tl  Tl0  1  0.04495900  0.06294600  0.19187300  1
  Tl  Tl1  1  0.54495900  0.43705400  0.80812700  1
  Tl  Tl2  1  0.95504100  0.93705400  0.80812700  1
  Tl  Tl3  1  0.45504100  0.56294600  0.19187300  1
  H  H4  1  0.06924200  0.44368100  0.69845800  1
  H  H5  1  0.56924200  0.05631900  0.30154200  1
  H  H6  1  0.93075800  0.55631900  0.30154200  1
  H  H7  1  0.43075800  0.94368100  0.69845800  1
  C  C8  1  0.08397600  0.41699100  0.50921400  1
  C  C9  1  0.58397600  0.08300900  0.49078600  1
  C  C10  1  0.91602400  0.58300900  0.49078600  1
  C  C11  1  0.41602400  0.91699100  0.50921400  1
  C  C12  1  0.95431100  0.55515500  0.05684500  1
  C  C13  1  0.45431100  0.94484500  0.94315500  1
  C  C14  1  0.04568900  0.44484500  0.94315500  1
  C  C15  1  0.54568900  0.05515500  0.05684500  1
  O  O16  1  0.14407000  0.37028000  0.62892200  1
  O  O17  1  0.64407000  0.12972000  0.37107800  1
  O  O18  1  0.85593000  0.62972000  0.37107800  1
  O  O19  1  0.35593000  0.87028000  0.62892200  1
  O  O20  1  0.15475700  0.33598400  0.41792500  1
  O  O21  1  0.65475700  0.16401600  0.58207500  1
  O  O22  1  0.84524300  0.66401600  0.58207500  1
  O  O23  1  0.34524300  0.83598400  0.41792500  1
  O  O24  1  0.01377000  0.48625400  0.16907500  1
  O  O25  1  0.51377000  0.01374600  0.83092500  1
  O  O26  1  0.98623000  0.51374600  0.83092500  1
  O  O27  1  0.48623000  0.98625400  0.16907500  1
  O  O28  1  0.83182300  0.70154300  0.03136600  1
  O  O29  1  0.33182300  0.79845700  0.96863400  1
  O  O30  1  0.16817700  0.29845700  0.96863400  1
  O  O31  1  0.66817700  0.20154300  0.03136600  1
