# generated using pymatgen
data_BC6XeF11
_symmetry_space_group_name_H-M   'P 1'
_cell_length_a   19.43329700
_cell_length_b   7.61261400
_cell_length_c   8.94186779
_cell_angle_alpha   56.41266214
_cell_angle_beta   90.00000000
_cell_angle_gamma   90.00000000
_symmetry_Int_Tables_number   1
_chemical_formula_structural   BC6XeF11
_chemical_formula_sum   'B4 C24 Xe4 F44'
_cell_volume   1101.98639060
_cell_formula_units_Z   4
loop_
 _symmetry_equiv_pos_site_id
 _symmetry_equiv_pos_as_xyz
  1  'x, y, z'
loop_
 _atom_site_type_symbol
 _atom_site_label
 _atom_site_symmetry_multiplicity
 _atom_site_fract_x
 _atom_site_fract_y
 _atom_site_fract_z
 _atom_site_occupancy
  B  B0  1  0.43515300  0.81346100  0.93772400  1
  B  B1  1  0.06484700  0.81346100  0.43772400  1
  B  B2  1  0.56484700  0.18653900  0.06227600  1
  B  B3  1  0.93515300  0.18653900  0.56227600  1
  C  C4  1  0.66259000  0.41013000  0.54992100  1
  C  C5  1  0.83741000  0.41013000  0.04992100  1
  C  C6  1  0.33741000  0.58987000  0.45007900  1
  C  C7  1  0.16259000  0.58987000  0.95007900  1
  C  C8  1  0.62105100  0.31673400  0.48513200  1
  C  C9  1  0.87894900  0.31673400  0.98513200  1
  C  C10  1  0.37894900  0.68326600  0.51486800  1
  C  C11  1  0.12105100  0.68326600  0.01486800  1
  C  C12  1  0.62070600  0.10070300  0.55678600  1
  C  C13  1  0.87929400  0.10070300  0.05678600  1
  C  C14  1  0.37929400  0.89929700  0.44321400  1
  C  C15  1  0.12070600  0.89929700  0.94321400  1
  C  C16  1  0.66557200  0.97245700  0.69872800  1
  C  C17  1  0.83442800  0.97245700  0.19872800  1
  C  C18  1  0.33442800  0.02754300  0.30127200  1
  C  C19  1  0.16557200  0.02754300  0.80127200  1
  C  C20  1  0.70583100  0.27903000  0.69427800  1
  C  C21  1  0.79416900  0.27903000  0.19427800  1
  C  C22  1  0.29416900  0.72097000  0.30572200  1
  C  C23  1  0.20583100  0.72097000  0.80572200  1
  C  C24  1  0.70737600  0.06248000  0.76692500  1
  C  C25  1  0.79262400  0.06248000  0.26692500  1
  C  C26  1  0.29262400  0.93752000  0.23307500  1
  C  C27  1  0.20737600  0.93752000  0.73307500  1
  Xe  Xe28  1  0.55362500  0.51715000  0.26835700  1
  Xe  Xe29  1  0.94637500  0.51715000  0.76835700  1
  Xe  Xe30  1  0.44637500  0.48285000  0.73164300  1
  Xe  Xe31  1  0.05362500  0.48285000  0.23164300  1
  F  F32  1  0.47739600  0.35451700  0.45457300  1
  F  F33  1  0.02260400  0.35451700  0.95457300  1
  F  F34  1  0.52260400  0.64548300  0.54542700  1
  F  F35  1  0.97739600  0.64548300  0.04542700  1
  F  F36  1  0.66105800  0.61690100  0.47878600  1
  F  F37  1  0.83894200  0.61690100  0.97878600  1
  F  F38  1  0.33894200  0.38309900  0.52121400  1
  F  F39  1  0.16105800  0.38309900  0.02121400  1
  F  F40  1  0.57941700  0.01646600  0.49373200  1
  F  F41  1  0.92058300  0.01646600  0.99373200  1
  F  F42  1  0.42058300  0.98353400  0.50626800  1
  F  F43  1  0.07941700  0.98353400  0.00626800  1
  F  F44  1  0.63970300  0.64913300  0.11693800  1
  F  F45  1  0.86029700  0.64913300  0.61693800  1
  F  F46  1  0.36029700  0.35086700  0.88306200  1
  F  F47  1  0.13970300  0.35086700  0.38306200  1
  F  F48  1  0.38281900  0.73873600  0.87858000  1
  F  F49  1  0.11718100  0.73873600  0.37858000  1
  F  F50  1  0.61718100  0.26126400  0.12142000  1
  F  F51  1  0.88281900  0.26126400  0.62142000  1
  F  F52  1  0.50145100  0.75462200  0.90703900  1
  F  F53  1  0.99854900  0.75462200  0.40703900  1
  F  F54  1  0.49854900  0.24537800  0.09296100  1
  F  F55  1  0.00145100  0.24537800  0.59296100  1
  F  F56  1  0.66884300  0.76604100  0.76671400  1
  F  F57  1  0.83115700  0.76604100  0.26671400  1
  F  F58  1  0.33115700  0.23395900  0.23328600  1
  F  F59  1  0.16884300  0.23395900  0.73328600  1
  F  F60  1  0.74456900  0.35983700  0.76598700  1
  F  F61  1  0.75543100  0.35983700  0.26598700  1
  F  F62  1  0.25543100  0.64016300  0.23401300  1
  F  F63  1  0.24456900  0.64016300  0.73401300  1
  F  F64  1  0.43027200  0.71052100  0.13000800  1
  F  F65  1  0.06972800  0.71052100  0.63000800  1
  F  F66  1  0.56972800  0.28947900  0.86999200  1
  F  F67  1  0.93027200  0.28947900  0.36999200  1
  F  F68  1  0.43098000  0.03168400  0.85302600  1
  F  F69  1  0.06902000  0.03168400  0.35302600  1
  F  F70  1  0.56902000  0.96831600  0.14697400  1
  F  F71  1  0.93098000  0.96831600  0.64697400  1
  F  F72  1  0.74930100  0.93997800  0.90495300  1
  F  F73  1  0.75069900  0.93997800  0.40495300  1
  F  F74  1  0.25069900  0.06002200  0.09504700  1
  F  F75  1  0.24930100  0.06002200  0.59504700  1
