# generated using pymatgen
data_K2U(Si2O5)3
_symmetry_space_group_name_H-M   'P 1'
_cell_length_a   12.81056235
_cell_length_b   12.81056235
_cell_length_c   17.32783063
_cell_angle_alpha   83.17989068
_cell_angle_beta   83.17989068
_cell_angle_gamma   32.53212712
_symmetry_Int_Tables_number   1
_chemical_formula_structural   K2U(Si2O5)3
_chemical_formula_sum   'K8 U4 Si24 O60'
_cell_volume   1517.50624884
_cell_formula_units_Z   4
loop_
 _symmetry_equiv_pos_site_id
 _symmetry_equiv_pos_as_xyz
  1  'x, y, z'
loop_
 _atom_site_type_symbol
 _atom_site_label
 _atom_site_symmetry_multiplicity
 _atom_site_fract_x
 _atom_site_fract_y
 _atom_site_fract_z
 _atom_site_occupancy
  K  K0  1  0.55248600  0.65358700  0.74141100  1
  K  K1  1  0.34641300  0.44751400  0.75858900  1
  K  K2  1  0.44751400  0.34641300  0.25858900  1
  K  K3  1  0.65358700  0.55248600  0.24141100  1
  K  K4  1  0.36577100  0.31860800  0.49545700  1
  K  K5  1  0.68139200  0.63422900  0.00454300  1
  K  K6  1  0.63422900  0.68139200  0.50454300  1
  K  K7  1  0.31860800  0.36577100  0.99545700  1
  U  U8  1  0.08943400  0.15318700  0.62712500  1
  U  U9  1  0.84681300  0.91056600  0.87287500  1
  U  U10  1  0.91056600  0.84681300  0.37287500  1
  U  U11  1  0.15318700  0.08943400  0.12712500  1
  Si  Si12  1  0.88257500  0.95871400  0.66229100  1
  Si  Si13  1  0.04128600  0.11742500  0.83770900  1
  Si  Si14  1  0.11742500  0.04128600  0.33770900  1
  Si  Si15  1  0.95871400  0.88257500  0.16229100  1
  Si  Si16  1  0.25221900  0.75830300  0.57207200  1
  Si  Si17  1  0.24169700  0.74778100  0.92792800  1
  Si  Si18  1  0.74778100  0.24169700  0.42792800  1
  Si  Si19  1  0.75830300  0.25221900  0.07207200  1
  Si  Si20  1  0.13773700  0.22222600  0.42015500  1
  Si  Si21  1  0.77777400  0.86226300  0.07984500  1
  Si  Si22  1  0.86226300  0.77777400  0.57984600  1
  Si  Si23  1  0.22222600  0.13773700  0.92015400  1
  Si  Si24  1  0.66627300  0.34375400  0.60929900  1
  Si  Si25  1  0.65624600  0.33372700  0.89070100  1
  Si  Si26  1  0.33372700  0.65624600  0.39070100  1
  Si  Si27  1  0.34375400  0.66627300  0.10929900  1
  Si  Si28  1  0.89210000  0.60315500  0.32044600  1
  Si  Si29  1  0.39684500  0.10790000  0.17955400  1
  Si  Si30  1  0.10790000  0.39684500  0.67955400  1
  Si  Si31  1  0.60315500  0.89210000  0.82044600  1
  Si  Si32  1  0.50137600  0.02777600  0.35515900  1
  Si  Si33  1  0.97222400  0.49862400  0.14484100  1
  Si  Si34  1  0.49862400  0.97222400  0.64484100  1
  Si  Si35  1  0.02777600  0.50137600  0.85515900  1
  O  O36  1  0.00731200  0.61233700  0.33179300  1
  O  O37  1  0.38766300  0.99268800  0.16820700  1
  O  O38  1  0.99268800  0.38766300  0.66820700  1
  O  O39  1  0.61233700  0.00731200  0.83179300  1
  O  O40  1  0.66606400  0.79494300  0.35736500  1
  O  O41  1  0.20505700  0.33393600  0.14263500  1
  O  O42  1  0.33393600  0.20505700  0.64263500  1
  O  O43  1  0.79494300  0.66606400  0.85736500  1
  O  O44  1  0.42911800  0.55386800  0.62473500  1
  O  O45  1  0.44613200  0.57088200  0.87526500  1
  O  O46  1  0.57088200  0.44613200  0.37526500  1
  O  O47  1  0.55386800  0.42911800  0.12473500  1
  O  O48  1  0.33354300  0.13122100  0.42287300  1
  O  O49  1  0.86877900  0.66645700  0.07712700  1
  O  O50  1  0.66645700  0.86877900  0.57712700  1
  O  O51  1  0.13122100  0.33354300  0.92287300  1
  O  O52  1  0.97640100  0.42264000  0.36542100  1
  O  O53  1  0.57736000  0.02359900  0.13457900  1
  O  O54  1  0.02359900  0.57736000  0.63457900  1
  O  O55  1  0.42264000  0.97640100  0.86542100  1
  O  O56  1  0.77819000  0.35083200  0.63307800  1
  O  O57  1  0.64916800  0.22181000  0.86692200  1
  O  O58  1  0.22181000  0.64916800  0.36692200  1
  O  O59  1  0.35083200  0.77819000  0.13307800  1
  O  O60  1  0.71358000  0.19235900  0.66299900  1
  O  O61  1  0.80764100  0.28642000  0.83700100  1
  O  O62  1  0.28642000  0.80764100  0.33700100  1
  O  O63  1  0.19235900  0.71358000  0.16299900  1
  O  O64  1  0.59297900  0.06003400  0.37386000  1
  O  O65  1  0.93996600  0.40702100  0.12614000  1
  O  O66  1  0.40702100  0.93996600  0.62614000  1
  O  O67  1  0.06003400  0.59297900  0.87386000  1
  O  O68  1  0.04282600  0.27204100  0.50594200  1
  O  O69  1  0.72795900  0.95717400  0.99405800  1
  O  O70  1  0.95717400  0.72795900  0.49405800  1
  O  O71  1  0.27204100  0.04282600  0.00594200  1
  O  O72  1  0.87064800  0.60157100  0.22935700  1
  O  O73  1  0.39842900  0.12935200  0.27064300  1
  O  O74  1  0.12935200  0.39842900  0.77064300  1
  O  O75  1  0.60157100  0.87064800  0.72935700  1
  O  O76  1  0.13833800  0.04486600  0.75129500  1
  O  O77  1  0.95513400  0.86166200  0.74870500  1
  O  O78  1  0.86166200  0.95513400  0.24870500  1
  O  O79  1  0.04486600  0.13833800  0.25129500  1
  O  O80  1  0.21431100  0.05664800  0.37761200  1
  O  O81  1  0.94335200  0.78568900  0.12238800  1
  O  O82  1  0.78568900  0.94335200  0.62238800  1
  O  O83  1  0.05664800  0.21431100  0.87761200  1
  O  O84  1  0.29377700  0.70317000  0.48213600  1
  O  O85  1  0.29683000  0.70622300  0.01786400  1
  O  O86  1  0.70622300  0.29683000  0.51786400  1
  O  O87  1  0.70317000  0.29377700  0.98213600  1
  O  O88  1  0.23531200  0.89558300  0.58117000  1
  O  O89  1  0.10441700  0.76468800  0.91883000  1
  O  O90  1  0.76468800  0.10441700  0.41883000  1
  O  O91  1  0.89558300  0.23531200  0.08117000  1
  O  O92  1  0.05912200  0.85476500  0.60275000  1
  O  O93  1  0.14523500  0.94087800  0.89725000  1
  O  O94  1  0.94087800  0.14523500  0.39725000  1
  O  O95  1  0.85476500  0.05912200  0.10275000  1
