# generated using pymatgen
data_YbH12(CN3)3
_symmetry_space_group_name_H-M   'P 1'
_cell_length_a   14.04767070
_cell_length_b   14.04767070
_cell_length_c   14.04767070
_cell_angle_alpha   90.00000000
_cell_angle_beta   90.00000000
_cell_angle_gamma   90.00000000
_symmetry_Int_Tables_number   1
_chemical_formula_structural   YbH12(CN3)3
_chemical_formula_sum   'Yb8 H96 C24 N72'
_cell_volume   2772.12592475
_cell_formula_units_Z   8
loop_
 _symmetry_equiv_pos_site_id
 _symmetry_equiv_pos_as_xyz
  1  'x, y, z'
loop_
 _atom_site_type_symbol
 _atom_site_label
 _atom_site_symmetry_multiplicity
 _atom_site_fract_x
 _atom_site_fract_y
 _atom_site_fract_z
 _atom_site_occupancy
  Yb  Yb0  1  -0.00000000  0.50000000  0.50000000  1
  Yb  Yb1  1  0.50000000  0.50000000  -0.00000000  1
  Yb  Yb2  1  0.50000000  -0.00000000  0.50000000  1
  Yb  Yb3  1  -0.00000000  0.00000000  -0.00000000  1
  Yb  Yb4  1  0.50000000  0.00000000  -0.00000000  1
  Yb  Yb5  1  -0.00000000  -0.00000000  0.50000000  1
  Yb  Yb6  1  -0.00000000  0.50000000  -0.00000000  1
  Yb  Yb7  1  0.50000000  0.50000000  0.50000000  1
  H  H8  1  0.82534193  0.04584024  0.88073024  1
  H  H9  1  0.67465807  0.04584024  0.61926976  1
  H  H10  1  0.67465807  0.45415976  0.88073024  1
  H  H11  1  0.82534193  0.45415976  0.61926976  1
  H  H12  1  0.88073024  0.82534193  0.04584024  1
  H  H13  1  0.61926976  0.67465807  0.04584024  1
  H  H14  1  0.88073024  0.67465807  0.45415976  1
  H  H15  1  0.61926976  0.82534193  0.45415976  1
  H  H16  1  0.04584024  0.88073024  0.82534193  1
  H  H17  1  0.04584024  0.61926976  0.67465807  1
  H  H18  1  0.45415976  0.88073024  0.67465807  1
  H  H19  1  0.45415976  0.61926976  0.82534193  1
  H  H20  1  0.17465807  0.95415976  0.11926976  1
  H  H21  1  0.32534193  0.95415976  0.38073024  1
  H  H22  1  0.32534193  0.54584024  0.11926976  1
  H  H23  1  0.17465807  0.54584024  0.38073024  1
  H  H24  1  0.11926976  0.17465807  0.95415976  1
  H  H25  1  0.38073024  0.32534193  0.95415976  1
  H  H26  1  0.11926976  0.32534193  0.54584024  1
  H  H27  1  0.38073024  0.17465807  0.54584024  1
  H  H28  1  0.95415976  0.11926976  0.17465807  1
  H  H29  1  0.95415976  0.38073024  0.32534193  1
  H  H30  1  0.54584024  0.11926976  0.32534193  1
  H  H31  1  0.54584024  0.38073024  0.17465807  1
  H  H32  1  0.67488084  0.02932642  0.87939971  1
  H  H33  1  0.82511916  0.02932642  0.62060029  1
  H  H34  1  0.82511916  0.47067358  0.87939971  1
  H  H35  1  0.67488084  0.47067358  0.62060029  1
  H  H36  1  0.87939971  0.67488084  0.02932642  1
  H  H37  1  0.62060029  0.82511916  0.02932642  1
  H  H38  1  0.87939971  0.82511916  0.47067358  1
  H  H39  1  0.62060029  0.67488084  0.47067358  1
  H  H40  1  0.02932642  0.87939971  0.67488084  1
  H  H41  1  0.02932642  0.62060029  0.82511916  1
  H  H42  1  0.47067358  0.87939971  0.82511916  1
  H  H43  1  0.47067358  0.62060029  0.67488084  1
  H  H44  1  0.32511916  0.97067358  0.12060029  1
  H  H45  1  0.17488084  0.97067358  0.37939971  1
  H  H46  1  0.17488084  0.52932642  0.12060029  1
  H  H47  1  0.32511916  0.52932642  0.37939971  1
  H  H48  1  0.12060029  0.32511916  0.97067358  1
  H  H49  1  0.37939971  0.17488084  0.97067358  1
  H  H50  1  0.12060029  0.17488084  0.52932642  1
  H  H51  1  0.37939971  0.32511916  0.52932642  1
  H  H52  1  0.97067358  0.12060029  0.32511916  1
  H  H53  1  0.97067358  0.37939971  0.17488084  1
  H  H54  1  0.52932642  0.12060029  0.17488084  1
  H  H55  1  0.52932642  0.37939971  0.32511916  1
  H  H56  1  0.81113463  0.02800260  0.12807415  1
  H  H57  1  0.68886537  0.02800260  0.37192585  1
  H  H58  1  0.68886537  0.47199740  0.12807415  1
  H  H59  1  0.81113463  0.47199740  0.37192585  1
  H  H60  1  0.12807415  0.81113463  0.02800260  1
  H  H61  1  0.37192585  0.68886537  0.02800260  1
  H  H62  1  0.12807415  0.68886537  0.47199740  1
  H  H63  1  0.37192585  0.81113463  0.47199740  1
  H  H64  1  0.02800260  0.12807415  0.81113463  1
  H  H65  1  0.02800260  0.37192585  0.68886537  1
  H  H66  1  0.47199740  0.12807415  0.68886537  1
  H  H67  1  0.47199740  0.37192585  0.81113463  1
  H  H68  1  0.18886537  0.97199740  0.87192585  1
  H  H69  1  0.31113463  0.97199740  0.62807415  1
  H  H70  1  0.31113463  0.52800260  0.87192585  1
  H  H71  1  0.18886537  0.52800260  0.62807415  1
  H  H72  1  0.87192585  0.18886537  0.97199740  1
  H  H73  1  0.62807415  0.31113463  0.97199740  1
  H  H74  1  0.87192585  0.31113463  0.52800260  1
  H  H75  1  0.62807415  0.18886537  0.52800260  1
  H  H76  1  0.97199740  0.87192585  0.18886537  1
  H  H77  1  0.97199740  0.62807415  0.31113463  1
  H  H78  1  0.52800260  0.87192585  0.31113463  1
  H  H79  1  0.52800260  0.62807415  0.18886537  1
  H  H80  1  0.68598860  0.01340865  0.12414658  1
  H  H81  1  0.81401140  0.01340865  0.37585342  1
  H  H82  1  0.81401140  0.48659135  0.12414658  1
  H  H83  1  0.68598860  0.48659135  0.37585342  1
  H  H84  1  0.12414658  0.68598860  0.01340865  1
  H  H85  1  0.37585342  0.81401140  0.01340865  1
  H  H86  1  0.12414658  0.81401140  0.48659135  1
  H  H87  1  0.37585342  0.68598860  0.48659135  1
  H  H88  1  0.01340865  0.12414658  0.68598860  1
  H  H89  1  0.01340865  0.37585342  0.81401140  1
  H  H90  1  0.48659135  0.12414658  0.81401140  1
  H  H91  1  0.48659135  0.37585342  0.68598860  1
  H  H92  1  0.31401140  0.98659135  0.87585342  1
  H  H93  1  0.18598860  0.98659135  0.62414658  1
  H  H94  1  0.18598860  0.51340865  0.87585342  1
  H  H95  1  0.31401140  0.51340865  0.62414658  1
  H  H96  1  0.87585342  0.31401140  0.98659135  1
  H  H97  1  0.62414658  0.18598860  0.98659135  1
  H  H98  1  0.87585342  0.18598860  0.51340865  1
  H  H99  1  0.62414658  0.31401140  0.51340865  1
  H  H100  1  0.98659135  0.87585342  0.31401140  1
  H  H101  1  0.98659135  0.62414658  0.18598860  1
  H  H102  1  0.51340865  0.87585342  0.18598860  1
  H  H103  1  0.51340865  0.62414658  0.31401140  1
  C  C104  1  0.75054915  0.02788375  0.99498824  1
  C  C105  1  0.74945085  0.02788375  0.50501176  1
  C  C106  1  0.74945085  0.47211625  0.99498824  1
  C  C107  1  0.75054915  0.47211625  0.50501176  1
  C  C108  1  0.99498824  0.75054915  0.02788375  1
  C  C109  1  0.50501176  0.74945085  0.02788375  1
  C  C110  1  0.99498824  0.74945085  0.47211625  1
  C  C111  1  0.50501176  0.75054915  0.47211625  1
  C  C112  1  0.02788375  0.99498824  0.75054915  1
  C  C113  1  0.02788375  0.50501176  0.74945085  1
  C  C114  1  0.47211625  0.99498824  0.74945085  1
  C  C115  1  0.47211625  0.50501176  0.75054915  1
  C  C116  1  0.24945085  0.97211625  0.00501176  1
  C  C117  1  0.25054915  0.97211625  0.49498824  1
  C  C118  1  0.25054915  0.52788375  0.00501176  1
  C  C119  1  0.24945085  0.52788375  0.49498824  1
  C  C120  1  0.00501176  0.24945085  0.97211625  1
  C  C121  1  0.49498824  0.25054915  0.97211625  1
  C  C122  1  0.00501176  0.25054915  0.52788375  1
  C  C123  1  0.49498824  0.24945085  0.52788375  1
  C  C124  1  0.97211625  0.00501176  0.24945085  1
  C  C125  1  0.97211625  0.49498824  0.25054915  1
  C  C126  1  0.52788375  0.00501176  0.25054915  1
  C  C127  1  0.52788375  0.49498824  0.24945085  1
  N  N128  1  0.83567097  0.04276535  0.95279940  1
  N  N129  1  0.66432903  0.04276535  0.54720060  1
  N  N130  1  0.66432903  0.45723465  0.95279940  1
  N  N131  1  0.83567097  0.45723465  0.54720060  1
  N  N132  1  0.95279940  0.83567097  0.04276535  1
  N  N133  1  0.54720060  0.66432903  0.04276535  1
  N  N134  1  0.95279940  0.66432903  0.45723465  1
  N  N135  1  0.54720060  0.83567097  0.45723465  1
  N  N136  1  0.04276535  0.95279940  0.83567097  1
  N  N137  1  0.04276535  0.54720060  0.66432903  1
  N  N138  1  0.45723465  0.95279940  0.66432903  1
  N  N139  1  0.45723465  0.54720060  0.83567097  1
  N  N140  1  0.16432903  0.95723465  0.04720060  1
  N  N141  1  0.33567097  0.95723465  0.45279940  1
  N  N142  1  0.33567097  0.54276535  0.04720060  1
  N  N143  1  0.16432903  0.54276535  0.45279940  1
  N  N144  1  0.04720060  0.16432903  0.95723465  1
  N  N145  1  0.45279940  0.33567097  0.95723465  1
  N  N146  1  0.04720060  0.33567097  0.54276535  1
  N  N147  1  0.45279940  0.16432903  0.54276535  1
  N  N148  1  0.95723465  0.04720060  0.16432903  1
  N  N149  1  0.95723465  0.45279940  0.33567097  1
  N  N150  1  0.54276535  0.04720060  0.33567097  1
  N  N151  1  0.54276535  0.45279940  0.16432903  1
  N  N152  1  0.66494716  0.02853948  0.95176479  1
  N  N153  1  0.83505284  0.02853948  0.54823521  1
  N  N154  1  0.83505284  0.47146052  0.95176479  1
  N  N155  1  0.66494716  0.47146052  0.54823521  1
  N  N156  1  0.95176479  0.66494716  0.02853948  1
  N  N157  1  0.54823521  0.83505284  0.02853948  1
  N  N158  1  0.95176479  0.83505284  0.47146052  1
  N  N159  1  0.54823521  0.66494716  0.47146052  1
  N  N160  1  0.02853948  0.95176479  0.66494716  1
  N  N161  1  0.02853948  0.54823521  0.83505284  1
  N  N162  1  0.47146052  0.95176479  0.83505284  1
  N  N163  1  0.47146052  0.54823521  0.66494716  1
  N  N164  1  0.33505284  0.97146052  0.04823521  1
  N  N165  1  0.16494716  0.97146052  0.45176479  1
  N  N166  1  0.16494716  0.52853948  0.04823521  1
  N  N167  1  0.33505284  0.52853948  0.45176479  1
  N  N168  1  0.04823521  0.33505284  0.97146052  1
  N  N169  1  0.45176479  0.16494716  0.97146052  1
  N  N170  1  0.04823521  0.16494716  0.52853948  1
  N  N171  1  0.45176479  0.33505284  0.52853948  1
  N  N172  1  0.97146052  0.04823521  0.33505284  1
  N  N173  1  0.97146052  0.45176479  0.16494716  1
  N  N174  1  0.52853948  0.04823521  0.16494716  1
  N  N175  1  0.52853948  0.45176479  0.33505284  1
  N  N176  1  0.75034091  0.01209318  0.09099816  1
  N  N177  1  0.74965909  0.01209318  0.40900184  1
  N  N178  1  0.74965909  0.48790682  0.09099816  1
  N  N179  1  0.75034091  0.48790682  0.40900184  1
  N  N180  1  0.09099816  0.75034091  0.01209318  1
  N  N181  1  0.40900184  0.74965909  0.01209318  1
  N  N182  1  0.09099816  0.74965909  0.48790682  1
  N  N183  1  0.40900184  0.75034091  0.48790682  1
  N  N184  1  0.01209318  0.09099816  0.75034091  1
  N  N185  1  0.01209318  0.40900184  0.74965909  1
  N  N186  1  0.48790682  0.09099816  0.74965909  1
  N  N187  1  0.48790682  0.40900184  0.75034091  1
  N  N188  1  0.24965909  0.98790682  0.90900184  1
  N  N189  1  0.25034091  0.98790682  0.59099816  1
  N  N190  1  0.25034091  0.51209318  0.90900184  1
  N  N191  1  0.24965909  0.51209318  0.59099816  1
  N  N192  1  0.90900184  0.24965909  0.98790682  1
  N  N193  1  0.59099816  0.25034091  0.98790682  1
  N  N194  1  0.90900184  0.25034091  0.51209318  1
  N  N195  1  0.59099816  0.24965909  0.51209318  1
  N  N196  1  0.98790682  0.90900184  0.24965909  1
  N  N197  1  0.98790682  0.59099816  0.25034091  1
  N  N198  1  0.51209318  0.90900184  0.25034091  1
  N  N199  1  0.51209318  0.59099816  0.24965909  1
