# generated using pymatgen
data_C3F5
_symmetry_space_group_name_H-M   'P 1'
_cell_length_a   7.31222100
_cell_length_b   9.76989800
_cell_length_c   12.10879237
_cell_angle_alpha   65.95482933
_cell_angle_beta   90.00000000
_cell_angle_gamma   90.00000000
_symmetry_Int_Tables_number   1
_chemical_formula_structural   C3F5
_chemical_formula_sum   'C24 F40'
_cell_volume   789.98297267
_cell_formula_units_Z   8
loop_
 _symmetry_equiv_pos_site_id
 _symmetry_equiv_pos_as_xyz
  1  'x, y, z'
loop_
 _atom_site_type_symbol
 _atom_site_label
 _atom_site_symmetry_multiplicity
 _atom_site_fract_x
 _atom_site_fract_y
 _atom_site_fract_z
 _atom_site_occupancy
  C  C0  1  0.18188300  0.76090000  0.77022700  1
  C  C1  1  0.31811700  0.76090000  0.27022700  1
  C  C2  1  0.81811700  0.23910000  0.22977300  1
  C  C3  1  0.68188300  0.23910000  0.72977300  1
  C  C4  1  0.01121900  0.72890000  0.70803500  1
  C  C5  1  0.48878100  0.72890000  0.20803500  1
  C  C6  1  0.98878100  0.27110000  0.29196500  1
  C  C7  1  0.51121900  0.27110000  0.79196500  1
  C  C8  1  0.85786000  0.64756700  0.80154500  1
  C  C9  1  0.64214000  0.64756700  0.30154500  1
  C  C10  1  0.14214000  0.35243300  0.19845500  1
  C  C11  1  0.35786000  0.35243300  0.69845500  1
  C  C12  1  0.83260700  0.71300900  0.89352600  1
  C  C13  1  0.66739300  0.71300900  0.39352600  1
  C  C14  1  0.16739300  0.28699100  0.10647400  1
  C  C15  1  0.33260700  0.28699100  0.60647400  1
  C  C16  1  0.13164900  0.85302400  0.84547200  1
  C  C17  1  0.36835100  0.85302400  0.34547200  1
  C  C18  1  0.86835100  0.14697600  0.15452800  1
  C  C19  1  0.63164900  0.14697600  0.65452800  1
  C  C20  1  0.95474400  0.80251300  0.91392600  1
  C  C21  1  0.54525600  0.80251300  0.41392600  1
  C  C22  1  0.04525600  0.19748700  0.08607400  1
  C  C23  1  0.45474400  0.19748700  0.58607400  1
  F  F24  1  0.67615300  0.67432600  0.95570400  1
  F  F25  1  0.82384700  0.67432600  0.45570400  1
  F  F26  1  0.32384700  0.32567400  0.04429600  1
  F  F27  1  0.17615300  0.32567400  0.54429600  1
  F  F28  1  0.90117000  0.49690200  0.85916400  1
  F  F29  1  0.59883000  0.49690200  0.35916400  1
  F  F30  1  0.09883000  0.50309800  0.14083600  1
  F  F31  1  0.40117000  0.50309800  0.64083600  1
  F  F32  1  0.69754700  0.65662200  0.74068900  1
  F  F33  1  0.80245300  0.65662200  0.24068900  1
  F  F34  1  0.30245300  0.34337800  0.25931100  1
  F  F35  1  0.19754700  0.34337800  0.75931100  1
  F  F36  1  0.05866200  0.64394600  0.64750700  1
  F  F37  1  0.44133800  0.64394600  0.14750700  1
  F  F38  1  0.94133800  0.35605400  0.35249300  1
  F  F39  1  0.55866200  0.35605400  0.85249300  1
  F  F40  1  0.94480700  0.86312700  0.62614800  1
  F  F41  1  0.55519300  0.86312700  0.12614800  1
  F  F42  1  0.05519300  0.13687300  0.37385200  1
  F  F43  1  0.44480700  0.13687300  0.87385200  1
  F  F44  1  0.92431200  0.85701200  0.99716300  1
  F  F45  1  0.57568800  0.85701200  0.49716300  1
  F  F46  1  0.07568800  0.14298800  0.00283700  1
  F  F47  1  0.42431200  0.14298800  0.50283700  1
  F  F48  1  0.11987600  0.00306000  0.76800500  1
  F  F49  1  0.38012400  0.00306000  0.26800500  1
  F  F50  1  0.88012400  0.99694000  0.23199500  1
  F  F51  1  0.61987600  0.99694000  0.73199500  1
  F  F52  1  0.27179000  0.84116100  0.92390300  1
  F  F53  1  0.22821000  0.84116100  0.42390300  1
  F  F54  1  0.72821000  0.15883900  0.07609700  1
  F  F55  1  0.77179000  0.15883900  0.57609700  1
  F  F56  1  0.25637300  0.62690000  0.84665900  1
  F  F57  1  0.24362700  0.62690000  0.34665900  1
  F  F58  1  0.74362700  0.37310000  0.15334100  1
  F  F59  1  0.75637300  0.37310000  0.65334100  1
  F  F60  1  0.30931700  0.83657800  0.68529400  1
  F  F61  1  0.19068300  0.83657800  0.18529400  1
  F  F62  1  0.69068300  0.16342200  0.31470600  1
  F  F63  1  0.80931700  0.16342200  0.81470600  1
