# generated using pymatgen
data_Ba2GaSe4
_symmetry_space_group_name_H-M   'P 1'
_cell_length_a   6.54147500
_cell_length_b   13.43554900
_cell_length_c   21.03530708
_cell_angle_alpha   75.70757262
_cell_angle_beta   90.00000000
_cell_angle_gamma   90.00000000
_symmetry_Int_Tables_number   1
_chemical_formula_structural   Ba2GaSe4
_chemical_formula_sum   'Ba16 Ga8 Se32'
_cell_volume   1791.53548244
_cell_formula_units_Z   8
loop_
 _symmetry_equiv_pos_site_id
 _symmetry_equiv_pos_as_xyz
  1  'x, y, z'
loop_
 _atom_site_type_symbol
 _atom_site_label
 _atom_site_symmetry_multiplicity
 _atom_site_fract_x
 _atom_site_fract_y
 _atom_site_fract_z
 _atom_site_occupancy
  Ba  Ba0  1  0.23496100  0.89315600  0.21622000  1
  Ba  Ba1  1  0.73496100  0.10684400  0.28378000  1
  Ba  Ba2  1  0.76503900  0.10684400  0.78378000  1
  Ba  Ba3  1  0.26503900  0.89315600  0.71622000  1
  Ba  Ba4  1  0.74322300  0.85420600  0.04849600  1
  Ba  Ba5  1  0.24322300  0.14579400  0.45150400  1
  Ba  Ba6  1  0.25677700  0.14579400  0.95150400  1
  Ba  Ba7  1  0.75677700  0.85420600  0.54849600  1
  Ba  Ba8  1  0.23719400  0.61842800  0.03798900  1
  Ba  Ba9  1  0.73719400  0.38157200  0.46201100  1
  Ba  Ba10  1  0.76280600  0.38157200  0.96201100  1
  Ba  Ba11  1  0.26280600  0.61842800  0.53798900  1
  Ba  Ba12  1  0.23154700  0.52752400  0.31235700  1
  Ba  Ba13  1  0.73154700  0.47247600  0.18764300  1
  Ba  Ba14  1  0.76845300  0.47247600  0.68764300  1
  Ba  Ba15  1  0.26845300  0.52752400  0.81235700  1
  Ga  Ga16  1  0.32310500  0.88489900  0.40182200  1
  Ga  Ga17  1  0.82310500  0.11510100  0.09817800  1
  Ga  Ga18  1  0.67689500  0.11510100  0.59817800  1
  Ga  Ga19  1  0.17689500  0.88489900  0.90182200  1
  Ga  Ga20  1  0.31687200  0.30354200  0.09983200  1
  Ga  Ga21  1  0.81687200  0.69645800  0.40016800  1
  Ga  Ga22  1  0.68312800  0.69645800  0.90016800  1
  Ga  Ga23  1  0.18312800  0.30354200  0.59983200  1
  Se  Se24  1  0.73619800  0.95791500  0.17824000  1
  Se  Se25  1  0.23619800  0.04208500  0.32176000  1
  Se  Se26  1  0.26380200  0.04208500  0.82176000  1
  Se  Se27  1  0.76380200  0.95791500  0.67824000  1
  Se  Se28  1  0.24530600  0.88370900  0.01427200  1
  Se  Se29  1  0.74530600  0.11629100  0.48572800  1
  Se  Se30  1  0.75469400  0.11629100  0.98572800  1
  Se  Se31  1  0.25469400  0.88370900  0.51427200  1
  Se  Se32  1  0.69296300  0.87256900  0.38435000  1
  Se  Se33  1  0.19296300  0.12743100  0.11565000  1
  Se  Se34  1  0.30703700  0.12743100  0.61565000  1
  Se  Se35  1  0.80703700  0.87256900  0.88435000  1
  Se  Se36  1  0.18680000  0.72857500  0.37420500  1
  Se  Se37  1  0.68680000  0.27142500  0.12579500  1
  Se  Se38  1  0.81320000  0.27142500  0.62579500  1
  Se  Se39  1  0.31320000  0.72857500  0.87420500  1
  Se  Se40  1  0.41983800  0.68788900  0.17493100  1
  Se  Se41  1  0.91983800  0.31211100  0.32506900  1
  Se  Se42  1  0.58016200  0.31211100  0.82506900  1
  Se  Se43  1  0.08016200  0.68788900  0.67493100  1
  Se  Se44  1  0.05027600  0.68672600  0.17421800  1
  Se  Se45  1  0.55027600  0.31327400  0.32578200  1
  Se  Se46  1  0.94972400  0.31327400  0.82578200  1
  Se  Se47  1  0.44972400  0.68672600  0.67421800  1
  Se  Se48  1  0.22716900  0.42065500  0.16441400  1
  Se  Se49  1  0.72716900  0.57934500  0.33558600  1
  Se  Se50  1  0.77283100  0.57934500  0.83558600  1
  Se  Se51  1  0.27283100  0.42065500  0.66441400  1
  Se  Se52  1  0.23500000  0.38921200  0.48273700  1
  Se  Se53  1  0.73500000  0.61078800  0.01726300  1
  Se  Se54  1  0.76500000  0.61078800  0.51726300  1
  Se  Se55  1  0.26500000  0.38921200  0.98273700  1
