# generated using pymatgen
data_V2CuH14C2N2(OF2)4
_symmetry_space_group_name_H-M   'P 1'
_cell_length_a   6.76129751
_cell_length_b   7.06427251
_cell_length_c   7.63790965
_cell_angle_alpha   80.99191008
_cell_angle_beta   67.22116825
_cell_angle_gamma   70.40957565
_symmetry_Int_Tables_number   1
_chemical_formula_structural   V2CuH14C2N2(OF2)4
_chemical_formula_sum   'V2 Cu1 H14 C2 N2 O4 F8'
_cell_volume   316.74004497
_cell_formula_units_Z   1
loop_
 _symmetry_equiv_pos_site_id
 _symmetry_equiv_pos_as_xyz
  1  'x, y, z'
loop_
 _atom_site_type_symbol
 _atom_site_label
 _atom_site_symmetry_multiplicity
 _atom_site_fract_x
 _atom_site_fract_y
 _atom_site_fract_z
 _atom_site_occupancy
  V  V0  1  0.54502000  0.65739400  0.30314900  1
  V  V1  1  0.45498000  0.34260600  0.69685100  1
  Cu  Cu2  1  0.00000000  0.50000000  0.50000000  1
  H  H3  1  0.03237200  0.90815200  0.29303300  1
  H  H4  1  0.96762800  0.09184800  0.70696700  1
  H  H5  1  0.86584600  0.14715900  0.34317400  1
  H  H6  1  0.13415400  0.85284100  0.65682600  1
  H  H7  1  0.75983600  0.98335700  0.30337400  1
  H  H8  1  0.24016400  0.01664300  0.69662600  1
  H  H9  1  0.84038300  0.21752800  0.03923000  1
  H  H10  1  0.15961700  0.78247200  0.96077000  1
  H  H11  1  0.12640700  0.13554200  0.02216800  1
  H  H12  1  0.87359300  0.86445800  0.97783200  1
  H  H13  1  0.75276900  0.65768600  0.82784600  1
  H  H14  1  0.24723100  0.34231400  0.17215400  1
  H  H15  1  0.69069100  0.82009500  0.67135100  1
  H  H16  1  0.30930900  0.17990500  0.32864900  1
  C  C17  1  0.97620800  0.08756400  0.05875100  1
  C  C18  1  0.02379200  0.91243600  0.94124900  1
  N  N19  1  0.90523500  0.02629600  0.26296000  1
  N  N20  1  0.09476500  0.97370400  0.73704000  1
  O  O21  1  0.64299500  0.62805100  0.07153700  1
  O  O22  1  0.35700500  0.37194900  0.92846300  1
  O  O23  1  0.81558400  0.70842000  0.69329600  1
  O  O24  1  0.18441600  0.29158000  0.30670400  1
  F  F25  1  0.22073500  0.72704500  0.36366400  1
  F  F26  1  0.77926500  0.27295500  0.63633600  1
  F  F27  1  0.16334200  0.37501900  0.66780100  1
  F  F28  1  0.83665800  0.62498100  0.33219900  1
  F  F29  1  0.56415700  0.37013400  0.38517300  1
  F  F30  1  0.43584300  0.62986600  0.61482700  1
  F  F31  1  0.49887700  0.94151900  0.32605700  1
  F  F32  1  0.50112300  0.05848100  0.67394300  1
