# generated using pymatgen
data_Sb5(XeF20)2
_symmetry_space_group_name_H-M   'P 1'
_cell_length_a   7.87528400
_cell_length_b   8.65668363
_cell_length_c   13.39765373
_cell_angle_alpha   84.84349748
_cell_angle_beta   76.78947019
_cell_angle_gamma   67.61719225
_symmetry_Int_Tables_number   1
_chemical_formula_structural   Sb5(XeF20)2
_chemical_formula_sum   'Sb5 Xe2 F40'
_cell_volume   822.20287663
_cell_formula_units_Z   1
loop_
 _symmetry_equiv_pos_site_id
 _symmetry_equiv_pos_as_xyz
  1  'x, y, z'
loop_
 _atom_site_type_symbol
 _atom_site_label
 _atom_site_symmetry_multiplicity
 _atom_site_fract_x
 _atom_site_fract_y
 _atom_site_fract_z
 _atom_site_occupancy
  Sb  Sb0  1  0.00000000  0.00000000  0.00000000  1
  Sb  Sb1  1  0.10178700  0.51100100  0.74891600  1
  Sb  Sb2  1  0.89821300  0.48899900  0.25108400  1
  Sb  Sb3  1  0.44032200  0.76896500  0.64213800  1
  Sb  Sb4  1  0.55967800  0.23103500  0.35786200  1
  Xe  Xe5  1  0.77491500  0.18394100  0.68415900  1
  Xe  Xe6  1  0.22508500  0.81605900  0.31584100  1
  F  F7  1  0.62873500  0.05031900  0.76225500  1
  F  F8  1  0.37126500  0.94968100  0.23774500  1
  F  F9  1  0.61998800  0.35785500  0.79435800  1
  F  F10  1  0.38001200  0.64214500  0.20564200  1
  F  F11  1  0.90241300  0.97940900  0.59656200  1
  F  F12  1  0.09758700  0.02059100  0.40343800  1
  F  F13  1  0.94857800  0.27608700  0.58431500  1
  F  F14  1  0.05142200  0.72391300  0.41568500  1
  F  F15  1  0.92532800  0.02918100  0.86894100  1
  F  F16  1  0.07467200  0.97081900  0.13105900  1
  F  F17  1  0.80849900  0.21168900  0.04350500  1
  F  F18  1  0.19150100  0.78831100  0.95649500  1
  F  F19  1  0.17554700  0.10673700  0.94812800  1
  F  F20  1  0.82445300  0.89326300  0.05187200  1
  F  F21  1  0.25661300  0.66390800  0.73004500  1
  F  F22  1  0.74338700  0.33609200  0.26995500  1
  F  F23  1  0.19489600  0.43743000  0.87089800  1
  F  F24  1  0.80510400  0.56257000  0.12910200  1
  F  F25  1  0.90295300  0.69475600  0.82296500  1
  F  F26  1  0.09704700  0.30524400  0.17703500  1
  F  F27  1  0.32416500  0.34973800  0.67157800  1
  F  F28  1  0.67583500  0.65026200  0.32842200  1
  F  F29  1  0.96303800  0.36891800  0.77062200  1
  F  F30  1  0.03696200  0.63108200  0.22937800  1
  F  F31  1  0.02304900  0.60615000  0.62563600  1
  F  F32  1  0.97695100  0.39385000  0.37436400  1
  F  F33  1  0.60714100  0.86533300  0.56401800  1
  F  F34  1  0.39285900  0.13466700  0.43598200  1
  F  F35  1  0.23561900  0.97671900  0.67698400  1
  F  F36  1  0.76438100  0.02328100  0.32301600  1
  F  F37  1  0.33846300  0.74858100  0.52925400  1
  F  F38  1  0.66153700  0.25141900  0.47074600  1
  F  F39  1  0.61449200  0.54420500  0.61665100  1
  F  F40  1  0.38550800  0.45579500  0.38334900  1
  F  F41  1  0.51556800  0.76863800  0.76722200  1
  F  F42  1  0.48443200  0.23136200  0.23277800  1
  F  F43  1  0.42471200  0.24605800  0.00688500  1
  F  F44  1  0.57528800  0.75394200  0.99311500  1
  F  F45  1  0.41135000  0.40741800  0.02963600  1
  F  F46  1  0.58865000  0.59258200  0.97036400  1
