# generated using pymatgen
data_Ba7Ga4P9
_symmetry_space_group_name_H-M   'P 1'
_cell_length_a   6.76931500
_cell_length_b   9.93484200
_cell_length_c   16.79706100
_cell_angle_alpha   90.00000000
_cell_angle_beta   90.00000000
_cell_angle_gamma   90.00000000
_symmetry_Int_Tables_number   1
_chemical_formula_structural   Ba7Ga4P9
_chemical_formula_sum   'Ba14 Ga8 P18'
_cell_volume   1129.63720570
_cell_formula_units_Z   2
loop_
 _symmetry_equiv_pos_site_id
 _symmetry_equiv_pos_as_xyz
  1  'x, y, z'
loop_
 _atom_site_type_symbol
 _atom_site_label
 _atom_site_symmetry_multiplicity
 _atom_site_fract_x
 _atom_site_fract_y
 _atom_site_fract_z
 _atom_site_occupancy
  Ba  Ba0  1  0.44766200  0.50000000  0.78352000  1
  Ba  Ba1  1  0.44766200  0.50000000  0.21648000  1
  Ba  Ba2  1  0.55233800  0.00000000  0.71648000  1
  Ba  Ba3  1  0.55233800  0.00000000  0.28352000  1
  Ba  Ba4  1  0.94094100  0.27938700  0.87517200  1
  Ba  Ba5  1  0.94094100  0.72061300  0.87517200  1
  Ba  Ba6  1  0.94094100  0.27938700  0.12482800  1
  Ba  Ba7  1  0.94094100  0.72061300  0.12482800  1
  Ba  Ba8  1  0.05905900  0.22061300  0.62482800  1
  Ba  Ba9  1  0.05905900  0.77938700  0.62482800  1
  Ba  Ba10  1  0.05905900  0.22061300  0.37517200  1
  Ba  Ba11  1  0.05905900  0.77938700  0.37517200  1
  Ba  Ba12  1  0.40044300  0.50000000  0.50000000  1
  Ba  Ba13  1  0.59955700  0.00000000  0.00000000  1
  Ga  Ga14  1  0.76705800  0.50000000  0.37742100  1
  Ga  Ga15  1  0.76705800  0.50000000  0.62257900  1
  Ga  Ga16  1  0.23294200  0.00000000  0.12257900  1
  Ga  Ga17  1  0.23294200  0.00000000  0.87742100  1
  Ga  Ga18  1  0.57462000  0.82807100  0.50000000  1
  Ga  Ga19  1  0.57462000  0.17192900  0.50000000  1
  Ga  Ga20  1  0.42538000  0.67192900  0.00000000  1
  Ga  Ga21  1  0.42538000  0.32807100  0.00000000  1
  P  P22  1  0.56458300  0.29161500  0.37395700  1
  P  P23  1  0.56458300  0.70838500  0.37395700  1
  P  P24  1  0.56458300  0.29161500  0.62604300  1
  P  P25  1  0.56458300  0.70838500  0.62604300  1
  P  P26  1  0.43541700  0.20838500  0.12604300  1
  P  P27  1  0.43541700  0.79161500  0.12604300  1
  P  P28  1  0.43541700  0.20838500  0.87395700  1
  P  P29  1  0.43541700  0.79161500  0.87395700  1
  P  P30  1  0.97683100  0.50000000  0.26459000  1
  P  P31  1  0.97683100  0.50000000  0.73541000  1
  P  P32  1  0.02316900  0.00000000  0.23541000  1
  P  P33  1  0.02316900  0.00000000  0.76459000  1
  P  P34  1  0.69073200  0.50000000  0.00000000  1
  P  P35  1  0.30926800  0.00000000  0.50000000  1
  P  P36  1  0.16148900  0.50000000  0.00000000  1
  P  P37  1  0.83851100  0.00000000  0.50000000  1
  P  P38  1  0.95109400  0.50000000  0.50000000  1
  P  P39  1  0.04890600  0.00000000  0.00000000  1
