# generated using pymatgen
data_VGa(TeO4)2
_symmetry_space_group_name_H-M   'P 1'
_cell_length_a   8.10544300
_cell_length_b   5.02067700
_cell_length_c   18.01854439
_cell_angle_alpha   90.00000000
_cell_angle_beta   112.38782016
_cell_angle_gamma   90.00000000
_symmetry_Int_Tables_number   1
_chemical_formula_structural   VGa(TeO4)2
_chemical_formula_sum   'V4 Ga4 Te8 O32'
_cell_volume   677.99317619
_cell_formula_units_Z   4
loop_
 _symmetry_equiv_pos_site_id
 _symmetry_equiv_pos_as_xyz
  1  'x, y, z'
loop_
 _atom_site_type_symbol
 _atom_site_label
 _atom_site_symmetry_multiplicity
 _atom_site_fract_x
 _atom_site_fract_y
 _atom_site_fract_z
 _atom_site_occupancy
  V  V0  1  0.27259500  0.22016900  0.42759300  1
  V  V1  1  0.27259500  0.27983100  0.92759300  1
  V  V2  1  0.72740500  0.77983100  0.57240700  1
  V  V3  1  0.72740500  0.72016900  0.07240700  1
  Ga  Ga4  1  0.98737100  0.74019400  0.32516400  1
  Ga  Ga5  1  0.98737100  0.75980600  0.82516400  1
  Ga  Ga6  1  0.01262900  0.25980600  0.67483600  1
  Ga  Ga7  1  0.01262900  0.24019400  0.17483600  1
  Te  Te8  1  0.67186000  0.26428900  0.22226300  1
  Te  Te9  1  0.67186000  0.23571100  0.72226300  1
  Te  Te10  1  0.32814000  0.73571100  0.77773700  1
  Te  Te11  1  0.32814000  0.76428900  0.27773700  1
  Te  Te12  1  0.79433300  0.15653100  0.43060200  1
  Te  Te13  1  0.79433300  0.34346900  0.93060200  1
  Te  Te14  1  0.20566700  0.84346900  0.56939800  1
  Te  Te15  1  0.20566700  0.65653100  0.06939800  1
  O  O16  1  0.76094100  0.57025200  0.28664600  1
  O  O17  1  0.76094100  0.92974800  0.78664600  1
  O  O18  1  0.23905900  0.42974800  0.71335400  1
  O  O19  1  0.23905900  0.07025200  0.21335400  1
  O  O20  1  0.96738800  0.91222800  0.42275100  1
  O  O21  1  0.96738800  0.58777200  0.92275100  1
  O  O22  1  0.03261200  0.08777200  0.57724900  1
  O  O23  1  0.03261200  0.41222800  0.07724900  1
  O  O24  1  0.22311300  0.93225300  0.36059200  1
  O  O25  1  0.22311300  0.56774700  0.86059200  1
  O  O26  1  0.77688700  0.06774700  0.63940800  1
  O  O27  1  0.77688700  0.43225300  0.13940800  1
  O  O28  1  0.10326800  0.57152200  0.25070400  1
  O  O29  1  0.10326800  0.92847800  0.75070400  1
  O  O30  1  0.89673200  0.42847800  0.74929600  1
  O  O31  1  0.89673200  0.07152200  0.24929600  1
  O  O32  1  0.09608700  0.43895300  0.40186100  1
  O  O33  1  0.09608700  0.06104700  0.90186100  1
  O  O34  1  0.90391300  0.56104700  0.59813900  1
  O  O35  1  0.90391300  0.93895300  0.09813900  1
  O  O36  1  0.63195700  0.10024200  0.32083200  1
  O  O37  1  0.63195700  0.39975800  0.82083200  1
  O  O38  1  0.36804300  0.89975800  0.67916800  1
  O  O39  1  0.36804300  0.60024200  0.17916800  1
  O  O40  1  0.66754100  0.89596900  0.46829100  1
  O  O41  1  0.66754100  0.60403100  0.96829100  1
  O  O42  1  0.33245900  0.10403100  0.53170900  1
  O  O43  1  0.33245900  0.39596900  0.03170900  1
  O  O44  1  0.44355200  0.37299100  0.41812500  1
  O  O45  1  0.44355200  0.12700900  0.91812500  1
  O  O46  1  0.55644800  0.62700900  0.58187500  1
  O  O47  1  0.55644800  0.87299100  0.08187500  1
