# generated using pymatgen
data_CaMn3Zn(SiO3)5
_symmetry_space_group_name_H-M   'P 1'
_cell_length_a   6.79726500
_cell_length_b   7.81338908
_cell_length_c   11.86004773
_cell_angle_alpha   105.37353375
_cell_angle_beta   92.00057670
_cell_angle_gamma   93.59884821
_symmetry_Int_Tables_number   1
_chemical_formula_structural   CaMn3Zn(SiO3)5
_chemical_formula_sum   'Ca2 Mn6 Zn2 Si10 O30'
_cell_volume   605.27675203
_cell_formula_units_Z   2
loop_
 _symmetry_equiv_pos_site_id
 _symmetry_equiv_pos_as_xyz
  1  'x, y, z'
loop_
 _atom_site_type_symbol
 _atom_site_label
 _atom_site_symmetry_multiplicity
 _atom_site_fract_x
 _atom_site_fract_y
 _atom_site_fract_z
 _atom_site_occupancy
  Ca  Ca0  1  0.63229700  0.04566500  0.69555400  1
  Ca  Ca1  1  0.36770300  0.95433500  0.30444600  1
  Mn  Mn2  1  0.96577500  0.88310100  0.85435000  1
  Mn  Mn3  1  0.03422500  0.11689900  0.14565000  1
  Mn  Mn4  1  0.87378400  0.68279400  0.55622900  1
  Mn  Mn5  1  0.12621600  0.31720600  0.44377100  1
  Mn  Mn6  1  0.81273000  0.49086600  0.27086700  1
  Mn  Mn7  1  0.18727000  0.50913400  0.72913300  1
  Zn  Zn8  1  0.80756300  0.31482800  0.98026500  1
  Zn  Zn9  1  0.19243700  0.68517200  0.01973500  1
  Si  Si10  1  0.75923600  0.74134600  0.08845900  1
  Si  Si11  1  0.24076400  0.25865400  0.91154100  1
  Si  Si12  1  0.84825700  0.92574200  0.34584400  1
  Si  Si13  1  0.15174300  0.07425800  0.65415600  1
  Si  Si14  1  0.63913100  0.26840400  0.47198500  1
  Si  Si15  1  0.36086900  0.73159600  0.52801500  1
  Si  Si16  1  0.70843500  0.45988400  0.74247700  1
  Si  Si17  1  0.29156500  0.54011600  0.25752300  1
  Si  Si18  1  0.50139000  0.77632100  0.87755300  1
  Si  Si19  1  0.49861000  0.22367900  0.12244700  1
  O  O20  1  0.05003900  0.16383700  0.96076400  1
  O  O21  1  0.94996100  0.83616300  0.03923600  1
  O  O22  1  0.96059600  0.95462200  0.67849500  1
  O  O23  1  0.03940400  0.04537800  0.32150500  1
  O  O24  1  0.19105500  0.60005400  0.56318000  1
  O  O25  1  0.80894500  0.39994600  0.43682000  1
  O  O26  1  0.10707700  0.40130300  0.26694500  1
  O  O27  1  0.89292300  0.59869700  0.73305500  1
  O  O28  1  0.34535900  0.07492100  0.14803500  1
  O  O29  1  0.65464100  0.92507900  0.85196500  1
  O  O30  1  0.26328500  0.79633100  0.87559400  1
  O  O31  1  0.73671500  0.20366900  0.12440600  1
  O  O32  1  0.81157900  0.54691100  0.09895800  1
  O  O33  1  0.18842100  0.45308900  0.90104200  1
  O  O34  1  0.88902700  0.75134500  0.38938600  1
  O  O35  1  0.11097300  0.24865500  0.61061400  1
  O  O36  1  0.42040900  0.25522700  0.41411200  1
  O  O37  1  0.57959100  0.74477300  0.58588800  1
  O  O38  1  0.74496400  0.32595900  0.82274900  1
  O  O39  1  0.25503600  0.67404100  0.17725100  1
  O  O40  1  0.70513200  0.86004900  0.22130400  1
  O  O41  1  0.29486800  0.13995100  0.77869600  1
  O  O42  1  0.70063900  0.05487800  0.43518800  1
  O  O43  1  0.29936100  0.94512200  0.56481200  1
  O  O44  1  0.63458700  0.31379500  0.61645600  1
  O  O45  1  0.36541300  0.68620500  0.38354400  1
  O  O46  1  0.51381200  0.57711100  0.77981800  1
  O  O47  1  0.48618800  0.42288900  0.22018200  1
  O  O48  1  0.55984100  0.73925400  0.00575100  1
  O  O49  1  0.44015900  0.26074600  0.99424900  1
