# generated using pymatgen
data_Tm5Bi3
_symmetry_space_group_name_H-M   'P 1'
_cell_length_a   8.24982000
_cell_length_b   9.39478600
_cell_length_c   11.84523500
_cell_angle_alpha   90.00000000
_cell_angle_beta   90.00000000
_cell_angle_gamma   90.00000000
_symmetry_Int_Tables_number   1
_chemical_formula_structural   Tm5Bi3
_chemical_formula_sum   'Tm20 Bi12'
_cell_volume   918.06841452
_cell_formula_units_Z   4
loop_
 _symmetry_equiv_pos_site_id
 _symmetry_equiv_pos_as_xyz
  1  'x, y, z'
loop_
 _atom_site_type_symbol
 _atom_site_label
 _atom_site_symmetry_multiplicity
 _atom_site_fract_x
 _atom_site_fract_y
 _atom_site_fract_z
 _atom_site_occupancy
  Tm  Tm0  1  0.69590900  0.93884300  0.43247400  1
  Tm  Tm1  1  0.80409100  0.56115700  0.93247400  1
  Tm  Tm2  1  0.30409100  0.43884300  0.56752600  1
  Tm  Tm3  1  0.19590900  0.06115700  0.06752600  1
  Tm  Tm4  1  0.30409100  0.06115700  0.56752600  1
  Tm  Tm5  1  0.19590900  0.43884300  0.06752600  1
  Tm  Tm6  1  0.69590900  0.56115700  0.43247400  1
  Tm  Tm7  1  0.80409100  0.93884300  0.93247400  1
  Tm  Tm8  1  0.32746300  0.75000000  0.26682400  1
  Tm  Tm9  1  0.17253700  0.75000000  0.76682400  1
  Tm  Tm10  1  0.67253700  0.25000000  0.73317600  1
  Tm  Tm11  1  0.82746300  0.25000000  0.23317600  1
  Tm  Tm12  1  0.02605000  0.75000000  0.49061800  1
  Tm  Tm13  1  0.47395000  0.75000000  0.99061800  1
  Tm  Tm14  1  0.97395000  0.25000000  0.50938200  1
  Tm  Tm15  1  0.52605000  0.25000000  0.00938200  1
  Tm  Tm16  1  0.84645200  0.75000000  0.21193600  1
  Tm  Tm17  1  0.65354800  0.75000000  0.71193600  1
  Tm  Tm18  1  0.15354800  0.25000000  0.78806400  1
  Tm  Tm19  1  0.34645200  0.25000000  0.28806400  1
  Bi  Bi20  1  0.09280400  0.75000000  0.02134300  1
  Bi  Bi21  1  0.40719600  0.75000000  0.52134300  1
  Bi  Bi22  1  0.90719600  0.25000000  0.97865700  1
  Bi  Bi23  1  0.59280400  0.25000000  0.47865700  1
  Bi  Bi24  1  0.56880500  0.98881600  0.17433000  1
  Bi  Bi25  1  0.93119500  0.51118400  0.67433100  1
  Bi  Bi26  1  0.43119500  0.48881600  0.82566900  1
  Bi  Bi27  1  0.06880500  0.01118400  0.32567000  1
  Bi  Bi28  1  0.43119500  0.01118400  0.82566900  1
  Bi  Bi29  1  0.06880500  0.48881600  0.32567000  1
  Bi  Bi30  1  0.56880500  0.51118400  0.17433000  1
  Bi  Bi31  1  0.93119500  0.98881600  0.67433100  1
