# generated using pymatgen
data_CsGa2(Se2O7)2
_symmetry_space_group_name_H-M   'P 1'
_cell_length_a   9.27546091
_cell_length_b   9.27546091
_cell_length_c   12.86352319
_cell_angle_alpha   58.71647009
_cell_angle_beta   58.71647009
_cell_angle_gamma   49.53293679
_symmetry_Int_Tables_number   1
_chemical_formula_structural   CsGa2(Se2O7)2
_chemical_formula_sum   'Cs2 Ga4 Se8 O28'
_cell_volume   690.69241933
_cell_formula_units_Z   2
loop_
 _symmetry_equiv_pos_site_id
 _symmetry_equiv_pos_as_xyz
  1  'x, y, z'
loop_
 _atom_site_type_symbol
 _atom_site_label
 _atom_site_symmetry_multiplicity
 _atom_site_fract_x
 _atom_site_fract_y
 _atom_site_fract_z
 _atom_site_occupancy
  Cs  Cs0  1  0.75742900  0.24257100  0.75000000  1
  Cs  Cs1  1  0.24257100  0.75742900  0.25000000  1
  Ga  Ga2  1  0.73564200  0.63369100  0.88791300  1
  Ga  Ga3  1  0.26435800  0.36630900  0.11208700  1
  Ga  Ga4  1  0.63369100  0.73564200  0.38791300  1
  Ga  Ga5  1  0.36630900  0.26435800  0.61208700  1
  Se  Se6  1  0.19421100  0.29649000  0.90808600  1
  Se  Se7  1  0.80578900  0.70351000  0.09191400  1
  Se  Se8  1  0.29649000  0.19421100  0.40808600  1
  Se  Se9  1  0.70351000  0.80578900  0.59191400  1
  Se  Se10  1  0.76480400  0.30418900  0.39846100  1
  Se  Se11  1  0.23519600  0.69581100  0.60153900  1
  Se  Se12  1  0.30418900  0.76480400  0.89846100  1
  Se  Se13  1  0.69581100  0.23519600  0.10153900  1
  O  O14  1  0.68774300  0.65555700  0.05431200  1
  O  O15  1  0.31225700  0.34444300  0.94568800  1
  O  O16  1  0.65555700  0.68774300  0.55431200  1
  O  O17  1  0.34444300  0.31225700  0.44568800  1
  O  O18  1  0.76167800  0.62276200  0.72936500  1
  O  O19  1  0.23832200  0.37723800  0.27063500  1
  O  O20  1  0.62276200  0.76167800  0.22936500  1
  O  O21  1  0.37723800  0.23832200  0.77063500  1
  O  O22  1  0.97759700  0.46502300  0.15578300  1
  O  O23  1  0.02240300  0.53497700  0.84421700  1
  O  O24  1  0.46502300  0.97759700  0.65578300  1
  O  O25  1  0.53497700  0.02240300  0.34421700  1
  O  O26  1  0.79366800  0.36190300  0.95751300  1
  O  O27  1  0.20633200  0.63809700  0.04248700  1
  O  O28  1  0.36190300  0.79366800  0.45751300  1
  O  O29  1  0.63809700  0.20633200  0.54248700  1
  O  O30  1  0.77655600  0.44004300  0.44538100  1
  O  O31  1  0.22344400  0.55995700  0.55461900  1
  O  O32  1  0.44004300  0.77655600  0.94538100  1
  O  O33  1  0.55995700  0.22344400  0.05461900  1
  O  O34  1  0.99217100  0.09990400  0.37822300  1
  O  O35  1  0.00782900  0.90009600  0.62177700  1
  O  O36  1  0.09990400  0.99217100  0.87822300  1
  O  O37  1  0.90009600  0.00782900  0.12177700  1
  O  O38  1  0.11531900  0.27473000  0.67278000  1
  O  O39  1  0.88468100  0.72527000  0.32722000  1
  O  O40  1  0.27473000  0.11531900  0.17278000  1
  O  O41  1  0.72527000  0.88468100  0.82722000  1
