# generated using pymatgen
data_Ca5P3O13
_symmetry_space_group_name_H-M   'P 1'
_cell_length_a   9.53412436
_cell_length_b   9.53412436
_cell_length_c   6.92464400
_cell_angle_alpha   90.00000000
_cell_angle_beta   90.00000000
_cell_angle_gamma   120.00000248
_symmetry_Int_Tables_number   1
_chemical_formula_structural   Ca5P3O13
_chemical_formula_sum   'Ca10 P6 O26'
_cell_volume   545.11696275
_cell_formula_units_Z   2
loop_
 _symmetry_equiv_pos_site_id
 _symmetry_equiv_pos_as_xyz
  1  'x, y, z'
loop_
 _atom_site_type_symbol
 _atom_site_label
 _atom_site_symmetry_multiplicity
 _atom_site_fract_x
 _atom_site_fract_y
 _atom_site_fract_z
 _atom_site_occupancy
  Ca  Ca0  1  0.33333300  0.66666700  0.50136200  1
  Ca  Ca1  1  0.66666700  0.33333300  0.00136200  1
  Ca  Ca2  1  0.66666700  0.33333300  0.49863800  1
  Ca  Ca3  1  0.33333300  0.66666700  0.99863800  1
  Ca  Ca4  1  0.24618200  0.24978200  0.75000000  1
  Ca  Ca5  1  0.75021800  0.99640000  0.75000000  1
  Ca  Ca6  1  0.00360000  0.75381800  0.75000000  1
  Ca  Ca7  1  0.75381800  0.75021800  0.25000000  1
  Ca  Ca8  1  0.24978200  0.00360000  0.25000000  1
  Ca  Ca9  1  0.99640000  0.24618200  0.25000000  1
  P  P10  1  0.39872500  0.02974100  0.75000000  1
  P  P11  1  0.97025900  0.36898400  0.75000000  1
  P  P12  1  0.63101600  0.60127500  0.75000000  1
  P  P13  1  0.60127500  0.97025900  0.25000000  1
  P  P14  1  0.02974100  0.63101600  0.25000000  1
  P  P15  1  0.36898400  0.39872500  0.25000000  1
  O  O16  1  0.33261200  0.84489300  0.75000000  1
  O  O17  1  0.15510700  0.48771900  0.75000000  1
  O  O18  1  0.51228100  0.66738800  0.75000000  1
  O  O19  1  0.66738800  0.15510700  0.25000000  1
  O  O20  1  0.84489300  0.51228100  0.25000000  1
  O  O21  1  0.48771900  0.33261200  0.25000000  1
  O  O22  1  0.58778100  0.12497400  0.75000000  1
  O  O23  1  0.87502600  0.46280700  0.75000000  1
  O  O24  1  0.53719300  0.41221900  0.75000000  1
  O  O25  1  0.41221900  0.87502600  0.25000000  1
  O  O26  1  0.12497400  0.53719300  0.25000000  1
  O  O27  1  0.46280700  0.58778100  0.25000000  1
  O  O28  1  0.34065400  0.08370100  0.56968500  1
  O  O29  1  0.91629900  0.25695300  0.56968500  1
  O  O30  1  0.74304700  0.65934600  0.56968500  1
  O  O31  1  0.65934600  0.91629900  0.06968500  1
  O  O32  1  0.08370100  0.74304700  0.06968500  1
  O  O33  1  0.25695300  0.34065400  0.06968500  1
  O  O34  1  0.65934600  0.91629900  0.43031500  1
  O  O35  1  0.08370100  0.74304700  0.43031500  1
  O  O36  1  0.25695300  0.34065400  0.43031500  1
  O  O37  1  0.34065400  0.08370100  0.93031500  1
  O  O38  1  0.91629900  0.25695300  0.93031500  1
  O  O39  1  0.74304700  0.65934600  0.93031500  1
  O  O40  1  0.00000000  0.00000000  0.75000000  1
  O  O41  1  0.00000000  0.00000000  0.25000000  1
