# generated using pymatgen
data_Hg12Se6O25
_symmetry_space_group_name_H-M   'P 1'
_cell_length_a   9.69263235
_cell_length_b   9.69263235
_cell_length_c   9.69263254
_cell_angle_alpha   107.96001451
_cell_angle_beta   107.96001451
_cell_angle_gamma   107.96001764
_symmetry_Int_Tables_number   1
_chemical_formula_structural   Hg12Se6O25
_chemical_formula_sum   'Hg12 Se6 O25'
_cell_volume   737.59166638
_cell_formula_units_Z   1
loop_
 _symmetry_equiv_pos_site_id
 _symmetry_equiv_pos_as_xyz
  1  'x, y, z'
loop_
 _atom_site_type_symbol
 _atom_site_label
 _atom_site_symmetry_multiplicity
 _atom_site_fract_x
 _atom_site_fract_y
 _atom_site_fract_z
 _atom_site_occupancy
  Hg  Hg0  1  0.25480500  0.84005600  0.88877200  1
  Hg  Hg1  1  0.88877200  0.25480500  0.84005600  1
  Hg  Hg2  1  0.84005600  0.88877200  0.25480500  1
  Hg  Hg3  1  0.74519500  0.15994400  0.11122800  1
  Hg  Hg4  1  0.11122800  0.74519500  0.15994400  1
  Hg  Hg5  1  0.15994400  0.11122800  0.74519500  1
  Hg  Hg6  1  0.01375800  0.32700300  0.54383500  1
  Hg  Hg7  1  0.54383500  0.01375800  0.32700300  1
  Hg  Hg8  1  0.32700300  0.54383500  0.01375800  1
  Hg  Hg9  1  0.98624200  0.67299700  0.45616500  1
  Hg  Hg10  1  0.45616500  0.98624200  0.67299700  1
  Hg  Hg11  1  0.67299700  0.45616500  0.98624200  1
  Se  Se12  1  0.66095800  0.79092900  0.50293200  1
  Se  Se13  1  0.50293200  0.66095800  0.79092900  1
  Se  Se14  1  0.79092900  0.50293200  0.66095800  1
  Se  Se15  1  0.33904200  0.20907100  0.49706800  1
  Se  Se16  1  0.49706800  0.33904200  0.20907100  1
  Se  Se17  1  0.20907100  0.49706800  0.33904200  1
  O  O18  1  0.97597700  0.58620800  0.65163400  1
  O  O19  1  0.65163400  0.97597700  0.58620800  1
  O  O20  1  0.58620800  0.65163400  0.97597700  1
  O  O21  1  0.02402300  0.41379200  0.34836600  1
  O  O22  1  0.34836600  0.02402300  0.41379200  1
  O  O23  1  0.41379200  0.34836600  0.02402300  1
  O  O24  1  0.30130600  0.57220400  0.74505800  1
  O  O25  1  0.74505800  0.30130600  0.57220400  1
  O  O26  1  0.57220400  0.74505800  0.30130600  1
  O  O27  1  0.69869400  0.42779600  0.25494200  1
  O  O28  1  0.25494200  0.69869400  0.42779600  1
  O  O29  1  0.42779600  0.25494200  0.69869400  1
  O  O30  1  0.86183000  0.85827800  0.54744500  1
  O  O31  1  0.54744500  0.86183000  0.85827800  1
  O  O32  1  0.85827800  0.54744500  0.86183000  1
  O  O33  1  0.13817000  0.14172200  0.45255500  1
  O  O34  1  0.45255500  0.13817000  0.14172200  1
  O  O35  1  0.14172200  0.45255500  0.13817000  1
  O  O36  1  0.22346600  0.91777100  0.70469800  1
  O  O37  1  0.70469800  0.22346600  0.91777100  1
  O  O38  1  0.91777100  0.70469800  0.22346600  1
  O  O39  1  0.77653400  0.08222900  0.29530200  1
  O  O40  1  0.29530200  0.77653400  0.08222900  1
  O  O41  1  0.08222900  0.29530200  0.77653400  1
  O  O42  1  0.00000000  0.00000000  0.00000000  1
