# generated using pymatgen
data_Yb5P12Ru19
_symmetry_space_group_name_H-M   'P 1'
_cell_length_a   12.47771374
_cell_length_b   12.47771374
_cell_length_c   3.98008100
_cell_angle_alpha   90.00000000
_cell_angle_beta   90.00000000
_cell_angle_gamma   119.99999860
_symmetry_Int_Tables_number   1
_chemical_formula_structural   Yb5P12Ru19
_chemical_formula_sum   'Yb5 P12 Ru19'
_cell_volume   536.65179221
_cell_formula_units_Z   1
loop_
 _symmetry_equiv_pos_site_id
 _symmetry_equiv_pos_as_xyz
  1  'x, y, z'
loop_
 _atom_site_type_symbol
 _atom_site_label
 _atom_site_symmetry_multiplicity
 _atom_site_fract_x
 _atom_site_fract_y
 _atom_site_fract_z
 _atom_site_occupancy
  Yb  Yb0  1  0.00000000  0.18407700  0.50000000  1
  Yb  Yb1  1  0.81592300  0.81592300  0.50000000  1
  Yb  Yb2  1  0.18407700  0.00000000  0.50000000  1
  Yb  Yb3  1  0.66666700  0.33333300  0.00000000  1
  Yb  Yb4  1  0.33333300  0.66666700  0.00000000  1
  P  P5  1  0.00000000  0.81548200  0.00000000  1
  P  P6  1  0.18451800  0.18451800  0.00000000  1
  P  P7  1  0.81548200  0.00000000  0.00000000  1
  P  P8  1  0.69324200  0.17009000  0.50000000  1
  P  P9  1  0.82991000  0.52315200  0.50000000  1
  P  P10  1  0.47684800  0.30675800  0.50000000  1
  P  P11  1  0.17009000  0.69324200  0.50000000  1
  P  P12  1  0.52315200  0.82991000  0.50000000  1
  P  P13  1  0.30675800  0.47684800  0.50000000  1
  P  P14  1  0.00000000  0.37404000  0.00000000  1
  P  P15  1  0.62596000  0.62596000  0.00000000  1
  P  P16  1  0.37404000  0.00000000  0.00000000  1
  Ru  Ru17  1  0.00000000  0.55490700  0.00000000  1
  Ru  Ru18  1  0.44509300  0.44509300  0.00000000  1
  Ru  Ru19  1  0.55490700  0.00000000  0.00000000  1
  Ru  Ru20  1  0.00000000  0.71746400  0.50000000  1
  Ru  Ru21  1  0.28253600  0.28253600  0.50000000  1
  Ru  Ru22  1  0.71746400  0.00000000  0.50000000  1
  Ru  Ru23  1  0.80682300  0.18546200  0.00000000  1
  Ru  Ru24  1  0.81453800  0.62136000  0.00000000  1
  Ru  Ru25  1  0.37864000  0.19317700  0.00000000  1
  Ru  Ru26  1  0.18546200  0.80682300  0.00000000  1
  Ru  Ru27  1  0.62136000  0.81453800  0.00000000  1
  Ru  Ru28  1  0.19317700  0.37864000  0.00000000  1
  Ru  Ru29  1  0.87420000  0.36535400  0.50000000  1
  Ru  Ru30  1  0.63464600  0.50884500  0.50000000  1
  Ru  Ru31  1  0.49115500  0.12580000  0.50000000  1
  Ru  Ru32  1  0.36535400  0.87420000  0.50000000  1
  Ru  Ru33  1  0.50884500  0.63464600  0.50000000  1
  Ru  Ru34  1  0.12580000  0.49115500  0.50000000  1
  Ru  Ru35  1  0.00000000  0.00000000  0.00000000  1
