# generated using pymatgen
data_NaNbO3
_symmetry_space_group_name_H-M   'P 1'
_cell_length_a   5.61367700
_cell_length_b   5.65392400
_cell_length_c   23.80524200
_cell_angle_alpha   90.00000000
_cell_angle_beta   90.00000000
_cell_angle_gamma   90.00000000
_symmetry_Int_Tables_number   1
_chemical_formula_structural   NaNbO3
_chemical_formula_sum   'Na12 Nb12 O36'
_cell_volume   755.56179165
_cell_formula_units_Z   12
loop_
 _symmetry_equiv_pos_site_id
 _symmetry_equiv_pos_as_xyz
  1  'x, y, z'
loop_
 _atom_site_type_symbol
 _atom_site_label
 _atom_site_symmetry_multiplicity
 _atom_site_fract_x
 _atom_site_fract_y
 _atom_site_fract_z
 _atom_site_occupancy
  Na  Na0  1  0.98855000  0.00527700  0.25000000  1
  Na  Na1  1  0.51145000  0.50527700  0.25000000  1
  Na  Na2  1  0.01145000  0.99472300  0.75000000  1
  Na  Na3  1  0.48855000  0.49472300  0.75000000  1
  Na  Na4  1  0.50383500  0.51734600  0.08436000  1
  Na  Na5  1  0.99616500  0.01734600  0.41564000  1
  Na  Na6  1  0.49616500  0.48265400  0.58436000  1
  Na  Na7  1  0.00383500  0.98265400  0.91564000  1
  Na  Na8  1  0.49616500  0.48265400  0.91564000  1
  Na  Na9  1  0.00383500  0.98265400  0.58436000  1
  Na  Na10  1  0.50383500  0.51734600  0.41564000  1
  Na  Na11  1  0.99616500  0.01734600  0.08436000  1
  Nb  Nb12  1  0.00000000  0.50000000  0.00000000  1
  Nb  Nb13  1  0.50000000  0.00000000  0.50000000  1
  Nb  Nb14  1  0.00000000  0.50000000  0.50000000  1
  Nb  Nb15  1  0.50000000  0.00000000  0.00000000  1
  Nb  Nb16  1  0.00587500  0.52188600  0.33326100  1
  Nb  Nb17  1  0.49412500  0.02188600  0.16673900  1
  Nb  Nb18  1  0.99412500  0.47811400  0.83326100  1
  Nb  Nb19  1  0.50587500  0.97811400  0.66673900  1
  Nb  Nb20  1  0.99412500  0.47811400  0.66673900  1
  Nb  Nb21  1  0.50587500  0.97811400  0.83326100  1
  Nb  Nb22  1  0.00587500  0.52188600  0.16673900  1
  Nb  Nb23  1  0.49412500  0.02188600  0.33326100  1
  O  O24  1  0.95018300  0.49418200  0.25000000  1
  O  O25  1  0.54981700  0.99418200  0.25000000  1
  O  O26  1  0.04981700  0.50581800  0.75000000  1
  O  O27  1  0.45018300  0.00581800  0.75000000  1
  O  O28  1  0.44744900  0.98798200  0.08370400  1
  O  O29  1  0.05255100  0.48798200  0.41629600  1
  O  O30  1  0.55255100  0.01201800  0.58370400  1
  O  O31  1  0.94744900  0.51201800  0.91629600  1
  O  O32  1  0.55255100  0.01201800  0.91629600  1
  O  O33  1  0.94744900  0.51201800  0.58370400  1
  O  O34  1  0.44744900  0.98798200  0.41629600  1
  O  O35  1  0.05255100  0.48798200  0.08370400  1
  O  O36  1  0.74448000  0.74392900  0.00951000  1
  O  O37  1  0.75552000  0.24392900  0.49049000  1
  O  O38  1  0.25552000  0.25607100  0.50951000  1
  O  O39  1  0.24448000  0.75607100  0.99049000  1
  O  O40  1  0.25552000  0.25607100  0.99049000  1
  O  O41  1  0.24448000  0.75607100  0.50951000  1
  O  O42  1  0.74448000  0.74392900  0.49049000  1
  O  O43  1  0.75552000  0.24392900  0.00951000  1
  O  O44  1  0.79251900  0.78232900  0.34121200  1
  O  O45  1  0.70748100  0.28232900  0.15878800  1
  O  O46  1  0.20748100  0.21767100  0.84121200  1
  O  O47  1  0.29251900  0.71767100  0.65878800  1
  O  O48  1  0.20748100  0.21767100  0.65878800  1
  O  O49  1  0.29251900  0.71767100  0.84121200  1
  O  O50  1  0.79251900  0.78232900  0.15878800  1
  O  O51  1  0.70748100  0.28232900  0.34121200  1
  O  O52  1  0.79436100  0.80121300  0.67501500  1
  O  O53  1  0.70563900  0.30121300  0.82498500  1
  O  O54  1  0.20563900  0.19878700  0.17501500  1
  O  O55  1  0.29436100  0.69878700  0.32498500  1
  O  O56  1  0.20563900  0.19878700  0.32498500  1
  O  O57  1  0.29436100  0.69878700  0.17501500  1
  O  O58  1  0.79436100  0.80121300  0.82498500  1
  O  O59  1  0.70563900  0.30121300  0.67501500  1
