# generated using pymatgen
data_Sm4(GeS4)3
_symmetry_space_group_name_H-M   'P 1'
_cell_length_a   11.46093107
_cell_length_b   11.46093107
_cell_length_c   11.46093093
_cell_angle_alpha   114.81760152
_cell_angle_beta   114.81760152
_cell_angle_gamma   114.81759775
_symmetry_Int_Tables_number   1
_chemical_formula_structural   Sm4(GeS4)3
_chemical_formula_sum   'Sm8 Ge6 S24'
_cell_volume   856.35706927
_cell_formula_units_Z   2
loop_
 _symmetry_equiv_pos_site_id
 _symmetry_equiv_pos_as_xyz
  1  'x, y, z'
loop_
 _atom_site_type_symbol
 _atom_site_label
 _atom_site_symmetry_multiplicity
 _atom_site_fract_x
 _atom_site_fract_y
 _atom_site_fract_z
 _atom_site_occupancy
  Sm  Sm0  1  0.49985800  0.49985800  0.49985800  1
  Sm  Sm1  1  0.99985800  0.99985800  0.99985800  1
  Sm  Sm2  1  0.71138200  0.93470600  0.47423900  1
  Sm  Sm3  1  0.47423900  0.71138200  0.93470600  1
  Sm  Sm4  1  0.93470600  0.47423900  0.71138200  1
  Sm  Sm5  1  0.97423900  0.43470600  0.21138200  1
  Sm  Sm6  1  0.21138200  0.97423900  0.43470600  1
  Sm  Sm7  1  0.43470600  0.21138200  0.97423900  1
  Ge  Ge8  1  0.85588300  0.64366700  0.46910700  1
  Ge  Ge9  1  0.46910700  0.85588300  0.64366700  1
  Ge  Ge10  1  0.64366700  0.46910700  0.85588300  1
  Ge  Ge11  1  0.96910700  0.14366700  0.35588300  1
  Ge  Ge12  1  0.35588300  0.96910700  0.14366700  1
  Ge  Ge13  1  0.14366700  0.35588300  0.96910700  1
  S  S14  1  0.81207200  0.88405000  0.28206100  1
  S  S15  1  0.28206100  0.81207200  0.88405000  1
  S  S16  1  0.88405000  0.28206100  0.81207200  1
  S  S17  1  0.78206100  0.38405000  0.31207200  1
  S  S18  1  0.31207200  0.78206100  0.38405000  1
  S  S19  1  0.38405000  0.31207200  0.78206100  1
  S  S20  1  0.87223100  0.68632500  0.68970800  1
  S  S21  1  0.68970800  0.87223100  0.68632500  1
  S  S22  1  0.68632500  0.68970800  0.87223100  1
  S  S23  1  0.18970800  0.18632500  0.37223100  1
  S  S24  1  0.37223100  0.18970800  0.18632500  1
  S  S25  1  0.18632500  0.37223100  0.18970800  1
  S  S26  1  0.61027800  0.58503900  0.29581800  1
  S  S27  1  0.29581800  0.61027800  0.58503900  1
  S  S28  1  0.58503900  0.29581800  0.61027800  1
  S  S29  1  0.79581800  0.08503900  0.11027800  1
  S  S30  1  0.11027800  0.79581800  0.08503900  1
  S  S31  1  0.08503900  0.11027800  0.79581800  1
  S  S32  1  0.08733700  0.35559300  0.63364600  1
  S  S33  1  0.63364600  0.08733700  0.35559300  1
  S  S34  1  0.35559300  0.63364600  0.08733700  1
  S  S35  1  0.13364600  0.85559300  0.58733700  1
  S  S36  1  0.58733700  0.13364600  0.85559300  1
  S  S37  1  0.85559300  0.58733700  0.13364600  1
