# generated using pymatgen
data_SiBr2
_symmetry_space_group_name_H-M   'P 1'
_cell_length_a   10.77583184
_cell_length_b   10.77583184
_cell_length_c   14.75220781
_cell_angle_alpha   72.55608923
_cell_angle_beta   72.55608923
_cell_angle_gamma   57.61684939
_symmetry_Int_Tables_number   1
_chemical_formula_structural   SiBr2
_chemical_formula_sum   'Si12 Br24'
_cell_volume   1359.31758995
_cell_formula_units_Z   12
loop_
 _symmetry_equiv_pos_site_id
 _symmetry_equiv_pos_as_xyz
  1  'x, y, z'
loop_
 _atom_site_type_symbol
 _atom_site_label
 _atom_site_symmetry_multiplicity
 _atom_site_fract_x
 _atom_site_fract_y
 _atom_site_fract_z
 _atom_site_occupancy
  Si  Si0  1  0.75650500  0.55291500  0.07813200  1
  Si  Si1  1  0.44708500  0.24349500  0.42186800  1
  Si  Si2  1  0.24349500  0.44708500  0.92186800  1
  Si  Si3  1  0.55291500  0.75650500  0.57813200  1
  Si  Si4  1  0.82154100  0.74427700  0.00445800  1
  Si  Si5  1  0.25572300  0.17845900  0.49554200  1
  Si  Si6  1  0.17845900  0.25572300  0.99554200  1
  Si  Si7  1  0.74427700  0.82154100  0.50445800  1
  Si  Si8  1  0.92193600  0.33156700  0.00932200  1
  Si  Si9  1  0.66843300  0.07806400  0.49067800  1
  Si  Si10  1  0.07806400  0.66843300  0.99067800  1
  Si  Si11  1  0.33156700  0.92193600  0.50932200  1
  Br  Br12  1  0.76914300  0.50251100  0.23442100  1
  Br  Br13  1  0.49748900  0.23085700  0.26557900  1
  Br  Br14  1  0.23085700  0.49748900  0.76557900  1
  Br  Br15  1  0.50251100  0.76914300  0.73442100  1
  Br  Br16  1  0.67922900  0.92987600  0.08897000  1
  Br  Br17  1  0.07012400  0.32077100  0.41103000  1
  Br  Br18  1  0.32077100  0.07012400  0.91103000  1
  Br  Br19  1  0.92987600  0.67922900  0.58897000  1
  Br  Br20  1  0.77721800  0.82205300  0.85332000  1
  Br  Br21  1  0.17794700  0.22278200  0.64668000  1
  Br  Br22  1  0.22278200  0.17794700  0.14668000  1
  Br  Br23  1  0.82205300  0.77721800  0.35332000  1
  Br  Br24  1  0.87093200  0.38038400  0.86225200  1
  Br  Br25  1  0.61961600  0.12906800  0.63774800  1
  Br  Br26  1  0.12906800  0.61961600  0.13774800  1
  Br  Br27  1  0.38038400  0.87093200  0.36225200  1
  Br  Br28  1  0.88489500  0.14397900  0.09967200  1
  Br  Br29  1  0.85602100  0.11510500  0.40032800  1
  Br  Br30  1  0.11510500  0.85602100  0.90032800  1
  Br  Br31  1  0.14397900  0.88489500  0.59967200  1
  Br  Br32  1  0.52337500  0.63532400  0.06340900  1
  Br  Br33  1  0.36467600  0.47662500  0.43659100  1
  Br  Br34  1  0.47662500  0.36467600  0.93659100  1
  Br  Br35  1  0.63532400  0.52337500  0.56340900  1
