# generated using pymatgen
data_NbBr5N2
_symmetry_space_group_name_H-M   'P 1'
_cell_length_a   7.43664700
_cell_length_b   7.43664700
_cell_length_c   19.97825300
_cell_angle_alpha   90.00000000
_cell_angle_beta   90.00000000
_cell_angle_gamma   90.00000000
_symmetry_Int_Tables_number   1
_chemical_formula_structural   NbBr5N2
_chemical_formula_sum   'Nb4 Br20 N8'
_cell_volume   1104.87168208
_cell_formula_units_Z   4
loop_
 _symmetry_equiv_pos_site_id
 _symmetry_equiv_pos_as_xyz
  1  'x, y, z'
loop_
 _atom_site_type_symbol
 _atom_site_label
 _atom_site_symmetry_multiplicity
 _atom_site_fract_x
 _atom_site_fract_y
 _atom_site_fract_z
 _atom_site_occupancy
  Nb  Nb0  1  0.50000000  0.50000000  0.40604900  1
  Nb  Nb1  1  0.00000000  0.00000000  0.90604900  1
  Nb  Nb2  1  0.50000000  0.50000000  0.59395100  1
  Nb  Nb3  1  0.00000000  0.00000000  0.09395100  1
  Br  Br4  1  0.78524300  0.68361000  0.39387700  1
  Br  Br5  1  0.21475700  0.31639000  0.39387700  1
  Br  Br6  1  0.71475700  0.18361000  0.89387700  1
  Br  Br7  1  0.28524300  0.81639000  0.89387700  1
  Br  Br8  1  0.68361000  0.21475700  0.39387700  1
  Br  Br9  1  0.31639000  0.78524300  0.39387700  1
  Br  Br10  1  0.18361000  0.28524300  0.89387700  1
  Br  Br11  1  0.81639000  0.71475700  0.89387700  1
  Br  Br12  1  0.21475700  0.31639000  0.60612300  1
  Br  Br13  1  0.78524300  0.68361000  0.60612300  1
  Br  Br14  1  0.28524300  0.81639000  0.10612300  1
  Br  Br15  1  0.71475700  0.18361000  0.10612300  1
  Br  Br16  1  0.31639000  0.78524300  0.60612300  1
  Br  Br17  1  0.68361000  0.21475700  0.60612300  1
  Br  Br18  1  0.81639000  0.71475700  0.10612300  1
  Br  Br19  1  0.18361000  0.28524300  0.10612300  1
  Br  Br20  1  0.50000000  0.50000000  0.26532400  1
  Br  Br21  1  0.00000000  0.00000000  0.76532400  1
  Br  Br22  1  0.50000000  0.50000000  0.73467600  1
  Br  Br23  1  0.00000000  0.00000000  0.23467600  1
  N  N24  1  0.50000000  0.50000000  0.00000000  1
  N  N25  1  0.00000000  0.00000000  0.50000000  1
  N  N26  1  0.00000000  0.50000000  0.25000000  1
  N  N27  1  0.50000000  0.00000000  0.75000000  1
  N  N28  1  0.50000000  0.00000000  0.25000000  1
  N  N29  1  0.00000000  0.50000000  0.75000000  1
  N  N30  1  0.50000000  0.50000000  0.50000000  1
  N  N31  1  0.00000000  0.00000000  0.00000000  1
