# generated using pymatgen
data_Na2Zn3(PO3)4
_symmetry_space_group_name_H-M   'P 1'
_cell_length_a   8.52012600
_cell_length_b   12.47276700
_cell_length_c   12.93101700
_cell_angle_alpha   90.00000000
_cell_angle_beta   90.00000000
_cell_angle_gamma   90.00000000
_symmetry_Int_Tables_number   1
_chemical_formula_structural   Na2Zn3(PO3)4
_chemical_formula_sum   'Na8 Zn12 P16 O48'
_cell_volume   1374.17331119
_cell_formula_units_Z   4
loop_
 _symmetry_equiv_pos_site_id
 _symmetry_equiv_pos_as_xyz
  1  'x, y, z'
loop_
 _atom_site_type_symbol
 _atom_site_label
 _atom_site_symmetry_multiplicity
 _atom_site_fract_x
 _atom_site_fract_y
 _atom_site_fract_z
 _atom_site_occupancy
  Na  Na0  1  0.27064900  0.96385200  0.93163200  1
  Na  Na1  1  0.77064900  0.53614800  0.56836800  1
  Na  Na2  1  0.72935100  0.46385200  0.06836800  1
  Na  Na3  1  0.22935100  0.03614800  0.43163200  1
  Na  Na4  1  0.72935100  0.03614800  0.06836800  1
  Na  Na5  1  0.22935100  0.46385200  0.43163200  1
  Na  Na6  1  0.27064900  0.53614800  0.93163200  1
  Na  Na7  1  0.77064900  0.96385200  0.56836800  1
  Zn  Zn8  1  0.42523500  0.25000000  0.93243100  1
  Zn  Zn9  1  0.92523500  0.25000000  0.56756900  1
  Zn  Zn10  1  0.57476500  0.75000000  0.06756900  1
  Zn  Zn11  1  0.07476500  0.75000000  0.43243100  1
  Zn  Zn12  1  0.08674300  0.43063400  0.16229100  1
  Zn  Zn13  1  0.58674300  0.06936600  0.33770900  1
  Zn  Zn14  1  0.91325700  0.93063400  0.83770900  1
  Zn  Zn15  1  0.41325700  0.56936600  0.66229100  1
  Zn  Zn16  1  0.91325700  0.56936600  0.83770900  1
  Zn  Zn17  1  0.41325700  0.93063400  0.66229100  1
  Zn  Zn18  1  0.08674300  0.06936600  0.16229100  1
  Zn  Zn19  1  0.58674300  0.43063400  0.33770900  1
  P  P20  1  0.03255500  0.25000000  0.99463700  1
  P  P21  1  0.53255500  0.25000000  0.50536300  1
  P  P22  1  0.96744500  0.75000000  0.00536300  1
  P  P23  1  0.46744500  0.75000000  0.49463700  1
  P  P24  1  0.55949000  0.25000000  0.16354100  1
  P  P25  1  0.05949000  0.25000000  0.33645900  1
  P  P26  1  0.44051000  0.75000000  0.83645900  1
  P  P27  1  0.94051000  0.75000000  0.66354100  1
  P  P28  1  0.62075100  0.07824300  0.80837700  1
  P  P29  1  0.12075100  0.42175700  0.69162300  1
  P  P30  1  0.37924900  0.57824300  0.19162300  1
  P  P31  1  0.87924900  0.92175700  0.30837700  1
  P  P32  1  0.37924900  0.92175700  0.19162300  1
  P  P33  1  0.87924900  0.57824300  0.30837700  1
  P  P34  1  0.62075100  0.42175700  0.80837700  1
  P  P35  1  0.12075100  0.07824300  0.69162300  1
  O  O36  1  0.46511400  0.11137200  0.86314700  1
  O  O37  1  0.96511400  0.38862800  0.63685300  1
  O  O38  1  0.53488600  0.61137200  0.13685300  1
  O  O39  1  0.03488600  0.88862800  0.36314700  1
  O  O40  1  0.53488600  0.88862800  0.13685300  1
  O  O41  1  0.03488600  0.61137200  0.36314700  1
  O  O42  1  0.46511400  0.38862800  0.86314700  1
  O  O43  1  0.96511400  0.11137200  0.63685300  1
  O  O44  1  0.58240100  0.25000000  0.04479600  1
  O  O45  1  0.08240100  0.25000000  0.45520400  1
  O  O46  1  0.41759900  0.75000000  0.95520400  1
  O  O47  1  0.91759900  0.75000000  0.54479600  1
  O  O48  1  0.21093400  0.25000000  0.97801800  1
  O  O49  1  0.71093400  0.25000000  0.52198200  1
  O  O50  1  0.78906600  0.75000000  0.02198200  1
  O  O51  1  0.28906600  0.75000000  0.47801800  1
  O  O52  1  0.90941800  0.52730900  0.20105400  1
  O  O53  1  0.40941800  0.97269100  0.29894600  1
  O  O54  1  0.09058200  0.02730900  0.79894600  1
  O  O55  1  0.59058200  0.47269100  0.70105400  1
  O  O56  1  0.09058200  0.47269100  0.79894600  1
  O  O57  1  0.59058200  0.02730900  0.70105400  1
  O  O58  1  0.90941800  0.97269100  0.20105400  1
  O  O59  1  0.40941800  0.52730900  0.29894600  1
  O  O60  1  0.97734000  0.35439500  0.05008100  1
  O  O61  1  0.47734000  0.14560500  0.44991900  1
  O  O62  1  0.02266000  0.85439500  0.94991900  1
  O  O63  1  0.52266000  0.64560500  0.55008100  1
  O  O64  1  0.02266000  0.64560500  0.94991900  1
  O  O65  1  0.52266000  0.85439500  0.55008100  1
  O  O66  1  0.97734000  0.14560500  0.05008100  1
  O  O67  1  0.47734000  0.35439500  0.44991900  1
  O  O68  1  0.28032200  0.50476800  0.11782700  1
  O  O69  1  0.78032200  0.99523200  0.38217300  1
  O  O70  1  0.71967800  0.00476800  0.88217300  1
  O  O71  1  0.21967800  0.49523200  0.61782700  1
  O  O72  1  0.71967800  0.49523200  0.88217300  1
  O  O73  1  0.21967800  0.00476800  0.61782700  1
  O  O74  1  0.28032200  0.99523200  0.11782700  1
  O  O75  1  0.78032200  0.50476800  0.38217300  1
  O  O76  1  0.63321100  0.35380700  0.20931300  1
  O  O77  1  0.13321100  0.14619300  0.29068700  1
  O  O78  1  0.36678900  0.85380700  0.79068700  1
  O  O79  1  0.86678900  0.64619300  0.70931300  1
  O  O80  1  0.36678900  0.64619300  0.79068700  1
  O  O81  1  0.86678900  0.85380700  0.70931300  1
  O  O82  1  0.63321100  0.14619300  0.20931300  1
  O  O83  1  0.13321100  0.35380700  0.29068700  1
