# generated using pymatgen
data_MgCO6
_symmetry_space_group_name_H-M   'P 1'
_cell_length_a   5.36313300
_cell_length_b   6.45812000
_cell_length_c   13.18672988
_cell_angle_alpha   61.60996713
_cell_angle_beta   90.00000000
_cell_angle_gamma   90.00000000
_symmetry_Int_Tables_number   1
_chemical_formula_structural   MgCO6
_chemical_formula_sum   'Mg4 C4 O24'
_cell_volume   401.80175654
_cell_formula_units_Z   4
loop_
 _symmetry_equiv_pos_site_id
 _symmetry_equiv_pos_as_xyz
  1  'x, y, z'
loop_
 _atom_site_type_symbol
 _atom_site_label
 _atom_site_symmetry_multiplicity
 _atom_site_fract_x
 _atom_site_fract_y
 _atom_site_fract_z
 _atom_site_occupancy
  Mg  Mg0  1  0.59715700  0.88707700  0.35687500  1
  Mg  Mg1  1  0.90284300  0.88707700  0.85687500  1
  Mg  Mg2  1  0.40284300  0.11292300  0.64312500  1
  Mg  Mg3  1  0.09715700  0.11292300  0.14312500  1
  C  C4  1  0.63761300  0.16642300  0.08415900  1
  C  C5  1  0.86238700  0.16642300  0.58415900  1
  C  C6  1  0.36238700  0.83357700  0.91584100  1
  C  C7  1  0.13761300  0.83357700  0.41584100  1
  O  O8  1  0.58318200  0.58047600  0.32696800  1
  O  O9  1  0.91681800  0.58047600  0.82696800  1
  O  O10  1  0.41681800  0.41952400  0.67303200  1
  O  O11  1  0.08318200  0.41952400  0.17303200  1
  O  O12  1  0.57848300  0.25652500  0.33223000  1
  O  O13  1  0.92151700  0.25652500  0.83223000  1
  O  O14  1  0.42151700  0.74347500  0.66777000  1
  O  O15  1  0.07848300  0.74347500  0.16777000  1
  O  O16  1  0.91305500  0.80263900  0.44597100  1
  O  O17  1  0.58694500  0.80263900  0.94597100  1
  O  O18  1  0.08694500  0.19736100  0.55402900  1
  O  O19  1  0.41305500  0.19736100  0.05402900  1
  O  O20  1  0.71367400  0.05622100  0.19176500  1
  O  O21  1  0.78632600  0.05622100  0.69176500  1
  O  O22  1  0.28632600  0.94377900  0.80823500  1
  O  O23  1  0.21367400  0.94377900  0.30823500  1
  O  O24  1  0.32908400  0.76129400  0.48581900  1
  O  O25  1  0.17091600  0.76129400  0.98581900  1
  O  O26  1  0.67091600  0.23870600  0.51418100  1
  O  O27  1  0.82908400  0.23870600  0.01418100  1
  O  O28  1  0.79019200  0.56913500  0.67270700  1
  O  O29  1  0.70980800  0.56913500  0.17270700  1
  O  O30  1  0.20980800  0.43086500  0.32729300  1
  O  O31  1  0.29019200  0.43086500  0.82729300  1
