# generated using pymatgen
data_K2RuCl5O
_symmetry_space_group_name_H-M   'P 1'
_cell_length_a   7.16975900
_cell_length_b   9.64388900
_cell_length_c   13.58680700
_cell_angle_alpha   90.00000000
_cell_angle_beta   90.00000000
_cell_angle_gamma   90.00000000
_symmetry_Int_Tables_number   1
_chemical_formula_structural   K2RuCl5O
_chemical_formula_sum   'K8 Ru4 Cl20 O4'
_cell_volume   939.45107382
_cell_formula_units_Z   4
loop_
 _symmetry_equiv_pos_site_id
 _symmetry_equiv_pos_as_xyz
  1  'x, y, z'
loop_
 _atom_site_type_symbol
 _atom_site_label
 _atom_site_symmetry_multiplicity
 _atom_site_fract_x
 _atom_site_fract_y
 _atom_site_fract_z
 _atom_site_occupancy
  K  K0  1  0.35111300  0.49946900  0.14694500  1
  K  K1  1  0.14888700  0.00053100  0.64694500  1
  K  K2  1  0.64888700  0.99946900  0.85305500  1
  K  K3  1  0.85111300  0.50053100  0.35305500  1
  K  K4  1  0.64888700  0.50053100  0.85305500  1
  K  K5  1  0.85111300  0.99946900  0.35305500  1
  K  K6  1  0.35111300  0.00053100  0.14694500  1
  K  K7  1  0.14888700  0.49946900  0.64694500  1
  Ru  Ru8  1  0.82706100  0.75000000  0.09542800  1
  Ru  Ru9  1  0.67293900  0.75000000  0.59542800  1
  Ru  Ru10  1  0.17293900  0.25000000  0.90457200  1
  Ru  Ru11  1  0.32706100  0.25000000  0.40457200  1
  Cl  Cl12  1  0.54238200  0.75000000  0.00138900  1
  Cl  Cl13  1  0.95761800  0.75000000  0.50138900  1
  Cl  Cl14  1  0.45761800  0.25000000  0.99861100  1
  Cl  Cl15  1  0.04238200  0.25000000  0.49861100  1
  Cl  Cl16  1  0.61646900  0.75000000  0.24312700  1
  Cl  Cl17  1  0.88353100  0.75000000  0.74312700  1
  Cl  Cl18  1  0.38353100  0.25000000  0.75687300  1
  Cl  Cl19  1  0.11646900  0.25000000  0.25687300  1
  Cl  Cl20  1  0.07892100  0.75000000  0.21123300  1
  Cl  Cl21  1  0.42107900  0.75000000  0.71123300  1
  Cl  Cl22  1  0.92107900  0.25000000  0.78876700  1
  Cl  Cl23  1  0.57892100  0.25000000  0.28876700  1
  Cl  Cl24  1  0.81245800  0.50574200  0.10685700  1
  Cl  Cl25  1  0.68754200  0.99425800  0.60685700  1
  Cl  Cl26  1  0.18754200  0.00574200  0.89314300  1
  Cl  Cl27  1  0.31245800  0.49425800  0.39314300  1
  Cl  Cl28  1  0.18754200  0.49425800  0.89314300  1
  Cl  Cl29  1  0.31245800  0.00574200  0.39314300  1
  Cl  Cl30  1  0.81245800  0.99425800  0.10685700  1
  Cl  Cl31  1  0.68754200  0.50574200  0.60685700  1
  O  O32  1  0.96626100  0.75000000  0.99225000  1
  O  O33  1  0.53373900  0.75000000  0.49225000  1
  O  O34  1  0.03373900  0.25000000  0.00775000  1
  O  O35  1  0.46626100  0.25000000  0.50775000  1
