# generated using pymatgen
data_Na4Ga4Si19
_symmetry_space_group_name_H-M   'P 1'
_cell_length_a   10.37641000
_cell_length_b   10.39429193
_cell_length_c   10.40814840
_cell_angle_alpha   89.96858313
_cell_angle_beta   89.83174260
_cell_angle_gamma   89.85360590
_symmetry_Int_Tables_number   1
_chemical_formula_structural   Na4Ga4Si19
_chemical_formula_sum   'Na8 Ga8 Si38'
_cell_volume   1122.56670148
_cell_formula_units_Z   2
loop_
 _symmetry_equiv_pos_site_id
 _symmetry_equiv_pos_as_xyz
  1  'x, y, z'
loop_
 _atom_site_type_symbol
 _atom_site_label
 _atom_site_symmetry_multiplicity
 _atom_site_fract_x
 _atom_site_fract_y
 _atom_site_fract_z
 _atom_site_occupancy
  Na  Na0  1  0.00092400  0.00145200  0.99884500  1
  Na  Na1  1  0.74998000  0.49873400  0.00028000  1
  Na  Na2  1  0.24960000  0.49916500  0.00044300  1
  Na  Na3  1  0.99968900  0.74956200  0.50101800  1
  Na  Na4  1  0.00013400  0.25014800  0.50009500  1
  Na  Na5  1  0.49927700  0.00107400  0.75127900  1
  Na  Na6  1  0.49909300  0.00028600  0.24915800  1
  Na  Na7  1  0.50049800  0.49948100  0.49923100  1
  Ga  Ga8  1  0.25136900  0.99957900  0.50016700  1
  Ga  Ga9  1  0.99958800  0.49979000  0.24985500  1
  Ga  Ga10  1  0.49944600  0.74957000  0.00080900  1
  Ga  Ga11  1  0.88254400  0.99941100  0.69082300  1
  Ga  Ga12  1  0.99984700  0.30896300  0.88311500  1
  Ga  Ga13  1  0.30925500  0.11698300  0.99998100  1
  Ga  Ga14  1  0.49989900  0.38296400  0.19136000  1
  Ga  Ga15  1  0.80891400  0.50047000  0.61664200  1
  Si  Si16  1  0.74704700  0.99957300  0.49617700  1
  Si  Si17  1  0.00382800  0.50402000  0.75007000  1
  Si  Si18  1  0.50338000  0.25093100  0.99727700  1
  Si  Si19  1  0.81389300  0.81374600  0.81823000  1
  Si  Si20  1  0.18583300  0.18220000  0.81148900  1
  Si  Si21  1  0.81701400  0.18380000  0.18516900  1
  Si  Si22  1  0.18277300  0.81587400  0.18291800  1
  Si  Si23  1  0.31590500  0.31516800  0.68290900  1
  Si  Si24  1  0.68178500  0.68678900  0.68612300  1
  Si  Si25  1  0.68718200  0.31574200  0.31761000  1
  Si  Si26  1  0.31697100  0.68391200  0.31721900  1
  Si  Si27  1  0.18085700  0.18385400  0.18878300  1
  Si  Si28  1  0.81594100  0.81609300  0.18325100  1
  Si  Si29  1  0.18427700  0.81704500  0.81677500  1
  Si  Si30  1  0.81129300  0.18487300  0.81687500  1
  Si  Si31  1  0.68342700  0.68332400  0.31591300  1
  Si  Si32  1  0.31205700  0.31597600  0.31872300  1
  Si  Si33  1  0.31687500  0.68369300  0.68403400  1
  Si  Si34  1  0.68211300  0.31215500  0.68477700  1
  Si  Si35  1  0.11947800  0.99958000  0.69403200  1
  Si  Si36  1  0.88030200  0.99897900  0.30562000  1
  Si  Si37  1  0.11489200  0.99910900  0.30568200  1
  Si  Si38  1  0.00007200  0.69411300  0.88099700  1
  Si  Si39  1  0.00019600  0.69516300  0.11468900  1
  Si  Si40  1  0.00000600  0.30470300  0.11955500  1
  Si  Si41  1  0.69521000  0.88489400  0.00090900  1
  Si  Si42  1  0.69390800  0.11905300  0.00045500  1
  Si  Si43  1  0.30438200  0.88055800  0.00003800  1
  Si  Si44  1  0.49952300  0.38041400  0.80539200  1
  Si  Si45  1  0.49950000  0.61509200  0.80456500  1
  Si  Si46  1  0.50028400  0.61955800  0.19571000  1
  Si  Si47  1  0.19447000  0.50132200  0.61888600  1
  Si  Si48  1  0.19478700  0.50096200  0.38584000  1
  Si  Si49  1  0.80483200  0.50011200  0.38154300  1
  Si  Si50  1  0.38456400  0.19578100  0.49907300  1
  Si  Si51  1  0.61805400  0.19346400  0.49950300  1
  Si  Si52  1  0.38503800  0.80402600  0.49988800  1
  Si  Si53  1  0.61799500  0.80671500  0.50020300  1
