# generated using pymatgen
data_Ni12C8O31
_symmetry_space_group_name_H-M   'P 1'
_cell_length_a   8.39558700
_cell_length_b   8.39558700
_cell_length_c   8.39558700
_cell_angle_alpha   90.00000000
_cell_angle_beta   90.00000000
_cell_angle_gamma   90.00000000
_symmetry_Int_Tables_number   1
_chemical_formula_structural   Ni12C8O31
_chemical_formula_sum   'Ni12 C8 O31'
_cell_volume   591.77034683
_cell_formula_units_Z   1
loop_
 _symmetry_equiv_pos_site_id
 _symmetry_equiv_pos_as_xyz
  1  'x, y, z'
loop_
 _atom_site_type_symbol
 _atom_site_label
 _atom_site_symmetry_multiplicity
 _atom_site_fract_x
 _atom_site_fract_y
 _atom_site_fract_z
 _atom_site_occupancy
  Ni  Ni0  1  0.00000000  0.50000000  0.24977100  1
  Ni  Ni1  1  0.50000000  0.75022900  0.00000000  1
  Ni  Ni2  1  0.75022900  0.00000000  0.50000000  1
  Ni  Ni3  1  0.00000000  0.75022900  0.50000000  1
  Ni  Ni4  1  0.50000000  0.00000000  0.24977100  1
  Ni  Ni5  1  0.75022900  0.50000000  0.00000000  1
  Ni  Ni6  1  0.00000000  0.50000000  0.75022900  1
  Ni  Ni7  1  0.50000000  0.24977100  0.00000000  1
  Ni  Ni8  1  0.00000000  0.24977100  0.50000000  1
  Ni  Ni9  1  0.50000000  0.00000000  0.75022900  1
  Ni  Ni10  1  0.24977100  0.00000000  0.50000000  1
  Ni  Ni11  1  0.24977100  0.50000000  0.00000000  1
  C  C12  1  0.79785700  0.79785700  0.20214300  1
  C  C13  1  0.79785700  0.20214300  0.79785700  1
  C  C14  1  0.20214300  0.79785700  0.79785700  1
  C  C15  1  0.20214300  0.20214300  0.20214300  1
  C  C16  1  0.29444800  0.29444800  0.70555200  1
  C  C17  1  0.29444800  0.70555200  0.29444800  1
  C  C18  1  0.70555200  0.29444800  0.29444800  1
  C  C19  1  0.70555200  0.70555200  0.70555200  1
  O  O20  1  0.50000000  0.50000000  0.50000000  1
  O  O21  1  0.92445200  0.73555100  0.26444900  1
  O  O22  1  0.73555100  0.73555100  0.07554800  1
  O  O23  1  0.73555100  0.92445200  0.26444900  1
  O  O24  1  0.92445200  0.26444900  0.73555100  1
  O  O25  1  0.73555100  0.26444900  0.92445200  1
  O  O26  1  0.73555100  0.07554800  0.73555100  1
  O  O27  1  0.07554800  0.73555100  0.73555100  1
  O  O28  1  0.26444900  0.73555100  0.92445200  1
  O  O29  1  0.26444900  0.92445200  0.73555100  1
  O  O30  1  0.07554800  0.26444900  0.26444900  1
  O  O31  1  0.26444900  0.26444900  0.07554800  1
  O  O32  1  0.26444900  0.07554800  0.26444900  1
  O  O33  1  0.00000000  0.00000000  0.50000000  1
  O  O34  1  0.00000000  0.50000000  0.00000000  1
  O  O35  1  0.50000000  0.00000000  0.00000000  1
  O  O36  1  0.50000000  0.50000000  0.00000000  1
  O  O37  1  0.50000000  0.00000000  0.50000000  1
  O  O38  1  0.00000000  0.50000000  0.50000000  1
  O  O39  1  0.42050800  0.23165300  0.76834700  1
  O  O40  1  0.23165300  0.23165300  0.57949200  1
  O  O41  1  0.23165300  0.42050800  0.76834700  1
  O  O42  1  0.42050800  0.76834700  0.23165300  1
  O  O43  1  0.23165300  0.76834700  0.42050800  1
  O  O44  1  0.23165300  0.57949200  0.23165300  1
  O  O45  1  0.57949200  0.23165300  0.23165300  1
  O  O46  1  0.76834700  0.23165300  0.42050800  1
  O  O47  1  0.76834700  0.42050800  0.23165300  1
  O  O48  1  0.57949200  0.76834700  0.76834700  1
  O  O49  1  0.76834700  0.76834700  0.57949200  1
  O  O50  1  0.76834700  0.57949200  0.76834700  1
