# generated using pymatgen
data_GaAs(H2O3)2
_symmetry_space_group_name_H-M   'P 1'
_cell_length_a   8.97073900
_cell_length_b   10.26629700
_cell_length_c   10.54773900
_cell_angle_alpha   90.00000000
_cell_angle_beta   90.00000000
_cell_angle_gamma   90.00000000
_symmetry_Int_Tables_number   1
_chemical_formula_structural   GaAs(H2O3)2
_chemical_formula_sum   'Ga8 As8 H32 O48'
_cell_volume   971.40742815
_cell_formula_units_Z   8
loop_
 _symmetry_equiv_pos_site_id
 _symmetry_equiv_pos_as_xyz
  1  'x, y, z'
loop_
 _atom_site_type_symbol
 _atom_site_label
 _atom_site_symmetry_multiplicity
 _atom_site_fract_x
 _atom_site_fract_y
 _atom_site_fract_z
 _atom_site_occupancy
  Ga  Ga0  1  0.85849300  0.83272700  0.87155300  1
  Ga  Ga1  1  0.35849300  0.66727300  0.12844700  1
  Ga  Ga2  1  0.14150700  0.33272700  0.62844700  1
  Ga  Ga3  1  0.64150700  0.16727300  0.37155300  1
  Ga  Ga4  1  0.14150700  0.16727300  0.12844700  1
  Ga  Ga5  1  0.64150700  0.33272700  0.87155300  1
  Ga  Ga6  1  0.85849300  0.66727300  0.37155300  1
  Ga  Ga7  1  0.35849300  0.83272700  0.62844700  1
  As  As8  1  0.54300200  0.65199800  0.85074800  1
  As  As9  1  0.04300200  0.84800200  0.14925200  1
  As  As10  1  0.45699800  0.15199800  0.64925200  1
  As  As11  1  0.95699800  0.34800200  0.35074800  1
  As  As12  1  0.45699800  0.34800200  0.14925200  1
  As  As13  1  0.95699800  0.15199800  0.85074800  1
  As  As14  1  0.54300200  0.84800200  0.35074800  1
  As  As15  1  0.04300200  0.65199800  0.64925200  1
  H  H16  1  0.69140700  0.81212800  0.67737900  1
  H  H17  1  0.19140700  0.68787200  0.32262100  1
  H  H18  1  0.30859300  0.31212800  0.82262100  1
  H  H19  1  0.80859300  0.18787200  0.17737900  1
  H  H20  1  0.30859300  0.18787200  0.32262100  1
  H  H21  1  0.80859300  0.31212800  0.67737900  1
  H  H22  1  0.69140700  0.68787200  0.17737900  1
  H  H23  1  0.19140700  0.81212800  0.82262100  1
  H  H24  1  0.67793100  0.95368200  0.71106300  1
  H  H25  1  0.17793100  0.54631800  0.28893700  1
  H  H26  1  0.32206900  0.45368200  0.78893700  1
  H  H27  1  0.82206900  0.04631800  0.21106300  1
  H  H28  1  0.32206900  0.04631800  0.28893700  1
  H  H29  1  0.82206900  0.45368200  0.71106300  1
  H  H30  1  0.67793100  0.54631800  0.21106300  1
  H  H31  1  0.17793100  0.95368200  0.78893700  1
  H  H32  1  0.65954200  0.93595500  0.03577600  1
  H  H33  1  0.15954200  0.56404500  0.96422400  1
  H  H34  1  0.34045800  0.43595500  0.46422400  1
  H  H35  1  0.84045800  0.06404500  0.53577600  1
  H  H36  1  0.34045800  0.06404500  0.96422400  1
  H  H37  1  0.84045800  0.43595500  0.03577600  1
  H  H38  1  0.65954200  0.56404500  0.53577600  1
  H  H39  1  0.15954200  0.93595500  0.46422400  1
  H  H40  1  0.69936400  0.03915300  0.92679800  1
  H  H41  1  0.19936400  0.46084700  0.07320200  1
  H  H42  1  0.30063600  0.53915300  0.57320200  1
  H  H43  1  0.80063600  0.96084700  0.42679800  1
  H  H44  1  0.30063600  0.96084700  0.07320200  1
  H  H45  1  0.80063600  0.53915300  0.92679800  1
  H  H46  1  0.69936400  0.46084700  0.42679800  1
  H  H47  1  0.19936400  0.03915300  0.57320200  1
  O  O48  1  0.51652300  0.72252900  0.70364700  1
  O  O49  1  0.01652300  0.77747100  0.29635300  1
  O  O50  1  0.48347700  0.22252900  0.79635300  1
  O  O51  1  0.98347700  0.27747100  0.20364700  1
  O  O52  1  0.48347700  0.27747100  0.29635300  1
  O  O53  1  0.98347700  0.22252900  0.70364700  1
  O  O54  1  0.51652300  0.77747100  0.20364700  1
  O  O55  1  0.01652300  0.72252900  0.79635300  1
  O  O56  1  0.51307200  0.48680100  0.84423400  1
  O  O57  1  0.01307200  0.01319900  0.15576600  1
  O  O58  1  0.48692800  0.98680100  0.65576600  1
  O  O59  1  0.98692800  0.51319900  0.34423400  1
  O  O60  1  0.48692800  0.51319900  0.15576600  1
  O  O61  1  0.98692800  0.98680100  0.84423400  1
  O  O62  1  0.51307200  0.01319900  0.34423400  1
  O  O63  1  0.01307200  0.48680100  0.65576600  1
  O  O64  1  0.42212000  0.71518200  0.95829100  1
  O  O65  1  0.92212000  0.78481800  0.04170900  1
  O  O66  1  0.57788000  0.21518200  0.54170900  1
  O  O67  1  0.07788000  0.28481800  0.45829100  1
  O  O68  1  0.57788000  0.28481800  0.04170900  1
  O  O69  1  0.07788000  0.21518200  0.95829100  1
  O  O70  1  0.42212000  0.78481800  0.45829100  1
  O  O71  1  0.92212000  0.71518200  0.54170900  1
  O  O72  1  0.73125000  0.67414700  0.88138500  1
  O  O73  1  0.23125000  0.82585300  0.11861500  1
  O  O74  1  0.26875000  0.17414700  0.61861500  1
  O  O75  1  0.76875000  0.32585300  0.38138500  1
  O  O76  1  0.26875000  0.32585300  0.11861500  1
  O  O77  1  0.76875000  0.17414700  0.88138500  1
  O  O78  1  0.73125000  0.82585300  0.38138500  1
  O  O79  1  0.23125000  0.67414700  0.61861500  1
  O  O80  1  0.75653400  0.88583100  0.70242400  1
  O  O81  1  0.25653400  0.61416900  0.29757600  1
  O  O82  1  0.24346600  0.38583100  0.79757600  1
  O  O83  1  0.74346600  0.11416900  0.20242400  1
  O  O84  1  0.24346600  0.11416900  0.29757600  1
  O  O85  1  0.74346600  0.38583100  0.70242400  1
  O  O86  1  0.75653400  0.61416900  0.20242400  1
  O  O87  1  0.25653400  0.88583100  0.79757600  1
  O  O88  1  0.68098900  0.94355300  0.94539300  1
  O  O89  1  0.18098900  0.55644700  0.05460700  1
  O  O90  1  0.31901100  0.44355300  0.55460700  1
  O  O91  1  0.81901100  0.05644700  0.44539300  1
  O  O92  1  0.31901100  0.05644700  0.05460700  1
  O  O93  1  0.81901100  0.44355300  0.94539300  1
  O  O94  1  0.68098900  0.55644700  0.44539300  1
  O  O95  1  0.18098900  0.94355300  0.55460700  1
