# generated using pymatgen
data_P3Pb5IO12
_symmetry_space_group_name_H-M   'P 1'
_cell_length_a   10.38867075
_cell_length_b   10.38867075
_cell_length_c   7.47762800
_cell_angle_alpha   90.00000000
_cell_angle_beta   90.00000000
_cell_angle_gamma   120.00000479
_symmetry_Int_Tables_number   1
_chemical_formula_structural   P3Pb5IO12
_chemical_formula_sum   'P6 Pb10 I2 O24'
_cell_volume   698.89901990
_cell_formula_units_Z   2
loop_
 _symmetry_equiv_pos_site_id
 _symmetry_equiv_pos_as_xyz
  1  'x, y, z'
loop_
 _atom_site_type_symbol
 _atom_site_label
 _atom_site_symmetry_multiplicity
 _atom_site_fract_x
 _atom_site_fract_y
 _atom_site_fract_z
 _atom_site_occupancy
  P  P0  1  0.96029000  0.58561600  0.75000000  1
  P  P1  1  0.62532600  0.03971000  0.75000000  1
  P  P2  1  0.41438400  0.37467400  0.75000000  1
  P  P3  1  0.03971000  0.41438400  0.25000000  1
  P  P4  1  0.37467400  0.96029000  0.25000000  1
  P  P5  1  0.58561600  0.62532600  0.25000000  1
  Pb  Pb6  1  0.33333300  0.66666700  0.99538700  1
  Pb  Pb7  1  0.66666700  0.33333300  0.49538700  1
  Pb  Pb8  1  0.66666700  0.33333300  0.00461300  1
  Pb  Pb9  1  0.33333300  0.66666700  0.50461300  1
  Pb  Pb10  1  0.74295100  0.72508500  0.75000000  1
  Pb  Pb11  1  0.98213500  0.25704900  0.75000000  1
  Pb  Pb12  1  0.27491500  0.01786500  0.75000000  1
  Pb  Pb13  1  0.25704900  0.27491500  0.25000000  1
  Pb  Pb14  1  0.01786500  0.74295100  0.25000000  1
  Pb  Pb15  1  0.72508500  0.98213500  0.25000000  1
  I  I16  1  0.00000000  0.00000000  0.00000000  1
  I  I17  1  0.00000000  0.00000000  0.50000000  1
  O  O18  1  0.12936800  0.64274900  0.75000000  1
  O  O19  1  0.51338100  0.87063200  0.75000000  1
  O  O20  1  0.35725100  0.48661900  0.75000000  1
  O  O21  1  0.87063200  0.35725100  0.25000000  1
  O  O22  1  0.48661900  0.12936800  0.25000000  1
  O  O23  1  0.64274900  0.51338100  0.25000000  1
  O  O24  1  0.86935700  0.40829600  0.75000000  1
  O  O25  1  0.53893900  0.13064300  0.75000000  1
  O  O26  1  0.59170400  0.46106100  0.75000000  1
  O  O27  1  0.13064300  0.59170400  0.25000000  1
  O  O28  1  0.46106100  0.86935700  0.25000000  1
  O  O29  1  0.40829600  0.53893900  0.25000000  1
  O  O30  1  0.90648400  0.63394600  0.91866100  1
  O  O31  1  0.72746100  0.09351600  0.91866100  1
  O  O32  1  0.36605400  0.27253900  0.91866100  1
  O  O33  1  0.09351600  0.36605400  0.41866100  1
  O  O34  1  0.27253900  0.90648400  0.41866100  1
  O  O35  1  0.63394600  0.72746100  0.41866100  1
  O  O36  1  0.09351600  0.36605400  0.08133900  1
  O  O37  1  0.27253900  0.90648400  0.08133900  1
  O  O38  1  0.63394600  0.72746100  0.08133900  1
  O  O39  1  0.90648400  0.63394600  0.58133900  1
  O  O40  1  0.72746100  0.09351600  0.58133900  1
  O  O41  1  0.36605400  0.27253900  0.58133900  1
