# generated using pymatgen
data_KIrNCl5O2
_symmetry_space_group_name_H-M   'P 1'
_cell_length_a   6.23175500
_cell_length_b   7.19891500
_cell_length_c   23.05528100
_cell_angle_alpha   90.00000000
_cell_angle_beta   90.00000000
_cell_angle_gamma   90.00000000
_symmetry_Int_Tables_number   1
_chemical_formula_structural   KIrNCl5O2
_chemical_formula_sum   'K4 Ir4 N4 Cl20 O8'
_cell_volume   1034.30312384
_cell_formula_units_Z   4
loop_
 _symmetry_equiv_pos_site_id
 _symmetry_equiv_pos_as_xyz
  1  'x, y, z'
loop_
 _atom_site_type_symbol
 _atom_site_label
 _atom_site_symmetry_multiplicity
 _atom_site_fract_x
 _atom_site_fract_y
 _atom_site_fract_z
 _atom_site_occupancy
  K  K0  1  0.48723500  0.75000000  0.17696600  1
  K  K1  1  0.01276500  0.75000000  0.67696600  1
  K  K2  1  0.51276500  0.25000000  0.82303400  1
  K  K3  1  0.98723500  0.25000000  0.32303400  1
  Ir  Ir4  1  0.61477800  0.75000000  0.37382900  1
  Ir  Ir5  1  0.88522200  0.75000000  0.87382900  1
  Ir  Ir6  1  0.38522200  0.25000000  0.62617100  1
  Ir  Ir7  1  0.11477800  0.25000000  0.12617100  1
  N  N8  1  0.37396100  0.75000000  0.41540600  1
  N  N9  1  0.12603900  0.75000000  0.91540600  1
  N  N10  1  0.62603900  0.25000000  0.58459400  1
  N  N11  1  0.87396100  0.25000000  0.08459400  1
  Cl  Cl12  1  0.49702700  0.98293700  0.30779400  1
  Cl  Cl13  1  0.00297300  0.51706300  0.80779400  1
  Cl  Cl14  1  0.50297300  0.48293700  0.69220600  1
  Cl  Cl15  1  0.99702700  0.01706300  0.19220600  1
  Cl  Cl16  1  0.50297300  0.01706300  0.69220600  1
  Cl  Cl17  1  0.99702700  0.48293700  0.19220600  1
  Cl  Cl18  1  0.49702700  0.51706300  0.30779400  1
  Cl  Cl19  1  0.00297300  0.98293700  0.80779400  1
  Cl  Cl20  1  0.75737200  0.98525400  0.43448200  1
  Cl  Cl21  1  0.74262800  0.51474600  0.93448200  1
  Cl  Cl22  1  0.24262800  0.48525400  0.56551800  1
  Cl  Cl23  1  0.25737200  0.01474600  0.06551800  1
  Cl  Cl24  1  0.24262800  0.01474600  0.56551800  1
  Cl  Cl25  1  0.25737200  0.48525400  0.06551800  1
  Cl  Cl26  1  0.75737200  0.51474600  0.43448200  1
  Cl  Cl27  1  0.74262800  0.98525400  0.93448200  1
  Cl  Cl28  1  0.93605000  0.75000000  0.32501500  1
  Cl  Cl29  1  0.56395000  0.75000000  0.82501500  1
  Cl  Cl30  1  0.06395000  0.25000000  0.67498500  1
  Cl  Cl31  1  0.43605000  0.25000000  0.17498500  1
  O  O32  1  0.22894600  0.75000000  0.44620200  1
  O  O33  1  0.27105400  0.75000000  0.94620200  1
  O  O34  1  0.77105400  0.25000000  0.55379800  1
  O  O35  1  0.72894600  0.25000000  0.05379800  1
  O  O36  1  0.75532900  0.75000000  0.07942800  1
  O  O37  1  0.74467100  0.75000000  0.57942800  1
  O  O38  1  0.24467100  0.25000000  0.92057200  1
  O  O39  1  0.25532900  0.25000000  0.42057200  1
