# generated using pymatgen
data_BaCe(SnSe3)2
_symmetry_space_group_name_H-M   'P 1'
_cell_length_a   4.28970200
_cell_length_b   20.45332200
_cell_length_c   12.52961300
_cell_angle_alpha   90.00000000
_cell_angle_beta   90.00000000
_cell_angle_gamma   90.00000000
_symmetry_Int_Tables_number   1
_chemical_formula_structural   BaCe(SnSe3)2
_chemical_formula_sum   'Ba4 Ce4 Sn8 Se24'
_cell_volume   1099.33140845
_cell_formula_units_Z   4
loop_
 _symmetry_equiv_pos_site_id
 _symmetry_equiv_pos_as_xyz
  1  'x, y, z'
loop_
 _atom_site_type_symbol
 _atom_site_label
 _atom_site_symmetry_multiplicity
 _atom_site_fract_x
 _atom_site_fract_y
 _atom_site_fract_z
 _atom_site_occupancy
  Ba  Ba0  1  0.50000000  0.07881800  0.31824600  1
  Ba  Ba1  1  0.50000000  0.92118200  0.81824600  1
  Ba  Ba2  1  0.50000000  0.36010100  0.75355100  1
  Ba  Ba3  1  0.50000000  0.63989900  0.25355100  1
  Ce  Ce4  1  0.50000000  0.11880100  0.68287300  1
  Ce  Ce5  1  0.50000000  0.88119900  0.18287300  1
  Ce  Ce6  1  0.50000000  0.58099800  0.87575900  1
  Ce  Ce7  1  0.50000000  0.41900200  0.37575900  1
  Sn  Sn8  1  0.50000000  0.25433300  0.10293900  1
  Sn  Sn9  1  0.50000000  0.74566700  0.60293900  1
  Sn  Sn10  1  0.00000000  0.09297100  0.99637600  1
  Sn  Sn11  1  0.00000000  0.90702900  0.49637600  1
  Sn  Sn12  1  0.00000000  0.24801400  0.49863800  1
  Sn  Sn13  1  0.00000000  0.75198600  0.99863800  1
  Sn  Sn14  1  0.00000000  0.57582600  0.54587200  1
  Sn  Sn15  1  0.00000000  0.42417400  0.04587200  1
  Se  Se16  1  0.50000000  0.01304700  0.06526300  1
  Se  Se17  1  0.50000000  0.98695300  0.56526300  1
  Se  Se18  1  0.50000000  0.17020200  0.91655200  1
  Se  Se19  1  0.50000000  0.82979800  0.41655200  1
  Se  Se20  1  0.50000000  0.50422700  0.59383900  1
  Se  Se21  1  0.50000000  0.49577300  0.09383900  1
  Se  Se22  1  0.50000000  0.73793500  0.87267300  1
  Se  Se23  1  0.50000000  0.26206500  0.37267300  1
  Se  Se24  1  0.00000000  0.04195400  0.78910700  1
  Se  Se25  1  0.00000000  0.95804600  0.28910700  1
  Se  Se26  1  0.00000000  0.11657300  0.50697800  1
  Se  Se27  1  0.00000000  0.88342700  0.00697800  1
  Se  Se28  1  0.00000000  0.16648400  0.17919100  1
  Se  Se29  1  0.00000000  0.83351600  0.67919100  1
  Se  Se30  1  0.00000000  0.23011700  0.70920100  1
  Se  Se31  1  0.00000000  0.76988300  0.20920100  1
  Se  Se32  1  0.00000000  0.31174600  0.94994200  1
  Se  Se33  1  0.00000000  0.68825400  0.44994200  1
  Se  Se34  1  0.00000000  0.37928000  0.53831800  1
  Se  Se35  1  0.00000000  0.62072000  0.03831800  1
  Se  Se36  1  0.00000000  0.47772400  0.84238300  1
  Se  Se37  1  0.00000000  0.52227600  0.34238300  1
  Se  Se38  1  0.00000000  0.64013400  0.73861900  1
  Se  Se39  1  0.00000000  0.35986600  0.23861900  1
