# generated using pymatgen
data_VPH5O7
_symmetry_space_group_name_H-M   'P 1'
_cell_length_a   7.30552600
_cell_length_b   7.69331600
_cell_length_c   9.64541010
_cell_angle_alpha   84.59732259
_cell_angle_beta   90.00000000
_cell_angle_gamma   90.00000000
_symmetry_Int_Tables_number   1
_chemical_formula_structural   VPH5O7
_chemical_formula_sum   'V4 P4 H20 O28'
_cell_volume   539.69965034
_cell_formula_units_Z   4
loop_
 _symmetry_equiv_pos_site_id
 _symmetry_equiv_pos_as_xyz
  1  'x, y, z'
loop_
 _atom_site_type_symbol
 _atom_site_label
 _atom_site_symmetry_multiplicity
 _atom_site_fract_x
 _atom_site_fract_y
 _atom_site_fract_z
 _atom_site_occupancy
  V  V0  1  0.13449000  0.48028200  0.25420900  1
  V  V1  1  0.63449000  0.51971800  0.24579100  1
  V  V2  1  0.86551000  0.51971800  0.74579100  1
  V  V3  1  0.36551000  0.48028200  0.75420900  1
  P  P4  1  0.15159700  0.72187400  0.51093700  1
  P  P5  1  0.65159700  0.27812600  0.98906300  1
  P  P6  1  0.84840300  0.27812600  0.48906300  1
  P  P7  1  0.34840300  0.72187400  0.01093700  1
  H  H8  1  0.32680900  0.03898100  0.33987200  1
  H  H9  1  0.82680900  0.96101900  0.16012800  1
  H  H10  1  0.67319100  0.96101900  0.66012800  1
  H  H11  1  0.17319100  0.03898100  0.83987200  1
  H  H12  1  0.48138200  0.13154700  0.24116000  1
  H  H13  1  0.98138300  0.86845300  0.25884000  1
  H  H14  1  0.51861800  0.86845300  0.75884000  1
  H  H15  1  0.01861800  0.13154700  0.74116000  1
  H  H16  1  0.01864800  0.31906500  0.04319200  1
  H  H17  1  0.51864800  0.68093500  0.45680800  1
  H  H18  1  0.98135200  0.68093500  0.95680800  1
  H  H19  1  0.48135200  0.31906500  0.54319200  1
  H  H20  1  0.02602700  0.17042200  0.17191600  1
  H  H21  1  0.52602700  0.82957800  0.32808400  1
  H  H22  1  0.97397300  0.82957800  0.82808400  1
  H  H23  1  0.47397300  0.17042200  0.67191600  1
  H  H24  1  0.16364600  0.96952000  0.60619800  1
  H  H25  1  0.66364600  0.03048000  0.89380200  1
  H  H26  1  0.83635400  0.03048000  0.39380200  1
  H  H27  1  0.33635400  0.96952000  0.10619800  1
  O  O28  1  0.13088700  0.70207600  0.35403700  1
  O  O29  1  0.63088700  0.29792400  0.14596300  1
  O  O30  1  0.86911300  0.29792400  0.64596300  1
  O  O31  1  0.36911300  0.70207600  0.85403700  1
  O  O32  1  0.32260100  0.62293500  0.57080100  1
  O  O33  1  0.82260100  0.37706500  0.92919900  1
  O  O34  1  0.67739900  0.37706500  0.42919900  1
  O  O35  1  0.17739900  0.62293500  0.07080100  1
  O  O36  1  0.97726900  0.67391100  0.59289200  1
  O  O37  1  0.47726900  0.32608900  0.90710800  1
  O  O38  1  0.02273100  0.32608900  0.40710800  1
  O  O39  1  0.52273100  0.67391100  0.09289200  1
  O  O40  1  0.19056300  0.92552200  0.51328700  1
  O  O41  1  0.69056300  0.07447800  0.98671300  1
  O  O42  1  0.80943700  0.07447800  0.48671300  1
  O  O43  1  0.30943700  0.92552200  0.01328700  1
  O  O44  1  0.08651300  0.27952100  0.12980300  1
  O  O45  1  0.58651300  0.72047900  0.37019700  1
  O  O46  1  0.91348700  0.72047900  0.87019700  1
  O  O47  1  0.41348700  0.27952100  0.62980300  1
  O  O48  1  0.14170100  0.44082300  0.78704300  1
  O  O49  1  0.64170100  0.55917700  0.71295700  1
  O  O50  1  0.85829900  0.55917700  0.21295700  1
  O  O51  1  0.35829900  0.44082300  0.28704300  1
  O  O52  1  0.41333100  0.02104000  0.26432600  1
  O  O53  1  0.91333100  0.97896000  0.23567400  1
  O  O54  1  0.58666900  0.97896000  0.73567400  1
  O  O55  1  0.08666900  0.02104000  0.76432600  1
