# generated using pymatgen
data_Ca2Al3Si3O13
_symmetry_space_group_name_H-M   'P 1'
_cell_length_a   5.77860200
_cell_length_b   10.69988700
_cell_length_c   15.71811900
_cell_angle_alpha   90.00000000
_cell_angle_beta   90.00000000
_cell_angle_gamma   90.00000000
_symmetry_Int_Tables_number   1
_chemical_formula_structural   Ca2Al3Si3O13
_chemical_formula_sum   'Ca8 Al12 Si12 O52'
_cell_volume   971.85740297
_cell_formula_units_Z   4
loop_
 _symmetry_equiv_pos_site_id
 _symmetry_equiv_pos_as_xyz
  1  'x, y, z'
loop_
 _atom_site_type_symbol
 _atom_site_label
 _atom_site_symmetry_multiplicity
 _atom_site_fract_x
 _atom_site_fract_y
 _atom_site_fract_z
 _atom_site_occupancy
  Ca  Ca0  1  0.25000000  0.06293700  0.86613800  1
  Ca  Ca1  1  0.25000000  0.43706300  0.36613800  1
  Ca  Ca2  1  0.75000000  0.93706300  0.13386200  1
  Ca  Ca3  1  0.75000000  0.56293700  0.63386200  1
  Ca  Ca4  1  0.25000000  0.36124700  0.95570100  1
  Ca  Ca5  1  0.25000000  0.13875300  0.45570100  1
  Ca  Ca6  1  0.75000000  0.63875300  0.04429900  1
  Ca  Ca7  1  0.75000000  0.86124700  0.54429900  1
  Al  Al8  1  0.99641700  0.31156900  0.74728700  1
  Al  Al9  1  0.50358300  0.18843100  0.24728700  1
  Al  Al10  1  0.49641700  0.68843100  0.25271300  1
  Al  Al11  1  0.00358300  0.81156900  0.75271300  1
  Al  Al12  1  0.00358300  0.68843100  0.25271300  1
  Al  Al13  1  0.49641700  0.81156900  0.75271300  1
  Al  Al14  1  0.50358300  0.31156900  0.74728700  1
  Al  Al15  1  0.99641700  0.18843100  0.24728700  1
  Al  Al16  1  0.75000000  0.14716900  0.60520000  1
  Al  Al17  1  0.75000000  0.35283100  0.10520000  1
  Al  Al18  1  0.25000000  0.85283100  0.39480000  1
  Al  Al19  1  0.25000000  0.64716900  0.89480000  1
  Si  Si20  1  0.75000000  0.21420800  0.91512200  1
  Si  Si21  1  0.75000000  0.28579200  0.41512200  1
  Si  Si22  1  0.25000000  0.78579200  0.08487800  1
  Si  Si23  1  0.25000000  0.71420800  0.58487800  1
  Si  Si24  1  0.25000000  0.41724300  0.58543100  1
  Si  Si25  1  0.25000000  0.08275700  0.08543100  1
  Si  Si26  1  0.75000000  0.58275700  0.41456900  1
  Si  Si27  1  0.75000000  0.91724300  0.91456900  1
  Si  Si28  1  0.25000000  0.05753700  0.65823100  1
  Si  Si29  1  0.25000000  0.44246300  0.15823100  1
  Si  Si30  1  0.75000000  0.94246300  0.34176900  1
  Si  Si31  1  0.75000000  0.55753700  0.84176900  1
  O  O32  1  0.01852200  0.39585900  0.64370900  1
  O  O33  1  0.48147800  0.10414100  0.14370900  1
  O  O34  1  0.51852200  0.60414100  0.35629100  1
  O  O35  1  0.98147800  0.89585900  0.85629100  1
  O  O36  1  0.98147800  0.60414100  0.35629100  1
  O  O37  1  0.51852200  0.89585900  0.85629100  1
  O  O38  1  0.48147800  0.39585900  0.64370900  1
  O  O39  1  0.01852200  0.10414100  0.14370900  1
  O  O40  1  0.01944600  0.05928500  0.59536700  1
  O  O41  1  0.48055400  0.44071500  0.09536700  1
  O  O42  1  0.51944600  0.94071500  0.40463300  1
  O  O43  1  0.98055400  0.55928500  0.90463300  1
  O  O44  1  0.98055400  0.94071500  0.40463300  1
  O  O45  1  0.51944600  0.55928500  0.90463300  1
  O  O46  1  0.48055400  0.05928500  0.59536700  1
  O  O47  1  0.01944600  0.44071500  0.09536700  1
  O  O48  1  0.98458200  0.24352500  0.85859800  1
  O  O49  1  0.51541800  0.25647500  0.35859800  1
  O  O50  1  0.48458200  0.75647500  0.14140200  1
  O  O51  1  0.01541800  0.74352500  0.64140200  1
  O  O52  1  0.01541800  0.75647500  0.14140200  1
  O  O53  1  0.48458200  0.74352500  0.64140200  1
  O  O54  1  0.51541800  0.24352500  0.85859800  1
  O  O55  1  0.98458200  0.25647500  0.35859800  1
  O  O56  1  0.75000000  0.21637100  0.70658400  1
  O  O57  1  0.75000000  0.28362900  0.20658400  1
  O  O58  1  0.25000000  0.78362900  0.29341600  1
  O  O59  1  0.25000000  0.71637100  0.79341600  1
  O  O60  1  0.25000000  0.18419300  0.71942200  1
  O  O61  1  0.25000000  0.31580700  0.21942200  1
  O  O62  1  0.75000000  0.81580700  0.28057800  1
  O  O63  1  0.75000000  0.68419300  0.78057800  1
  O  O64  1  0.75000000  0.43413800  0.77930800  1
  O  O65  1  0.75000000  0.06586200  0.27930800  1
  O  O66  1  0.25000000  0.56586200  0.22069200  1
  O  O67  1  0.25000000  0.93413800  0.72069200  1
  O  O68  1  0.25000000  0.33747300  0.49906400  1
  O  O69  1  0.25000000  0.16252700  0.99906400  1
  O  O70  1  0.75000000  0.66252700  0.50093600  1
  O  O71  1  0.75000000  0.83747300  0.00093600  1
  O  O72  1  0.75000000  0.20225300  0.50015300  1
  O  O73  1  0.75000000  0.29774700  0.00015300  1
  O  O74  1  0.25000000  0.79774700  0.49984700  1
  O  O75  1  0.25000000  0.70225300  0.99984700  1
  O  O76  1  0.75000000  0.06649600  0.94210900  1
  O  O77  1  0.75000000  0.43350400  0.44210900  1
  O  O78  1  0.25000000  0.93350400  0.05789100  1
  O  O79  1  0.25000000  0.56649600  0.55789100  1
  O  O80  1  0.25000000  0.40460000  0.78494100  1
  O  O81  1  0.25000000  0.09540000  0.28494100  1
  O  O82  1  0.75000000  0.59540000  0.21505900  1
  O  O83  1  0.75000000  0.90460000  0.71505900  1
