# generated using pymatgen
data_K2ZnCr2(H2O5)2
_symmetry_space_group_name_H-M   'P 1'
_cell_length_a   8.08322226
_cell_length_b   8.08322226
_cell_length_c   12.53243518
_cell_angle_alpha   66.71373818
_cell_angle_beta   66.71373818
_cell_angle_gamma   41.65504573
_symmetry_Int_Tables_number   1
_chemical_formula_structural   K2ZnCr2(H2O5)2
_chemical_formula_sum   'K4 Zn2 Cr4 H8 O20'
_cell_volume   493.16501702
_cell_formula_units_Z   2
loop_
 _symmetry_equiv_pos_site_id
 _symmetry_equiv_pos_as_xyz
  1  'x, y, z'
loop_
 _atom_site_type_symbol
 _atom_site_label
 _atom_site_symmetry_multiplicity
 _atom_site_fract_x
 _atom_site_fract_y
 _atom_site_fract_z
 _atom_site_occupancy
  K  K0  1  0.68784900  0.05047000  0.54395900  1
  K  K1  1  0.31215100  0.94953000  0.45604100  1
  K  K2  1  0.94953000  0.31215100  0.95604100  1
  K  K3  1  0.05047000  0.68784900  0.04395900  1
  Zn  Zn4  1  0.84541500  0.15458500  0.75000000  1
  Zn  Zn5  1  0.15458500  0.84541500  0.25000000  1
  Cr  Cr6  1  0.45603600  0.77073300  0.79015100  1
  Cr  Cr7  1  0.54396400  0.22926700  0.20984900  1
  Cr  Cr8  1  0.22926700  0.54396400  0.70984900  1
  Cr  Cr9  1  0.77073300  0.45603600  0.29015100  1
  H  H10  1  0.66657700  0.94345100  0.86644600  1
  H  H11  1  0.33342300  0.05654900  0.13355400  1
  H  H12  1  0.05654900  0.33342300  0.63355400  1
  H  H13  1  0.94345100  0.66657700  0.36644600  1
  H  H14  1  0.51155700  0.18817300  0.91040300  1
  H  H15  1  0.48844300  0.81182700  0.08959700  1
  H  H16  1  0.81182700  0.48844300  0.58959700  1
  H  H17  1  0.18817300  0.51155700  0.41040300  1
  O  O18  1  0.52042200  0.81384600  0.64491500  1
  O  O19  1  0.47957800  0.18615400  0.35508500  1
  O  O20  1  0.18615400  0.47957800  0.85508500  1
  O  O21  1  0.81384600  0.52042200  0.14491500  1
  O  O22  1  0.55424800  0.83800700  0.84406400  1
  O  O23  1  0.44575200  0.16199300  0.15593600  1
  O  O24  1  0.16199300  0.44575200  0.65593600  1
  O  O25  1  0.83800700  0.55424800  0.34406400  1
  O  O26  1  0.53385100  0.38907800  0.65962400  1
  O  O27  1  0.46614900  0.61092200  0.34037600  1
  O  O28  1  0.61092200  0.46614900  0.84037600  1
  O  O29  1  0.38907800  0.53385100  0.15962400  1
  O  O30  1  0.85896600  0.04283700  0.16430500  1
  O  O31  1  0.14103400  0.95716300  0.83569500  1
  O  O32  1  0.95716300  0.14103400  0.33569500  1
  O  O33  1  0.04283700  0.85896600  0.66430500  1
  O  O34  1  0.68701000  0.02766300  0.89287900  1
  O  O35  1  0.31299000  0.97233700  0.10712100  1
  O  O36  1  0.97233700  0.31299000  0.60712100  1
  O  O37  1  0.02766300  0.68701000  0.39287900  1
