# generated using pymatgen
data_MgB6(H2O3)5
_symmetry_space_group_name_H-M   'P 1'
_cell_length_a   8.14847600
_cell_length_b   9.94273400
_cell_length_c   14.73360800
_cell_angle_alpha   90.00000000
_cell_angle_beta   90.00000000
_cell_angle_gamma   90.00000000
_symmetry_Int_Tables_number   1
_chemical_formula_structural   MgB6(H2O3)5
_chemical_formula_sum   'Mg4 B24 H40 O60'
_cell_volume   1193.68935908
_cell_formula_units_Z   4
loop_
 _symmetry_equiv_pos_site_id
 _symmetry_equiv_pos_as_xyz
  1  'x, y, z'
loop_
 _atom_site_type_symbol
 _atom_site_label
 _atom_site_symmetry_multiplicity
 _atom_site_fract_x
 _atom_site_fract_y
 _atom_site_fract_z
 _atom_site_occupancy
  Mg  Mg0  1  0.70808700  0.67070700  0.63313300  1
  Mg  Mg1  1  0.20808700  0.32929300  0.36686700  1
  Mg  Mg2  1  0.20808700  0.17070700  0.86686700  1
  Mg  Mg3  1  0.70808700  0.82929300  0.13313300  1
  B  B4  1  0.35468200  0.66769900  0.70251300  1
  B  B5  1  0.85468200  0.33230100  0.29748700  1
  B  B6  1  0.85468200  0.16769900  0.79748700  1
  B  B7  1  0.35468200  0.83230100  0.20251300  1
  B  B8  1  0.29238000  0.89888900  0.75809100  1
  B  B9  1  0.79238000  0.10111100  0.24190900  1
  B  B10  1  0.79238000  0.39888900  0.74190900  1
  B  B11  1  0.29238000  0.60111100  0.25809100  1
  B  B12  1  0.56063900  0.80032500  0.80675000  1
  B  B13  1  0.06063900  0.19967500  0.19325000  1
  B  B14  1  0.06063900  0.30032500  0.69325000  1
  B  B15  1  0.56063900  0.69967500  0.30675000  1
  B  B16  1  0.66096400  0.67027500  0.93765600  1
  B  B17  1  0.16096400  0.32972500  0.06234400  1
  B  B18  1  0.16096400  0.17027500  0.56234400  1
  B  B19  1  0.66096400  0.82972500  0.43765600  1
  B  B20  1  0.29663500  0.43562700  0.75825100  1
  B  B21  1  0.79663500  0.56437300  0.24174900  1
  B  B22  1  0.79663500  0.93562700  0.74174900  1
  B  B23  1  0.29663500  0.06437300  0.25825100  1
  B  B24  1  0.55916600  0.53519100  0.80844000  1
  B  B25  1  0.05916600  0.46480900  0.19156000  1
  B  B26  1  0.05916600  0.03519100  0.69156000  1
  B  B27  1  0.55916600  0.96480900  0.30844000  1
  H  H28  1  0.40199700  0.74244500  0.57457000  1
  H  H29  1  0.90199700  0.25755500  0.42543000  1
  H  H30  1  0.90199700  0.24244500  0.92543000  1
  H  H31  1  0.40199700  0.75755500  0.07457000  1
  H  H32  1  0.83588600  0.47925400  0.52292700  1
  H  H33  1  0.33588600  0.52074600  0.47707300  1
  H  H34  1  0.33588600  0.97925400  0.97707300  1
  H  H35  1  0.83588600  0.02074600  0.02292700  1
  H  H36  1  0.65888000  0.43342700  0.55098400  1
  H  H37  1  0.15888000  0.56657300  0.44901600  1
  H  H38  1  0.15888000  0.93342700  0.94901600  1
  H  H39  1  0.65888000  0.06657300  0.05098400  1
  H  H40  1  0.02890600  0.73509600  0.65977400  1
  H  H41  1  0.52890600  0.26490400  0.34022600  1
  H  H42  1  0.52890600  0.23509600  0.84022600  1
  H  H43  1  0.02890600  0.76490400  0.15977400  1
  H  H44  1  0.00263900  0.57694300  0.65919800  1
  H  H45  1  0.50263900  0.42305700  0.34080200  1
  H  H46  1  0.50263900  0.07694300  0.84080200  1
  H  H47  1  0.00263900  0.92305700  0.15919800  1
  H  H48  1  0.03490900  0.78619900  0.84919900  1
  H  H49  1  0.53490900  0.21380100  0.15080100  1
  H  H50  1  0.53490900  0.28619900  0.65080100  1
  H  H51  1  0.03490900  0.71380100  0.34919900  1
  H  H52  1  0.94589700  0.78156000  0.94418000  1
  H  H53  1  0.44589700  0.21844000  0.05582000  1
  H  H54  1  0.44589700  0.28156000  0.55582000  1
  H  H55  1  0.94589700  0.71844000  0.44418000  1
  H  H56  1  0.73584300  0.41394400  0.95276300  1
  H  H57  1  0.23584300  0.58605600  0.04723700  1
  H  H58  1  0.23584300  0.91394400  0.54723700  1
  H  H59  1  0.73584300  0.08605600  0.45276300  1
  H  H60  1  0.71800100  0.31171300  0.03256900  1
  H  H61  1  0.21800100  0.68828700  0.96743100  1
  H  H62  1  0.21800100  0.81171300  0.46743100  1
  H  H63  1  0.71800100  0.18828700  0.53256900  1
  H  H64  1  0.78013500  0.58969000  0.04476800  1
  H  H65  1  0.28013500  0.41031000  0.95523200  1
  H  H66  1  0.28013500  0.08969000  0.45523200  1
  H  H67  1  0.78013500  0.91031000  0.54476800  1
  O  O68  1  0.47942400  0.66732000  0.78156500  1
  O  O69  1  0.97942400  0.33268000  0.21843500  1
  O  O70  1  0.97942400  0.16732000  0.71843500  1
  O  O71  1  0.47942400  0.83268000  0.28156500  1
  O  O72  1  0.24439500  0.78350700  0.71406400  1
  O  O73  1  0.74439500  0.21649300  0.28593600  1
  O  O74  1  0.74439500  0.28350700  0.78593600  1
  O  O75  1  0.24439500  0.71649300  0.21406400  1
  O  O76  1  0.43995200  0.90728200  0.80202800  1
  O  O77  1  0.93995200  0.09271800  0.19797200  1
  O  O78  1  0.93995200  0.40728200  0.69797200  1
  O  O79  1  0.43995200  0.59271800  0.30202800  1
  O  O80  1  0.45460400  0.68006800  0.61912400  1
  O  O81  1  0.95460400  0.31993200  0.38087600  1
  O  O82  1  0.95460400  0.18006800  0.88087600  1
  O  O83  1  0.45460400  0.81993200  0.11912400  1
  O  O84  1  0.25967200  0.54444500  0.70602700  1
  O  O85  1  0.75967200  0.45555500  0.29397300  1
  O  O86  1  0.75967200  0.04444500  0.79397300  1
  O  O87  1  0.25967200  0.95555500  0.20602700  1
  O  O88  1  0.43583700  0.43060900  0.81102700  1
  O  O89  1  0.93583700  0.56939100  0.18897300  1
  O  O90  1  0.93583700  0.93060900  0.68897300  1
  O  O91  1  0.43583700  0.06939100  0.31102700  1
  O  O92  1  0.63635800  0.54770900  0.89800900  1
  O  O93  1  0.13635800  0.45229100  0.10199100  1
  O  O94  1  0.13635800  0.04770900  0.60199100  1
  O  O95  1  0.63635800  0.95229100  0.39800900  1
  O  O96  1  0.69553900  0.82238400  0.73861900  1
  O  O97  1  0.19553900  0.17761600  0.26138100  1
  O  O98  1  0.19553900  0.32238400  0.76138100  1
  O  O99  1  0.69553900  0.67761600  0.23861900  1
  O  O100  1  0.62704800  0.78930400  0.89759500  1
  O  O101  1  0.12704800  0.21069600  0.10240500  1
  O  O102  1  0.12704800  0.28930400  0.60240500  1
  O  O103  1  0.62704800  0.71069600  0.39759500  1
  O  O104  1  0.73788100  0.67676700  0.02368500  1
  O  O105  1  0.23788100  0.32323300  0.97631500  1
  O  O106  1  0.23788100  0.17676700  0.47631500  1
  O  O107  1  0.73788100  0.82323300  0.52368500  1
  O  O108  1  0.68873500  0.51026800  0.73821500  1
  O  O109  1  0.18873500  0.48973200  0.26178500  1
  O  O110  1  0.18873500  0.01026800  0.76178500  1
  O  O111  1  0.68873500  0.98973200  0.23821500  1
  O  O112  1  0.72821000  0.51352700  0.53979500  1
  O  O113  1  0.22821000  0.48647300  0.46020500  1
  O  O114  1  0.22821000  0.01352700  0.96020500  1
  O  O115  1  0.72821000  0.98647300  0.03979500  1
  O  O116  1  0.95933800  0.66286200  0.63527900  1
  O  O117  1  0.45933800  0.33713800  0.36472100  1
  O  O118  1  0.45933800  0.16286200  0.86472100  1
  O  O119  1  0.95933800  0.83713800  0.13527900  1
  O  O120  1  0.05299500  0.78950800  0.91466100  1
  O  O121  1  0.55299500  0.21049200  0.08533900  1
  O  O122  1  0.55299500  0.28950800  0.58533900  1
  O  O123  1  0.05299500  0.71049200  0.41466100  1
  O  O124  1  0.80106800  0.35854200  0.99574000  1
  O  O125  1  0.30106800  0.64145800  0.00426000  1
  O  O126  1  0.30106800  0.85854200  0.50426000  1
  O  O127  1  0.80106800  0.14145800  0.49574000  1
