# generated using pymatgen
data_CoH12C2(Br2N)2
_symmetry_space_group_name_H-M   'P 1'
_cell_length_a   8.20443300
_cell_length_b   13.40930500
_cell_length_c   11.59902410
_cell_angle_alpha   90.00000000
_cell_angle_beta   96.37024222
_cell_angle_gamma   90.00000000
_symmetry_Int_Tables_number   1
_chemical_formula_structural   CoH12C2(Br2N)2
_chemical_formula_sum   'Co4 H48 C8 Br16 N8'
_cell_volume   1268.19637269
_cell_formula_units_Z   4
loop_
 _symmetry_equiv_pos_site_id
 _symmetry_equiv_pos_as_xyz
  1  'x, y, z'
loop_
 _atom_site_type_symbol
 _atom_site_label
 _atom_site_symmetry_multiplicity
 _atom_site_fract_x
 _atom_site_fract_y
 _atom_site_fract_z
 _atom_site_occupancy
  Co  Co0  1  0.73241500  0.93775500  0.27156500  1
  Co  Co1  1  0.26758500  0.43775500  0.22843500  1
  Co  Co2  1  0.26758500  0.06224500  0.72843500  1
  Co  Co3  1  0.73241500  0.56224500  0.77156500  1
  H  H4  1  0.27957600  0.72371800  0.03910100  1
  H  H5  1  0.72042400  0.22371800  0.46089900  1
  H  H6  1  0.72042400  0.27628200  0.96089900  1
  H  H7  1  0.27957600  0.77628200  0.53910100  1
  H  H8  1  0.28431300  0.80047600  0.92367100  1
  H  H9  1  0.71568700  0.30047600  0.57632900  1
  H  H10  1  0.71568700  0.19952400  0.07632900  1
  H  H11  1  0.28431300  0.69952400  0.42367100  1
  H  H12  1  0.41825800  0.81614600  0.04218400  1
  H  H13  1  0.58174200  0.31614600  0.45781600  1
  H  H14  1  0.58174200  0.18385400  0.95781600  1
  H  H15  1  0.41825800  0.68385400  0.54218400  1
  H  H16  1  0.80097800  0.83715400  0.58337500  1
  H  H17  1  0.19902200  0.33715400  0.91662500  1
  H  H18  1  0.19902200  0.16284600  0.41662500  1
  H  H19  1  0.80097800  0.66284600  0.08337500  1
  H  H20  1  0.67436400  0.93378100  0.58270600  1
  H  H21  1  0.32563600  0.43378100  0.91729400  1
  H  H22  1  0.32563600  0.06621900  0.41729400  1
  H  H23  1  0.67436400  0.56621900  0.08270600  1
  H  H24  1  0.87465100  0.95138900  0.61955700  1
  H  H25  1  0.12534900  0.45138900  0.88044300  1
  H  H26  1  0.12534900  0.04861100  0.38044300  1
  H  H27  1  0.87465100  0.54861100  0.11955700  1
  H  H28  1  0.80600000  0.35877100  0.34336400  1
  H  H29  1  0.19400000  0.85877100  0.15663600  1
  H  H30  1  0.19400000  0.64122900  0.65663600  1
  H  H31  1  0.80600000  0.14122900  0.84336400  1
  H  H32  1  0.79778200  0.44027800  0.46638400  1
  H  H33  1  0.20221800  0.94027800  0.03361600  1
  H  H34  1  0.20221800  0.55972200  0.53361600  1
  H  H35  1  0.79778200  0.05972200  0.96638400  1
  H  H36  1  0.94647000  0.34193600  0.47124500  1
  H  H37  1  0.05353000  0.84193600  0.02875500  1
  H  H38  1  0.05353000  0.65806400  0.52875500  1
  H  H39  1  0.94647000  0.15806400  0.97124500  1
  H  H40  1  0.86170500  0.83860600  0.78910500  1
  H  H41  1  0.13829500  0.33860600  0.71089500  1
  H  H42  1  0.13829500  0.16139400  0.21089500  1
  H  H43  1  0.86170500  0.66139400  0.28910500  1
  H  H44  1  0.74889700  0.95314900  0.79472600  1
  H  H45  1  0.25110300  0.45314900  0.70527400  1
  H  H46  1  0.25110300  0.04685100  0.20527400  1
  H  H47  1  0.74889700  0.54685100  0.29472600  1
  H  H48  1  0.64307900  0.83986100  0.75417100  1
  H  H49  1  0.35692100  0.33986100  0.74582900  1
  H  H50  1  0.35692100  0.16013900  0.24582900  1
  H  H51  1  0.64307900  0.66013900  0.25417100  1
  C  C52  1  0.82183400  0.36436200  0.43807800  1
  C  C53  1  0.17816600  0.86436200  0.06192200  1
  C  C54  1  0.17816600  0.63563800  0.56192200  1
  C  C55  1  0.82183400  0.13563800  0.93807800  1
  C  C56  1  0.75662000  0.88184100  0.75037500  1
  C  C57  1  0.24338000  0.38184100  0.74962500  1
  C  C58  1  0.24338000  0.11815900  0.24962500  1
  C  C59  1  0.75662000  0.61815900  0.25037500  1
  Br  Br60  1  0.98575800  0.88025800  0.37408000  1
  Br  Br61  1  0.01424200  0.38025800  0.12592000  1
  Br  Br62  1  0.01424200  0.11974200  0.62592000  1
  Br  Br63  1  0.98575800  0.61974200  0.87408000  1
  Br  Br64  1  0.69246300  0.86543700  0.07969300  1
  Br  Br65  1  0.30753700  0.36543700  0.42030700  1
  Br  Br66  1  0.30753700  0.13456300  0.92030700  1
  Br  Br67  1  0.69246300  0.63456300  0.57969300  1
  Br  Br68  1  0.75523100  0.11729400  0.26666300  1
  Br  Br69  1  0.24476900  0.61729400  0.23333700  1
  Br  Br70  1  0.24476900  0.88270600  0.73333700  1
  Br  Br71  1  0.75523100  0.38270600  0.76666300  1
  Br  Br72  1  0.50403500  0.89204200  0.37229500  1
  Br  Br73  1  0.49596500  0.39204200  0.12770500  1
  Br  Br74  1  0.49596500  0.10795800  0.62770500  1
  Br  Br75  1  0.50403500  0.60795800  0.87229500  1
  N  N76  1  0.29699300  0.79634300  0.01390700  1
  N  N77  1  0.70300700  0.29634300  0.48609300  1
  N  N78  1  0.70300700  0.20365700  0.98609300  1
  N  N79  1  0.29699300  0.70365700  0.51390700  1
  N  N80  1  0.77841100  0.90202600  0.62671200  1
  N  N81  1  0.22158900  0.40202600  0.87328800  1
  N  N82  1  0.22158900  0.09797400  0.37328800  1
  N  N83  1  0.77841100  0.59797400  0.12671200  1
