# generated using pymatgen
data_WI3
_symmetry_space_group_name_H-M   'P 1'
_cell_length_a   12.65046100
_cell_length_b   12.65046100
_cell_length_c   25.66222300
_cell_angle_alpha   90.00000000
_cell_angle_beta   90.00000000
_cell_angle_gamma   90.00000000
_symmetry_Int_Tables_number   1
_chemical_formula_structural   WI3
_chemical_formula_sum   'W24 I72'
_cell_volume   4106.83239168
_cell_formula_units_Z   24
loop_
 _symmetry_equiv_pos_site_id
 _symmetry_equiv_pos_as_xyz
  1  'x, y, z'
loop_
 _atom_site_type_symbol
 _atom_site_label
 _atom_site_symmetry_multiplicity
 _atom_site_fract_x
 _atom_site_fract_y
 _atom_site_fract_z
 _atom_site_occupancy
  W  W0  1  0.82450400  0.22813200  0.48956700  1
  W  W1  1  0.17549600  0.77186800  0.98956700  1
  W  W2  1  0.72813200  0.67549600  0.23956700  1
  W  W3  1  0.27186800  0.32450400  0.73956700  1
  W  W4  1  0.77186800  0.17549600  0.01043300  1
  W  W5  1  0.22813200  0.82450400  0.51043300  1
  W  W6  1  0.67549600  0.72813200  0.76043300  1
  W  W7  1  0.32450400  0.27186800  0.26043300  1
  W  W8  1  0.82512000  0.42422600  0.48999400  1
  W  W9  1  0.17488000  0.57577400  0.98999400  1
  W  W10  1  0.92422600  0.67488000  0.23999400  1
  W  W11  1  0.07577400  0.32512000  0.73999400  1
  W  W12  1  0.57577400  0.17488000  0.01000600  1
  W  W13  1  0.42422600  0.82512000  0.51000600  1
  W  W14  1  0.67488000  0.92422600  0.76000600  1
  W  W15  1  0.32512000  0.07577400  0.26000600  1
  W  W16  1  0.83688500  0.32690000  0.57258600  1
  W  W17  1  0.16311500  0.67310000  0.07258600  1
  W  W18  1  0.82690000  0.66311500  0.32258600  1
  W  W19  1  0.17310000  0.33688500  0.82258600  1
  W  W20  1  0.67310000  0.16311500  0.92741400  1
  W  W21  1  0.32690000  0.83688500  0.42741400  1
  W  W22  1  0.66311500  0.82690000  0.67741400  1
  W  W23  1  0.33688500  0.17310000  0.17741400  1
  I  I24  1  0.65827100  0.32702300  0.43712600  1
  I  I25  1  0.34172900  0.67297700  0.93712600  1
  I  I26  1  0.82702300  0.84172900  0.18712600  1
  I  I27  1  0.17297700  0.15827100  0.68712600  1
  I  I28  1  0.67297700  0.34172900  0.06287400  1
  I  I29  1  0.32702300  0.65827100  0.56287400  1
  I  I30  1  0.84172900  0.82702300  0.81287400  1
  I  I31  1  0.15827100  0.17297700  0.31287400  1
  I  I32  1  0.67908200  0.48033900  0.56664300  1
  I  I33  1  0.32091800  0.51966100  0.06664300  1
  I  I34  1  0.98033900  0.82091800  0.31664300  1
  I  I35  1  0.01966100  0.17908200  0.81664300  1
  I  I36  1  0.51966100  0.32091800  0.93335700  1
  I  I37  1  0.48033900  0.67908200  0.43335700  1
  I  I38  1  0.82091800  0.98033900  0.68335700  1
  I  I39  1  0.17908200  0.01966100  0.18335700  1
  I  I40  1  0.67973200  0.17304100  0.56702800  1
  I  I41  1  0.32026800  0.82695900  0.06702800  1
  I  I42  1  0.67304100  0.82026800  0.31702800  1
  I  I43  1  0.32695900  0.17973200  0.81702800  1
  I  I44  1  0.82695900  0.32026800  0.93297200  1
  I  I45  1  0.17304100  0.67973200  0.43297200  1
  I  I46  1  0.82026800  0.67304100  0.68297200  1
  I  I47  1  0.17973200  0.32695900  0.18297200  1
  I  I48  1  0.97597400  0.32560700  0.42698700  1
  I  I49  1  0.02402600  0.67439300  0.92698700  1
  I  I50  1  0.82560700  0.52402600  0.17698700  1
  I  I51  1  0.17439300  0.47597400  0.67698700  1
  I  I52  1  0.67439300  0.02402600  0.07301300  1
  I  I53  1  0.32560700  0.97597400  0.57301300  1
  I  I54  1  0.52402600  0.82560700  0.82301300  1
  I  I55  1  0.47597400  0.17439300  0.32301300  1
  I  I56  1  0.98969600  0.48196000  0.55599600  1
  I  I57  1  0.01030400  0.51804000  0.05599600  1
  I  I58  1  0.98196000  0.51030400  0.30599600  1
  I  I59  1  0.01804000  0.48969600  0.80599600  1
  I  I60  1  0.51804000  0.01030400  0.94400400  1
  I  I61  1  0.48196000  0.98969600  0.44400400  1
  I  I62  1  0.51030400  0.98196000  0.69400400  1
  I  I63  1  0.48969600  0.01804000  0.19400400  1
  I  I64  1  0.98913200  0.17089500  0.55608100  1
  I  I65  1  0.01086800  0.82910500  0.05608100  1
  I  I66  1  0.67089500  0.51086800  0.30608100  1
  I  I67  1  0.32910500  0.48913200  0.80608100  1
  I  I68  1  0.82910500  0.01086800  0.94391900  1
  I  I69  1  0.17089500  0.98913200  0.44391900  1
  I  I70  1  0.51086800  0.67089500  0.69391900  1
  I  I71  1  0.48913200  0.32910500  0.19391900  1
  I  I72  1  0.81772500  0.03754600  0.43304100  1
  I  I73  1  0.18227500  0.96245400  0.93304100  1
  I  I74  1  0.53754600  0.68227500  0.18304100  1
  I  I75  1  0.46245400  0.31772500  0.68304100  1
  I  I76  1  0.96245400  0.18227500  0.06695900  1
  I  I77  1  0.03754600  0.81772500  0.56695900  1
  I  I78  1  0.68227500  0.53754600  0.81695900  1
  I  I79  1  0.31772500  0.46245400  0.31695900  1
  I  I80  1  0.82380100  0.63196800  0.43693100  1
  I  I81  1  0.17619900  0.36803200  0.93693100  1
  I  I82  1  0.13196800  0.67619900  0.18693100  1
  I  I83  1  0.86803200  0.32380100  0.68693100  1
  I  I84  1  0.36803200  0.17619900  0.06306900  1
  I  I85  1  0.63196800  0.82380100  0.56306900  1
  I  I86  1  0.67619900  0.13196800  0.81306900  1
  I  I87  1  0.32380100  0.86803200  0.31306900  1
  I  I88  1  0.13959300  0.82212000  0.69722200  1
  I  I89  1  0.86040700  0.17788000  0.19722200  1
  I  I90  1  0.32212000  0.36040700  0.44722200  1
  I  I91  1  0.67788000  0.63959300  0.94722200  1
  I  I92  1  0.17788000  0.86040700  0.80277800  1
  I  I93  1  0.82212000  0.13959300  0.30277800  1
  I  I94  1  0.36040700  0.32212000  0.55277800  1
  I  I95  1  0.63959300  0.67788000  0.05277800  1
