# generated using pymatgen
data_Cs2I4O11
_symmetry_space_group_name_H-M   'P 1'
_cell_length_a   7.42980622
_cell_length_b   7.42980622
_cell_length_c   14.18685400
_cell_angle_alpha   90.00000000
_cell_angle_beta   90.00000000
_cell_angle_gamma   120.00000200
_symmetry_Int_Tables_number   1
_chemical_formula_structural   Cs2I4O11
_chemical_formula_sum   'Cs4 I8 O22'
_cell_volume   678.22172413
_cell_formula_units_Z   2
loop_
 _symmetry_equiv_pos_site_id
 _symmetry_equiv_pos_as_xyz
  1  'x, y, z'
loop_
 _atom_site_type_symbol
 _atom_site_label
 _atom_site_symmetry_multiplicity
 _atom_site_fract_x
 _atom_site_fract_y
 _atom_site_fract_z
 _atom_site_occupancy
  Cs  Cs0  1  0.66666700  0.33333300  0.01450900  1
  Cs  Cs1  1  0.33333300  0.66666700  0.51450900  1
  Cs  Cs2  1  0.33333300  0.66666700  0.14428400  1
  Cs  Cs3  1  0.66666700  0.33333300  0.64428400  1
  I  I4  1  0.81362400  0.66720700  0.31959100  1
  I  I5  1  0.33279300  0.14641800  0.31959100  1
  I  I6  1  0.85358200  0.18637600  0.31959100  1
  I  I7  1  0.18637600  0.33279300  0.81959100  1
  I  I8  1  0.66720700  0.85358200  0.81959100  1
  I  I9  1  0.14641800  0.81362400  0.81959100  1
  I  I10  1  0.00000000  0.00000000  0.06712300  1
  I  I11  1  0.00000000  0.00000000  0.56712300  1
  O  O12  1  0.05837400  0.66703700  0.32742900  1
  O  O13  1  0.33296300  0.39133700  0.32742900  1
  O  O14  1  0.60866300  0.94162600  0.32742900  1
  O  O15  1  0.94162600  0.33296300  0.82742900  1
  O  O16  1  0.66703700  0.60866300  0.82742900  1
  O  O17  1  0.39133700  0.05837400  0.82742900  1
  O  O18  1  0.77000700  0.65519700  0.19364200  1
  O  O19  1  0.34480300  0.11481000  0.19364200  1
  O  O20  1  0.88519000  0.22999300  0.19364200  1
  O  O21  1  0.22999300  0.34480300  0.69364200  1
  O  O22  1  0.65519700  0.88519000  0.69364200  1
  O  O23  1  0.11481000  0.77000700  0.69364200  1
  O  O24  1  0.66666700  0.33333300  0.33596700  1
  O  O25  1  0.33333300  0.66666700  0.83596700  1
  O  O26  1  0.00000000  0.00000000  0.31605300  1
  O  O27  1  0.00000000  0.00000000  0.81605300  1
  O  O28  1  0.16050500  0.25288000  0.00861300  1
  O  O29  1  0.74712000  0.90762500  0.00861300  1
  O  O30  1  0.09237500  0.83949500  0.00861300  1
  O  O31  1  0.83949500  0.74712000  0.50861300  1
  O  O32  1  0.25288000  0.09237500  0.50861300  1
  O  O33  1  0.90762500  0.16050500  0.50861300  1
