# generated using pymatgen
data_Mg3Bi2
_symmetry_space_group_name_H-M   'P 1'
_cell_length_a   11.92826152
_cell_length_b   11.92826152
_cell_length_c   11.92826152
_cell_angle_alpha   109.47122063
_cell_angle_beta   109.47122063
_cell_angle_gamma   109.47122063
_symmetry_Int_Tables_number   1
_chemical_formula_structural   Mg3Bi2
_chemical_formula_sum   'Mg24 Bi16'
_cell_volume   1306.50045685
_cell_formula_units_Z   8
loop_
 _symmetry_equiv_pos_site_id
 _symmetry_equiv_pos_as_xyz
  1  'x, y, z'
loop_
 _atom_site_type_symbol
 _atom_site_label
 _atom_site_symmetry_multiplicity
 _atom_site_fract_x
 _atom_site_fract_y
 _atom_site_fract_z
 _atom_site_occupancy
  Mg  Mg0  1  0.49487200  0.23873000  0.47916100  1
  Mg  Mg1  1  0.24043100  0.26127000  0.75614300  1
  Mg  Mg2  1  0.00512800  0.48428900  0.74385700  1
  Mg  Mg3  1  0.25956900  0.01571100  0.02083900  1
  Mg  Mg4  1  0.23873000  0.47916100  0.49487200  1
  Mg  Mg5  1  0.26127000  0.75614300  0.24043100  1
  Mg  Mg6  1  0.48428900  0.74385700  0.00512800  1
  Mg  Mg7  1  0.01571100  0.02083900  0.25956900  1
  Mg  Mg8  1  0.47916100  0.49487200  0.23873000  1
  Mg  Mg9  1  0.75614300  0.24043100  0.26127000  1
  Mg  Mg10  1  0.74385800  0.00512800  0.48428900  1
  Mg  Mg11  1  0.02083900  0.25956900  0.01571100  1
  Mg  Mg12  1  0.50512800  0.76127000  0.52083900  1
  Mg  Mg13  1  0.75956900  0.73873000  0.24385700  1
  Mg  Mg14  1  0.99487200  0.51571100  0.25614300  1
  Mg  Mg15  1  0.74043100  0.98428900  0.97916100  1
  Mg  Mg16  1  0.76127000  0.52083900  0.50512800  1
  Mg  Mg17  1  0.73873000  0.24385700  0.75956900  1
  Mg  Mg18  1  0.51571100  0.25614300  0.99487200  1
  Mg  Mg19  1  0.98428900  0.97916100  0.74043100  1
  Mg  Mg20  1  0.52083900  0.50512800  0.76127000  1
  Mg  Mg21  1  0.24385800  0.75956900  0.73873000  1
  Mg  Mg22  1  0.25614300  0.99487200  0.51571100  1
  Mg  Mg23  1  0.97916100  0.74043100  0.98428900  1
  Bi  Bi24  1  0.50000000  0.00000000  0.50000000  1
  Bi  Bi25  1  0.50000000  0.50000000  0.00000000  1
  Bi  Bi26  1  0.00000000  0.50000000  0.50000000  1
  Bi  Bi27  1  0.00000000  0.00000000  0.00000000  1
  Bi  Bi28  1  0.76439700  0.25000000  0.01439700  1
  Bi  Bi29  1  0.73560300  0.75000000  0.48560300  1
  Bi  Bi30  1  0.25000000  0.01439700  0.76439700  1
  Bi  Bi31  1  0.75000000  0.48560300  0.73560300  1
  Bi  Bi32  1  0.01439700  0.76439700  0.25000000  1
  Bi  Bi33  1  0.48560300  0.73560300  0.75000000  1
  Bi  Bi34  1  0.23560300  0.75000000  0.98560300  1
  Bi  Bi35  1  0.26439700  0.25000000  0.51439700  1
  Bi  Bi36  1  0.75000000  0.98560300  0.23560300  1
  Bi  Bi37  1  0.25000000  0.51439700  0.26439700  1
  Bi  Bi38  1  0.98560300  0.23560300  0.75000000  1
  Bi  Bi39  1  0.51439700  0.26439700  0.25000000  1
