# generated using pymatgen
data_P2C31N3O5
_symmetry_space_group_name_H-M   'P 1'
_cell_length_a   10.41794500
_cell_length_b   12.48771788
_cell_length_c   14.69497014
_cell_angle_alpha   85.79324774
_cell_angle_beta   85.66399244
_cell_angle_gamma   71.97631137
_symmetry_Int_Tables_number   1
_chemical_formula_structural   P2C31N3O5
_chemical_formula_sum   'P4 C62 N6 O10'
_cell_volume   1810.22787092
_cell_formula_units_Z   2
loop_
 _symmetry_equiv_pos_site_id
 _symmetry_equiv_pos_as_xyz
  1  'x, y, z'
loop_
 _atom_site_type_symbol
 _atom_site_label
 _atom_site_symmetry_multiplicity
 _atom_site_fract_x
 _atom_site_fract_y
 _atom_site_fract_z
 _atom_site_occupancy
  P  P0  1  0.45920100  0.79027900  0.19651000  1
  P  P1  1  0.54079900  0.20972100  0.80349000  1
  P  P2  1  0.19623700  0.90094200  0.16871700  1
  P  P3  1  0.80376300  0.09905800  0.83128300  1
  C  C4  1  0.27621900  0.70008600  0.23644200  1
  C  C5  1  0.72378100  0.29991400  0.76355800  1
  C  C6  1  0.58599100  0.89579200  0.28856000  1
  C  C7  1  0.41400900  0.10420800  0.71144000  1
  C  C8  1  0.53583800  0.99122300  0.33900700  1
  C  C9  1  0.46416200  0.00877700  0.66099300  1
  C  C10  1  0.57058700  0.08053200  0.35801500  1
  C  C11  1  0.42941300  0.91946800  0.64198500  1
  C  C12  1  0.68631100  0.04784100  0.30727600  1
  C  C13  1  0.31368900  0.95215900  0.69272400  1
  C  C14  1  0.77711900  0.97903200  0.25160700  1
  C  C15  1  0.22288100  0.02096800  0.74839300  1
  C  C16  1  0.70853000  0.90528500  0.25041800  1
  C  C17  1  0.29147000  0.09471500  0.74958200  1
  C  C18  1  0.58813500  0.73174400  0.03897500  1
  C  C19  1  0.41186500  0.26825600  0.96102500  1
  C  C20  1  0.58120200  0.80449500  0.96205900  1
  C  C21  1  0.41879800  0.19550500  0.03794100  1
  C  C22  1  0.58425300  0.80104500  0.87154100  1
  C  C23  1  0.41574700  0.19895500  0.12845900  1
  C  C24  1  0.59828300  0.69078100  0.87567800  1
  C  C25  1  0.40171700  0.30921900  0.12432200  1
  C  C26  1  0.60930100  0.59093600  0.91911500  1
  C  C27  1  0.39069900  0.40906400  0.08088500  1
  C  C28  1  0.60234300  0.62901800  0.00216100  1
  C  C29  1  0.39765700  0.37098200  0.99783900  1
  C  C30  1  0.12795400  0.05597100  0.28884500  1
  C  C31  1  0.87204600  0.94402900  0.71115500  1
  C  C32  1  0.13363300  0.00937200  0.37776300  1
  C  C33  1  0.86636700  0.99062800  0.62223700  1
  C  C34  1  0.15240500  0.03792600  0.46020100  1
  C  C35  1  0.84759500  0.96207400  0.53979900  1
  C  C36  1  0.16385300  0.13807400  0.42947200  1
  C  C37  1  0.83614700  0.86192600  0.57052800  1
  C  C38  1  0.16722800  0.21804000  0.36471100  1
  C  C39  1  0.83277200  0.78196000  0.63528900  1
  C  C40  1  0.14724300  0.15979200  0.29781900  1
  C  C41  1  0.85275700  0.84020800  0.70218100  1
  C  C42  1  0.11695200  0.84450900  0.02079000  1
  C  C43  1  0.88304800  0.15549100  0.97921000  1
  C  C44  1  0.01156700  0.79908700  0.01685800  1
  C  C45  1  0.98843300  0.20091300  0.98314200  1
  C  C46  1  0.98241900  0.72339900  0.96964400  1
  C  C47  1  0.01758100  0.27660100  0.03035600  1
  C  C48  1  0.10011000  0.69915900  0.92046400  1
  C  C49  1  0.89989000  0.30084100  0.07953600  1
  C  C50  1  0.77863200  0.28962400  0.10425300  1
  C  C51  1  0.22136800  0.71037600  0.89574700  1
  C  C52  1  0.21152900  0.78872800  0.95487100  1
  C  C53  1  0.78847100  0.21127200  0.04512900  1
  C  C54  1  0.11859300  0.60297600  0.28464700  1
  C  C55  1  0.88140700  0.39702400  0.71535300  1
  C  C56  1  0.04586100  0.60373700  0.36778300  1
  C  C57  1  0.95413900  0.39626300  0.63221700  1
  C  C58  1  0.92646400  0.59557500  0.40031700  1
  C  C59  1  0.07353600  0.40442500  0.59968300  1
  C  C60  1  0.89051000  0.58341700  0.31728900  1
  C  C61  1  0.10949000  0.41658300  0.68271100  1
  C  C62  1  0.90781400  0.57685400  0.22649300  1
  C  C63  1  0.09218600  0.42314600  0.77350700  1
  C  C64  1  0.03128300  0.58783400  0.22330500  1
  C  C65  1  0.96871700  0.41216600  0.77669500  1
  N  N66  1  0.34981500  0.90096800  0.15685100  1
  N  N67  1  0.65018500  0.09903200  0.84314900  1
  N  N68  1  0.17013000  0.79021500  0.21923400  1
  N  N69  1  0.82987000  0.20978500  0.78076600  1
  N  N70  1  0.40811700  0.68426700  0.22624700  1
  N  N71  1  0.59188300  0.31573300  0.77375300  1
  O  O72  1  0.52953000  0.81067600  0.28489700  1
  O  O73  1  0.47047000  0.18932400  0.71510300  1
  O  O74  1  0.59235800  0.75543000  0.12829200  1
  O  O75  1  0.40764200  0.24457000  0.87170800  1
  O  O76  1  0.09981900  0.01548500  0.21110300  1
  O  O77  1  0.90018100  0.98451500  0.78889700  1
  O  O78  1  0.12187100  0.92922200  0.07325100  1
  O  O79  1  0.87812900  0.07077800  0.92674900  1
  O  O80  1  0.24985400  0.60335000  0.27128300  1
  O  O81  1  0.75014600  0.39665000  0.72871700  1
