# generated using pymatgen
data_CoH2PbN3O8
_symmetry_space_group_name_H-M   'P 1'
_cell_length_a   8.74864743
_cell_length_b   8.74864743
_cell_length_c   14.03074699
_cell_angle_alpha   64.30896660
_cell_angle_beta   64.30896660
_cell_angle_gamma   49.83008313
_symmetry_Int_Tables_number   1
_chemical_formula_structural   CoH2PbN3O8
_chemical_formula_sum   'Co4 H8 Pb4 N12 O32'
_cell_volume   720.78199964
_cell_formula_units_Z   4
loop_
 _symmetry_equiv_pos_site_id
 _symmetry_equiv_pos_as_xyz
  1  'x, y, z'
loop_
 _atom_site_type_symbol
 _atom_site_label
 _atom_site_symmetry_multiplicity
 _atom_site_fract_x
 _atom_site_fract_y
 _atom_site_fract_z
 _atom_site_occupancy
  Co  Co0  1  0.59335400  0.59849700  0.25166300  1
  Co  Co1  1  0.40150300  0.40664600  0.24833700  1
  Co  Co2  1  0.40664600  0.40150300  0.74833700  1
  Co  Co3  1  0.59849700  0.59335400  0.75166300  1
  H  H4  1  0.47960200  0.65423500  0.09005200  1
  H  H5  1  0.34576500  0.52039800  0.40994800  1
  H  H6  1  0.52039800  0.34576500  0.90994800  1
  H  H7  1  0.65423500  0.47960200  0.59005200  1
  H  H8  1  0.97207400  0.32052700  0.23754000  1
  H  H9  1  0.67947300  0.02792600  0.26246000  1
  H  H10  1  0.02792600  0.67947300  0.76246000  1
  H  H11  1  0.32052700  0.97207400  0.73754000  1
  Pb  Pb12  1  0.88903200  0.24748100  0.08815500  1
  Pb  Pb13  1  0.75251900  0.11096800  0.41184500  1
  Pb  Pb14  1  0.11096800  0.75251900  0.91184500  1
  Pb  Pb15  1  0.24748100  0.88903200  0.58815500  1
  N  N16  1  0.73416900  0.71854900  0.14056600  1
  N  N17  1  0.28145100  0.26583100  0.35943400  1
  N  N18  1  0.26583100  0.28145100  0.85943400  1
  N  N19  1  0.71854900  0.73416900  0.64056600  1
  N  N20  1  0.63698800  0.60854100  0.37091400  1
  N  N21  1  0.39145900  0.36301200  0.12908600  1
  N  N22  1  0.36301200  0.39145900  0.62908600  1
  N  N23  1  0.60854100  0.63698800  0.87091400  1
  N  N24  1  0.33262100  0.85846400  0.25379500  1
  N  N25  1  0.14153600  0.66737900  0.24620500  1
  N  N26  1  0.66737900  0.14153600  0.74620500  1
  N  N27  1  0.85846400  0.33262100  0.75379500  1
  O  O28  1  0.54727500  0.54006000  0.14857200  1
  O  O29  1  0.45994000  0.45272500  0.35142800  1
  O  O30  1  0.45272500  0.45994000  0.85142800  1
  O  O31  1  0.54006000  0.54727500  0.64857200  1
  O  O32  1  0.85273500  0.32649700  0.24338900  1
  O  O33  1  0.67350300  0.14726500  0.25661100  1
  O  O34  1  0.14726500  0.67350300  0.75661100  1
  O  O35  1  0.32649700  0.85273500  0.74338900  1
  O  O36  1  0.82898500  0.64821900  0.05663900  1
  O  O37  1  0.35178100  0.17101500  0.44336100  1
  O  O38  1  0.17101500  0.35178100  0.94336100  1
  O  O39  1  0.64821900  0.82898500  0.55663900  1
  O  O40  1  0.73463800  0.85368300  0.14761300  1
  O  O41  1  0.14631700  0.26536200  0.35238700  1
  O  O42  1  0.26536200  0.14631700  0.85238700  1
  O  O43  1  0.85368300  0.73463800  0.64761300  1
  O  O44  1  0.57815300  0.77072000  0.38524400  1
  O  O45  1  0.22928000  0.42184700  0.11475600  1
  O  O46  1  0.42184700  0.22928000  0.61475600  1
  O  O47  1  0.77072000  0.57815300  0.88524400  1
  O  O48  1  0.71335000  0.44355700  0.44021100  1
  O  O49  1  0.55644300  0.28665000  0.05978900  1
  O  O50  1  0.28665000  0.55644300  0.55978900  1
  O  O51  1  0.44355700  0.71335000  0.94021100  1
  O  O52  1  0.20446200  0.89181700  0.34189700  1
  O  O53  1  0.10818300  0.79553800  0.15810300  1
  O  O54  1  0.79553800  0.10818300  0.65810300  1
  O  O55  1  0.89181700  0.20446200  0.84189700  1
  O  O56  1  0.29166100  0.98242300  0.16601500  1
  O  O57  1  0.01757700  0.70833900  0.33398500  1
  O  O58  1  0.70833900  0.01757700  0.83398500  1
  O  O59  1  0.98242300  0.29166100  0.66601500  1
