# generated using pymatgen
data_SrAsO4
_symmetry_space_group_name_H-M   'P 1'
_cell_length_a   9.09067600
_cell_length_b   11.77497229
_cell_length_c   15.45558629
_cell_angle_alpha   106.32557039
_cell_angle_beta   105.03213681
_cell_angle_gamma   88.64034618
_symmetry_Int_Tables_number   1
_chemical_formula_structural   SrAsO4
_chemical_formula_sum   'Sr16 As16 O64'
_cell_volume   1531.20814301
_cell_formula_units_Z   16
loop_
 _symmetry_equiv_pos_site_id
 _symmetry_equiv_pos_as_xyz
  1  'x, y, z'
loop_
 _atom_site_type_symbol
 _atom_site_label
 _atom_site_symmetry_multiplicity
 _atom_site_fract_x
 _atom_site_fract_y
 _atom_site_fract_z
 _atom_site_occupancy
  Sr  Sr0  1  0.70511900  0.51100000  0.47116500  1
  Sr  Sr1  1  0.29488100  0.48900000  0.52883500  1
  Sr  Sr2  1  0.95694100  0.76184900  0.97216700  1
  Sr  Sr3  1  0.04305900  0.23815100  0.02783300  1
  Sr  Sr4  1  0.20953300  0.01657400  0.47574600  1
  Sr  Sr5  1  0.79046700  0.98342600  0.52425400  1
  Sr  Sr6  1  0.45831400  0.26627800  0.97499700  1
  Sr  Sr7  1  0.54168600  0.73372200  0.02500300  1
  Sr  Sr8  1  0.40327900  0.09146800  0.17372800  1
  Sr  Sr9  1  0.59672100  0.90853200  0.82627200  1
  Sr  Sr10  1  0.65244500  0.33932600  0.66990200  1
  Sr  Sr11  1  0.34755500  0.66067400  0.33009800  1
  Sr  Sr12  1  0.90426900  0.59196800  0.17190700  1
  Sr  Sr13  1  0.09573100  0.40803200  0.82809300  1
  Sr  Sr14  1  0.15402000  0.84177000  0.67528000  1
  Sr  Sr15  1  0.84598000  0.15823000  0.32472000  1
  As  As16  1  0.50733500  0.21626500  0.43215800  1
  As  As17  1  0.49266500  0.78373500  0.56784200  1
  As  As18  1  0.75973900  0.46837900  0.93360500  1
  As  As19  1  0.24026100  0.53162100  0.06639500  1
  As  As20  1  0.01060600  0.71945600  0.43702800  1
  As  As21  1  0.98939400  0.28054400  0.56297200  1
  As  As22  1  0.25863800  0.96744000  0.93612600  1
  As  As23  1  0.74136200  0.03256000  0.06387400  1
  As  As24  1  0.60959900  0.40684100  0.22054500  1
  As  As25  1  0.39040100  0.59315900  0.77945500  1
  As  As26  1  0.85688500  0.65177600  0.72211100  1
  As  As27  1  0.14311500  0.34822400  0.27788900  1
  As  As28  1  0.10819200  0.90341200  0.22312000  1
  As  As29  1  0.89180800  0.09658800  0.77688000  1
  As  As30  1  0.35995600  0.15616400  0.72133200  1
  As  As31  1  0.64004400  0.84383600  0.27866800  1
  O  O32  1  0.32303600  0.15089100  0.39978800  1
  O  O33  1  0.67696400  0.84910900  0.60021200  1
  O  O34  1  0.57694900  0.40309600  0.90620800  1
  O  O35  1  0.42305100  0.59690400  0.09379200  1
  O  O36  1  0.82724700  0.65570200  0.41045900  1
  O  O37  1  0.17275300  0.34429800  0.58954100  1
  O  O38  1  0.07336000  0.90410700  0.90543300  1
  O  O39  1  0.92664000  0.09589300  0.09456700  1
  O  O40  1  0.51551700  0.36265800  0.49585200  1
  O  O41  1  0.48448300  0.63734200  0.50414800  1
  O  O42  1  0.76783100  0.61553300  0.99576300  1
  O  O43  1  0.23216900  0.38446700  0.00423700  1
  O  O44  1  0.02061300  0.86639800  0.49899100  1
  O  O45  1  0.97938700  0.13360200  0.50100900  1
  O  O46  1  0.26945300  0.11428200  0.99920000  1
  O  O47  1  0.73054700  0.88571800  0.00080000  1
  O  O48  1  0.57126100  0.19973000  0.33506800  1
  O  O49  1  0.42873900  0.80027000  0.66493200  1
  O  O50  1  0.81726000  0.44853100  0.83372400  1
  O  O51  1  0.18274000  0.55146900  0.16627600  1
  O  O52  1  0.06873100  0.69901400  0.33739800  1
  O  O53  1  0.93126900  0.30098600  0.66260200  1
  O  O54  1  0.32212200  0.94852800  0.83847000  1
  O  O55  1  0.67787800  0.05147200  0.16153000  1
  O  O56  1  0.61035600  0.14356200  0.50801600  1
  O  O57  1  0.38964400  0.85643800  0.49198400  1
  O  O58  1  0.86774700  0.40024500  0.01141400  1
  O  O59  1  0.13225300  0.59975500  0.98858600  1
  O  O60  1  0.11497100  0.64964600  0.51494100  1
  O  O61  1  0.88502900  0.35035400  0.48505900  1
  O  O62  1  0.35783200  0.89345700  0.01245600  1
  O  O63  1  0.64216800  0.10654300  0.98754400  1
  O  O64  1  0.64513100  0.47508000  0.14167300  1
  O  O65  1  0.35486900  0.52492000  0.85832700  1
  O  O66  1  0.89754300  0.73847400  0.65665400  1
  O  O67  1  0.10245700  0.26152600  0.34334600  1
  O  O68  1  0.14730700  0.98878600  0.15632100  1
  O  O69  1  0.85269300  0.01121400  0.84367900  1
  O  O70  1  0.39406300  0.22272400  0.64115200  1
  O  O71  1  0.60593700  0.77727600  0.35884800  1
  O  O72  1  0.53548900  0.49463800  0.30546000  1
  O  O73  1  0.46451100  0.50536200  0.69454000  1
  O  O74  1  0.77340000  0.73308000  0.80621100  1
  O  O75  1  0.22660000  0.26692000  0.19378900  1
  O  O76  1  0.02598200  0.98440400  0.30802600  1
  O  O77  1  0.97401800  0.01559600  0.69197400  1
  O  O78  1  0.28800500  0.24412600  0.80710500  1
  O  O79  1  0.71199500  0.75587400  0.19289500  1
  O  O80  1  0.78137000  0.36223800  0.28148200  1
  O  O81  1  0.21863000  0.63776200  0.71851800  1
  O  O82  1  0.02762800  0.61442600  0.79022300  1
  O  O83  1  0.97237200  0.38557400  0.20977700  1
  O  O84  1  0.27917900  0.86533100  0.29049100  1
  O  O85  1  0.72082100  0.13466900  0.70950900  1
  O  O86  1  0.53210000  0.11047700  0.78107500  1
  O  O87  1  0.46790000  0.88952300  0.21892500  1
  O  O88  1  0.49193600  0.28571800  0.15130300  1
  O  O89  1  0.50806400  0.71428200  0.84869700  1
  O  O90  1  0.75028800  0.53068700  0.64557900  1
  O  O91  1  0.24971200  0.46931300  0.35442100  1
  O  O92  1  0.00043800  0.78232400  0.14716400  1
  O  O93  1  0.99956200  0.21767600  0.85283600  1
  O  O94  1  0.24055900  0.03551600  0.65278000  1
  O  O95  1  0.75944100  0.96448400  0.34722000  1
