# generated using pymatgen
data_NaAgH2(SO2)2
_symmetry_space_group_name_H-M   'P 1'
_cell_length_a   7.82517859
_cell_length_b   7.80199785
_cell_length_c   9.42310100
_cell_angle_alpha   90.00000000
_cell_angle_beta   90.00000000
_cell_angle_gamma   96.51808652
_symmetry_Int_Tables_number   1
_chemical_formula_structural   NaAgH2(SO2)2
_chemical_formula_sum   'Na4 Ag4 H8 S8 O16'
_cell_volume   571.58071773
_cell_formula_units_Z   4
loop_
 _symmetry_equiv_pos_site_id
 _symmetry_equiv_pos_as_xyz
  1  'x, y, z'
loop_
 _atom_site_type_symbol
 _atom_site_label
 _atom_site_symmetry_multiplicity
 _atom_site_fract_x
 _atom_site_fract_y
 _atom_site_fract_z
 _atom_site_occupancy
  Na  Na0  1  0.16947700  0.95847300  0.55588400  1
  Na  Na1  1  0.66947700  0.95847300  0.44411600  1
  Na  Na2  1  0.16355900  0.46291800  0.48712300  1
  Na  Na3  1  0.66355900  0.46291800  0.51287700  1
  Ag  Ag4  1  0.49970500  0.99947400  0.95544600  1
  Ag  Ag5  1  0.99970500  0.99947400  0.04455400  1
  Ag  Ag6  1  0.20690600  0.49615000  0.06158300  1
  Ag  Ag7  1  0.70690600  0.49615000  0.93841700  1
  H  H8  1  0.47914200  0.13512800  0.69023600  1
  H  H9  1  0.97914200  0.13512800  0.30976400  1
  H  H10  1  0.32853500  0.24269300  0.71718600  1
  H  H11  1  0.82853500  0.24269300  0.28281400  1
  H  H12  1  0.45479500  0.61828200  0.29428300  1
  H  H13  1  0.95479500  0.61828200  0.70571700  1
  H  H14  1  0.31738300  0.74821100  0.29870800  1
  H  H15  1  0.81738300  0.74821100  0.70129200  1
  S  S16  1  0.45212700  0.67547800  0.91733500  1
  S  S17  1  0.95212700  0.67547800  0.08266500  1
  S  S18  1  0.28847500  0.18672800  0.08331400  1
  S  S19  1  0.78847500  0.18672800  0.91668600  1
  S  S20  1  0.39561100  0.66795900  0.69960900  1
  S  S21  1  0.89561100  0.66795900  0.30039100  1
  S  S22  1  0.36012900  0.17097900  0.29722400  1
  S  S23  1  0.86012900  0.17097900  0.70277600  1
  O  O24  1  0.21503200  0.70449400  0.68051000  1
  O  O25  1  0.71503200  0.70449400  0.31949000  1
  O  O26  1  0.41515000  0.49055400  0.64977600  1
  O  O27  1  0.91515000  0.49055400  0.35022400  1
  O  O28  1  0.51880600  0.79774700  0.63078400  1
  O  O29  1  0.01880600  0.79774700  0.36921600  1
  O  O30  1  0.20515200  0.19926000  0.38256600  1
  O  O31  1  0.70515200  0.19926000  0.61743400  1
  O  O32  1  0.50384700  0.30586900  0.32120200  1
  O  O33  1  0.00384700  0.30586900  0.67879800  1
  O  O34  1  0.40772900  0.99566400  0.32361300  1
  O  O35  1  0.90772900  0.99566400  0.67638700  1
  O  O36  1  0.35542600  0.12333300  0.71327700  1
  O  O37  1  0.85542500  0.12333300  0.28672300  1
  O  O38  1  0.33135500  0.62493500  0.30584700  1
  O  O39  1  0.83135500  0.62493500  0.69415300  1
