# generated using pymatgen
data_CuP3H16C3NO12
_symmetry_space_group_name_H-M   'P 1'
_cell_length_a   9.25893500
_cell_length_b   16.33489900
_cell_length_c   9.60485248
_cell_angle_alpha   90.00000000
_cell_angle_beta   112.28345387
_cell_angle_gamma   90.00000000
_symmetry_Int_Tables_number   1
_chemical_formula_structural   CuP3H16C3NO12
_chemical_formula_sum   'Cu4 P12 H64 C12 N4 O48'
_cell_volume   1344.18730715
_cell_formula_units_Z   4
loop_
 _symmetry_equiv_pos_site_id
 _symmetry_equiv_pos_as_xyz
  1  'x, y, z'
loop_
 _atom_site_type_symbol
 _atom_site_label
 _atom_site_symmetry_multiplicity
 _atom_site_fract_x
 _atom_site_fract_y
 _atom_site_fract_z
 _atom_site_occupancy
  Cu  Cu0  1  0.46357900  0.29088700  0.33368200  1
  Cu  Cu1  1  0.53642100  0.79088700  0.16631800  1
  Cu  Cu2  1  0.53642100  0.70911300  0.66631800  1
  Cu  Cu3  1  0.46357900  0.20911300  0.83368200  1
  P  P4  1  0.83214800  0.20892500  0.52905100  1
  P  P5  1  0.16785200  0.70892500  0.97094900  1
  P  P6  1  0.16785200  0.79107500  0.47094900  1
  P  P7  1  0.83214800  0.29107500  0.02905100  1
  P  P8  1  0.06102200  0.46413300  0.77421300  1
  P  P9  1  0.93897800  0.96413300  0.72578700  1
  P  P10  1  0.93897800  0.53586700  0.22578700  1
  P  P11  1  0.06102200  0.03586700  0.27421300  1
  P  P12  1  0.47159200  0.37681500  0.62751800  1
  P  P13  1  0.52840800  0.87681500  0.87248200  1
  P  P14  1  0.52840800  0.62318500  0.37248200  1
  P  P15  1  0.47159200  0.12318500  0.12751800  1
  H  H16  1  0.75795300  0.20295100  0.25646500  1
  H  H17  1  0.24204700  0.70295100  0.24353500  1
  H  H18  1  0.24204700  0.79704900  0.74353500  1
  H  H19  1  0.75795300  0.29704900  0.75646500  1
  H  H20  1  0.95471600  0.17228200  0.35846000  1
  H  H21  1  0.04528400  0.67228200  0.14154000  1
  H  H22  1  0.04528400  0.82771800  0.64154000  1
  H  H23  1  0.95471600  0.32771800  0.85846000  1
  H  H24  1  0.79350700  0.42826300  0.60364200  1
  H  H25  1  0.20649300  0.92826300  0.89635800  1
  H  H26  1  0.20649300  0.57173700  0.39635800  1
  H  H27  1  0.79350700  0.07173700  0.10364200  1
  H  H28  1  0.80352900  0.52314500  0.69660900  1
  H  H29  1  0.19647100  0.02314500  0.80339100  1
  H  H30  1  0.19647100  0.47685500  0.30339100  1
  H  H31  1  0.80352900  0.97685500  0.19660900  1
  H  H32  1  0.59579800  0.50214000  0.74789700  1
  H  H33  1  0.40420200  0.00214000  0.75210300  1
  H  H34  1  0.40420200  0.49786000  0.25210300  1
  H  H35  1  0.59579800  0.99786000  0.24789700  1
  H  H36  1  0.59052300  0.42653200  0.88043100  1
  H  H37  1  0.40947700  0.92653200  0.61956900  1
  H  H38  1  0.40947700  0.57346800  0.11956900  1
  H  H39  1  0.59052300  0.07346800  0.38043100  1
  H  H40  1  0.07234700  0.59658000  0.75116200  1
  H  H41  1  0.92765300  0.09658000  0.74883800  1
  H  H42  1  0.92765300  0.40342000  0.24883800  1
  H  H43  1  0.07234700  0.90342000  0.25116200  1
  H  H44  1  0.24185100  0.41270500  0.63627100  1
  H  H45  1  0.75814900  0.91270500  0.86372900  1
  H  H46  1  0.75814900  0.58729500  0.36372900  1
  H  H47  1  0.24185100  0.08729500  0.13627100  1
  H  H48  1  0.97537800  0.32526700  0.58387600  1
  H  H49  1  0.02462200  0.82526700  0.91612400  1
  H  H50  1  0.02462200  0.67473300  0.41612400  1
  H  H51  1  0.97537800  0.17473300  0.08387600  1
  H  H52  1  0.68571200  0.37920600  0.31916400  1
  H  H53  1  0.31428800  0.87920600  0.18083600  1
  H  H54  1  0.31428800  0.62079400  0.68083600  1
  H  H55  1  0.68571200  0.12079400  0.81916400  1
  H  H56  1  0.61794000  0.33227600  0.16225800  1
  H  H57  1  0.38206000  0.83227600  0.33774200  1
  H  H58  1  0.38206000  0.66772400  0.83774200  1
  H  H59  1  0.61794000  0.16772400  0.66225800  1
  H  H60  1  0.21311300  0.39292500  0.06914400  1
  H  H61  1  0.78688700  0.89292500  0.43085600  1
  H  H62  1  0.78688700  0.60707500  0.93085600  1
  H  H63  1  0.21311300  0.10707500  0.56914400  1
  H  H64  1  0.14645100  0.33423000  0.15885700  1
  H  H65  1  0.85354900  0.83423000  0.34114300  1
  H  H66  1  0.85354900  0.66577000  0.84114300  1
  H  H67  1  0.14645100  0.16577000  0.65885700  1
  H  H68  1  0.24495400  0.18592000  0.32907000  1
  H  H69  1  0.75504600  0.68592000  0.17093000  1
  H  H70  1  0.75504600  0.81408000  0.67093000  1
  H  H71  1  0.24495400  0.31408000  0.82907000  1
  H  H72  1  0.31672800  0.22365000  0.49627700  1
  H  H73  1  0.68327200  0.72365000  0.00372300  1
  H  H74  1  0.68327200  0.77635000  0.50372300  1
  H  H75  1  0.31672800  0.27635000  0.99627700  1
  H  H76  1  0.84081300  0.45547800  0.92443600  1
  H  H77  1  0.15918700  0.95547800  0.57556400  1
  H  H78  1  0.15918700  0.54452200  0.07556400  1
  H  H79  1  0.84081300  0.04452200  0.42443600  1
  C  C80  1  0.83440700  0.16678900  0.35235000  1
  C  C81  1  0.16559300  0.66678900  0.14765000  1
  C  C82  1  0.16559300  0.83321100  0.64765000  1
  C  C83  1  0.83440700  0.33321100  0.85235000  1
  C  C84  1  0.84642900  0.45993200  0.71171400  1
  C  C85  1  0.15357100  0.95993200  0.78828600  1
  C  C86  1  0.15357100  0.54006800  0.28828600  1
  C  C87  1  0.84642900  0.04006800  0.21171400  1
  C  C88  1  0.61564700  0.43730600  0.77903400  1
  C  C89  1  0.38435300  0.93730600  0.72096600  1
  C  C90  1  0.38435300  0.56269400  0.22096600  1
  C  C91  1  0.61564700  0.06269400  0.27903400  1
  N  N92  1  0.78826500  0.42158500  0.82307700  1
  N  N93  1  0.21173500  0.92158500  0.67692300  1
  N  N94  1  0.21173500  0.57841500  0.17692300  1
  N  N95  1  0.78826500  0.07841500  0.32307700  1
  O  O96  1  0.66919700  0.20374200  0.52826300  1
  O  O97  1  0.33080300  0.70374200  0.97173700  1
  O  O98  1  0.33080300  0.79625800  0.47173700  1
  O  O99  1  0.66919700  0.29625800  0.02826300  1
  O  O100  1  0.87611300  0.30166100  0.50977800  1
  O  O101  1  0.12388700  0.80166100  0.99022200  1
  O  O102  1  0.12388700  0.69833900  0.49022200  1
  O  O103  1  0.87611300  0.19833900  0.00977800  1
  O  O104  1  0.96096800  0.16883600  0.66186700  1
  O  O105  1  0.03903200  0.66883600  0.83813300  1
  O  O106  1  0.03903200  0.83116400  0.33813300  1
  O  O107  1  0.96096800  0.33116400  0.16186700  1
  O  O108  1  0.12970200  0.46992100  0.94471800  1
  O  O109  1  0.87029800  0.96992100  0.55528200  1
  O  O110  1  0.87029800  0.53007900  0.05528200  1
  O  O111  1  0.12970200  0.03007900  0.44471800  1
  O  O112  1  0.11654300  0.39076000  0.70712300  1
  O  O113  1  0.88345700  0.89076000  0.79287700  1
  O  O114  1  0.88345700  0.60924000  0.29287700  1
  O  O115  1  0.11654300  0.10924000  0.20712300  1
  O  O116  1  0.09029600  0.54476100  0.69802000  1
  O  O117  1  0.90970400  0.04476100  0.80198000  1
  O  O118  1  0.90970400  0.45523900  0.30198000  1
  O  O119  1  0.09029600  0.95523900  0.19802000  1
  O  O120  1  0.51696600  0.37646200  0.49057300  1
  O  O121  1  0.48303400  0.87646200  0.00942700  1
  O  O122  1  0.48303400  0.62353800  0.50942700  1
  O  O123  1  0.51696600  0.12353800  0.99057300  1
  O  O124  1  0.32000200  0.43056700  0.59095100  1
  O  O125  1  0.67999800  0.93056700  0.90904900  1
  O  O126  1  0.67999800  0.56943300  0.40904900  1
  O  O127  1  0.32000200  0.06943300  0.09095100  1
  O  O128  1  0.45114300  0.20689400  0.18490200  1
  O  O129  1  0.54885700  0.70689400  0.31509800  1
  O  O130  1  0.54885700  0.79310600  0.81509800  1
  O  O131  1  0.45114300  0.29310600  0.68490200  1
  O  O132  1  0.58874100  0.35896400  0.24313700  1
  O  O133  1  0.41125900  0.85896400  0.25686300  1
  O  O134  1  0.41125900  0.64103600  0.75686300  1
  O  O135  1  0.58874100  0.14103600  0.74313700  1
  O  O136  1  0.24196300  0.34528600  0.13833700  1
  O  O137  1  0.75803700  0.84528600  0.36166300  1
  O  O138  1  0.75803700  0.65471400  0.86166300  1
  O  O139  1  0.24196300  0.15471400  0.63833700  1
  O  O140  1  0.30167200  0.23326800  0.39023900  1
  O  O141  1  0.69832800  0.73326800  0.10976100  1
  O  O142  1  0.69832800  0.76673200  0.60976100  1
  O  O143  1  0.30167200  0.26673200  0.89023900  1
