# generated using pymatgen
data_NbP4Se3Cl5
_symmetry_space_group_name_H-M   'P 1'
_cell_length_a   12.75470100
_cell_length_b   13.69049000
_cell_length_c   19.42623000
_cell_angle_alpha   90.00000000
_cell_angle_beta   90.00000000
_cell_angle_gamma   90.00000000
_symmetry_Int_Tables_number   1
_chemical_formula_structural   NbP4Se3Cl5
_chemical_formula_sum   'Nb8 P32 Se24 Cl40'
_cell_volume   3392.17149891
_cell_formula_units_Z   8
loop_
 _symmetry_equiv_pos_site_id
 _symmetry_equiv_pos_as_xyz
  1  'x, y, z'
loop_
 _atom_site_type_symbol
 _atom_site_label
 _atom_site_symmetry_multiplicity
 _atom_site_fract_x
 _atom_site_fract_y
 _atom_site_fract_z
 _atom_site_occupancy
  Nb  Nb0  1  0.83588200  0.92702500  0.76087700  1
  Nb  Nb1  1  0.16411800  0.57297500  0.26087700  1
  Nb  Nb2  1  0.16411800  0.07297500  0.23912300  1
  Nb  Nb3  1  0.83588200  0.42702500  0.73912300  1
  Nb  Nb4  1  0.66411800  0.92702500  0.26087700  1
  Nb  Nb5  1  0.33588200  0.57297500  0.76087700  1
  Nb  Nb6  1  0.33588200  0.07297500  0.73912300  1
  Nb  Nb7  1  0.66411800  0.42702500  0.23912300  1
  P  P8  1  0.90870100  0.84297200  0.89135400  1
  P  P9  1  0.09129900  0.65702800  0.39135400  1
  P  P10  1  0.09129900  0.15702800  0.10864600  1
  P  P11  1  0.90870100  0.34297200  0.60864600  1
  P  P12  1  0.07301900  0.83006100  0.92989900  1
  P  P13  1  0.92698100  0.66993900  0.42989900  1
  P  P14  1  0.92698100  0.16993900  0.07010100  1
  P  P15  1  0.07301900  0.33006100  0.57010100  1
  P  P16  1  0.98100600  0.69487600  0.90179900  1
  P  P17  1  0.01899400  0.80512400  0.40179900  1
  P  P18  1  0.01899400  0.30512400  0.09820100  1
  P  P19  1  0.98100600  0.19487600  0.59820100  1
  P  P20  1  0.89473200  0.78011100  0.06102400  1
  P  P21  1  0.10526800  0.71988900  0.56102400  1
  P  P22  1  0.10526800  0.21988900  0.93897600  1
  P  P23  1  0.89473200  0.28011100  0.43897600  1
  P  P24  1  0.59129900  0.84297200  0.39135400  1
  P  P25  1  0.40870100  0.65702800  0.89135400  1
  P  P26  1  0.40870100  0.15702800  0.60864600  1
  P  P27  1  0.59129900  0.34297200  0.10864600  1
  P  P28  1  0.42698100  0.83006100  0.42989900  1
  P  P29  1  0.57301900  0.66993900  0.92989900  1
  P  P30  1  0.57301900  0.16993900  0.57010100  1
  P  P31  1  0.42698100  0.33006100  0.07010100  1
  P  P32  1  0.51899400  0.69487600  0.40179900  1
  P  P33  1  0.48100600  0.80512400  0.90179900  1
  P  P34  1  0.48100600  0.30512400  0.59820100  1
  P  P35  1  0.51899400  0.19487600  0.09820100  1
  P  P36  1  0.60526800  0.78011100  0.56102400  1
  P  P37  1  0.39473200  0.71988900  0.06102400  1
  P  P38  1  0.39473200  0.21988900  0.43897600  1
  P  P39  1  0.60526800  0.28011100  0.93897600  1
  Se  Se40  1  0.80147400  0.86627200  0.98207900  1
  Se  Se41  1  0.19852600  0.63372800  0.48207900  1
  Se  Se42  1  0.19852600  0.13372800  0.01792100  1
  Se  Se43  1  0.80147400  0.36627200  0.51792100  1
  Se  Se44  1  0.05644000  0.84763400  0.04458400  1
  Se  Se45  1  0.94356000  0.65236600  0.54458400  1
  Se  Se46  1  0.94356000  0.15236600  0.95541600  1
  Se  Se47  1  0.05644000  0.34763400  0.45541600  1
  Se  Se48  1  0.91568200  0.63762300  0.00205300  1
  Se  Se49  1  0.08431800  0.86237700  0.50205300  1
  Se  Se50  1  0.08431800  0.36237700  0.99794700  1
  Se  Se51  1  0.91568200  0.13762300  0.49794700  1
  Se  Se52  1  0.69852600  0.86627200  0.48207900  1
  Se  Se53  1  0.30147400  0.63372800  0.98207900  1
  Se  Se54  1  0.30147400  0.13372800  0.51792100  1
  Se  Se55  1  0.69852600  0.36627200  0.01792100  1
  Se  Se56  1  0.44356000  0.84763400  0.54458400  1
  Se  Se57  1  0.55644000  0.65236600  0.04458400  1
  Se  Se58  1  0.55644000  0.15236600  0.45541600  1
  Se  Se59  1  0.44356000  0.34763400  0.95541600  1
  Se  Se60  1  0.58431800  0.63762300  0.50205300  1
  Se  Se61  1  0.41568200  0.86237700  0.00205300  1
  Se  Se62  1  0.41568200  0.36237700  0.49794700  1
  Se  Se63  1  0.58431800  0.13762300  0.99794700  1
  Cl  Cl64  1  0.77610400  0.98778200  0.65814200  1
  Cl  Cl65  1  0.22389600  0.51221800  0.15814200  1
  Cl  Cl66  1  0.22389600  0.01221800  0.34185800  1
  Cl  Cl67  1  0.77610400  0.48778200  0.84185800  1
  Cl  Cl68  1  0.96059600  0.04773000  0.78589900  1
  Cl  Cl69  1  0.03940400  0.45227000  0.28589900  1
  Cl  Cl70  1  0.03940400  0.95227000  0.21410100  1
  Cl  Cl71  1  0.96059600  0.54773000  0.71410100  1
  Cl  Cl72  1  0.71827700  0.00835100  0.83448900  1
  Cl  Cl73  1  0.28172300  0.49164900  0.33448900  1
  Cl  Cl74  1  0.28172300  0.99164900  0.16551100  1
  Cl  Cl75  1  0.71827700  0.50835100  0.66551100  1
  Cl  Cl76  1  0.72969200  0.78750800  0.76722400  1
  Cl  Cl77  1  0.27030800  0.71249200  0.26722400  1
  Cl  Cl78  1  0.27030800  0.21249200  0.23277600  1
  Cl  Cl79  1  0.72969200  0.28750800  0.73277600  1
  Cl  Cl80  1  0.97309000  0.82825300  0.72031500  1
  Cl  Cl81  1  0.02691000  0.67174700  0.22031500  1
  Cl  Cl82  1  0.02691000  0.17174700  0.27968500  1
  Cl  Cl83  1  0.97309000  0.32825300  0.77968500  1
  Cl  Cl84  1  0.72389600  0.98778200  0.15814200  1
  Cl  Cl85  1  0.27610400  0.51221800  0.65814200  1
  Cl  Cl86  1  0.27610400  0.01221800  0.84185800  1
  Cl  Cl87  1  0.72389600  0.48778200  0.34185800  1
  Cl  Cl88  1  0.53940400  0.04773000  0.28589900  1
  Cl  Cl89  1  0.46059600  0.45227000  0.78589900  1
  Cl  Cl90  1  0.46059600  0.95227000  0.71410100  1
  Cl  Cl91  1  0.53940400  0.54773000  0.21410100  1
  Cl  Cl92  1  0.78172300  0.00835100  0.33448900  1
  Cl  Cl93  1  0.21827700  0.49164900  0.83448900  1
  Cl  Cl94  1  0.21827700  0.99164900  0.66551100  1
  Cl  Cl95  1  0.78172300  0.50835100  0.16551100  1
  Cl  Cl96  1  0.77030800  0.78750800  0.26722400  1
  Cl  Cl97  1  0.22969200  0.71249200  0.76722400  1
  Cl  Cl98  1  0.22969200  0.21249200  0.73277600  1
  Cl  Cl99  1  0.77030800  0.28750800  0.23277600  1
  Cl  Cl100  1  0.52691000  0.82825300  0.22031500  1
  Cl  Cl101  1  0.47309000  0.67174700  0.72031500  1
  Cl  Cl102  1  0.47309000  0.17174700  0.77968500  1
  Cl  Cl103  1  0.52691000  0.32825300  0.27968500  1
