# generated using pymatgen
data_NiRu5C17O16
_symmetry_space_group_name_H-M   'P 1'
_cell_length_a   9.36032000
_cell_length_b   10.10439952
_cell_length_c   16.29439682
_cell_angle_alpha   85.20594957
_cell_angle_beta   83.31673652
_cell_angle_gamma   63.37791454
_symmetry_Int_Tables_number   1
_chemical_formula_structural   NiRu5C17O16
_chemical_formula_sum   'Ni2 Ru10 C34 O32'
_cell_volume   1367.52310561
_cell_formula_units_Z   2
loop_
 _symmetry_equiv_pos_site_id
 _symmetry_equiv_pos_as_xyz
  1  'x, y, z'
loop_
 _atom_site_type_symbol
 _atom_site_label
 _atom_site_symmetry_multiplicity
 _atom_site_fract_x
 _atom_site_fract_y
 _atom_site_fract_z
 _atom_site_occupancy
  Ni  Ni0  1  0.72562400  0.21846100  0.65518200  1
  Ni  Ni1  1  0.27437600  0.78153900  0.34481800  1
  Ru  Ru2  1  0.94971100  0.24231700  0.84155100  1
  Ru  Ru3  1  0.05028900  0.75768300  0.15844900  1
  Ru  Ru4  1  0.00575200  0.01263900  0.72983700  1
  Ru  Ru5  1  0.99424800  0.98736100  0.27016300  1
  Ru  Ru6  1  0.67913000  0.17238700  0.81620300  1
  Ru  Ru7  1  0.32087000  0.82761300  0.18379700  1
  Ru  Ru8  1  0.67824500  0.45708100  0.75981300  1
  Ru  Ru9  1  0.32175500  0.54291900  0.24018700  1
  Ru  Ru10  1  0.97849700  0.30075500  0.65987600  1
  Ru  Ru11  1  0.02150300  0.69924500  0.34012400  1
  C  C12  1  0.83563800  0.23335900  0.74152900  1
  C  C13  1  0.16436200  0.76664100  0.25847100  1
  C  C14  1  0.65621100  0.22009000  0.55796400  1
  C  C15  1  0.34378900  0.77991000  0.44203600  1
  C  C16  1  0.16934100  0.12419700  0.86264500  1
  C  C17  1  0.83065900  0.87580300  0.13735500  1
  C  C18  1  0.92948300  0.41924800  0.88746100  1
  C  C19  1  0.07051700  0.58075200  0.11253900  1
  C  C20  1  0.86672700  0.17904100  0.94082900  1
  C  C21  1  0.13327300  0.82095900  0.05917100  1
  C  C22  1  0.98289800  0.92103000  0.63816900  1
  C  C23  1  0.01710200  0.07897000  0.36183100  1
  C  C24  1  0.03262500  0.84867900  0.80384900  1
  C  C25  1  0.96737500  0.15132100  0.19615100  1
  C  C26  1  0.23219800  0.93456100  0.70996900  1
  C  C27  1  0.76780200  0.06543900  0.29003100  1
  C  C28  1  0.68706200  0.99687600  0.87304000  1
  C  C29  1  0.31293800  0.00312400  0.12696000  1
  C  C30  1  0.48543000  0.28155800  0.88165800  1
  C  C31  1  0.51457000  0.71844200  0.11834200  1
  C  C32  1  0.56630000  0.16084300  0.72427900  1
  C  C33  1  0.43370000  0.83915700  0.27572100  1
  C  C34  1  0.54412900  0.54973600  0.85610300  1
  C  C35  1  0.45587100  0.45026400  0.14389700  1
  C  C36  1  0.72201900  0.62300900  0.73379300  1
  C  C37  1  0.27798100  0.37699100  0.26620700  1
  C  C38  1  0.50997800  0.52337100  0.68874100  1
  C  C39  1  0.49002200  0.47662900  0.31125900  1
  C  C40  1  0.07468900  0.41662300  0.69260100  1
  C  C41  1  0.92531100  0.58337700  0.30739900  1
  C  C42  1  0.16648100  0.18627100  0.59051200  1
  C  C43  1  0.83351900  0.81372900  0.40948800  1
  C  C44  1  0.87664800  0.41534600  0.56701500  1
  C  C45  1  0.12335200  0.58465400  0.43298500  1
  O  O46  1  0.60914200  0.22156800  0.49535200  1
  O  O47  1  0.39085800  0.77843200  0.50464800  1
  O  O48  1  0.30229000  0.05643300  0.87692900  1
  O  O49  1  0.69771000  0.94356700  0.12307100  1
  O  O50  1  0.92156400  0.52296700  0.91725200  1
  O  O51  1  0.07843600  0.47703300  0.08274800  1
  O  O52  1  0.83690100  0.14173700  0.00758900  1
  O  O53  1  0.16309900  0.85826300  0.99241100  1
  O  O54  1  0.97998500  0.85668600  0.58299100  1
  O  O55  1  0.02001500  0.14331400  0.41700900  1
  O  O56  1  0.05710400  0.74478600  0.84684900  1
  O  O57  1  0.94289600  0.25521400  0.15315100  1
  O  O58  1  0.37122000  0.88120300  0.70081900  1
  O  O59  1  0.62878000  0.11879700  0.29918100  1
  O  O60  1  0.68747300  0.89252300  0.90886200  1
  O  O61  1  0.31252700  0.10747700  0.09113800  1
  O  O62  1  0.36363500  0.34511800  0.92008000  1
  O  O63  1  0.63636500  0.65488200  0.07992000  1
  O  O64  1  0.46160900  0.13981600  0.70379400  1
  O  O65  1  0.53839100  0.86018400  0.29620600  1
  O  O66  1  0.46594000  0.61090800  0.91417300  1
  O  O67  1  0.53406000  0.38909200  0.08582700  1
  O  O68  1  0.74511900  0.72660100  0.71935200  1
  O  O69  1  0.25488100  0.27339900  0.28064800  1
  O  O70  1  0.40093400  0.57167300  0.64920600  1
  O  O71  1  0.59906600  0.42832700  0.35079400  1
  O  O72  1  0.13334000  0.48931400  0.70963300  1
  O  O73  1  0.86666000  0.51068600  0.29036700  1
  O  O74  1  0.27797500  0.12514300  0.54485000  1
  O  O75  1  0.72202500  0.87485700  0.45515000  1
  O  O76  1  0.81647500  0.48994700  0.51069100  1
  O  O77  1  0.18352500  0.51005300  0.48930900  1
