# generated using pymatgen
data_TiH9(SO6)2
_symmetry_space_group_name_H-M   'P 1'
_cell_length_a   5.56786800
_cell_length_b   9.89925000
_cell_length_c   18.60775300
_cell_angle_alpha   90.00000000
_cell_angle_beta   90.00000000
_cell_angle_gamma   90.00000000
_symmetry_Int_Tables_number   1
_chemical_formula_structural   TiH9(SO6)2
_chemical_formula_sum   'Ti4 H36 S8 O48'
_cell_volume   1025.61686942
_cell_formula_units_Z   4
loop_
 _symmetry_equiv_pos_site_id
 _symmetry_equiv_pos_as_xyz
  1  'x, y, z'
loop_
 _atom_site_type_symbol
 _atom_site_label
 _atom_site_symmetry_multiplicity
 _atom_site_fract_x
 _atom_site_fract_y
 _atom_site_fract_z
 _atom_site_occupancy
  Ti  Ti0  1  0.50000000  0.00000000  0.50000000  1
  Ti  Ti1  1  0.00000000  0.50000000  0.00000000  1
  Ti  Ti2  1  0.50000000  0.00000000  0.00000000  1
  Ti  Ti3  1  0.00000000  0.50000000  0.50000000  1
  H  H4  1  0.83625600  0.07038500  0.39823500  1
  H  H5  1  0.66374400  0.57038500  0.10176500  1
  H  H6  1  0.16374400  0.92961500  0.89823500  1
  H  H7  1  0.33625600  0.42961500  0.60176500  1
  H  H8  1  0.16374400  0.92961500  0.60176500  1
  H  H9  1  0.33625600  0.42961500  0.89823500  1
  H  H10  1  0.83625600  0.07038500  0.10176500  1
  H  H11  1  0.66374400  0.57038500  0.39823500  1
  H  H12  1  0.83263100  0.90938800  0.39918700  1
  H  H13  1  0.66736900  0.40938800  0.10081300  1
  H  H14  1  0.16736900  0.09061200  0.89918700  1
  H  H15  1  0.33263100  0.59061200  0.60081300  1
  H  H16  1  0.16736900  0.09061200  0.60081300  1
  H  H17  1  0.33263100  0.59061200  0.89918700  1
  H  H18  1  0.83263100  0.90938800  0.10081300  1
  H  H19  1  0.66736900  0.40938800  0.39918700  1
  H  H20  1  0.55042900  0.84400900  0.29275400  1
  H  H21  1  0.94957100  0.34400900  0.20724600  1
  H  H22  1  0.44957100  0.15599100  0.79275400  1
  H  H23  1  0.05042900  0.65599100  0.70724600  1
  H  H24  1  0.44957100  0.15599100  0.70724600  1
  H  H25  1  0.05042900  0.65599100  0.79275400  1
  H  H26  1  0.55042900  0.84400900  0.20724600  1
  H  H27  1  0.94957100  0.34400900  0.29275400  1
  H  H28  1  0.50703200  0.19205800  0.29480200  1
  H  H29  1  0.99296800  0.69205800  0.20519800  1
  H  H30  1  0.49296800  0.80794200  0.79480200  1
  H  H31  1  0.00703200  0.30794200  0.70519800  1
  H  H32  1  0.49296800  0.80794200  0.70519800  1
  H  H33  1  0.00703200  0.30794200  0.79480200  1
  H  H34  1  0.50703200  0.19205800  0.20519800  1
  H  H35  1  0.99296800  0.69205800  0.29480200  1
  H  H36  1  0.55969600  0.03274000  0.25000000  1
  H  H37  1  0.94030400  0.53274000  0.25000000  1
  H  H38  1  0.44030400  0.96726000  0.75000000  1
  H  H39  1  0.05969600  0.46726000  0.75000000  1
  S  S40  1  0.28217200  0.73714100  0.40903000  1
  S  S41  1  0.21782800  0.23714100  0.09097000  1
  S  S42  1  0.71782800  0.26285900  0.90903000  1
  S  S43  1  0.78217200  0.76285900  0.59097000  1
  S  S44  1  0.71782800  0.26285900  0.59097000  1
  S  S45  1  0.78217200  0.76285900  0.90903000  1
  S  S46  1  0.28217200  0.73714100  0.09097000  1
  S  S47  1  0.21782800  0.23714100  0.40903000  1
  O  O48  1  0.50200500  0.72693500  0.36524200  1
  O  O49  1  0.99799500  0.22693500  0.13475800  1
  O  O50  1  0.49799500  0.27306500  0.86524200  1
  O  O51  1  0.00200500  0.77306500  0.63475800  1
  O  O52  1  0.49799500  0.27306500  0.63475800  1
  O  O53  1  0.00200500  0.77306500  0.86524200  1
  O  O54  1  0.50200500  0.72693500  0.13475800  1
  O  O55  1  0.99799500  0.22693500  0.36524200  1
  O  O56  1  0.07064300  0.78101400  0.36655300  1
  O  O57  1  0.42935700  0.28101400  0.13344700  1
  O  O58  1  0.92935700  0.21898600  0.86655300  1
  O  O59  1  0.57064300  0.71898600  0.63344700  1
  O  O60  1  0.92935700  0.21898600  0.63344700  1
  O  O61  1  0.57064300  0.71898600  0.86655300  1
  O  O62  1  0.07064300  0.78101400  0.13344700  1
  O  O63  1  0.42935700  0.28101400  0.36655300  1
  O  O64  1  0.73802600  0.99063800  0.41130600  1
  O  O65  1  0.76197400  0.49063800  0.08869400  1
  O  O66  1  0.26197400  0.00936200  0.91130600  1
  O  O67  1  0.23802600  0.50936200  0.58869400  1
  O  O68  1  0.26197400  0.00936200  0.58869400  1
  O  O69  1  0.23802600  0.50936200  0.91130600  1
  O  O70  1  0.73802600  0.99063800  0.08869400  1
  O  O71  1  0.76197400  0.49063800  0.41130600  1
  O  O72  1  0.31449300  0.82988800  0.47183200  1
  O  O73  1  0.18550700  0.32988800  0.02816800  1
  O  O74  1  0.68550700  0.17011200  0.97183200  1
  O  O75  1  0.81449300  0.67011200  0.52816800  1
  O  O76  1  0.68550700  0.17011200  0.52816800  1
  O  O77  1  0.81449300  0.67011200  0.97183200  1
  O  O78  1  0.31449300  0.82988800  0.02816800  1
  O  O79  1  0.18550700  0.32988800  0.47183200  1
  O  O80  1  0.23743500  0.59877000  0.43973500  1
  O  O81  1  0.26256500  0.09877000  0.06026500  1
  O  O82  1  0.76256500  0.40123000  0.93973500  1
  O  O83  1  0.73743500  0.90123000  0.56026500  1
  O  O84  1  0.76256500  0.40123000  0.56026500  1
  O  O85  1  0.73743500  0.90123000  0.93973500  1
  O  O86  1  0.23743500  0.59877000  0.06026500  1
  O  O87  1  0.26256500  0.09877000  0.43973500  1
  O  O88  1  0.59076700  0.89910900  0.25000000  1
  O  O89  1  0.90923300  0.39910900  0.25000000  1
  O  O90  1  0.40923300  0.10089100  0.75000000  1
  O  O91  1  0.09076700  0.60089100  0.75000000  1
  O  O92  1  0.56675900  0.14543900  0.25000000  1
  O  O93  1  0.93324100  0.64543900  0.25000000  1
  O  O94  1  0.43324100  0.85456100  0.75000000  1
  O  O95  1  0.06675900  0.35456100  0.75000000  1
