# generated using pymatgen
data_Sm4InSbS9
_symmetry_space_group_name_H-M   'P 1'
_cell_length_a   10.12114100
_cell_length_b   10.12114100
_cell_length_c   27.87139600
_cell_angle_alpha   90.00000000
_cell_angle_beta   90.00000000
_cell_angle_gamma   90.00000000
_symmetry_Int_Tables_number   1
_chemical_formula_structural   Sm4InSbS9
_chemical_formula_sum   'Sm32 In8 Sb8 S72'
_cell_volume   2855.07599235
_cell_formula_units_Z   8
loop_
 _symmetry_equiv_pos_site_id
 _symmetry_equiv_pos_as_xyz
  1  'x, y, z'
loop_
 _atom_site_type_symbol
 _atom_site_label
 _atom_site_symmetry_multiplicity
 _atom_site_fract_x
 _atom_site_fract_y
 _atom_site_fract_z
 _atom_site_occupancy
  Sm  Sm0  1  0.06035100  0.72453200  0.16163900  1
  Sm  Sm1  1  0.93964900  0.27546800  0.66163900  1
  Sm  Sm2  1  0.22453200  0.43964900  0.41163900  1
  Sm  Sm3  1  0.77546800  0.56035100  0.91163900  1
  Sm  Sm4  1  0.27546800  0.93964900  0.33836100  1
  Sm  Sm5  1  0.72453200  0.06035100  0.83836100  1
  Sm  Sm6  1  0.43964900  0.22453200  0.58836100  1
  Sm  Sm7  1  0.56035100  0.77546800  0.08836100  1
  Sm  Sm8  1  0.34770500  0.98912600  0.19707200  1
  Sm  Sm9  1  0.65229500  0.01087400  0.69707200  1
  Sm  Sm10  1  0.48912600  0.15229500  0.44707200  1
  Sm  Sm11  1  0.51087400  0.84770500  0.94707200  1
  Sm  Sm12  1  0.01087400  0.65229500  0.30292800  1
  Sm  Sm13  1  0.98912600  0.34770500  0.80292800  1
  Sm  Sm14  1  0.15229500  0.48912600  0.55292800  1
  Sm  Sm15  1  0.84770500  0.51087400  0.05292800  1
  Sm  Sm16  1  0.73369700  0.50010600  0.19942500  1
  Sm  Sm17  1  0.26630300  0.49989400  0.69942500  1
  Sm  Sm18  1  0.00010600  0.76630300  0.44942500  1
  Sm  Sm19  1  0.99989400  0.23369700  0.94942500  1
  Sm  Sm20  1  0.49989400  0.26630300  0.30057500  1
  Sm  Sm21  1  0.50010600  0.73369700  0.80057500  1
  Sm  Sm22  1  0.76630300  0.00010600  0.55057500  1
  Sm  Sm23  1  0.23369700  0.99989400  0.05057500  1
  Sm  Sm24  1  0.05695000  0.27274000  0.15670000  1
  Sm  Sm25  1  0.94305000  0.72726000  0.65670000  1
  Sm  Sm26  1  0.77274000  0.44305000  0.40670000  1
  Sm  Sm27  1  0.22726000  0.55695000  0.90670000  1
  Sm  Sm28  1  0.72726000  0.94305000  0.34330000  1
  Sm  Sm29  1  0.27274000  0.05695000  0.84330000  1
  Sm  Sm30  1  0.44305000  0.77274000  0.59330000  1
  Sm  Sm31  1  0.55695000  0.22726000  0.09330000  1
  In  In32  1  0.79554500  0.98636300  0.20346900  1
  In  In33  1  0.20445500  0.01363700  0.70346900  1
  In  In34  1  0.48636300  0.70445500  0.45346900  1
  In  In35  1  0.51363700  0.29554500  0.95346900  1
  In  In36  1  0.01363700  0.20445500  0.29653100  1
  In  In37  1  0.98636300  0.79554500  0.79653100  1
  In  In38  1  0.70445500  0.48636300  0.54653100  1
  In  In39  1  0.29554500  0.51363700  0.04653100  1
  Sb  Sb40  1  0.85798500  0.01001000  0.05573100  1
  Sb  Sb41  1  0.14201500  0.98999000  0.55573100  1
  Sb  Sb42  1  0.51001000  0.64201500  0.30573100  1
  Sb  Sb43  1  0.48999000  0.35798500  0.80573100  1
  Sb  Sb44  1  0.98999000  0.14201500  0.44426900  1
  Sb  Sb45  1  0.01001000  0.85798500  0.94426900  1
  Sb  Sb46  1  0.64201500  0.51001000  0.69426900  1
  Sb  Sb47  1  0.35798500  0.48999000  0.19426900  1
  S  S48  1  0.20635200  0.19964100  0.24170900  1
  S  S49  1  0.79364800  0.80035900  0.74170900  1
  S  S50  1  0.69964100  0.29364800  0.49170900  1
  S  S51  1  0.30035900  0.70635200  0.99170900  1
  S  S52  1  0.80035900  0.79364800  0.25829100  1
  S  S53  1  0.19964100  0.20635200  0.75829100  1
  S  S54  1  0.29364800  0.69964100  0.50829100  1
  S  S55  1  0.70635200  0.30035900  0.00829100  1
  S  S56  1  0.79841200  0.68928600  0.12802000  1
  S  S57  1  0.20158800  0.31071400  0.62802000  1
  S  S58  1  0.18928600  0.70158800  0.37802000  1
  S  S59  1  0.81071400  0.29841200  0.87802000  1
  S  S60  1  0.31071400  0.20158800  0.37198000  1
  S  S61  1  0.68928600  0.79841200  0.87198000  1
  S  S62  1  0.70158800  0.18928600  0.62198000  1
  S  S63  1  0.29841200  0.81071400  0.12198000  1
  S  S64  1  0.29856700  0.17474100  0.12342100  1
  S  S65  1  0.70143300  0.82525900  0.62342100  1
  S  S66  1  0.67474100  0.20143300  0.37342100  1
  S  S67  1  0.32525900  0.79856700  0.87342100  1
  S  S68  1  0.82525900  0.70143300  0.37657900  1
  S  S69  1  0.17474100  0.29856700  0.87657900  1
  S  S70  1  0.20143300  0.67474100  0.62657900  1
  S  S71  1  0.79856700  0.32525900  0.12657900  1
  S  S72  1  0.80275800  0.19724200  0.25000000  1
  S  S73  1  0.19724200  0.80275800  0.75000000  1
  S  S74  1  0.69724200  0.69724200  0.50000000  1
  S  S75  1  0.30275800  0.30275800  0.00000000  1
  S  S76  1  0.59917500  0.99530100  0.15035300  1
  S  S77  1  0.40082500  0.00469900  0.65035300  1
  S  S78  1  0.49530100  0.90082500  0.40035300  1
  S  S79  1  0.50469900  0.09917500  0.90035300  1
  S  S80  1  0.00469900  0.40082500  0.34964700  1
  S  S81  1  0.99530100  0.59917500  0.84964700  1
  S  S82  1  0.90082500  0.49530100  0.59964700  1
  S  S83  1  0.09917500  0.50469900  0.09964700  1
  S  S84  1  0.02348600  0.18810200  0.04977000  1
  S  S85  1  0.97651400  0.81189800  0.54977000  1
  S  S86  1  0.68810200  0.47651400  0.29977000  1
  S  S87  1  0.31189800  0.52348600  0.79977000  1
  S  S88  1  0.81189800  0.97651400  0.45023000  1
  S  S89  1  0.18810200  0.02348600  0.95023000  1
  S  S90  1  0.47651400  0.68810200  0.70023000  1
  S  S91  1  0.52348600  0.31189800  0.20023000  1
  S  S92  1  0.00298600  0.50172200  0.21834700  1
  S  S93  1  0.99701400  0.49827800  0.71834700  1
  S  S94  1  0.00172200  0.49701400  0.46834700  1
  S  S95  1  0.99827800  0.50298600  0.96834700  1
  S  S96  1  0.49827800  0.99701400  0.28165300  1
  S  S97  1  0.50172200  0.00298600  0.78165300  1
  S  S98  1  0.49701400  0.00172200  0.53165300  1
  S  S99  1  0.50298600  0.99827800  0.03165300  1
  S  S100  1  0.82442600  0.01359000  0.96167800  1
  S  S101  1  0.17557400  0.98641000  0.46167800  1
  S  S102  1  0.51359000  0.67557400  0.21167800  1
  S  S103  1  0.48641000  0.32442600  0.71167800  1
  S  S104  1  0.98641000  0.17557400  0.53832200  1
  S  S105  1  0.01359000  0.82442600  0.03832200  1
  S  S106  1  0.67557400  0.51359000  0.78832200  1
  S  S107  1  0.32442600  0.48641000  0.28832200  1
  S  S108  1  0.99147100  0.99495000  0.14844700  1
  S  S109  1  0.00852900  0.00505000  0.64844700  1
  S  S110  1  0.49495000  0.50852900  0.39844700  1
  S  S111  1  0.50505000  0.49147100  0.89844700  1
  S  S112  1  0.00505000  0.00852900  0.35155300  1
  S  S113  1  0.99495000  0.99147100  0.85155300  1
  S  S114  1  0.50852900  0.49495000  0.60155300  1
  S  S115  1  0.49147100  0.50505000  0.10155300  1
  S  S116  1  0.18328400  0.81671600  0.25000000  1
  S  S117  1  0.81671600  0.18328400  0.75000000  1
  S  S118  1  0.31671600  0.31671600  0.50000000  1
  S  S119  1  0.68328400  0.68328400  0.00000000  1
