# generated using pymatgen
data_AgH36S8I2(N3O4)3
_symmetry_space_group_name_H-M   'P 1'
_cell_length_a   12.67822128
_cell_length_b   12.67822128
_cell_length_c   12.67822128
_cell_angle_alpha   116.41249742
_cell_angle_beta   116.41249742
_cell_angle_gamma   96.33485292
_symmetry_Int_Tables_number   1
_chemical_formula_structural   AgH36S8I2(N3O4)3
_chemical_formula_sum   'Ag2 H72 S16 I4 N18 O24'
_cell_volume   1509.13413771
_cell_formula_units_Z   2
loop_
 _symmetry_equiv_pos_site_id
 _symmetry_equiv_pos_as_xyz
  1  'x, y, z'
loop_
 _atom_site_type_symbol
 _atom_site_label
 _atom_site_symmetry_multiplicity
 _atom_site_fract_x
 _atom_site_fract_y
 _atom_site_fract_z
 _atom_site_occupancy
  Ag  Ag0  1  0.75000000  0.25000000  0.50000000  1
  Ag  Ag1  1  0.00000000  0.00000000  0.00000000  1
  H  H2  1  0.34893600  0.78682800  0.56536400  1
  H  H3  1  0.52853500  0.46317200  0.06210700  1
  H  H4  1  0.22146500  0.78357200  0.43463600  1
  H  H5  1  0.40106400  0.46642800  0.93789300  1
  H  H6  1  0.21642800  0.65106400  0.43789300  1
  H  H7  1  0.53682800  0.59893600  0.06536400  1
  H  H8  1  0.21317200  0.77853500  0.56210700  1
  H  H9  1  0.53357200  0.47146500  0.93463600  1
  H  H10  1  0.97874000  0.53990100  0.56555100  1
  H  H11  1  0.77564900  0.71009900  0.93883800  1
  H  H12  1  0.97435100  0.41318900  0.43444900  1
  H  H13  1  0.77126000  0.83681100  0.06116200  1
  H  H14  1  0.58681100  0.02126000  0.56116200  1
  H  H15  1  0.28990100  0.22874000  0.06555100  1
  H  H16  1  0.46009900  0.02564900  0.43883800  1
  H  H17  1  0.16318900  0.22435100  0.93444900  1
  H  H18  1  0.10986600  0.54535200  0.56368800  1
  H  H19  1  0.76833600  0.70464800  0.06451400  1
  H  H20  1  0.98166400  0.54617800  0.43631200  1
  H  H21  1  0.64013400  0.70382200  0.93548600  1
  H  H22  1  0.45382200  0.89013400  0.43548600  1
  H  H23  1  0.29535200  0.35986600  0.06368800  1
  H  H24  1  0.45464800  0.01833600  0.56451400  1
  H  H25  1  0.29617800  0.23166400  0.93631200  1
  H  H26  1  0.82157800  0.59176900  0.76222200  1
  H  H27  1  0.92045300  0.65823100  0.72980900  1
  H  H28  1  0.82954700  0.05935600  0.23777800  1
  H  H29  1  0.92842200  0.19064400  0.27019100  1
  H  H30  1  0.94064400  0.17842200  0.77019100  1
  H  H31  1  0.34176900  0.07157800  0.26222200  1
  H  H32  1  0.40823100  0.17045300  0.22980900  1
  H  H33  1  0.80935600  0.07954700  0.73777800  1
  H  H34  1  0.76807900  0.55207000  0.59549800  1
  H  H35  1  0.79342800  0.69793000  0.71600800  1
  H  H36  1  0.95657200  0.17258000  0.40450200  1
  H  H37  1  0.98192100  0.07742000  0.28399200  1
  H  H38  1  0.82742000  0.23192100  0.78399200  1
  H  H39  1  0.30207000  0.01807900  0.09549800  1
  H  H40  1  0.44793000  0.04342800  0.21600800  1
  H  H41  1  0.92258000  0.20657200  0.90450200  1
  H  H42  1  0.53385800  0.06514400  0.00431900  1
  H  H43  1  0.68917500  0.18485600  0.96871300  1
  H  H44  1  0.06082500  0.52953800  0.99568100  1
  H  H45  1  0.21614200  0.72046200  0.03128700  1
  H  H46  1  0.47046200  0.46614200  0.53128700  1
  H  H47  1  0.81514400  0.78385800  0.50431900  1
  H  H48  1  0.93485600  0.93917500  0.46871300  1
  H  H49  1  0.27953800  0.31082500  0.49568100  1
  H  H50  1  0.54078900  0.93009000  0.99088200  1
  H  H51  1  0.81079200  0.31991000  0.11069900  1
  H  H52  1  0.93920800  0.54990700  0.00911800  1
  H  H53  1  0.20921100  0.70009300  0.88930100  1
  H  H54  1  0.45009300  0.45921100  0.38930100  1
  H  H55  1  0.68009000  0.79078900  0.49088200  1
  H  H56  1  0.06991000  0.06079200  0.61069900  1
  H  H57  1  0.29990700  0.18920800  0.50911800  1
  H  H58  1  0.49318400  0.93728700  0.84712700  1
  H  H59  1  0.65984000  0.31271300  0.05589800  1
  H  H60  1  0.09016000  0.64605700  0.15287300  1
  H  H61  1  0.25681600  0.60394300  0.94410200  1
  H  H62  1  0.35394300  0.50681600  0.44410200  1
  H  H63  1  0.68728700  0.74318400  0.34712700  1
  H  H64  1  0.06271300  0.90984000  0.55589800  1
  H  H65  1  0.39605700  0.34016000  0.65287300  1
  H  H66  1  0.39635300  0.93984600  0.90846000  1
  H  H67  1  0.71861500  0.31015400  0.95650700  1
  H  H68  1  0.03138500  0.48789200  0.09154000  1
  H  H69  1  0.35364700  0.76210800  0.04349300  1
  H  H70  1  0.51210800  0.60364700  0.54349300  1
  H  H71  1  0.68984600  0.64635300  0.40846000  1
  H  H72  1  0.06015400  0.96861500  0.45650700  1
  H  H73  1  0.23789200  0.28138500  0.59154000  1
  S  S74  1  0.68989000  0.24624200  0.27327400  1
  S  S75  1  0.77703200  0.00375800  0.94364800  1
  S  S76  1  0.97296800  0.41661600  0.72672600  1
  S  S77  1  0.06011000  0.83338400  0.05635200  1
  S  S78  1  0.58338400  0.31011000  0.55635200  1
  S  S79  1  0.99624200  0.93989000  0.77327400  1
  S  S80  1  0.75375800  0.02703200  0.44364800  1
  S  S81  1  0.16661600  0.22296800  0.22672600  1
  S  S82  1  0.60146700  0.37035800  0.27248900  1
  S  S83  1  0.65213100  0.87964200  0.73110900  1
  S  S84  1  0.09786900  0.32897800  0.72751100  1
  S  S85  1  0.14853300  0.92102200  0.26889100  1
  S  S86  1  0.67102200  0.39853300  0.76889100  1
  S  S87  1  0.12035800  0.85146700  0.77248900  1
  S  S88  1  0.62964200  0.90213100  0.23110900  1
  S  S89  1  0.07897800  0.34786900  0.22751100  1
  I  I90  1  0.37424900  0.12500000  0.74924900  1
  I  I91  1  0.37575100  0.62500000  0.25075100  1
  I  I92  1  0.37500000  0.62575100  0.75075100  1
  I  I93  1  0.87500000  0.62424900  0.24924900  1
  N  N94  1  0.25000000  0.75000000  0.50000000  1
  N  N95  1  0.50000000  0.50000000  0.00000000  1
  N  N96  1  0.01088100  0.51088100  0.50000000  1
  N  N97  1  0.73911900  0.73911900  0.00000000  1
  N  N98  1  0.48911900  0.98911900  0.50000000  1
  N  N99  1  0.26088100  0.26088100  0.00000000  1
  N  N100  1  0.82725800  0.62500000  0.70225800  1
  N  N101  1  0.92274200  0.12500000  0.29774200  1
  N  N102  1  0.87500000  0.17274200  0.79774200  1
  N  N103  1  0.37500000  0.07725800  0.20225800  1
  N  N104  1  0.49047000  0.96730400  0.93644000  1
  N  N105  1  0.71913700  0.28269600  0.02316600  1
  N  N106  1  0.03086300  0.55402900  0.06356000  1
  N  N107  1  0.25953000  0.69597100  0.97683400  1
  N  N108  1  0.44597100  0.50953000  0.47683400  1
  N  N109  1  0.71730400  0.74047000  0.43644000  1
  N  N110  1  0.03269600  0.96913700  0.52316600  1
  N  N111  1  0.30402900  0.28086300  0.56356000  1
  O  O112  1  0.68717800  0.49892000  0.40547000  1
  O  O113  1  0.65655000  0.75108000  0.68825800  1
  O  O114  1  0.09345000  0.28170800  0.59453000  1
  O  O115  1  0.06282200  0.96829200  0.31174200  1
  O  O116  1  0.71829200  0.31282200  0.81174200  1
  O  O117  1  0.24892000  0.93717800  0.90547000  1
  O  O118  1  0.50108000  0.90655000  0.18825800  1
  O  O119  1  0.03170800  0.34345000  0.09453000  1
  O  O120  1  0.57058100  0.37220000  0.14607700  1
  O  O121  1  0.52387600  0.87780000  0.69838100  1
  O  O122  1  0.22612400  0.42450500  0.85392300  1
  O  O123  1  0.17941900  0.82549500  0.30161900  1
  O  O124  1  0.57549500  0.42941900  0.80161900  1
  O  O125  1  0.12220000  0.82058100  0.64607700  1
  O  O126  1  0.62780000  0.77387600  0.19838100  1
  O  O127  1  0.17450500  0.47612400  0.35392300  1
  O  O128  1  0.48137500  0.32376200  0.26278000  1
  O  O129  1  0.68901800  0.92623800  0.65761300  1
  O  O130  1  0.06098200  0.21859400  0.73722000  1
  O  O131  1  0.26862500  0.03140600  0.34238700  1
  O  O132  1  0.78140600  0.51862500  0.84238700  1
  O  O133  1  0.07376200  0.73137500  0.76278000  1
  O  O134  1  0.67623800  0.93901800  0.15761300  1
  O  O135  1  0.96859400  0.31098200  0.23722000  1
