# generated using pymatgen
data_SiH6(NF3)2
_symmetry_space_group_name_H-M   'P 1'
_cell_length_a   7.64570500
_cell_length_b   7.67579300
_cell_length_c   8.63373400
_cell_angle_alpha   90.00000000
_cell_angle_beta   90.00000000
_cell_angle_gamma   90.00000000
_symmetry_Int_Tables_number   1
_chemical_formula_structural   SiH6(NF3)2
_chemical_formula_sum   'Si4 H24 N8 F24'
_cell_volume   506.68664287
_cell_formula_units_Z   4
loop_
 _symmetry_equiv_pos_site_id
 _symmetry_equiv_pos_as_xyz
  1  'x, y, z'
loop_
 _atom_site_type_symbol
 _atom_site_label
 _atom_site_symmetry_multiplicity
 _atom_site_fract_x
 _atom_site_fract_y
 _atom_site_fract_z
 _atom_site_occupancy
  Si  Si0  1  0.50000000  0.00000000  0.50000000  1
  Si  Si1  1  0.00000000  0.50000000  0.50000000  1
  Si  Si2  1  0.00000000  0.00000000  0.00000000  1
  Si  Si3  1  0.50000000  0.50000000  0.00000000  1
  H  H4  1  0.86039800  0.06044900  0.39818300  1
  H  H5  1  0.63960200  0.56044900  0.60181700  1
  H  H6  1  0.36039800  0.93955100  0.10181700  1
  H  H7  1  0.13960200  0.43955100  0.89818300  1
  H  H8  1  0.13960200  0.93955100  0.60181700  1
  H  H9  1  0.36039800  0.43955100  0.39818300  1
  H  H10  1  0.63960200  0.06044900  0.89818300  1
  H  H11  1  0.86039800  0.56044900  0.10181700  1
  H  H12  1  0.00290600  0.88891000  0.36537700  1
  H  H13  1  0.49709400  0.38891000  0.63462300  1
  H  H14  1  0.50290600  0.11109000  0.13462300  1
  H  H15  1  0.99709400  0.61109000  0.86537700  1
  H  H16  1  0.99709400  0.11109000  0.63462300  1
  H  H17  1  0.50290600  0.61109000  0.36537700  1
  H  H18  1  0.49709400  0.88891000  0.86537700  1
  H  H19  1  0.00290600  0.38891000  0.13462300  1
  H  H20  1  0.08109800  0.09685500  0.37553100  1
  H  H21  1  0.41890200  0.59685500  0.62446900  1
  H  H22  1  0.58109800  0.90314500  0.12446900  1
  H  H23  1  0.91890200  0.40314500  0.87553100  1
  H  H24  1  0.91890200  0.90314500  0.62446900  1
  H  H25  1  0.58109800  0.40314500  0.37553100  1
  H  H26  1  0.41890200  0.09685500  0.87553100  1
  H  H27  1  0.08109800  0.59685500  0.12446900  1
  N  N28  1  0.98663000  0.01106800  0.41756800  1
  N  N29  1  0.51337000  0.51106800  0.58243200  1
  N  N30  1  0.48663000  0.98893200  0.08243200  1
  N  N31  1  0.01337000  0.48893200  0.91756800  1
  N  N32  1  0.01337000  0.98893200  0.58243200  1
  N  N33  1  0.48663000  0.48893200  0.41756800  1
  N  N34  1  0.51337000  0.01106800  0.91756800  1
  N  N35  1  0.98663000  0.51106800  0.08243200  1
  F  F36  1  0.64735600  0.13328600  0.40530800  1
  F  F37  1  0.85264400  0.63328600  0.59469200  1
  F  F38  1  0.14735600  0.86671400  0.09469200  1
  F  F39  1  0.35264400  0.36671400  0.90530800  1
  F  F40  1  0.35264400  0.86671400  0.59469200  1
  F  F41  1  0.14735600  0.36671400  0.40530800  1
  F  F42  1  0.85264400  0.13328600  0.90530800  1
  F  F43  1  0.64735600  0.63328600  0.09469200  1
  F  F44  1  0.44142900  0.16959600  0.62118500  1
  F  F45  1  0.05857100  0.66959600  0.37881500  1
  F  F46  1  0.94142900  0.83040400  0.87881500  1
  F  F47  1  0.55857100  0.33040400  0.12118500  1
  F  F48  1  0.55857100  0.83040400  0.37881500  1
  F  F49  1  0.94142900  0.33040400  0.62118500  1
  F  F50  1  0.05857100  0.16959600  0.12118500  1
  F  F51  1  0.44142900  0.66959600  0.87881500  1
  F  F52  1  0.65805900  0.94044200  0.62807400  1
  F  F53  1  0.84194100  0.44044200  0.37192600  1
  F  F54  1  0.15805900  0.05955800  0.87192600  1
  F  F55  1  0.34194100  0.55955800  0.12807400  1
  F  F56  1  0.34194100  0.05955800  0.37192600  1
  F  F57  1  0.15805900  0.55955800  0.62807400  1
  F  F58  1  0.84194100  0.94044200  0.12807400  1
  F  F59  1  0.65805900  0.44044200  0.87192600  1
