# generated using pymatgen
data_SrBe(HO)4
_symmetry_space_group_name_H-M   'P 1'
_cell_length_a   11.08530980
_cell_length_b   11.08530980
_cell_length_c   11.08530980
_cell_angle_alpha   126.30096135
_cell_angle_beta   126.30096135
_cell_angle_gamma   79.39405130
_symmetry_Int_Tables_number   1
_chemical_formula_structural   SrBe(HO)4
_chemical_formula_sum   'Sr8 Be8 H32 O32'
_cell_volume   855.21613688
_cell_formula_units_Z   8
loop_
 _symmetry_equiv_pos_site_id
 _symmetry_equiv_pos_as_xyz
  1  'x, y, z'
loop_
 _atom_site_type_symbol
 _atom_site_label
 _atom_site_symmetry_multiplicity
 _atom_site_fract_x
 _atom_site_fract_y
 _atom_site_fract_z
 _atom_site_occupancy
  Sr  Sr0  1  0.25000000  0.75000000  0.50000000  1
  Sr  Sr1  1  0.75000000  0.25000000  0.50000000  1
  Sr  Sr2  1  0.00000000  0.00000000  0.00000000  1
  Sr  Sr3  1  0.50000000  0.50000000  0.00000000  1
  Sr  Sr4  1  0.75000000  0.75000000  0.00000000  1
  Sr  Sr5  1  0.25000000  0.25000000  0.00000000  1
  Sr  Sr6  1  0.00000000  0.50000000  0.50000000  1
  Sr  Sr7  1  0.50000000  0.00000000  0.50000000  1
  Be  Be8  1  0.12500000  0.84383000  0.21883000  1
  Be  Be9  1  0.62500000  0.40617000  0.28117000  1
  Be  Be10  1  0.09383000  0.87500000  0.71883000  1
  Be  Be11  1  0.59383000  0.87500000  0.21883000  1
  Be  Be12  1  0.65617000  0.37500000  0.78117000  1
  Be  Be13  1  0.15617000  0.37500000  0.28117000  1
  Be  Be14  1  0.12500000  0.34383000  0.71883000  1
  Be  Be15  1  0.62500000  0.90617000  0.78117000  1
  H  H16  1  0.46868700  0.06689800  0.81495700  1
  H  H17  1  0.96868700  0.15373000  0.40178900  1
  H  H18  1  0.31689800  0.21868700  0.31495700  1
  H  H19  1  0.81689800  0.50194100  0.09821100  1
  H  H20  1  0.28131300  0.18310200  0.68504300  1
  H  H21  1  0.78131300  0.09627000  0.09821100  1
  H  H22  1  0.43310200  0.03131300  0.18504300  1
  H  H23  1  0.93310200  0.74805900  0.40178900  1
  H  H24  1  0.75194100  0.56689800  0.59821100  1
  H  H25  1  0.25194100  0.65373000  0.18504300  1
  H  H26  1  0.40373000  0.71868700  0.90178900  1
  H  H27  1  0.90373000  0.00194100  0.68504300  1
  H  H28  1  0.99805900  0.68310200  0.90178900  1
  H  H29  1  0.49805900  0.59627000  0.31495700  1
  H  H30  1  0.34627000  0.53131300  0.59821100  1
  H  H31  1  0.84627000  0.24805900  0.81495700  1
  H  H32  1  0.06316500  0.95972100  0.41388300  1
  H  H33  1  0.56316500  0.14928200  0.10344400  1
  H  H34  1  0.20972100  0.81316500  0.91388300  1
  H  H35  1  0.70972100  0.79583800  0.39655600  1
  H  H36  1  0.68683500  0.29027900  0.08611700  1
  H  H37  1  0.18683500  0.10071800  0.39655600  1
  H  H38  1  0.54027900  0.43683500  0.58611700  1
  H  H39  1  0.04027900  0.45416200  0.10344400  1
  H  H40  1  0.04583800  0.45972100  0.89655600  1
  H  H41  1  0.54583800  0.64928200  0.58611700  1
  H  H42  1  0.39928200  0.31316500  0.60344400  1
  H  H43  1  0.89928200  0.29583800  0.08611700  1
  H  H44  1  0.70416200  0.79027900  0.60344400  1
  H  H45  1  0.20416200  0.60071800  0.91388300  1
  H  H46  1  0.35071800  0.93683500  0.89655600  1
  H  H47  1  0.85071800  0.95416200  0.41388300  1
  O  O48  1  0.48926300  0.99567900  0.72551300  1
  O  O49  1  0.98926300  0.26375000  0.49358400  1
  O  O50  1  0.24567900  0.23926300  0.22551300  1
  O  O51  1  0.74567900  0.52016600  0.00641600  1
  O  O52  1  0.26073700  0.25432100  0.77448700  1
  O  O53  1  0.76073700  0.98625000  0.00641600  1
  O  O54  1  0.50432100  0.01073700  0.27448700  1
  O  O55  1  0.00432100  0.72983400  0.49358400  1
  O  O56  1  0.77016600  0.49567900  0.50641600  1
  O  O57  1  0.27016600  0.76375000  0.27448700  1
  O  O58  1  0.51375000  0.73926300  0.99358400  1
  O  O59  1  0.01375000  0.02016600  0.77448700  1
  O  O60  1  0.97983400  0.75432100  0.99358400  1
  O  O61  1  0.47983400  0.48625000  0.22551300  1
  O  O62  1  0.23625000  0.51073700  0.50641600  1
  O  O63  1  0.73625000  0.22983400  0.72551300  1
  O  O64  1  0.04835600  0.85417000  0.31349200  1
  O  O65  1  0.54835600  0.23486400  0.19418600  1
  O  O66  1  0.10417000  0.79835600  0.81349200  1
  O  O67  1  0.60417000  0.79067800  0.30581400  1
  O  O68  1  0.70164400  0.39583000  0.18650800  1
  O  O69  1  0.20164400  0.01513600  0.30581400  1
  O  O70  1  0.64583000  0.45164400  0.68650800  1
  O  O71  1  0.14583000  0.45932200  0.19418600  1
  O  O72  1  0.04067800  0.35417000  0.80581400  1
  O  O73  1  0.54067800  0.73486400  0.68650800  1
  O  O74  1  0.48486400  0.29835600  0.69418600  1
  O  O75  1  0.98486400  0.29067800  0.18650800  1
  O  O76  1  0.70932200  0.89583000  0.69418600  1
  O  O77  1  0.20932200  0.51513600  0.81349200  1
  O  O78  1  0.26513600  0.95164400  0.80581400  1
  O  O79  1  0.76513600  0.95932200  0.31349200  1
