# generated using pymatgen
data_Sb4Xe2F19
_symmetry_space_group_name_H-M   'P 1'
_cell_length_a   8.92981800
_cell_length_b   10.95166000
_cell_length_c   15.92144232
_cell_angle_alpha   50.14639231
_cell_angle_beta   90.00000000
_cell_angle_gamma   90.00000000
_symmetry_Int_Tables_number   1
_chemical_formula_structural   Sb4Xe2F19
_chemical_formula_sum   'Sb8 Xe4 F38'
_cell_volume   1195.32944002
_cell_formula_units_Z   2
loop_
 _symmetry_equiv_pos_site_id
 _symmetry_equiv_pos_as_xyz
  1  'x, y, z'
loop_
 _atom_site_type_symbol
 _atom_site_label
 _atom_site_symmetry_multiplicity
 _atom_site_fract_x
 _atom_site_fract_y
 _atom_site_fract_z
 _atom_site_occupancy
  Sb  Sb0  1  0.58228500  0.18786800  0.84493300  1
  Sb  Sb1  1  0.91771500  0.18786800  0.34493300  1
  Sb  Sb2  1  0.41771500  0.81213200  0.15506700  1
  Sb  Sb3  1  0.08228500  0.81213200  0.65506700  1
  Sb  Sb4  1  0.90338800  0.23439200  0.00257300  1
  Sb  Sb5  1  0.59661200  0.23439200  0.50257300  1
  Sb  Sb6  1  0.09661200  0.76560800  0.99742700  1
  Sb  Sb7  1  0.40338800  0.76560800  0.49742700  1
  Xe  Xe8  1  0.42111500  0.31092200  0.14949100  1
  Xe  Xe9  1  0.07888500  0.31092200  0.64949100  1
  Xe  Xe10  1  0.57888500  0.68907800  0.85050900  1
  Xe  Xe11  1  0.92111500  0.68907800  0.35050900  1
  F  F12  1  0.50000000  0.00000000  0.00000000  1
  F  F13  1  0.00000000  0.00000000  0.50000000  1
  F  F14  1  0.52105400  0.31531000  0.88040300  1
  F  F15  1  0.97894600  0.31531000  0.38040300  1
  F  F16  1  0.47894600  0.68469000  0.11959700  1
  F  F17  1  0.02105400  0.68469000  0.61959700  1
  F  F18  1  0.67142100  0.35649400  0.71075500  1
  F  F19  1  0.82857900  0.35649400  0.21075500  1
  F  F20  1  0.32857900  0.64350600  0.28924500  1
  F  F21  1  0.17142100  0.64350600  0.78924500  1
  F  F22  1  0.39251300  0.18913600  0.79242100  1
  F  F23  1  0.10748700  0.18913600  0.29242100  1
  F  F24  1  0.60748700  0.81086400  0.20757900  1
  F  F25  1  0.89251300  0.81086400  0.70757900  1
  F  F26  1  0.65849800  0.02699400  0.84495200  1
  F  F27  1  0.84150200  0.02699400  0.34495200  1
  F  F28  1  0.34150200  0.97300600  0.15504800  1
  F  F29  1  0.15849800  0.97300600  0.65504800  1
  F  F30  1  0.77272200  0.15185400  0.92977900  1
  F  F31  1  0.72727800  0.15185400  0.42977900  1
  F  F32  1  0.22727800  0.84814600  0.07022100  1
  F  F33  1  0.27272200  0.84814600  0.57022100  1
  F  F34  1  0.88629300  0.43569900  0.85816300  1
  F  F35  1  0.61370800  0.43569900  0.35816300  1
  F  F36  1  0.11370700  0.56430100  0.14183700  1
  F  F37  1  0.38629300  0.56430100  0.64183700  1
  F  F38  1  0.97556700  0.01868000  0.09680000  1
  F  F39  1  0.52443300  0.01868000  0.59680000  1
  F  F40  1  0.02443300  0.98132000  0.90320000  1
  F  F41  1  0.47556700  0.98132000  0.40320000  1
  F  F42  1  0.73436900  0.22283600  0.07864800  1
  F  F43  1  0.76563100  0.22283600  0.57864800  1
  F  F44  1  0.26563100  0.77716400  0.92135200  1
  F  F45  1  0.23436900  0.77716400  0.42135200  1
  F  F46  1  0.05318400  0.30649500  0.04665700  1
  F  F47  1  0.44681600  0.30649500  0.54665700  1
  F  F48  1  0.94681600  0.69350500  0.95334300  1
  F  F49  1  0.55318400  0.69350500  0.45334300  1
