# generated using pymatgen
data_InRe2(CO)9
_symmetry_space_group_name_H-M   'P 1'
_cell_length_a   16.81148200
_cell_length_b   6.95508400
_cell_length_c   14.53510320
_cell_angle_alpha   62.24537248
_cell_angle_beta   90.00000000
_cell_angle_gamma   90.00000000
_symmetry_Int_Tables_number   1
_chemical_formula_structural   InRe2(CO)9
_chemical_formula_sum   'In4 Re8 C36 O36'
_cell_volume   1503.99103321
_cell_formula_units_Z   4
loop_
 _symmetry_equiv_pos_site_id
 _symmetry_equiv_pos_as_xyz
  1  'x, y, z'
loop_
 _atom_site_type_symbol
 _atom_site_label
 _atom_site_symmetry_multiplicity
 _atom_site_fract_x
 _atom_site_fract_y
 _atom_site_fract_z
 _atom_site_occupancy
  In  In0  1  0.93863500  0.77237800  0.85557800  1
  In  In1  1  0.56136500  0.77237800  0.35557800  1
  In  In2  1  0.06136500  0.22762200  0.14442200  1
  In  In3  1  0.43863500  0.22762200  0.64442200  1
  Re  Re4  1  0.87347700  0.07223200  0.65994900  1
  Re  Re5  1  0.62652300  0.07223200  0.15994900  1
  Re  Re6  1  0.12652300  0.92776800  0.34005100  1
  Re  Re7  1  0.37347700  0.92776800  0.84005100  1
  Re  Re8  1  0.58200600  0.48135200  0.57033500  1
  Re  Re9  1  0.91799400  0.48135200  0.07033500  1
  Re  Re10  1  0.41799400  0.51864800  0.42966500  1
  Re  Re11  1  0.08200600  0.51864800  0.92966500  1
  C  C12  1  0.37940500  0.73375300  0.47342500  1
  C  C13  1  0.12059500  0.73375300  0.97342500  1
  C  C14  1  0.62059500  0.26624700  0.52657500  1
  C  C15  1  0.87940500  0.26624700  0.02657500  1
  C  C16  1  0.31756700  0.36388900  0.46365600  1
  C  C17  1  0.18243300  0.36388900  0.96365600  1
  C  C18  1  0.68243300  0.63611100  0.53634400  1
  C  C19  1  0.81756700  0.63611100  0.03634400  1
  C  C20  1  0.46602700  0.30214100  0.39391200  1
  C  C21  1  0.03397300  0.30214100  0.89391200  1
  C  C22  1  0.53397300  0.69785900  0.60608800  1
  C  C23  1  0.96602700  0.69785900  0.10608800  1
  C  C24  1  0.39421500  0.71401200  0.28513200  1
  C  C25  1  0.10578500  0.71401200  0.78513200  1
  C  C26  1  0.60578500  0.28598800  0.71486800  1
  C  C27  1  0.89421500  0.28598800  0.21486800  1
  C  C28  1  0.33890700  0.74509500  0.77418300  1
  C  C29  1  0.16109300  0.74509500  0.27418300  1
  C  C30  1  0.66109300  0.25490500  0.22581700  1
  C  C31  1  0.83890700  0.25490500  0.72581700  1
  C  C32  1  0.47985500  0.78210500  0.86532800  1
  C  C33  1  0.02014500  0.78210500  0.36532800  1
  C  C34  1  0.52014500  0.21789500  0.13467200  1
  C  C35  1  0.97985500  0.21789500  0.63467200  1
  C  C36  1  0.41678200  0.13531000  0.88692600  1
  C  C37  1  0.08321800  0.13531000  0.38692600  1
  C  C38  1  0.58321800  0.86469000  0.11307400  1
  C  C39  1  0.91678300  0.86469000  0.61307400  1
  C  C40  1  0.27099500  0.09385300  0.79549500  1
  C  C41  1  0.22900500  0.09385300  0.29549500  1
  C  C42  1  0.72900500  0.90614700  0.20450500  1
  C  C43  1  0.77099500  0.90614700  0.70450500  1
  C  C44  1  0.33224200  0.72783600  0.97846200  1
  C  C45  1  0.16775800  0.72783600  0.47846200  1
  C  C46  1  0.66775800  0.27216400  0.02153800  1
  C  C47  1  0.83224200  0.27216400  0.52153800  1
  O  O48  1  0.35682600  0.85968100  0.49906000  1
  O  O49  1  0.14317400  0.85968100  0.99906000  1
  O  O50  1  0.64317400  0.14031900  0.50094000  1
  O  O51  1  0.85682600  0.14031900  0.00094000  1
  O  O52  1  0.25551400  0.27856300  0.47734800  1
  O  O53  1  0.24448600  0.27856300  0.97734800  1
  O  O54  1  0.74448600  0.72143700  0.52265200  1
  O  O55  1  0.75551400  0.72143700  0.02265200  1
  O  O56  1  0.49379400  0.17459500  0.37218600  1
  O  O57  1  0.00620600  0.17459500  0.87218600  1
  O  O58  1  0.50620600  0.82540500  0.62781400  1
  O  O59  1  0.99379400  0.82540500  0.12781400  1
  O  O60  1  0.37616100  0.82732100  0.19857300  1
  O  O61  1  0.12383900  0.82732100  0.69857300  1
  O  O62  1  0.62383900  0.17267900  0.80142700  1
  O  O63  1  0.87616100  0.17267900  0.30142700  1
  O  O64  1  0.32014700  0.63783100  0.73632900  1
  O  O65  1  0.17985300  0.63783100  0.23632900  1
  O  O66  1  0.67985300  0.36216900  0.26367100  1
  O  O67  1  0.82014700  0.36216900  0.76367100  1
  O  O68  1  0.54075700  0.69628300  0.87782900  1
  O  O69  1  0.95924300  0.69628300  0.37782900  1
  O  O70  1  0.45924300  0.30371700  0.12217100  1
  O  O71  1  0.04075700  0.30371700  0.62217100  1
  O  O72  1  0.44380300  0.25625500  0.91252400  1
  O  O73  1  0.05619700  0.25625500  0.41252400  1
  O  O74  1  0.55619700  0.74374500  0.08747600  1
  O  O75  1  0.94380300  0.74374500  0.58747600  1
  O  O76  1  0.21150100  0.18747500  0.77012900  1
  O  O77  1  0.28849900  0.18747500  0.27012900  1
  O  O78  1  0.78849900  0.81252500  0.22987100  1
  O  O79  1  0.71150100  0.81252500  0.72987100  1
  O  O80  1  0.30783200  0.61246700  0.06043300  1
  O  O81  1  0.19216800  0.61246700  0.56043300  1
  O  O82  1  0.69216800  0.38753300  0.93956700  1
  O  O83  1  0.80783200  0.38753300  0.43956700  1
