# generated using pymatgen
data_Ca6Si6O19
_symmetry_space_group_name_H-M   'P 1'
_cell_length_a   7.95629217
_cell_length_b   7.95629217
_cell_length_c   17.37403461
_cell_angle_alpha   89.53804112
_cell_angle_beta   89.53804112
_cell_angle_gamma   55.58674084
_symmetry_Int_Tables_number   1
_chemical_formula_structural   Ca6Si6O19
_chemical_formula_sum   'Ca12 Si12 O38'
_cell_volume   907.29590181
_cell_formula_units_Z   2
loop_
 _symmetry_equiv_pos_site_id
 _symmetry_equiv_pos_as_xyz
  1  'x, y, z'
loop_
 _atom_site_type_symbol
 _atom_site_label
 _atom_site_symmetry_multiplicity
 _atom_site_fract_x
 _atom_site_fract_y
 _atom_site_fract_z
 _atom_site_occupancy
  Ca  Ca0  1  0.12502300  0.37206900  0.25170300  1
  Ca  Ca1  1  0.62793100  0.87497700  0.24829700  1
  Ca  Ca2  1  0.87497700  0.62793100  0.74829700  1
  Ca  Ca3  1  0.37206900  0.12502300  0.75170300  1
  Ca  Ca4  1  0.80001200  0.53790200  0.06694200  1
  Ca  Ca5  1  0.46209800  0.19998800  0.43305800  1
  Ca  Ca6  1  0.19998800  0.46209800  0.93305800  1
  Ca  Ca7  1  0.53790200  0.80001200  0.56694200  1
  Ca  Ca8  1  0.28953300  0.05131700  0.06827400  1
  Ca  Ca9  1  0.94868300  0.71046700  0.43172600  1
  Ca  Ca10  1  0.71046700  0.94868300  0.93172600  1
  Ca  Ca11  1  0.05131700  0.28953300  0.56827400  1
  Si  Si12  1  0.78030700  0.45111000  0.39523200  1
  Si  Si13  1  0.54889000  0.21969300  0.10476800  1
  Si  Si14  1  0.21969300  0.54889000  0.60476800  1
  Si  Si15  1  0.45111000  0.78030700  0.89523200  1
  Si  Si16  1  0.20537200  0.02667800  0.39465900  1
  Si  Si17  1  0.97332200  0.79462800  0.10534100  1
  Si  Si18  1  0.79462800  0.97332200  0.60534100  1
  Si  Si19  1  0.02667800  0.20537200  0.89465900  1
  Si  Si20  1  0.40541600  0.65102000  0.15935700  1
  Si  Si21  1  0.34898000  0.59458400  0.34064300  1
  Si  Si22  1  0.59458400  0.34898000  0.84064300  1
  Si  Si23  1  0.65102000  0.40541600  0.65935700  1
  O  O24  1  0.37631400  0.62368600  0.25000000  1
  O  O25  1  0.62368600  0.37631400  0.75000000  1
  O  O26  1  0.95889100  0.20453200  0.39163500  1
  O  O27  1  0.79546800  0.04110900  0.10836500  1
  O  O28  1  0.04110900  0.79546800  0.60836500  1
  O  O29  1  0.20453200  0.95889100  0.89163500  1
  O  O30  1  0.32834200  0.05851500  0.32759400  1
  O  O31  1  0.94148500  0.67165800  0.17240600  1
  O  O32  1  0.67165800  0.94148500  0.67240600  1
  O  O33  1  0.05851500  0.32834200  0.82759400  1
  O  O34  1  0.81191000  0.57428500  0.32798500  1
  O  O35  1  0.42571500  0.18809000  0.17201500  1
  O  O36  1  0.18809000  0.42571500  0.67201500  1
  O  O37  1  0.57428500  0.81191000  0.82798500  1
  O  O38  1  0.57017300  0.45487800  0.38451000  1
  O  O39  1  0.54512200  0.42982700  0.11549000  1
  O  O40  1  0.42982700  0.54512200  0.61549000  1
  O  O41  1  0.45487800  0.57017300  0.88451000  1
  O  O42  1  0.21213700  0.81492500  0.38536000  1
  O  O43  1  0.18507500  0.78786300  0.11464000  1
  O  O44  1  0.78786300  0.18507500  0.61464000  1
  O  O45  1  0.81492500  0.21213700  0.88536000  1
  O  O46  1  0.29255600  0.03614500  0.47806300  1
  O  O47  1  0.96385500  0.70744400  0.02193700  1
  O  O48  1  0.70744400  0.96385500  0.52193700  1
  O  O49  1  0.03614500  0.29255600  0.97806300  1
  O  O50  1  0.78754200  0.54011900  0.47851300  1
  O  O51  1  0.45988100  0.21245800  0.02148700  1
  O  O52  1  0.21245800  0.45988100  0.52148700  1
  O  O53  1  0.54011900  0.78754200  0.97851300  1
  O  O54  1  0.51704400  0.76571700  0.14728200  1
  O  O55  1  0.23428300  0.48295600  0.35271800  1
  O  O56  1  0.48295600  0.23428300  0.85271800  1
  O  O57  1  0.76571700  0.51704400  0.64728200  1
  O  O58  1  0.02110300  0.27061200  0.14882100  1
  O  O59  1  0.72938800  0.97889700  0.35117900  1
  O  O60  1  0.97889700  0.72938800  0.85117900  1
  O  O61  1  0.27061200  0.02110300  0.64882100  1
