# generated using pymatgen
data_CaAsHO5
_symmetry_space_group_name_H-M   'P 1'
_cell_length_a   6.82907300
_cell_length_b   7.93273600
_cell_length_c   16.32287400
_cell_angle_alpha   90.00000000
_cell_angle_beta   90.00000000
_cell_angle_gamma   90.00000000
_symmetry_Int_Tables_number   1
_chemical_formula_structural   CaAsHO5
_chemical_formula_sum   'Ca8 As8 H8 O40'
_cell_volume   884.26286025
_cell_formula_units_Z   8
loop_
 _symmetry_equiv_pos_site_id
 _symmetry_equiv_pos_as_xyz
  1  'x, y, z'
loop_
 _atom_site_type_symbol
 _atom_site_label
 _atom_site_symmetry_multiplicity
 _atom_site_fract_x
 _atom_site_fract_y
 _atom_site_fract_z
 _atom_site_occupancy
  Ca  Ca0  1  0.87288700  0.68265800  0.04759400  1
  Ca  Ca1  1  0.62711300  0.81734200  0.54759400  1
  Ca  Ca2  1  0.37288700  0.81734200  0.95240600  1
  Ca  Ca3  1  0.12711300  0.68265800  0.45240600  1
  Ca  Ca4  1  0.12711300  0.31734200  0.95240600  1
  Ca  Ca5  1  0.37288700  0.18265800  0.45240600  1
  Ca  Ca6  1  0.62711300  0.18265800  0.04759400  1
  Ca  Ca7  1  0.87288700  0.31734200  0.54759400  1
  As  As8  1  0.87157400  0.06558100  0.38642900  1
  As  As9  1  0.62842600  0.43441900  0.88642900  1
  As  As10  1  0.37157400  0.43441900  0.61357100  1
  As  As11  1  0.12842600  0.06558100  0.11357100  1
  As  As12  1  0.12842600  0.93441900  0.61357100  1
  As  As13  1  0.37157400  0.56558100  0.11357100  1
  As  As14  1  0.62842600  0.56558100  0.38642900  1
  As  As15  1  0.87157400  0.93441900  0.88642900  1
  H  H16  1  0.67861800  0.24157800  0.31308500  1
  H  H17  1  0.82138200  0.25842200  0.81308500  1
  H  H18  1  0.17861800  0.25842200  0.68691500  1
  H  H19  1  0.32138200  0.24157800  0.18691500  1
  H  H20  1  0.32138200  0.75842200  0.68691500  1
  H  H21  1  0.17861800  0.74157800  0.18691500  1
  H  H22  1  0.82138200  0.74157800  0.31308500  1
  H  H23  1  0.67861800  0.75842200  0.81308500  1
  O  O24  1  0.69938100  0.05837700  0.46409400  1
  O  O25  1  0.80061900  0.44162300  0.96409400  1
  O  O26  1  0.19938100  0.44162300  0.53590600  1
  O  O27  1  0.30061900  0.05837700  0.03590600  1
  O  O28  1  0.30061900  0.94162300  0.53590600  1
  O  O29  1  0.19938100  0.55837700  0.03590600  1
  O  O30  1  0.80061900  0.55837700  0.46409400  1
  O  O31  1  0.69938100  0.94162300  0.96409400  1
  O  O32  1  0.03912000  0.20711100  0.42506800  1
  O  O33  1  0.46088100  0.29288900  0.92506800  1
  O  O34  1  0.53911900  0.29288900  0.57493200  1
  O  O35  1  0.96088100  0.20711100  0.07493200  1
  O  O36  1  0.96088100  0.79288900  0.57493200  1
  O  O37  1  0.53911900  0.70711100  0.07493200  1
  O  O38  1  0.46088100  0.70711100  0.42506800  1
  O  O39  1  0.03912000  0.79288900  0.92506800  1
  O  O40  1  0.96897900  0.87335600  0.36491300  1
  O  O41  1  0.53102100  0.62664400  0.86491300  1
  O  O42  1  0.46897900  0.62664400  0.63508700  1
  O  O43  1  0.03102100  0.87335600  0.13508700  1
  O  O44  1  0.03102100  0.12664400  0.63508700  1
  O  O45  1  0.46897900  0.37335600  0.13508700  1
  O  O46  1  0.53102100  0.37335600  0.36491300  1
  O  O47  1  0.96897900  0.12664400  0.86491300  1
  O  O48  1  0.76036800  0.14026300  0.29668900  1
  O  O49  1  0.73963200  0.35973700  0.79668900  1
  O  O50  1  0.26036800  0.35973700  0.70331100  1
  O  O51  1  0.23963200  0.14026300  0.20331100  1
  O  O52  1  0.23963200  0.85973700  0.70331100  1
  O  O53  1  0.26036800  0.64026300  0.20331100  1
  O  O54  1  0.73963200  0.64026300  0.29668900  1
  O  O55  1  0.76036800  0.85973700  0.79668900  1
  O  O56  1  0.88793400  0.46152400  0.15900600  1
  O  O57  1  0.61206600  0.03847600  0.65900600  1
  O  O58  1  0.38793400  0.03847600  0.84099400  1
  O  O59  1  0.11206600  0.46152400  0.34099400  1
  O  O60  1  0.11206600  0.53847600  0.84099400  1
  O  O61  1  0.38793400  0.96152400  0.34099400  1
  O  O62  1  0.61206600  0.96152400  0.15900600  1
  O  O63  1  0.88793400  0.53847600  0.65900600  1
