# generated using pymatgen
data_FeSi6(H27C10)2
_symmetry_space_group_name_H-M   'P 1'
_cell_length_a   9.74563407
_cell_length_b   9.74563407
_cell_length_c   23.80180060
_cell_angle_alpha   73.00153133
_cell_angle_beta   73.00153133
_cell_angle_gamma   57.89406076
_symmetry_Int_Tables_number   1
_chemical_formula_structural   FeSi6(H27C10)2
_chemical_formula_sum   'Fe2 Si12 H108 C40'
_cell_volume   1804.88272213
_cell_formula_units_Z   2
loop_
 _symmetry_equiv_pos_site_id
 _symmetry_equiv_pos_as_xyz
  1  'x, y, z'
loop_
 _atom_site_type_symbol
 _atom_site_label
 _atom_site_symmetry_multiplicity
 _atom_site_fract_x
 _atom_site_fract_y
 _atom_site_fract_z
 _atom_site_occupancy
  Fe  Fe0  1  0.00000000  0.50000000  0.00000000  1
  Fe  Fe1  1  0.50000000  0.00000000  0.50000000  1
  Si  Si2  1  0.17424200  0.50061800  0.09356800  1
  Si  Si3  1  0.49938200  0.82575800  0.40643200  1
  Si  Si4  1  0.82575800  0.49938200  0.90643200  1
  Si  Si5  1  0.50061800  0.17424200  0.59356800  1
  Si  Si6  1  0.81302500  0.56358600  0.13553200  1
  Si  Si7  1  0.43641400  0.18697500  0.36446800  1
  Si  Si8  1  0.18697500  0.43641400  0.86446800  1
  Si  Si9  1  0.56358600  0.81302500  0.63553200  1
  Si  Si10  1  0.10039100  0.21105300  0.11477900  1
  Si  Si11  1  0.78894700  0.89960900  0.38522100  1
  Si  Si12  1  0.89960900  0.78894700  0.88522100  1
  Si  Si13  1  0.21105300  0.10039100  0.61477900  1
  H  H14  1  0.47120500  0.39743200  0.07487600  1
  H  H15  1  0.60256800  0.52879500  0.42512400  1
  H  H16  1  0.52879500  0.60256800  0.92512400  1
  H  H17  1  0.39743200  0.47120500  0.57487600  1
  H  H18  1  0.42582100  0.32744200  0.02561900  1
  H  H19  1  0.67255800  0.57417900  0.47438100  1
  H  H20  1  0.57417900  0.67255800  0.97438100  1
  H  H21  1  0.32744200  0.42582100  0.52561900  1
  H  H22  1  0.43769600  0.22626300  0.10067000  1
  H  H23  1  0.77373700  0.56230400  0.39933000  1
  H  H24  1  0.56230400  0.77373700  0.89933000  1
  H  H25  1  0.22626300  0.43769600  0.60067000  1
  H  H26  1  0.23733300  0.72597500  0.04348600  1
  H  H27  1  0.27402500  0.76266700  0.45651400  1
  H  H28  1  0.76266700  0.27402500  0.95651400  1
  H  H29  1  0.72597500  0.23733300  0.54348600  1
  H  H30  1  0.02306400  0.80161200  0.05062800  1
  H  H31  1  0.19838800  0.97693600  0.44937200  1
  H  H32  1  0.97693600  0.19838800  0.94937200  1
  H  H33  1  0.80161200  0.02306400  0.55062800  1
  H  H34  1  0.16551000  0.68350400  0.99421600  1
  H  H35  1  0.31649600  0.83449000  0.50578400  1
  H  H36  1  0.83449000  0.31649600  0.00578400  1
  H  H37  1  0.68350400  0.16551000  0.49421600  1
  H  H38  1  0.25821900  0.57032800  0.16419700  1
  H  H39  1  0.42967200  0.74178100  0.33580300  1
  H  H40  1  0.74178100  0.42967200  0.83580300  1
  H  H41  1  0.57032800  0.25821900  0.66419700  1
  H  H42  1  0.19108500  0.42547400  0.20316700  1
  H  H43  1  0.57452600  0.80891500  0.29683300  1
  H  H44  1  0.80891500  0.57452600  0.79683300  1
  H  H45  1  0.42547400  0.19108500  0.70316700  1
  H  H46  1  0.04539100  0.63634500  0.18556200  1
  H  H47  1  0.36365500  0.95460900  0.31443800  1
  H  H48  1  0.95460900  0.36365500  0.81443800  1
  H  H49  1  0.63634500  0.04539100  0.68556200  1
  H  H50  1  0.83154100  0.80617900  0.14514700  1
  H  H51  1  0.19382100  0.16845900  0.35485300  1
  H  H52  1  0.16845900  0.19382100  0.85485300  1
  H  H53  1  0.80617900  0.83154100  0.64514700  1
  H  H54  1  0.62803900  0.84021100  0.15961800  1
  H  H55  1  0.15978900  0.37196100  0.34038200  1
  H  H56  1  0.37196100  0.15978900  0.84038200  1
  H  H57  1  0.84021100  0.62803900  0.65961800  1
  H  H58  1  0.73004900  0.85679500  0.08516600  1
  H  H59  1  0.14320500  0.26995100  0.41483400  1
  H  H60  1  0.26995100  0.14320500  0.91483400  1
  H  H61  1  0.85679500  0.73004900  0.58516600  1
  H  H62  1  0.88826700  0.47433900  0.23822400  1
  H  H63  1  0.52566100  0.11173300  0.26177600  1
  H  H64  1  0.11173300  0.52566100  0.76177600  1
  H  H65  1  0.47433900  0.88826700  0.73822400  1
  H  H66  1  0.80765000  0.35781600  0.22881500  1
  H  H67  1  0.64218400  0.19235000  0.27118500  1
  H  H68  1  0.19235000  0.64218400  0.77118500  1
  H  H69  1  0.35781600  0.80765000  0.72881500  1
  H  H70  1  0.67437800  0.56370900  0.24013300  1
  H  H71  1  0.43629100  0.32562200  0.25986700  1
  H  H72  1  0.32562200  0.43629100  0.75986700  1
  H  H73  1  0.56370900  0.67437800  0.74013300  1
  H  H74  1  0.63386100  0.62371300  0.06483900  1
  H  H75  1  0.37628700  0.36613900  0.43516100  1
  H  H76  1  0.36613900  0.37628700  0.93516100  1
  H  H77  1  0.62371300  0.63386100  0.56483900  1
  H  H78  1  0.52327000  0.65179300  0.13790100  1
  H  H79  1  0.34820700  0.47673000  0.36209900  1
  H  H80  1  0.47673000  0.34820700  0.86209900  1
  H  H81  1  0.65179300  0.52327000  0.63790100  1
  H  H82  1  0.64937600  0.44997200  0.12040200  1
  H  H83  1  0.55002800  0.35062400  0.37959800  1
  H  H84  1  0.35062400  0.55002800  0.87959800  1
  H  H85  1  0.44997200  0.64937600  0.62040200  1
  H  H86  1  0.11863100  0.17423900  0.22233300  1
  H  H87  1  0.82576100  0.88136900  0.27766700  1
  H  H88  1  0.88136900  0.82576100  0.77766700  1
  H  H89  1  0.17423900  0.11863100  0.72233300  1
  H  H90  1  0.31414300  0.12530400  0.17690900  1
  H  H91  1  0.87469600  0.68585700  0.32309100  1
  H  H92  1  0.68585700  0.87469600  0.82309100  1
  H  H93  1  0.12530400  0.31414300  0.67690900  1
  H  H94  1  0.23650600  0.98730100  0.19399200  1
  H  H95  1  0.01269900  0.76349400  0.30600800  1
  H  H96  1  0.76349400  0.01269900  0.80600800  1
  H  H97  1  0.98730100  0.23650600  0.69399200  1
  H  H98  1  0.84287000  0.19334300  0.17098300  1
  H  H99  1  0.80665700  0.15713000  0.32901700  1
  H  H100  1  0.15713000  0.80665700  0.82901700  1
  H  H101  1  0.19334300  0.84287000  0.67098300  1
  H  H102  1  0.00637800  0.00823800  0.14729200  1
  H  H103  1  0.99176200  0.99362200  0.35270800  1
  H  H104  1  0.99362200  0.99176200  0.85270800  1
  H  H105  1  0.00823800  0.00637800  0.64729200  1
  H  H106  1  0.88423300  0.16927900  0.09569500  1
  H  H107  1  0.83072100  0.11576700  0.40430500  1
  H  H108  1  0.11576700  0.83072100  0.90430500  1
  H  H109  1  0.16927900  0.88423300  0.59569500  1
  H  H110  1  0.36181600  0.11521000  0.03928800  1
  H  H111  1  0.88479000  0.63818400  0.46071200  1
  H  H112  1  0.63818400  0.88479000  0.96071200  1
  H  H113  1  0.11521000  0.36181600  0.53928800  1
  H  H114  1  0.20090700  0.12033600  0.01595600  1
  H  H115  1  0.87966400  0.79909300  0.48404400  1
  H  H116  1  0.79909300  0.87966400  0.98404400  1
  H  H117  1  0.12033600  0.20090700  0.51595600  1
  H  H118  1  0.30468000  0.96013100  0.07174500  1
  H  H119  1  0.03986900  0.69532000  0.42825500  1
  H  H120  1  0.69532000  0.03986900  0.92825500  1
  H  H121  1  0.96013100  0.30468000  0.57174500  1
  C  C122  1  0.02044200  0.44133000  0.08897400  1
  C  C123  1  0.55867000  0.97955800  0.41102600  1
  C  C124  1  0.97955800  0.55867000  0.91102600  1
  C  C125  1  0.44133000  0.02044200  0.58897400  1
  C  C126  1  0.39690700  0.34660600  0.07175300  1
  C  C127  1  0.65339400  0.60309300  0.42824700  1
  C  C128  1  0.60309300  0.65339400  0.92824700  1
  C  C129  1  0.34660600  0.39690700  0.57175300  1
  C  C130  1  0.14539700  0.69675600  0.04063800  1
  C  C131  1  0.30324400  0.85460300  0.45936200  1
  C  C132  1  0.85460300  0.30324400  0.95936200  1
  C  C133  1  0.69675600  0.14539700  0.54063800  1
  C  C134  1  0.16382500  0.53613500  0.16904400  1
  C  C135  1  0.46386500  0.83617500  0.33095600  1
  C  C136  1  0.83617500  0.46386500  0.83095600  1
  C  C137  1  0.53613500  0.16382500  0.66904400  1
  C  C138  1  0.74773400  0.78669400  0.13027100  1
  C  C139  1  0.21330600  0.25226600  0.36972900  1
  C  C140  1  0.25226600  0.21330600  0.86972900  1
  C  C141  1  0.78669400  0.74773400  0.63027100  1
  C  C142  1  0.79668200  0.48016300  0.21822300  1
  C  C143  1  0.51983700  0.20331800  0.28177700  1
  C  C144  1  0.20331800  0.51983700  0.78177700  1
  C  C145  1  0.48016300  0.79668200  0.71822300  1
  C  C146  1  0.63994800  0.57106000  0.11215900  1
  C  C147  1  0.42894000  0.36005200  0.38784100  1
  C  C148  1  0.36005200  0.42894000  0.88784100  1
  C  C149  1  0.57106000  0.63994800  0.61215900  1
  C  C150  1  0.20182500  0.11833700  0.18331300  1
  C  C151  1  0.88166300  0.79817500  0.31668700  1
  C  C152  1  0.79817500  0.88166300  0.81668700  1
  C  C153  1  0.11833700  0.20182500  0.68331300  1
  C  C154  1  0.94116900  0.14264400  0.13385600  1
  C  C155  1  0.85735600  0.05883100  0.36614400  1
  C  C156  1  0.05883100  0.85735600  0.86614400  1
  C  C157  1  0.14264400  0.94116900  0.63385600  1
  C  C158  1  0.25718300  0.09208100  0.05454300  1
  C  C159  1  0.90791900  0.74281700  0.44545700  1
  C  C160  1  0.74281700  0.90791900  0.94545700  1
  C  C161  1  0.09208100  0.25718300  0.55454300  1
