# generated using pymatgen
data_K5Mo3H2S4O2F11
_symmetry_space_group_name_H-M   'P 1'
_cell_length_a   8.86676502
_cell_length_b   8.86676502
_cell_length_c   15.17393900
_cell_angle_alpha   90.00000000
_cell_angle_beta   90.00000000
_cell_angle_gamma   118.66977374
_symmetry_Int_Tables_number   1
_chemical_formula_structural   K5Mo3H2S4O2F11
_chemical_formula_sum   'K10 Mo6 H4 S8 O4 F22'
_cell_volume   1046.70923815
_cell_formula_units_Z   2
loop_
 _symmetry_equiv_pos_site_id
 _symmetry_equiv_pos_as_xyz
  1  'x, y, z'
loop_
 _atom_site_type_symbol
 _atom_site_label
 _atom_site_symmetry_multiplicity
 _atom_site_fract_x
 _atom_site_fract_y
 _atom_site_fract_z
 _atom_site_occupancy
  K  K0  1  0.61673100  0.61673100  0.64625400  1
  K  K1  1  0.38326900  0.38326900  0.14625400  1
  K  K2  1  0.52297200  0.19583900  0.94204400  1
  K  K3  1  0.19583900  0.52297200  0.94204400  1
  K  K4  1  0.47702800  0.80416100  0.44204400  1
  K  K5  1  0.80416100  0.47702800  0.44204400  1
  K  K6  1  0.15354900  0.67896300  0.65256700  1
  K  K7  1  0.67896300  0.15354900  0.65256700  1
  K  K8  1  0.84645100  0.32103700  0.15256700  1
  K  K9  1  0.32103700  0.84645100  0.15256700  1
  Mo  Mo10  1  0.05881100  0.05881100  0.99870100  1
  Mo  Mo11  1  0.94118900  0.94118900  0.49870100  1
  Mo  Mo12  1  0.67428600  0.86028600  0.98616200  1
  Mo  Mo13  1  0.86028600  0.67428600  0.98616200  1
  Mo  Mo14  1  0.32571400  0.13971400  0.48616200  1
  Mo  Mo15  1  0.13971400  0.32571400  0.48616200  1
  H  H16  1  0.47399000  0.85528800  0.81782300  1
  H  H17  1  0.85528800  0.47399000  0.81782300  1
  H  H18  1  0.52601000  0.14471200  0.31782300  1
  H  H19  1  0.14471200  0.52601000  0.31782300  1
  S  S20  1  0.85445700  0.85445700  0.10289900  1
  S  S21  1  0.14554300  0.14554300  0.60289900  1
  S  S22  1  0.65582700  0.65582700  0.88493100  1
  S  S23  1  0.34417300  0.34417300  0.38493100  1
  S  S24  1  0.87185200  0.09992900  0.90278700  1
  S  S25  1  0.09992900  0.87185200  0.90278700  1
  S  S26  1  0.12814800  0.90007100  0.40278700  1
  S  S27  1  0.90007100  0.12814800  0.40278700  1
  O  O28  1  0.31339600  0.39447500  0.76732900  1
  O  O29  1  0.39447500  0.31339600  0.76732900  1
  O  O30  1  0.68660400  0.60552500  0.26732900  1
  O  O31  1  0.60552500  0.68660400  0.26732900  1
  F  F32  1  0.26990000  0.26990000  0.94390400  1
  F  F33  1  0.73010000  0.73010000  0.44390400  1
  F  F34  1  0.74643700  0.92568900  0.58140600  1
  F  F35  1  0.92568900  0.74643700  0.58140600  1
  F  F36  1  0.25356300  0.07431100  0.08140600  1
  F  F37  1  0.07431100  0.25356300  0.08140600  1
  F  F38  1  0.61885500  0.02626300  0.06024500  1
  F  F39  1  0.02626300  0.61885500  0.06024500  1
  F  F40  1  0.38114500  0.97373700  0.56024500  1
  F  F41  1  0.97373700  0.38114500  0.56024500  1
  F  F42  1  0.45756100  0.68194400  0.05570300  1
  F  F43  1  0.68194400  0.45756100  0.05570300  1
  F  F44  1  0.54243900  0.31805600  0.55570300  1
  F  F45  1  0.31805600  0.54243900  0.55570300  1
  F  F46  1  0.47391200  0.87194700  0.90388200  1
  F  F47  1  0.87194700  0.47391200  0.90388200  1
  F  F48  1  0.52608800  0.12805300  0.40388200  1
  F  F49  1  0.12805300  0.52608800  0.40388200  1
  F  F50  1  0.46630100  0.84137900  0.74970300  1
  F  F51  1  0.84137900  0.46630100  0.74970300  1
  F  F52  1  0.53369900  0.15862100  0.24970300  1
  F  F53  1  0.15862100  0.53369900  0.24970300  1
