# generated using pymatgen
data_MnTe4(H3N)6
_symmetry_space_group_name_H-M   'P 1'
_cell_length_a   18.65593700
_cell_length_b   9.07553900
_cell_length_c   12.68593657
_cell_angle_alpha   52.06619428
_cell_angle_beta   90.00000000
_cell_angle_gamma   90.00000000
_symmetry_Int_Tables_number   1
_chemical_formula_structural   MnTe4(H3N)6
_chemical_formula_sum   'Mn4 Te16 H72 N24'
_cell_volume   1694.08701048
_cell_formula_units_Z   4
loop_
 _symmetry_equiv_pos_site_id
 _symmetry_equiv_pos_as_xyz
  1  'x, y, z'
loop_
 _atom_site_type_symbol
 _atom_site_label
 _atom_site_symmetry_multiplicity
 _atom_site_fract_x
 _atom_site_fract_y
 _atom_site_fract_z
 _atom_site_occupancy
  Mn  Mn0  1  0.84390300  0.74869700  0.20622200  1
  Mn  Mn1  1  0.65609700  0.74869700  0.70622200  1
  Mn  Mn2  1  0.15609700  0.25130300  0.79377800  1
  Mn  Mn3  1  0.34390300  0.25130300  0.29377800  1
  Te  Te4  1  0.66753600  0.16819500  0.18126500  1
  Te  Te5  1  0.83246400  0.16819500  0.68126500  1
  Te  Te6  1  0.33246400  0.83180500  0.81873500  1
  Te  Te7  1  0.16753600  0.83180500  0.31873500  1
  Te  Te8  1  0.55441200  0.03023900  0.11700400  1
  Te  Te9  1  0.94558800  0.03023900  0.61700400  1
  Te  Te10  1  0.44558800  0.96976100  0.88299600  1
  Te  Te11  1  0.05441200  0.96976100  0.38299600  1
  Te  Te12  1  0.54099800  0.65041700  0.32838700  1
  Te  Te13  1  0.95900200  0.65041700  0.82838700  1
  Te  Te14  1  0.45900200  0.34958300  0.67161300  1
  Te  Te15  1  0.04099800  0.34958300  0.17161300  1
  Te  Te16  1  0.60611400  0.42954600  0.25748600  1
  Te  Te17  1  0.89388600  0.42954600  0.75748600  1
  Te  Te18  1  0.39388600  0.57045400  0.74251400  1
  Te  Te19  1  0.10611400  0.57045400  0.24251400  1
  H  H20  1  0.72569300  0.97322600  0.06111300  1
  H  H21  1  0.77430700  0.97322600  0.56111300  1
  H  H22  1  0.27430700  0.02677400  0.93888700  1
  H  H23  1  0.22569300  0.02677400  0.43888700  1
  H  H24  1  0.76905200  0.94515800  0.96081500  1
  H  H25  1  0.73094800  0.94515800  0.46081500  1
  H  H26  1  0.23094800  0.05484200  0.03918500  1
  H  H27  1  0.26905200  0.05484200  0.53918500  1
  H  H28  1  0.71419400  0.77962200  0.07911800  1
  H  H29  1  0.78580600  0.77962200  0.57911800  1
  H  H30  1  0.28580600  0.22037800  0.92088200  1
  H  H31  1  0.21419400  0.22037800  0.42088200  1
  H  H32  1  0.77912500  0.58147900  0.45756100  1
  H  H33  1  0.72087500  0.58147900  0.95756100  1
  H  H34  1  0.22087500  0.41852100  0.54243900  1
  H  H35  1  0.27912500  0.41852100  0.04243900  1
  H  H36  1  0.73300900  0.77576200  0.34501600  1
  H  H37  1  0.76699100  0.77576200  0.84501600  1
  H  H38  1  0.26699100  0.22423800  0.65498400  1
  H  H39  1  0.23300900  0.22423800  0.15498400  1
  H  H40  1  0.71873500  0.58354400  0.36186100  1
  H  H41  1  0.78126500  0.58354400  0.86186100  1
  H  H42  1  0.28126500  0.41645600  0.63813900  1
  H  H43  1  0.21873500  0.41645600  0.13813900  1
  H  H44  1  0.83567000  0.35932500  0.35403900  1
  H  H45  1  0.66433000  0.35932500  0.85403900  1
  H  H46  1  0.16433000  0.64067500  0.64596100  1
  H  H47  1  0.33567000  0.64067500  0.14596100  1
  H  H48  1  0.77951800  0.44575500  0.22904000  1
  H  H49  1  0.72048200  0.44575500  0.72904000  1
  H  H50  1  0.22048200  0.55424500  0.77096000  1
  H  H51  1  0.27951800  0.55424500  0.27096000  1
  H  H52  1  0.86699400  0.43654000  0.20696400  1
  H  H53  1  0.63300600  0.43654000  0.70696400  1
  H  H54  1  0.13300600  0.56346000  0.79303600  1
  H  H55  1  0.36699400  0.56346000  0.29303600  1
  H  H56  1  0.94923400  0.71675200  0.37760800  1
  H  H57  1  0.55076600  0.71675200  0.87760800  1
  H  H58  1  0.05076600  0.28324800  0.62239200  1
  H  H59  1  0.44923400  0.28324800  0.12239200  1
  H  H60  1  0.90938000  0.51283300  0.45743400  1
  H  H61  1  0.59062000  0.51283300  0.95743400  1
  H  H62  1  0.09062000  0.48716700  0.54256600  1
  H  H63  1  0.40938000  0.48716700  0.04256600  1
  H  H64  1  0.97191300  0.57634200  0.34341500  1
  H  H65  1  0.52808700  0.57634200  0.84341500  1
  H  H66  1  0.02808700  0.42365800  0.65658500  1
  H  H67  1  0.47191300  0.42365800  0.15658500  1
  H  H68  1  0.91860700  0.97089700  0.96314400  1
  H  H69  1  0.58139300  0.97089700  0.46314400  1
  H  H70  1  0.08139300  0.02910300  0.03685600  1
  H  H71  1  0.41860700  0.02910300  0.53685600  1
  H  H72  1  0.97370700  0.80273300  0.07903500  1
  H  H73  1  0.52629300  0.80273300  0.57903500  1
  H  H74  1  0.02629300  0.19726700  0.92096500  1
  H  H75  1  0.47370700  0.19726700  0.42096500  1
  H  H76  1  0.91628700  0.76264400  0.00158200  1
  H  H77  1  0.58371300  0.76264400  0.50158200  1
  H  H78  1  0.08371300  0.23735600  0.99841800  1
  H  H79  1  0.41628700  0.23735600  0.49841800  1
  H  H80  1  0.87284400  0.13783300  0.05790700  1
  H  H81  1  0.62715600  0.13783300  0.55790700  1
  H  H82  1  0.12715600  0.86216700  0.94209300  1
  H  H83  1  0.37284400  0.86216700  0.44209300  1
  H  H84  1  0.82117800  0.07294900  0.18470800  1
  H  H85  1  0.67882200  0.07294900  0.68470800  1
  H  H86  1  0.17882200  0.92705100  0.81529200  1
  H  H87  1  0.32117800  0.92705100  0.31529200  1
  H  H88  1  0.90850700  0.03237400  0.20745800  1
  H  H89  1  0.59149300  0.03237400  0.70745800  1
  H  H90  1  0.09149300  0.96762600  0.79254200  1
  H  H91  1  0.40850700  0.96762600  0.29254200  1
  N  N92  1  0.75199400  0.87699600  0.05745100  1
  N  N93  1  0.74800600  0.87699600  0.55745100  1
  N  N94  1  0.24800600  0.12300400  0.94254900  1
  N  N95  1  0.25199400  0.12300400  0.44254900  1
  N  N96  1  0.75824100  0.66174900  0.36289100  1
  N  N97  1  0.74175900  0.66174900  0.86289100  1
  N  N98  1  0.24175900  0.33825100  0.63710900  1
  N  N99  1  0.25824100  0.33825100  0.13710900  1
  N  N100  1  0.82987500  0.46246700  0.25313300  1
  N  N101  1  0.67012500  0.46246700  0.75313300  1
  N  N102  1  0.17012500  0.53753300  0.74686700  1
  N  N103  1  0.32987500  0.53753300  0.24686700  1
  N  N104  1  0.92839400  0.62354200  0.36527700  1
  N  N105  1  0.57160600  0.62354200  0.86527700  1
  N  N106  1  0.07160600  0.37645800  0.63472300  1
  N  N107  1  0.42839400  0.37645800  0.13472300  1
  N  N108  1  0.92224400  0.83108000  0.04205900  1
  N  N109  1  0.57775600  0.83108000  0.54205900  1
  N  N110  1  0.07775600  0.16892000  0.95794100  1
  N  N111  1  0.42224400  0.16892000  0.45794100  1
  N  N112  1  0.86475800  0.03260000  0.15846300  1
  N  N113  1  0.63524200  0.03260000  0.65846300  1
  N  N114  1  0.13524200  0.96740000  0.84153700  1
  N  N115  1  0.36475800  0.96740000  0.34153700  1
