# generated using pymatgen
data_ZrS2O13
_symmetry_space_group_name_H-M   'P 1'
_cell_length_a   6.78018900
_cell_length_b   8.08431934
_cell_length_c   11.79922437
_cell_angle_alpha   98.55372552
_cell_angle_beta   101.08516052
_cell_angle_gamma   106.49168645
_symmetry_Int_Tables_number   1
_chemical_formula_structural   ZrS2O13
_chemical_formula_sum   'Zr2 S4 O26'
_cell_volume   594.20011903
_cell_formula_units_Z   2
loop_
 _symmetry_equiv_pos_site_id
 _symmetry_equiv_pos_as_xyz
  1  'x, y, z'
loop_
 _atom_site_type_symbol
 _atom_site_label
 _atom_site_symmetry_multiplicity
 _atom_site_fract_x
 _atom_site_fract_y
 _atom_site_fract_z
 _atom_site_occupancy
  Zr  Zr0  1  0.93593500  0.76233100  0.81291900  1
  Zr  Zr1  1  0.06406500  0.23766900  0.18708100  1
  S  S2  1  0.93094000  0.75581200  0.56960100  1
  S  S3  1  0.06906000  0.24418800  0.43039900  1
  S  S4  1  0.25722400  0.20299500  0.93693900  1
  S  S5  1  0.74277600  0.79700500  0.06306100  1
  O  O6  1  0.14931000  0.65745200  0.84676500  1
  O  O7  1  0.85069000  0.34254800  0.15323500  1
  O  O8  1  0.75525300  0.71943200  0.93989100  1
  O  O9  1  0.24474700  0.28056800  0.06010900  1
  O  O10  1  0.88241400  0.60191600  0.63547600  1
  O  O11  1  0.11758600  0.39808400  0.36452400  1
  O  O12  1  0.95321800  0.90924400  0.66938600  1
  O  O13  1  0.04678200  0.09075600  0.33061400  1
  O  O14  1  0.50441800  0.88289800  0.74393100  1
  O  O15  1  0.49558200  0.11710200  0.25606900  1
  O  O16  1  0.67372700  0.34759000  0.76325900  1
  O  O17  1  0.32627300  0.65241000  0.23674100  1
  O  O18  1  0.51656800  0.73592500  0.70770000  1
  O  O19  1  0.48343200  0.26407500  0.29230000  1
  O  O20  1  0.12863000  0.77922200  0.53418200  1
  O  O21  1  0.87137000  0.22077800  0.46581800  1
  O  O22  1  0.24849100  0.27453600  0.52961300  1
  O  O23  1  0.75151000  0.72546400  0.47038700  1
  O  O24  1  0.16497300  0.28751200  0.85045800  1
  O  O25  1  0.83502700  0.71248800  0.14954200  1
  O  O26  1  0.11997600  0.00888900  0.91474400  1
  O  O27  1  0.88002400  0.99111100  0.08525600  1
  O  O28  1  0.47478000  0.21107700  0.93740700  1
  O  O29  1  0.52522000  0.78892300  0.06259300  1
  O  O30  1  0.64616500  0.23359700  0.67681100  1
  O  O31  1  0.35383500  0.76640300  0.32318900  1
