# generated using pymatgen
data_NiH24C6S6(N7O3)2
_symmetry_space_group_name_H-M   'P 1'
_cell_length_a   9.62435500
_cell_length_b   12.50701138
_cell_length_c   13.77945900
_cell_angle_alpha   78.96494274
_cell_angle_beta   69.55987398
_cell_angle_gamma   67.37125619
_symmetry_Int_Tables_number   1
_chemical_formula_structural   NiH24C6S6(N7O3)2
_chemical_formula_sum   'Ni2 H48 C12 S12 N28 O12'
_cell_volume   1431.45494914
_cell_formula_units_Z   2
loop_
 _symmetry_equiv_pos_site_id
 _symmetry_equiv_pos_as_xyz
  1  'x, y, z'
loop_
 _atom_site_type_symbol
 _atom_site_label
 _atom_site_symmetry_multiplicity
 _atom_site_fract_x
 _atom_site_fract_y
 _atom_site_fract_z
 _atom_site_occupancy
  Ni  Ni0  1  0.50000000  0.50000000  0.00000000  1
  Ni  Ni1  1  0.00000000  0.00000000  0.50000000  1
  H  H2  1  0.85407800  0.03009100  0.91155300  1
  H  H3  1  0.79572300  0.46990900  0.58844700  1
  H  H4  1  0.14592200  0.96990900  0.08844700  1
  H  H5  1  0.20427700  0.53009100  0.41155300  1
  H  H6  1  0.95520200  0.12889000  0.86775800  1
  H  H7  1  0.95185000  0.37111000  0.63224200  1
  H  H8  1  0.04479800  0.87111000  0.13224200  1
  H  H9  1  0.04815000  0.62889000  0.36775800  1
  H  H10  1  0.58124600  0.09860400  0.99383300  1
  H  H11  1  0.67368300  0.40139600  0.50616700  1
  H  H12  1  0.41875400  0.90139600  0.00616700  1
  H  H13  1  0.32631700  0.59860400  0.49383300  1
  H  H14  1  0.47818700  0.24916500  0.99628100  1
  H  H15  1  0.72363300  0.25083500  0.50371900  1
  H  H16  1  0.52181300  0.75083500  0.00371900  1
  H  H17  1  0.27636700  0.74916500  0.49628100  1
  H  H18  1  0.40762700  0.39760300  0.71434100  1
  H  H19  1  0.51957100  0.10239700  0.78565900  1
  H  H20  1  0.59237300  0.60239700  0.28565900  1
  H  H21  1  0.48042900  0.89760300  0.21434100  1
  H  H22  1  0.51077700  0.40670400  0.79480200  1
  H  H23  1  0.71228200  0.09329600  0.70519800  1
  H  H24  1  0.48922300  0.59329600  0.20519800  1
  H  H25  1  0.28771800  0.90670400  0.29480200  1
  H  H26  1  0.15308600  0.40462700  0.78259100  1
  H  H27  1  0.34030400  0.09537300  0.71740900  1
  H  H28  1  0.84691400  0.59537300  0.21740900  1
  H  H29  1  0.65969600  0.90462700  0.28259100  1
  H  H30  1  0.04615500  0.44031900  0.91175500  1
  H  H31  1  0.39822900  0.05968100  0.58824500  1
  H  H32  1  0.95384500  0.55968100  0.08824500  1
  H  H33  1  0.60177100  0.94031900  0.41175500  1
  H  H34  1  0.15333800  0.78001700  0.82779300  1
  H  H35  1  0.76114900  0.71998300  0.67220700  1
  H  H36  1  0.84666200  0.21998300  0.17220700  1
  H  H37  1  0.23885100  0.28001700  0.32779300  1
  H  H38  1  0.22621700  0.70519000  0.93116700  1
  H  H39  1  0.86257400  0.79481000  0.56883300  1
  H  H40  1  0.77378300  0.29481000  0.06883300  1
  H  H41  1  0.13742600  0.20519000  0.43116700  1
  H  H42  1  0.31678800  0.78505900  0.66384400  1
  H  H43  1  0.76569100  0.71494100  0.83615600  1
  H  H44  1  0.68321200  0.21494100  0.33615600  1
  H  H45  1  0.23430900  0.28505900  0.16384400  1
  H  H46  1  0.51867100  0.70244200  0.63242100  1
  H  H47  1  0.85353500  0.79755800  0.86757900  1
  H  H48  1  0.48132900  0.29755800  0.36757900  1
  H  H49  1  0.14646500  0.20244200  0.13242100  1
  C  C50  1  0.71604300  0.20310700  0.92773200  1
  C  C51  1  0.84688300  0.29689300  0.57226800  1
  C  C52  1  0.28395700  0.79689300  0.07226800  1
  C  C53  1  0.15311700  0.70310700  0.42773200  1
  C  C54  1  0.27930900  0.42492400  0.86722900  1
  C  C55  1  0.57146200  0.07507600  0.63277100  1
  C  C56  1  0.72069100  0.57507600  0.13277100  1
  C  C57  1  0.42853800  0.92492400  0.36722900  1
  C  C58  1  0.39275700  0.69576200  0.78767600  1
  C  C59  1  0.87619500  0.80423800  0.71232400  1
  C  C60  1  0.60724300  0.30423800  0.21232400  1
  C  C61  1  0.12380500  0.19576200  0.28767600  1
  S  S62  1  0.72367900  0.34103000  0.90051300  1
  S  S63  1  0.96522200  0.15897000  0.59948700  1
  S  S64  1  0.27632100  0.65897000  0.09948700  1
  S  S65  1  0.03477800  0.84103000  0.40051300  1
  S  S66  1  0.27263600  0.44880500  0.98805500  1
  S  S67  1  0.70949600  0.05119500  0.51194500  1
  S  S68  1  0.72736400  0.55119500  0.01194500  1
  S  S69  1  0.29050400  0.94880500  0.48805500  1
  S  S70  1  0.55629200  0.60949500  0.82478400  1
  S  S71  1  0.99057200  0.89050500  0.67521600  1
  S  S72  1  0.44370800  0.39050500  0.17521600  1
  S  S73  1  0.00942800  0.10949500  0.32478400  1
  N  N74  1  0.85084000  0.11396000  0.89615200  1
  N  N75  1  0.86095200  0.38604000  0.60384800  1
  N  N76  1  0.14916000  0.88604000  0.10384800  1
  N  N77  1  0.13904800  0.61396000  0.39615200  1
  N  N78  1  0.58228700  0.18143200  0.97695300  1
  N  N79  1  0.74067200  0.31856800  0.52304700  1
  N  N80  1  0.41771300  0.81856800  0.02304700  1
  N  N81  1  0.25932800  0.68143200  0.47695300  1
  N  N82  1  0.41086300  0.40468200  0.78641200  1
  N  N83  1  0.60195700  0.09531800  0.71358800  1
  N  N84  1  0.58913700  0.59531800  0.21358800  1
  N  N85  1  0.39804300  0.90468200  0.28641200  1
  N  N86  1  0.14915800  0.42441900  0.85269400  1
  N  N87  1  0.42627200  0.07558100  0.64730600  1
  N  N88  1  0.85084200  0.57558100  0.14730600  1
  N  N89  1  0.57372800  0.92441900  0.35269400  1
  N  N90  1  0.24641800  0.72850600  0.85372900  1
  N  N91  1  0.82865300  0.77149400  0.64627100  1
  N  N92  1  0.75358200  0.27149400  0.14627100  1
  N  N93  1  0.17134700  0.22850600  0.35372900  1
  N  N94  1  0.41193200  0.73317600  0.68762000  1
  N  N95  1  0.83272900  0.76682400  0.81238000  1
  N  N96  1  0.58806800  0.26682400  0.31238000  1
  N  N97  1  0.16727100  0.23317600  0.18762000  1
  N  N98  1  0.21416600  0.12198700  0.93358000  1
  N  N99  1  0.26973300  0.37801300  0.56642000  1
  N  N100  1  0.78583400  0.87801300  0.06642000  1
  N  N101  1  0.73026700  0.62198700  0.43358000  1
  O  O102  1  0.10720200  0.14404300  0.02059900  1
  O  O103  1  0.27184400  0.35595700  0.47940100  1
  O  O104  1  0.89279800  0.85595700  0.97940100  1
  O  O105  1  0.72815600  0.64404300  0.52059900  1
  O  O106  1  0.17657900  0.13429200  0.85166800  1
  O  O107  1  0.16253800  0.36570800  0.64833200  1
  O  O108  1  0.82342100  0.86570800  0.14833200  1
  O  O109  1  0.83746200  0.63429200  0.35166800  1
  O  O110  1  0.35900600  0.08628600  0.92941900  1
  O  O111  1  0.37471100  0.41371400  0.57058100  1
  O  O112  1  0.64099400  0.91371400  0.07058100  1
  O  O113  1  0.62528900  0.58628600  0.42941900  1
