# generated using pymatgen
data_Ba2Fe3(P2O9)2
_symmetry_space_group_name_H-M   'P 1'
_cell_length_a   6.67401400
_cell_length_b   10.70029800
_cell_length_c   22.00389800
_cell_angle_alpha   90.00000000
_cell_angle_beta   90.00000000
_cell_angle_gamma   90.00000000
_symmetry_Int_Tables_number   1
_chemical_formula_structural   Ba2Fe3(P2O9)2
_chemical_formula_sum   'Ba8 Fe12 P16 O72'
_cell_volume   1571.38502197
_cell_formula_units_Z   4
loop_
 _symmetry_equiv_pos_site_id
 _symmetry_equiv_pos_as_xyz
  1  'x, y, z'
loop_
 _atom_site_type_symbol
 _atom_site_label
 _atom_site_symmetry_multiplicity
 _atom_site_fract_x
 _atom_site_fract_y
 _atom_site_fract_z
 _atom_site_occupancy
  Ba  Ba0  1  0.60950200  0.00428900  0.17552000  1
  Ba  Ba1  1  0.10950200  0.49571100  0.82448000  1
  Ba  Ba2  1  0.39049800  0.50428900  0.32448000  1
  Ba  Ba3  1  0.89049800  0.99571100  0.67552000  1
  Ba  Ba4  1  0.39049800  0.99571100  0.82448000  1
  Ba  Ba5  1  0.89049800  0.50428900  0.17552000  1
  Ba  Ba6  1  0.60950200  0.49571100  0.67552000  1
  Ba  Ba7  1  0.10950200  0.00428900  0.32448000  1
  Fe  Fe8  1  0.50000000  0.50000000  0.00000000  1
  Fe  Fe9  1  0.00000000  0.00000000  0.00000000  1
  Fe  Fe10  1  0.50000000  0.00000000  0.50000000  1
  Fe  Fe11  1  0.00000000  0.50000000  0.50000000  1
  Fe  Fe12  1  0.74895900  0.75008900  0.91687100  1
  Fe  Fe13  1  0.24895900  0.74991100  0.08312900  1
  Fe  Fe14  1  0.25104100  0.25008900  0.58312900  1
  Fe  Fe15  1  0.75104100  0.24991100  0.41687100  1
  Fe  Fe16  1  0.25104100  0.24991100  0.08312900  1
  Fe  Fe17  1  0.75104100  0.25008900  0.91687100  1
  Fe  Fe18  1  0.74895900  0.74991100  0.41687100  1
  Fe  Fe19  1  0.24895900  0.75008900  0.58312900  1
  P  P20  1  0.10414200  0.99977300  0.14549100  1
  P  P21  1  0.60414200  0.50022700  0.85450900  1
  P  P22  1  0.89585800  0.49977300  0.35450900  1
  P  P23  1  0.39585800  0.00022700  0.64549100  1
  P  P24  1  0.89585800  0.00022700  0.85450900  1
  P  P25  1  0.39585800  0.49977300  0.14549100  1
  P  P26  1  0.10414200  0.50022700  0.64549100  1
  P  P27  1  0.60414200  0.99977300  0.35450900  1
  P  P28  1  0.74830800  0.75053600  0.04347300  1
  P  P29  1  0.24830800  0.74946400  0.95652700  1
  P  P30  1  0.25169200  0.25053600  0.45652700  1
  P  P31  1  0.75169200  0.24946400  0.54347300  1
  P  P32  1  0.25169200  0.24946400  0.95652700  1
  P  P33  1  0.75169200  0.25053600  0.04347300  1
  P  P34  1  0.74830800  0.74946400  0.54347300  1
  P  P35  1  0.24830800  0.75053600  0.45652700  1
  O  O36  1  0.29253500  0.35866800  0.00425400  1
  O  O37  1  0.79253500  0.14133200  0.99574600  1
  O  O38  1  0.70746500  0.85866800  0.49574600  1
  O  O39  1  0.20746500  0.64133200  0.50425400  1
  O  O40  1  0.70746500  0.64133200  0.99574600  1
  O  O41  1  0.20746500  0.85866800  0.00425400  1
  O  O42  1  0.29253500  0.14133200  0.50425400  1
  O  O43  1  0.79253500  0.35866800  0.49574600  1
  O  O44  1  0.29003700  0.64029500  0.00414100  1
  O  O45  1  0.79003700  0.85970500  0.99585900  1
  O  O46  1  0.70996300  0.14029500  0.49585900  1
  O  O47  1  0.20996300  0.35970500  0.50414100  1
  O  O48  1  0.70996300  0.35970500  0.99585900  1
  O  O49  1  0.20996300  0.14029500  0.00414100  1
  O  O50  1  0.29003700  0.85970500  0.50414100  1
  O  O51  1  0.79003700  0.64029500  0.49585900  1
  O  O52  1  0.95540800  0.99990200  0.09094700  1
  O  O53  1  0.45540800  0.50009800  0.90905300  1
  O  O54  1  0.04459200  0.49990200  0.40905300  1
  O  O55  1  0.54459200  0.00009800  0.59094700  1
  O  O56  1  0.04459200  0.00009800  0.90905300  1
  O  O57  1  0.54459200  0.49990200  0.09094700  1
  O  O58  1  0.95540800  0.50009800  0.59094700  1
  O  O59  1  0.45540800  0.99990200  0.40905300  1
  O  O60  1  0.24550800  0.88457300  0.14124700  1
  O  O61  1  0.74550800  0.61542700  0.85875300  1
  O  O62  1  0.75449200  0.38457300  0.35875300  1
  O  O63  1  0.25449200  0.11542700  0.64124700  1
  O  O64  1  0.75449200  0.11542700  0.85875300  1
  O  O65  1  0.25449200  0.38457300  0.14124700  1
  O  O66  1  0.24550800  0.61542700  0.64124700  1
  O  O67  1  0.74550800  0.88457300  0.35875300  1
  O  O68  1  0.24740700  0.11416900  0.14051700  1
  O  O69  1  0.74740700  0.38583100  0.85948300  1
  O  O70  1  0.75259300  0.61416900  0.35948300  1
  O  O71  1  0.25259300  0.88583100  0.64051700  1
  O  O72  1  0.75259300  0.88583100  0.85948300  1
  O  O73  1  0.25259300  0.61416900  0.14051700  1
  O  O74  1  0.24740700  0.38583100  0.64051700  1
  O  O75  1  0.74740700  0.11416900  0.35948300  1
  O  O76  1  0.99296400  0.00115100  0.20586300  1
  O  O77  1  0.49296400  0.49884900  0.79413700  1
  O  O78  1  0.00703600  0.50115100  0.29413700  1
  O  O79  1  0.50703600  0.99884900  0.70586300  1
  O  O80  1  0.00703600  0.99884900  0.79413700  1
  O  O81  1  0.50703600  0.50115100  0.20586300  1
  O  O82  1  0.99296400  0.49884900  0.70586300  1
  O  O83  1  0.49296400  0.00115100  0.29413700  1
  O  O84  1  0.93358100  0.71996500  0.08184700  1
  O  O85  1  0.43358100  0.78003500  0.91815300  1
  O  O86  1  0.06641900  0.21996500  0.41815300  1
  O  O87  1  0.56641900  0.28003500  0.58184700  1
  O  O88  1  0.06641900  0.28003500  0.91815300  1
  O  O89  1  0.56641900  0.21996500  0.08184700  1
  O  O90  1  0.93358100  0.78003500  0.58184700  1
  O  O91  1  0.43358100  0.71996500  0.41815300  1
  O  O92  1  0.56204500  0.78078300  0.08135700  1
  O  O93  1  0.06204500  0.71921700  0.91864300  1
  O  O94  1  0.43795500  0.28078300  0.41864300  1
  O  O95  1  0.93795500  0.21921700  0.58135700  1
  O  O96  1  0.43795500  0.21921700  0.91864300  1
  O  O97  1  0.93795500  0.28078300  0.08135700  1
  O  O98  1  0.56204500  0.71921700  0.58135700  1
  O  O99  1  0.06204500  0.78078300  0.41864300  1
  O  O100  1  0.73250800  0.75236600  0.20991800  1
  O  O101  1  0.23250800  0.74763400  0.79008200  1
  O  O102  1  0.26749200  0.25236600  0.29008200  1
  O  O103  1  0.76749200  0.24763400  0.70991800  1
  O  O104  1  0.26749200  0.24763400  0.79008200  1
  O  O105  1  0.76749200  0.25236600  0.20991800  1
  O  O106  1  0.73250800  0.74763400  0.70991800  1
  O  O107  1  0.23250800  0.75236600  0.29008200  1
