# generated using pymatgen
data_Mn6Ga29
_symmetry_space_group_name_H-M   'P 1'
_cell_length_a   6.30805200
_cell_length_b   9.94309095
_cell_length_c   18.91275586
_cell_angle_alpha   90.54833838
_cell_angle_beta   91.03770751
_cell_angle_gamma   90.42918541
_symmetry_Int_Tables_number   1
_chemical_formula_structural   Mn6Ga29
_chemical_formula_sum   'Mn12 Ga58'
_cell_volume   1185.95336320
_cell_formula_units_Z   2
loop_
 _symmetry_equiv_pos_site_id
 _symmetry_equiv_pos_as_xyz
  1  'x, y, z'
loop_
 _atom_site_type_symbol
 _atom_site_label
 _atom_site_symmetry_multiplicity
 _atom_site_fract_x
 _atom_site_fract_y
 _atom_site_fract_z
 _atom_site_occupancy
  Mn  Mn0  1  0.99815600  0.15897900  0.66463800  1
  Mn  Mn1  1  0.00184400  0.84102100  0.33536200  1
  Mn  Mn2  1  0.99619700  0.84611100  0.99489300  1
  Mn  Mn3  1  0.00380300  0.15388900  0.00510700  1
  Mn  Mn4  1  0.50521800  0.65392500  0.50393300  1
  Mn  Mn5  1  0.49478200  0.34607500  0.49606700  1
  Mn  Mn6  1  0.50136800  0.33754500  0.83492200  1
  Mn  Mn7  1  0.49863200  0.66245500  0.16507800  1
  Mn  Mn8  1  0.49033500  0.64715800  0.82732500  1
  Mn  Mn9  1  0.50966500  0.35284200  0.17267500  1
  Mn  Mn10  1  0.01314400  0.85010900  0.67166800  1
  Mn  Mn11  1  0.98685600  0.14989100  0.32833200  1
  Ga  Ga12  1  0.97492500  0.42548400  0.66313100  1
  Ga  Ga13  1  0.02507500  0.57451600  0.33686900  1
  Ga  Ga14  1  0.96968600  0.98675600  0.22773000  1
  Ga  Ga15  1  0.03031400  0.01324400  0.77227000  1
  Ga  Ga16  1  0.95390700  0.99284000  0.56222800  1
  Ga  Ga17  1  0.04609300  0.00716000  0.43777200  1
  Ga  Ga18  1  0.94436800  0.60674500  0.97843700  1
  Ga  Ga19  1  0.05563200  0.39325500  0.02156300  1
  Ga  Ga20  1  0.93671100  0.01261000  0.89602500  1
  Ga  Ga21  1  0.06328900  0.98739000  0.10397500  1
  Ga  Ga22  1  0.81673300  0.49143500  0.51927600  1
  Ga  Ga23  1  0.18326700  0.50856500  0.48072400  1
  Ga  Ga24  1  0.81518700  0.51578100  0.17200600  1
  Ga  Ga25  1  0.18481300  0.48421900  0.82799400  1
  Ga  Ga26  1  0.80830600  0.50089900  0.84778900  1
  Ga  Ga27  1  0.19169400  0.49910100  0.15221100  1
  Ga  Ga28  1  0.77788800  0.71334700  0.59847700  1
  Ga  Ga29  1  0.22211200  0.28665300  0.40152300  1
  Ga  Ga30  1  0.76473700  0.74443100  0.42122300  1
  Ga  Ga31  1  0.23526300  0.25556900  0.57877700  1
  Ga  Ga32  1  0.76359800  0.74617700  0.75223100  1
  Ga  Ga33  1  0.23640200  0.25382300  0.24776900  1
  Ga  Ga34  1  0.75546900  0.24673000  0.75217400  1
  Ga  Ga35  1  0.24453100  0.75327000  0.24782600  1
  Ga  Ga36  1  0.75145800  0.75611100  0.08312000  1
  Ga  Ga37  1  0.24854200  0.24388900  0.91688000  1
  Ga  Ga38  1  0.74910200  0.25932100  0.92552300  1
  Ga  Ga39  1  0.25089800  0.74067900  0.07447700  1
  Ga  Ga40  1  0.74071100  0.74926300  0.25427300  1
  Ga  Ga41  1  0.25928900  0.25073700  0.74572700  1
  Ga  Ga42  1  0.73270300  0.23933500  0.58064700  1
  Ga  Ga43  1  0.26729700  0.76066500  0.41935300  1
  Ga  Ga44  1  0.70785100  0.78577800  0.90572500  1
  Ga  Ga45  1  0.29214900  0.21422200  0.09427500  1
  Ga  Ga46  1  0.69149100  0.99553200  0.67679300  1
  Ga  Ga47  1  0.30850900  0.00446800  0.32320700  1
  Ga  Ga48  1  0.68775800  0.99265500  0.35119200  1
  Ga  Ga49  1  0.31224200  0.00734500  0.64880800  1
  Ga  Ga50  1  0.55043000  0.48983400  0.72836300  1
  Ga  Ga51  1  0.44957000  0.51016600  0.27163700  1
  Ga  Ga52  1  0.55240000  0.89393300  0.52381400  1
  Ga  Ga53  1  0.44760000  0.10606700  0.47618600  1
  Ga  Ga54  1  0.48718700  0.92583200  0.16044600  1
  Ga  Ga55  1  0.51281300  0.07416800  0.83955400  1
  Ga  Ga56  1  0.47526100  0.50489100  0.93662600  1
  Ga  Ga57  1  0.52473900  0.49510900  0.06337400  1
  Ga  Ga58  1  0.45384000  0.49450300  0.60323800  1
  Ga  Ga59  1  0.54616000  0.50549700  0.39676200  1
  Ga  Ga60  1  0.36355400  0.85963100  0.77277600  1
  Ga  Ga61  1  0.63644600  0.14036900  0.22722400  1
  Ga  Ga62  1  0.31241800  0.99681400  0.98142600  1
  Ga  Ga63  1  0.68758200  0.00318600  0.01857400  1
  Ga  Ga64  1  0.24548700  0.75643100  0.90705600  1
  Ga  Ga65  1  0.75451300  0.24356900  0.09294400  1
  Ga  Ga66  1  0.23939500  0.74348500  0.58522600  1
  Ga  Ga67  1  0.76060500  0.25651500  0.41477400  1
  Ga  Ga68  1  0.17009200  0.63930800  0.71889100  1
  Ga  Ga69  1  0.82990800  0.36069200  0.28110900  1
