# generated using pymatgen
data_HgC4NCl3
_symmetry_space_group_name_H-M   'P 1'
_cell_length_a   15.50527200
_cell_length_b   7.92266900
_cell_length_c   9.42191159
_cell_angle_alpha   79.38827205
_cell_angle_beta   90.00000000
_cell_angle_gamma   90.00000000
_symmetry_Int_Tables_number   1
_chemical_formula_structural   HgC4NCl3
_chemical_formula_sum   'Hg4 C16 N4 Cl12'
_cell_volume   1137.62265956
_cell_formula_units_Z   4
loop_
 _symmetry_equiv_pos_site_id
 _symmetry_equiv_pos_as_xyz
  1  'x, y, z'
loop_
 _atom_site_type_symbol
 _atom_site_label
 _atom_site_symmetry_multiplicity
 _atom_site_fract_x
 _atom_site_fract_y
 _atom_site_fract_z
 _atom_site_occupancy
  Hg  Hg0  1  0.45868500  0.07195200  0.72771500  1
  Hg  Hg1  1  0.95868500  0.92804800  0.27228500  1
  Hg  Hg2  1  0.40227000  0.61635900  0.69196600  1
  Hg  Hg3  1  0.90227000  0.38364100  0.30803400  1
  C  C4  1  0.62861400  0.46439400  0.22972600  1
  C  C5  1  0.12861400  0.53560600  0.77027400  1
  C  C6  1  0.64548900  0.55807100  0.46543900  1
  C  C7  1  0.14548900  0.44192900  0.53456100  1
  C  C8  1  0.62730800  0.44850700  0.09629100  1
  C  C9  1  0.12730800  0.55149300  0.90370900  1
  C  C10  1  0.62297600  0.42057800  0.96887700  1
  C  C11  1  0.12297600  0.57942200  0.03112300  1
  C  C12  1  0.35057800  0.01885200  0.53511100  1
  C  C13  1  0.85057800  0.98114800  0.46488900  1
  C  C14  1  0.29909700  0.05477100  0.28312700  1
  C  C15  1  0.79909700  0.94522900  0.71687300  1
  C  C16  1  0.20809200  0.07550400  0.05543600  1
  C  C17  1  0.70809200  0.92449600  0.94456400  1
  C  C18  1  0.25128200  0.06348600  0.16989600  1
  C  C19  1  0.75128200  0.93651400  0.83010400  1
  N  N20  1  0.63762800  0.51540700  0.34875200  1
  N  N21  1  0.13762800  0.48459300  0.65124800  1
  N  N22  1  0.32515800  0.03810100  0.41178800  1
  N  N23  1  0.82515800  0.96189900  0.58821200  1
  Cl  Cl24  1  0.56758900  0.93250400  0.61900700  1
  Cl  Cl25  1  0.06758900  0.06749600  0.38099300  1
  Cl  Cl26  1  0.64419300  0.94354700  0.07389200  1
  Cl  Cl27  1  0.14419300  0.05645300  0.92610800  1
  Cl  Cl28  1  0.38690000  0.24203000  0.87057600  1
  Cl  Cl29  1  0.88690000  0.75797000  0.12942400  1
  Cl  Cl30  1  0.63178900  0.42833000  0.79781000  1
  Cl  Cl31  1  0.13178900  0.57167000  0.20219000  1
  Cl  Cl32  1  0.39084400  0.53845800  0.46880300  1
  Cl  Cl33  1  0.89084400  0.46154200  0.53119700  1
  Cl  Cl34  1  0.40670700  0.71101500  0.91139100  1
  Cl  Cl35  1  0.90670700  0.28898500  0.08860900  1
