# generated using pymatgen
data_ErCO4
_symmetry_space_group_name_H-M   'P 1'
_cell_length_a   11.98381952
_cell_length_b   11.98381952
_cell_length_c   9.59918500
_cell_angle_alpha   90.00000000
_cell_angle_beta   90.00000000
_cell_angle_gamma   119.99999735
_symmetry_Int_Tables_number   1
_chemical_formula_structural   ErCO4
_chemical_formula_sum   'Er18 C18 O72'
_cell_volume   1193.86583622
_cell_formula_units_Z   18
loop_
 _symmetry_equiv_pos_site_id
 _symmetry_equiv_pos_as_xyz
  1  'x, y, z'
loop_
 _atom_site_type_symbol
 _atom_site_label
 _atom_site_symmetry_multiplicity
 _atom_site_fract_x
 _atom_site_fract_y
 _atom_site_fract_z
 _atom_site_occupancy
  Er  Er0  1  0.43577900  0.21543000  0.73872800  1
  Er  Er1  1  0.77965200  0.56422100  0.73872800  1
  Er  Er2  1  0.78457000  0.22034800  0.73872800  1
  Er  Er3  1  0.43577900  0.21543000  0.26127200  1
  Er  Er4  1  0.77965200  0.56422100  0.26127200  1
  Er  Er5  1  0.78457000  0.22034800  0.26127200  1
  Er  Er6  1  0.10348500  0.54523700  0.75748400  1
  Er  Er7  1  0.44175100  0.89651500  0.75748400  1
  Er  Er8  1  0.45476300  0.55824900  0.75748400  1
  Er  Er9  1  0.10348500  0.54523700  0.24251600  1
  Er  Er10  1  0.44175100  0.89651500  0.24251600  1
  Er  Er11  1  0.45476300  0.55824900  0.24251600  1
  Er  Er12  1  0.12371600  0.23226700  0.75725500  1
  Er  Er13  1  0.10855100  0.87628400  0.75725500  1
  Er  Er14  1  0.76773300  0.89144900  0.75725500  1
  Er  Er15  1  0.12371600  0.23226700  0.24274500  1
  Er  Er16  1  0.10855100  0.87628400  0.24274500  1
  Er  Er17  1  0.76773300  0.89144900  0.24274500  1
  C  C18  1  0.15713000  0.68048500  0.50000000  1
  C  C19  1  0.52335500  0.84287000  0.50000000  1
  C  C20  1  0.31951500  0.47664500  0.50000000  1
  C  C21  1  0.55360200  0.13014100  0.50000000  1
  C  C22  1  0.57653800  0.44639800  0.50000000  1
  C  C23  1  0.86985900  0.42346200  0.50000000  1
  C  C24  1  0.19841800  0.17493400  0.50000000  1
  C  C25  1  0.97651600  0.80158200  0.50000000  1
  C  C26  1  0.82506600  0.02348400  0.50000000  1
  C  C27  1  0.24614400  0.46281200  0.00000000  1
  C  C28  1  0.21666800  0.75385600  0.00000000  1
  C  C29  1  0.53718800  0.78333200  0.00000000  1
  C  C30  1  0.89226800  0.09712400  0.00000000  1
  C  C31  1  0.20485600  0.10773200  0.00000000  1
  C  C32  1  0.90287600  0.79514400  0.00000000  1
  C  C33  1  0.48422500  0.13278500  0.00000000  1
  C  C34  1  0.64856000  0.51577500  0.00000000  1
  C  C35  1  0.86721500  0.35144000  0.00000000  1
  O  O36  1  0.15174000  0.56915900  0.50000000  1
  O  O37  1  0.41741900  0.84826000  0.50000000  1
  O  O38  1  0.43084100  0.58258100  0.50000000  1
  O  O39  1  0.15736900  0.73102000  0.61883100  1
  O  O40  1  0.57365200  0.84263100  0.61883100  1
  O  O41  1  0.26898000  0.42634800  0.61883100  1
  O  O42  1  0.15736900  0.73102000  0.38116900  1
  O  O43  1  0.57365200  0.84263100  0.38116900  1
  O  O44  1  0.26898000  0.42634800  0.38116900  1
  O  O45  1  0.49277200  0.19430000  0.50000000  1
  O  O46  1  0.70152800  0.50722800  0.50000000  1
  O  O47  1  0.80570000  0.29847200  0.50000000  1
  O  O48  1  0.51624600  0.41717800  0.61807700  1
  O  O49  1  0.90093100  0.48375400  0.61807700  1
  O  O50  1  0.58282200  0.09906900  0.61807700  1
  O  O51  1  0.51624600  0.41717800  0.38192300  1
  O  O52  1  0.90093100  0.48375400  0.38192300  1
  O  O53  1  0.58282200  0.09906900  0.38192300  1
  O  O54  1  0.09179300  0.17772800  0.50000000  1
  O  O55  1  0.08593500  0.90820700  0.50000000  1
  O  O56  1  0.82227200  0.91406500  0.50000000  1
  O  O57  1  0.25070200  0.17625400  0.61781600  1
  O  O58  1  0.92555200  0.74929800  0.61781600  1
  O  O59  1  0.82374600  0.07444800  0.61781600  1
  O  O60  1  0.25070200  0.17625400  0.38218400  1
  O  O61  1  0.92555200  0.74929800  0.38218400  1
  O  O62  1  0.82374600  0.07444800  0.38218400  1
  O  O63  1  0.16283200  0.62992700  0.00000000  1
  O  O64  1  0.46709500  0.83716800  0.00000000  1
  O  O65  1  0.37007300  0.53290500  0.00000000  1
  O  O66  1  0.18433600  0.42753800  0.88288100  1
  O  O67  1  0.24320200  0.81566400  0.88288100  1
  O  O68  1  0.57246200  0.75679800  0.88288100  1
  O  O69  1  0.18433600  0.42753800  0.11711900  1
  O  O70  1  0.24320200  0.81566400  0.11711900  1
  O  O71  1  0.57246200  0.75679800  0.11711900  1
  O  O72  1  0.14778400  0.17582400  0.00000000  1
  O  O73  1  0.02804000  0.85221600  0.00000000  1
  O  O74  1  0.82417600  0.97196000  0.00000000  1
  O  O75  1  0.92487200  0.15738500  0.88194500  1
  O  O76  1  0.23251300  0.07512800  0.88194500  1
  O  O77  1  0.84261500  0.76748700  0.88194500  1
  O  O78  1  0.92487200  0.15738500  0.11805500  1
  O  O79  1  0.23251300  0.07512800  0.11805500  1
  O  O80  1  0.84261500  0.76748700  0.11805500  1
  O  O81  1  0.48434800  0.24107900  0.00000000  1
  O  O82  1  0.75673200  0.51565200  0.00000000  1
  O  O83  1  0.75892100  0.24326800  0.00000000  1
  O  O84  1  0.48256500  0.08061800  0.88211400  1
  O  O85  1  0.59805400  0.51743500  0.88211400  1
  O  O86  1  0.91938200  0.40194600  0.88211400  1
  O  O87  1  0.48256500  0.08061800  0.11788600  1
  O  O88  1  0.59805400  0.51743500  0.11788600  1
  O  O89  1  0.91938200  0.40194600  0.11788600  1
  O  O90  1  0.66666700  0.33333300  0.75841500  1
  O  O91  1  0.66666700  0.33333300  0.24158500  1
  O  O92  1  0.33333300  0.66666700  0.74898300  1
  O  O93  1  0.33333300  0.66666700  0.25101700  1
  O  O94  1  0.00000000  0.00000000  0.74271700  1
  O  O95  1  0.00000000  0.00000000  0.25728300  1
  O  O96  1  0.99062000  0.65251100  0.81004600  1
  O  O97  1  0.66189200  0.00938000  0.81004600  1
  O  O98  1  0.34748900  0.33810800  0.81004600  1
  O  O99  1  0.99062000  0.65251100  0.18995400  1
  O  O100  1  0.66189200  0.00938000  0.18995400  1
  O  O101  1  0.34748900  0.33810800  0.18995400  1
  O  O102  1  0.00855800  0.32969900  0.69101100  1
  O  O103  1  0.32114100  0.99144200  0.69101100  1
  O  O104  1  0.67030100  0.67885900  0.69101100  1
  O  O105  1  0.00855800  0.32969900  0.30898900  1
  O  O106  1  0.32114100  0.99144200  0.30898900  1
  O  O107  1  0.67030100  0.67885900  0.30898900  1
