# generated using pymatgen
data_Na2ZnB6O11
_symmetry_space_group_name_H-M   'P 1'
_cell_length_a   6.59503259
_cell_length_b   6.59503259
_cell_length_c   11.60273536
_cell_angle_alpha   71.91585162
_cell_angle_beta   71.91585162
_cell_angle_gamma   69.03153140
_symmetry_Int_Tables_number   1
_chemical_formula_structural   Na2ZnB6O11
_chemical_formula_sum   'Na4 Zn2 B12 O22'
_cell_volume   436.51622483
_cell_formula_units_Z   2
loop_
 _symmetry_equiv_pos_site_id
 _symmetry_equiv_pos_as_xyz
  1  'x, y, z'
loop_
 _atom_site_type_symbol
 _atom_site_label
 _atom_site_symmetry_multiplicity
 _atom_site_fract_x
 _atom_site_fract_y
 _atom_site_fract_z
 _atom_site_occupancy
  Na  Na0  1  0.44921300  0.63324100  0.10132900  1
  Na  Na1  1  0.63324100  0.44921300  0.60132900  1
  Na  Na2  1  0.34024700  0.16755900  0.16873200  1
  Na  Na3  1  0.16755900  0.34024700  0.66873200  1
  Zn  Zn4  1  0.02698000  0.76418500  0.88292200  1
  Zn  Zn5  1  0.76418500  0.02698000  0.38292200  1
  B  B6  1  0.15712100  0.10563400  0.97904900  1
  B  B7  1  0.10563400  0.15712200  0.47904900  1
  B  B8  1  0.59515500  0.00246900  0.64457800  1
  B  B9  1  0.00246900  0.59515500  0.14457800  1
  B  B10  1  0.56964400  0.98727300  0.86645400  1
  B  B11  1  0.98727300  0.56964400  0.36645400  1
  B  B12  1  0.80873800  0.21936900  0.89627000  1
  B  B13  1  0.21936900  0.80873800  0.39627000  1
  B  B14  1  0.17990400  0.79122400  0.61966000  1
  B  B15  1  0.79122400  0.17990400  0.11966000  1
  B  B16  1  0.68355900  0.63937400  0.78710400  1
  B  B17  1  0.63937400  0.68355900  0.28710400  1
  O  O18  1  0.05882800  0.14359100  0.88295900  1
  O  O19  1  0.14359100  0.05882800  0.38295900  1
  O  O20  1  0.51659400  0.10414100  0.74412000  1
  O  O21  1  0.10414100  0.51659400  0.24412000  1
  O  O22  1  0.38101700  0.04526300  0.97085800  1
  O  O23  1  0.04526300  0.38101700  0.47085800  1
  O  O24  1  0.66237600  0.76845600  0.66757000  1
  O  O25  1  0.76845600  0.66237600  0.16757000  1
  O  O26  1  0.02490600  0.11999900  0.09823700  1
  O  O27  1  0.11999900  0.02490600  0.59823700  1
  O  O28  1  0.76774600  0.03050300  0.87496800  1
  O  O29  1  0.03050300  0.76774600  0.37496800  1
  O  O30  1  0.13430600  0.60162400  0.02908700  1
  O  O31  1  0.60162400  0.13430600  0.52908700  1
  O  O32  1  0.63730800  0.73774300  0.88363900  1
  O  O33  1  0.73774300  0.63730800  0.38363900  1
  O  O34  1  0.75666300  0.41484200  0.79437600  1
  O  O35  1  0.41484200  0.75666300  0.29437600  1
  O  O36  1  0.16623600  0.65920700  0.73460900  1
  O  O37  1  0.65920700  0.16623600  0.23460900  1
  O  O38  1  0.68899600  0.26168400  0.01989800  1
  O  O39  1  0.26168400  0.68899600  0.51989800  1
