# generated using pymatgen
data_Cd(PN2)2
_symmetry_space_group_name_H-M   'P 1'
_cell_length_a   7.91444434
_cell_length_b   17.02046079
_cell_length_c   17.02064559
_cell_angle_alpha   119.99964042
_cell_angle_beta   89.99999872
_cell_angle_gamma   89.99999999
_symmetry_Int_Tables_number   1
_chemical_formula_structural   Cd(PN2)2
_chemical_formula_sum   'Cd24 P48 N96'
_cell_volume   1985.63754847
_cell_formula_units_Z   24
loop_
 _symmetry_equiv_pos_site_id
 _symmetry_equiv_pos_as_xyz
  1  'x, y, z'
loop_
 _atom_site_type_symbol
 _atom_site_label
 _atom_site_symmetry_multiplicity
 _atom_site_fract_x
 _atom_site_fract_y
 _atom_site_fract_z
 _atom_site_occupancy
  Cd  Cd0  1  0.50000000  0.00000391  -0.00000000  1
  Cd  Cd1  1  -0.00000000  0.99999616  0.00000000  1
  Cd  Cd2  1  0.99728695  0.66664985  0.33331858  1
  Cd  Cd3  1  0.00271305  0.33333127  0.66668142  1
  Cd  Cd4  1  0.49728690  0.33335012  0.66668143  1
  Cd  Cd5  1  0.50271310  0.66666868  0.33331857  1
  Cd  Cd6  1  0.50000000  0.47465465  0.00000000  1
  Cd  Cd7  1  0.49999803  0.52536191  0.52535587  1
  Cd  Cd8  1  0.50000197  0.00000604  0.47464413  1
  Cd  Cd9  1  0.00000000  0.52534527  1.00000000  1
  Cd  Cd10  1  0.99999805  0.47463811  0.47464406  1
  Cd  Cd11  1  0.00000195  0.99999405  0.52535594  1
  Cd  Cd12  1  0.00652186  0.80534170  0.14495368  1
  Cd  Cd13  1  0.00649928  0.33961657  0.19465962  1
  Cd  Cd14  1  0.00653682  0.85503604  0.66036587  1
  Cd  Cd15  1  0.99347814  0.66038802  0.85504632  1
  Cd  Cd16  1  0.99350072  0.14495695  0.80534038  1
  Cd  Cd17  1  0.99346318  0.19467016  0.33963413  1
  Cd  Cd18  1  0.50652177  0.19465843  0.85504639  1
  Cd  Cd19  1  0.50649938  0.66038352  0.80534047  1
  Cd  Cd20  1  0.50653684  0.14496400  0.33963409  1
  Cd  Cd21  1  0.49347823  0.33961204  0.14495361  1
  Cd  Cd22  1  0.49350062  0.85504305  0.19465953  1
  Cd  Cd23  1  0.49346316  0.80532991  0.66036591  1
  P  P24  1  0.30307012  0.83101987  0.99923269  1
  P  P25  1  0.30305241  0.16821147  0.16897133  1
  P  P26  1  0.30307057  0.00076373  0.83178521  1
  P  P27  1  0.69692988  0.83178717  0.00076731  1
  P  P28  1  0.69694759  0.99924014  0.83102867  1
  P  P29  1  0.69692943  0.16897852  0.16821479  1
  P  P30  1  0.80307016  0.16898023  0.00076747  1
  P  P31  1  0.80305199  0.83178846  0.83102865  1
  P  P32  1  0.80307081  0.99923626  0.16821472  1
  P  P33  1  0.19692984  0.16821275  0.99923253  1
  P  P34  1  0.19694801  0.00075981  0.16897135  1
  P  P35  1  0.19692919  0.83102154  0.83178528  1
  P  P36  1  0.30199454  0.16664649  0.66628198  1
  P  P37  1  0.30197654  0.49964248  0.83335011  1
  P  P38  1  0.30195570  0.33370542  0.50035135  1
  P  P39  1  0.69800546  0.50036451  0.33371802  1
  P  P40  1  0.69802346  0.66629238  0.16664989  1
  P  P41  1  0.69804430  0.83335407  0.49964865  1
  P  P42  1  0.80199455  0.83335353  0.33371797  1
  P  P43  1  0.80197615  0.50035738  0.16664991  1
  P  P44  1  0.80195592  0.66629456  0.49964868  1
  P  P45  1  0.19800545  0.49963557  0.66628203  1
  P  P46  1  0.19802385  0.33370748  0.83335009  1
  P  P47  1  0.19804408  0.16664588  0.50035132  1
  P  P48  1  0.30352958  0.50011181  0.33296877  1
  P  P49  1  0.30359566  0.83285658  0.49988342  1
  P  P50  1  0.30354822  0.66702801  0.16713718  1
  P  P51  1  0.69647042  0.16714305  0.66703123  1
  P  P52  1  0.69640434  0.33297316  0.50011658  1
  P  P53  1  0.69645178  0.49989083  0.83286282  1
  P  P54  1  0.80352967  0.49988825  0.66703121  1
  P  P55  1  0.80359578  0.16714337  0.50011670  1
  P  P56  1  0.80354808  0.33297198  0.83286301  1
  P  P57  1  0.19647033  0.83285704  0.33296879  1
  P  P58  1  0.19640422  0.66702667  0.49988330  1
  P  P59  1  0.19645192  0.50010898  0.16713699  1
  P  P60  1  0.20130447  0.66512230  0.66519986  1
  P  P61  1  0.20134895  0.00007797  0.33486859  1
  P  P62  1  0.20132860  0.33479636  -0.00008044  1
  P  P63  1  0.79869553  -0.00007757  0.33480014  1
  P  P64  1  0.79865105  0.66520938  0.66513141  1
  P  P65  1  0.79867140  0.33487681  0.00008044  1
  P  P66  1  0.70130473  0.33487770  0.33480013  1
  P  P67  1  0.70134897  0.99992206  0.66513137  1
  P  P68  1  0.70132833  0.66520373  0.00008052  1
  P  P69  1  0.29869527  0.00007758  0.66519987  1
  P  P70  1  0.29865103  0.33479068  0.33486863  1
  P  P71  1  0.29867167  0.66512321  -0.00008052  1
  N  N72  1  0.50000000  0.66125333  0.00000000  1
  N  N73  1  0.49998323  0.33873965  0.33872689  1
  N  N74  1  0.50001677  0.00001276  0.66127311  1
  N  N75  1  0.00000000  0.33874675  1.00000000  1
  N  N76  1  -0.00001641  0.66126033  0.66127304  1
  N  N77  1  0.00001641  0.99998729  0.33872696  1
  N  N78  1  0.75000008  0.39216316  0.78432625  1
  N  N79  1  0.74991213  0.39216837  0.60785116  1
  N  N80  1  0.75008782  0.21568285  0.60785112  1
  N  N81  1  0.24999992  0.60783691  0.21567375  1
  N  N82  1  0.25008787  0.78431721  0.39214884  1
  N  N83  1  0.24991218  0.60783173  0.39214888  1
  N  N84  1  0.74999998  0.06032617  0.12065226  1
  N  N85  1  0.75001365  0.06032366  0.93968553  1
  N  N86  1  0.74998656  0.87936205  0.93968542  1
  N  N87  1  0.25000002  0.93967391  0.87934774  1
  N  N88  1  0.24998635  0.12063813  0.06031447  1
  N  N89  1  0.25001344  0.93967663  0.06031458  1
  N  N90  1  0.74999985  0.72509641  0.45019268  1
  N  N91  1  0.75001616  0.72509676  0.27490144  1
  N  N92  1  0.74998395  0.54980488  0.27490140  1
  N  N93  1  0.25000015  0.27490374  0.54980732  1
  N  N94  1  0.24998384  0.45019532  0.72509856  1
  N  N95  1  0.25001605  0.27490348  0.72509860  1
  N  N96  1  0.50000000  0.82061087  0.00000000  1
  N  N97  1  0.49998982  0.17938105  0.17935465  1
  N  N98  1  0.50001018  0.00002640  0.82064535  1
  N  N99  1  -0.00000000  0.17938904  1.00000000  1
  N  N100  1  0.99999031  0.82061899  0.82064557  1
  N  N101  1  0.00000969  0.99997342  0.17935443  1
  N  N102  1  0.00103690  0.16451331  0.49337849  1
  N  N103  1  0.00104783  0.32887876  0.83546116  1
  N  N104  1  0.00102220  0.50654677  0.67107263  1
  N  N105  1  0.99896310  0.67113483  0.50662151  1
  N  N106  1  0.99895217  0.49341761  0.16453884  1
  N  N107  1  0.99897780  0.83547414  0.32892737  1
  N  N108  1  0.50103623  0.83548686  0.50662151  1
  N  N109  1  0.50104755  0.67112134  0.16453897  1
  N  N110  1  0.50102238  0.49345321  0.32892733  1
  N  N111  1  0.49896377  0.32886535  0.49337849  1
  N  N112  1  0.49895245  0.50658237  0.83546103  1
  N  N113  1  0.49897762  0.16452588  0.67107267  1
  N  N114  1  0.28055942  0.76863246  0.72881616  1
  N  N115  1  0.28060922  0.96019217  0.23136249  1
  N  N116  1  0.28058837  0.27117402  0.03980466  1
  N  N117  1  0.71944058  0.03981630  0.27118384  1
  N  N118  1  0.71939078  0.72882968  0.76863751  1
  N  N119  1  0.71941163  0.23136936  0.96019534  1
  N  N120  1  0.78055965  0.23136756  0.27118386  1
  N  N121  1  0.78060921  0.03980780  0.76863750  1
  N  N122  1  0.78058810  0.72882602  0.96019546  1
  N  N123  1  0.21944035  0.96018370  0.72881614  1
  N  N124  1  0.21939079  0.27117029  0.23136250  1
  N  N125  1  0.21941190  0.76863056  0.03980454  1
  N  N126  1  0.28182248  0.10380211  0.39828387  1
  N  N127  1  0.28180674  0.29448540  0.89619568  1
  N  N128  1  0.28177869  0.60170841  0.70551177  1
  N  N129  1  0.71817752  0.70551824  0.60171613  1
  N  N130  1  0.71819326  0.39828972  0.10380432  1
  N  N131  1  0.71822131  0.89619664  0.29448823  1
  N  N132  1  0.78182222  0.89619787  0.60171626  1
  N  N133  1  0.78180656  0.70551438  0.10380428  1
  N  N134  1  0.78177857  0.39829154  0.29448832  1
  N  N135  1  0.21817778  0.29448162  0.39828374  1
  N  N136  1  0.21819344  0.60171009  0.89619572  1
  N  N137  1  0.21822143  0.10380323  0.70551168  1
  N  N138  1  0.27947693  0.43916587  0.06447584  1
  N  N139  1  0.27945781  0.62531414  0.56083054  1
  N  N140  1  0.27950742  0.93551588  0.37467305  1
  N  N141  1  0.72052307  0.37469004  0.93552416  1
  N  N142  1  0.72054219  0.06448359  0.43916946  1
  N  N143  1  0.72049258  0.56084283  0.62532695  1
  N  N144  1  0.77947709  0.56083428  0.93552431  1
  N  N145  1  0.77945774  0.37468566  0.43916952  1
  N  N146  1  0.77950755  0.06448400  0.62532694  1
  N  N147  1  0.22052291  0.62530997  0.06447569  1
  N  N148  1  0.22054226  0.93551613  0.56083048  1
  N  N149  1  0.22049245  0.43915706  0.37467306  1
  N  N150  1  0.75000003  0.55949627  0.11899246  1
  N  N151  1  0.75001710  0.55949458  0.44050494  1
  N  N152  1  0.74998274  0.88101038  0.44050491  1
  N  N153  1  0.24999997  0.44050381  0.88100754  1
  N  N154  1  0.24998290  0.11898965  0.55949506  1
  N  N155  1  0.25001726  0.44050547  0.55949509  1
  N  N156  1  0.75000005  0.22596153  0.45192300  1
  N  N157  1  0.74997339  0.22595500  0.77405727  1
  N  N158  1  0.75002661  0.54810208  0.77405724  1
  N  N159  1  0.24999995  0.77403853  0.54807700  1
  N  N160  1  0.25002661  0.45189773  0.22594273  1
  N  N161  1  0.24997339  0.77404484  0.22594276  1
  N  N162  1  0.74999998  0.89320295  0.78640614  1
  N  N163  1  0.74997164  0.89320390  0.10680732  1
  N  N164  1  0.75002877  0.21360340  0.10680720  1
  N  N165  1  0.25000002  0.10679680  0.21359386  1
  N  N166  1  0.25002836  0.78639658  0.89319268  1
  N  N167  1  0.24997123  0.10679620  0.89319280  1
