# generated using pymatgen
data_ZnB3H3O7
_symmetry_space_group_name_H-M   'P 1'
_cell_length_a   9.97133900
_cell_length_b   6.94053100
_cell_length_c   8.74458216
_cell_angle_alpha   58.85365691
_cell_angle_beta   90.00000000
_cell_angle_gamma   90.00000000
_symmetry_Int_Tables_number   1
_chemical_formula_structural   ZnB3H3O7
_chemical_formula_sum   'Zn4 B12 H12 O28'
_cell_volume   517.94351028
_cell_formula_units_Z   4
loop_
 _symmetry_equiv_pos_site_id
 _symmetry_equiv_pos_as_xyz
  1  'x, y, z'
loop_
 _atom_site_type_symbol
 _atom_site_label
 _atom_site_symmetry_multiplicity
 _atom_site_fract_x
 _atom_site_fract_y
 _atom_site_fract_z
 _atom_site_occupancy
  Zn  Zn0  1  0.22020500  0.78237800  0.65032100  1
  Zn  Zn1  1  0.27979500  0.78237800  0.15032100  1
  Zn  Zn2  1  0.77979500  0.21762200  0.34967900  1
  Zn  Zn3  1  0.72020500  0.21762200  0.84967900  1
  B  B4  1  0.33346700  0.11148100  0.28539300  1
  B  B5  1  0.16653300  0.11148100  0.78539300  1
  B  B6  1  0.66653300  0.88851900  0.71460700  1
  B  B7  1  0.83346700  0.88851900  0.21460700  1
  B  B8  1  0.32889700  0.23448400  0.51588800  1
  B  B9  1  0.17110300  0.23448400  0.01588800  1
  B  B10  1  0.67110300  0.76551600  0.48411200  1
  B  B11  1  0.82889700  0.76551600  0.98411200  1
  B  B12  1  0.48534400  0.41661700  0.25418700  1
  B  B13  1  0.01465600  0.41661700  0.75418700  1
  B  B14  1  0.51465600  0.58338300  0.74581300  1
  B  B15  1  0.98534400  0.58338300  0.24581300  1
  H  H16  1  0.03417900  0.69149800  0.48471900  1
  H  H17  1  0.46582100  0.69149800  0.98471900  1
  H  H18  1  0.96582100  0.30850200  0.51528100  1
  H  H19  1  0.53417900  0.30850200  0.01528100  1
  H  H20  1  0.34411900  0.43625400  0.71492000  1
  H  H21  1  0.15588100  0.43625400  0.21492000  1
  H  H22  1  0.65588100  0.56374600  0.28508000  1
  H  H23  1  0.84411900  0.56374600  0.78508000  1
  H  H24  1  0.08578000  0.78407900  0.89617600  1
  H  H25  1  0.41422000  0.78407900  0.39617600  1
  H  H26  1  0.91422000  0.21592100  0.10382400  1
  H  H27  1  0.58578000  0.21592100  0.60382400  1
  O  O28  1  0.28894200  0.08249400  0.46470900  1
  O  O29  1  0.21105800  0.08249400  0.96470900  1
  O  O30  1  0.71105800  0.91750600  0.53529100  1
  O  O31  1  0.78894200  0.91750600  0.03529100  1
  O  O32  1  0.42569000  0.38925400  0.41840900  1
  O  O33  1  0.07431000  0.38925400  0.91840900  1
  O  O34  1  0.57431000  0.61074600  0.58159100  1
  O  O35  1  0.92569000  0.61074600  0.08159100  1
  O  O36  1  0.45964100  0.22973400  0.22854200  1
  O  O37  1  0.04035900  0.22973400  0.72854200  1
  O  O38  1  0.54035900  0.77026600  0.77145800  1
  O  O39  1  0.95964100  0.77026600  0.27145800  1
  O  O40  1  0.22132900  0.22880500  0.16312300  1
  O  O41  1  0.27867100  0.22880500  0.66312300  1
  O  O42  1  0.77867100  0.77119500  0.83687700  1
  O  O43  1  0.72132900  0.77119500  0.33687700  1
  O  O44  1  0.06941200  0.63849800  0.60618400  1
  O  O45  1  0.43058800  0.63849800  0.10618400  1
  O  O46  1  0.93058800  0.36150200  0.39381600  1
  O  O47  1  0.56941200  0.36150200  0.89381600  1
  O  O48  1  0.36589200  0.55671400  0.74033800  1
  O  O49  1  0.13410800  0.55671400  0.24033800  1
  O  O50  1  0.63410800  0.44328600  0.25966200  1
  O  O51  1  0.86589200  0.44328600  0.75966200  1
  O  O52  1  0.15895000  0.87774900  0.81855600  1
  O  O53  1  0.34105000  0.87774900  0.31855600  1
  O  O54  1  0.84105000  0.12225100  0.18144400  1
  O  O55  1  0.65895000  0.12225100  0.68144400  1
