# generated using pymatgen
data_Be3Ru2
_symmetry_space_group_name_H-M   'P 1'
_cell_length_a   8.33590501
_cell_length_b   8.33590501
_cell_length_c   8.33590501
_cell_angle_alpha   109.47122063
_cell_angle_beta   109.47122063
_cell_angle_gamma   109.47122063
_symmetry_Int_Tables_number   1
_chemical_formula_structural   Be3Ru2
_chemical_formula_sum   'Be24 Ru16'
_cell_volume   445.89887854
_cell_formula_units_Z   8
loop_
 _symmetry_equiv_pos_site_id
 _symmetry_equiv_pos_as_xyz
  1  'x, y, z'
loop_
 _atom_site_type_symbol
 _atom_site_label
 _atom_site_symmetry_multiplicity
 _atom_site_fract_x
 _atom_site_fract_y
 _atom_site_fract_z
 _atom_site_occupancy
  Be  Be0  1  0.61004700  0.74631600  0.55832200  1
  Be  Be1  1  0.38995300  0.25368400  0.44167800  1
  Be  Be2  1  0.88995300  0.94827500  0.63626900  1
  Be  Be3  1  0.31200600  0.75368400  0.86373100  1
  Be  Be4  1  0.74631600  0.55832200  0.61004700  1
  Be  Be5  1  0.11004700  0.05172500  0.36373100  1
  Be  Be6  1  0.68799400  0.24631600  0.13626900  1
  Be  Be7  1  0.25368400  0.44167800  0.38995300  1
  Be  Be8  1  0.18799400  0.55172500  0.94167800  1
  Be  Be9  1  0.94827500  0.63626900  0.88995300  1
  Be  Be10  1  0.81200600  0.44827500  0.05832200  1
  Be  Be11  1  0.05172500  0.36373100  0.11004700  1
  Be  Be12  1  0.75368400  0.86373100  0.31200600  1
  Be  Be13  1  0.24631600  0.13626900  0.68799400  1
  Be  Be14  1  0.55172500  0.94167800  0.18799400  1
  Be  Be15  1  0.44827500  0.05832200  0.81200600  1
  Be  Be16  1  0.55832200  0.61004700  0.74631600  1
  Be  Be17  1  0.44167800  0.38995300  0.25368400  1
  Be  Be18  1  0.86373100  0.31200600  0.75368400  1
  Be  Be19  1  0.13626900  0.68799400  0.24631600  1
  Be  Be20  1  0.94167800  0.18799400  0.55172500  1
  Be  Be21  1  0.05832200  0.81200600  0.44827500  1
  Be  Be22  1  0.63626900  0.88995300  0.94827500  1
  Be  Be23  1  0.36373100  0.11004700  0.05172500  1
  Ru  Ru24  1  0.61815900  0.36815900  0.75000000  1
  Ru  Ru25  1  0.38184100  0.63184100  0.25000000  1
  Ru  Ru26  1  0.88184100  0.13184100  0.25000000  1
  Ru  Ru27  1  0.36815900  0.75000000  0.61815900  1
  Ru  Ru28  1  0.11815900  0.86815900  0.75000000  1
  Ru  Ru29  1  0.63184100  0.25000000  0.38184100  1
  Ru  Ru30  1  0.13184100  0.25000000  0.88184100  1
  Ru  Ru31  1  0.86815900  0.75000000  0.11815900  1
  Ru  Ru32  1  0.75000000  0.61815900  0.36815900  1
  Ru  Ru33  1  0.25000000  0.38184100  0.63184100  1
  Ru  Ru34  1  0.25000000  0.88184100  0.13184100  1
  Ru  Ru35  1  0.75000000  0.11815900  0.86815900  1
  Ru  Ru36  1  0.00000000  0.00000000  0.00000000  1
  Ru  Ru37  1  0.50000000  0.00000000  0.50000000  1
  Ru  Ru38  1  0.50000000  0.50000000  0.00000000  1
  Ru  Ru39  1  0.00000000  0.50000000  0.50000000  1
