# generated using pymatgen
data_Bi2O3
_symmetry_space_group_name_H-M   'P 1'
_cell_length_a   11.41361000
_cell_length_b   11.41361000
_cell_length_c   11.41361000
_cell_angle_alpha   90.00000000
_cell_angle_beta   90.00000000
_cell_angle_gamma   90.00000000
_symmetry_Int_Tables_number   1
_chemical_formula_structural   Bi2O3
_chemical_formula_sum   'Bi32 O48'
_cell_volume   1486.85660426
_cell_formula_units_Z   16
loop_
 _symmetry_equiv_pos_site_id
 _symmetry_equiv_pos_as_xyz
  1  'x, y, z'
loop_
 _atom_site_type_symbol
 _atom_site_label
 _atom_site_symmetry_multiplicity
 _atom_site_fract_x
 _atom_site_fract_y
 _atom_site_fract_z
 _atom_site_occupancy
  Bi  Bi0  1  0.24477300  0.75522700  0.25522700  1
  Bi  Bi1  1  0.75522700  0.25522700  0.24477300  1
  Bi  Bi2  1  0.25522700  0.24477300  0.75522700  1
  Bi  Bi3  1  0.74477300  0.74477300  0.74477300  1
  Bi  Bi4  1  0.75522700  0.24477300  0.74477300  1
  Bi  Bi5  1  0.24477300  0.74477300  0.75522700  1
  Bi  Bi6  1  0.74477300  0.75522700  0.24477300  1
  Bi  Bi7  1  0.25522700  0.25522700  0.25522700  1
  Bi  Bi8  1  0.24131500  0.47679100  0.99158900  1
  Bi  Bi9  1  0.75868500  0.97679100  0.50841100  1
  Bi  Bi10  1  0.25868500  0.52320900  0.49158900  1
  Bi  Bi11  1  0.74131500  0.02320900  0.00841100  1
  Bi  Bi12  1  0.99158900  0.24131500  0.47679100  1
  Bi  Bi13  1  0.50841100  0.75868500  0.97679100  1
  Bi  Bi14  1  0.49158900  0.25868500  0.52320900  1
  Bi  Bi15  1  0.00841100  0.74131500  0.02320900  1
  Bi  Bi16  1  0.47679100  0.99158900  0.24131500  1
  Bi  Bi17  1  0.97679100  0.50841100  0.75868500  1
  Bi  Bi18  1  0.52320900  0.49158900  0.25868500  1
  Bi  Bi19  1  0.02320900  0.00841100  0.74131500  1
  Bi  Bi20  1  0.75868500  0.52320900  0.00841100  1
  Bi  Bi21  1  0.24131500  0.02320900  0.49158900  1
  Bi  Bi22  1  0.74131500  0.47679100  0.50841100  1
  Bi  Bi23  1  0.25868500  0.97679100  0.99158900  1
  Bi  Bi24  1  0.00841100  0.75868500  0.52320900  1
  Bi  Bi25  1  0.49158900  0.24131500  0.02320900  1
  Bi  Bi26  1  0.50841100  0.74131500  0.47679100  1
  Bi  Bi27  1  0.99158900  0.25868500  0.97679100  1
  Bi  Bi28  1  0.52320900  0.00841100  0.75868500  1
  Bi  Bi29  1  0.02320900  0.49158900  0.24131500  1
  Bi  Bi30  1  0.47679100  0.50841100  0.74131500  1
  Bi  Bi31  1  0.97679100  0.99158900  0.25868500  1
  O  O32  1  0.36477400  0.11786500  0.08774900  1
  O  O33  1  0.63522600  0.61786500  0.41225100  1
  O  O34  1  0.13522600  0.88213500  0.58774900  1
  O  O35  1  0.86477400  0.38213500  0.91225100  1
  O  O36  1  0.08774900  0.36477400  0.11786500  1
  O  O37  1  0.41225100  0.63522600  0.61786500  1
  O  O38  1  0.58774900  0.13522600  0.88213500  1
  O  O39  1  0.91225100  0.86477400  0.38213500  1
  O  O40  1  0.11786500  0.08774900  0.36477400  1
  O  O41  1  0.61786500  0.41225100  0.63522600  1
  O  O42  1  0.88213500  0.58774900  0.13522600  1
  O  O43  1  0.38213500  0.91225100  0.86477400  1
  O  O44  1  0.63522600  0.88213500  0.91225100  1
  O  O45  1  0.36477400  0.38213500  0.58774900  1
  O  O46  1  0.86477400  0.11786500  0.41225100  1
  O  O47  1  0.13522600  0.61786500  0.08774900  1
  O  O48  1  0.91225100  0.63522600  0.88213500  1
  O  O49  1  0.58774900  0.36477400  0.38213500  1
  O  O50  1  0.41225100  0.86477400  0.11786500  1
  O  O51  1  0.08774900  0.13522600  0.61786500  1
  O  O52  1  0.88213500  0.91225100  0.63522600  1
  O  O53  1  0.38213500  0.58774900  0.36477400  1
  O  O54  1  0.11786500  0.41225100  0.86477400  1
  O  O55  1  0.61786500  0.08774900  0.13522600  1
  O  O56  1  0.81943000  0.60436300  0.63623200  1
  O  O57  1  0.18057000  0.10436300  0.86376800  1
  O  O58  1  0.68057000  0.39563700  0.13623200  1
  O  O59  1  0.31943000  0.89563700  0.36376800  1
  O  O60  1  0.63623200  0.81943000  0.60436300  1
  O  O61  1  0.86376800  0.18057000  0.10436300  1
  O  O62  1  0.13623200  0.68057000  0.39563700  1
  O  O63  1  0.36376800  0.31943000  0.89563700  1
  O  O64  1  0.60436300  0.63623200  0.81943000  1
  O  O65  1  0.10436300  0.86376800  0.18057000  1
  O  O66  1  0.39563700  0.13623200  0.68057000  1
  O  O67  1  0.89563700  0.36376800  0.31943000  1
  O  O68  1  0.18057000  0.39563700  0.36376800  1
  O  O69  1  0.81943000  0.89563700  0.13623200  1
  O  O70  1  0.31943000  0.60436300  0.86376800  1
  O  O71  1  0.68057000  0.10436300  0.63623200  1
  O  O72  1  0.36376800  0.18057000  0.39563700  1
  O  O73  1  0.13623200  0.81943000  0.89563700  1
  O  O74  1  0.86376800  0.31943000  0.60436300  1
  O  O75  1  0.63623200  0.68057000  0.10436300  1
  O  O76  1  0.39563700  0.36376800  0.18057000  1
  O  O77  1  0.89563700  0.13623200  0.81943000  1
  O  O78  1  0.60436300  0.86376800  0.31943000  1
  O  O79  1  0.10436300  0.63623200  0.68057000  1
