# generated using pymatgen
data_Na9Fe(MoO4)6
_symmetry_space_group_name_H-M   'P 1'
_cell_length_a   10.88922493
_cell_length_b   10.88922493
_cell_length_c   10.88922512
_cell_angle_alpha   87.81805812
_cell_angle_beta   87.81805812
_cell_angle_gamma   87.81806042
_symmetry_Int_Tables_number   1
_chemical_formula_structural   Na9Fe(MoO4)6
_chemical_formula_sum   'Na18 Fe2 Mo12 O48'
_cell_volume   1288.45315509
_cell_formula_units_Z   2
loop_
 _symmetry_equiv_pos_site_id
 _symmetry_equiv_pos_as_xyz
  1  'x, y, z'
loop_
 _atom_site_type_symbol
 _atom_site_label
 _atom_site_symmetry_multiplicity
 _atom_site_fract_x
 _atom_site_fract_y
 _atom_site_fract_z
 _atom_site_occupancy
  Na  Na0  1  0.97770600  0.53097000  0.73952200  1
  Na  Na1  1  0.73952200  0.97770600  0.53097000  1
  Na  Na2  1  0.53097000  0.73952200  0.97770600  1
  Na  Na3  1  0.02229400  0.46903000  0.26047800  1
  Na  Na4  1  0.26047800  0.02229400  0.46903000  1
  Na  Na5  1  0.46903000  0.26047800  0.02229400  1
  Na  Na6  1  0.17949200  0.73139500  0.93634100  1
  Na  Na7  1  0.93634100  0.17949200  0.73139500  1
  Na  Na8  1  0.73139500  0.93634100  0.17949200  1
  Na  Na9  1  0.82050800  0.26860500  0.06365900  1
  Na  Na10  1  0.06365900  0.82050800  0.26860500  1
  Na  Na11  1  0.26860500  0.06365900  0.82050800  1
  Na  Na12  1  0.79053200  0.32765800  0.53167900  1
  Na  Na13  1  0.53167900  0.79053200  0.32765800  1
  Na  Na14  1  0.32765800  0.53167900  0.79053200  1
  Na  Na15  1  0.20946800  0.67234200  0.46832100  1
  Na  Na16  1  0.46832100  0.20946800  0.67234200  1
  Na  Na17  1  0.67234200  0.46832100  0.20946800  1
  Fe  Fe18  1  0.74640500  0.74640500  0.74640500  1
  Fe  Fe19  1  0.25359500  0.25359500  0.25359500  1
  Mo  Mo20  1  0.83040000  0.64112600  0.44823600  1
  Mo  Mo21  1  0.44823600  0.83040000  0.64112600  1
  Mo  Mo22  1  0.64112600  0.44823600  0.83040000  1
  Mo  Mo23  1  0.16960000  0.35887400  0.55176400  1
  Mo  Mo24  1  0.55176400  0.16960000  0.35887400  1
  Mo  Mo25  1  0.35887400  0.55176400  0.16960000  1
  Mo  Mo26  1  0.12749700  0.34192500  0.96254400  1
  Mo  Mo27  1  0.96254400  0.12749700  0.34192500  1
  Mo  Mo28  1  0.34192500  0.96254400  0.12749700  1
  Mo  Mo29  1  0.87250300  0.65807500  0.03745600  1
  Mo  Mo30  1  0.03745600  0.87250300  0.65807500  1
  Mo  Mo31  1  0.65807500  0.03745600  0.87250300  1
  O  O32  1  0.74922600  0.77166600  0.38566600  1
  O  O33  1  0.38566600  0.74922600  0.77166600  1
  O  O34  1  0.77166600  0.38566600  0.74922600  1
  O  O35  1  0.25077400  0.22833400  0.61433400  1
  O  O36  1  0.61433400  0.25077400  0.22833400  1
  O  O37  1  0.22833400  0.61433400  0.25077400  1
  O  O38  1  0.77215700  0.50326500  0.39155000  1
  O  O39  1  0.39155000  0.77215700  0.50326500  1
  O  O40  1  0.50326500  0.39155000  0.77215700  1
  O  O41  1  0.22784300  0.49673500  0.60845000  1
  O  O42  1  0.60845000  0.22784300  0.49673500  1
  O  O43  1  0.49673500  0.60845000  0.22784300  1
  O  O44  1  0.98998200  0.64473000  0.39905600  1
  O  O45  1  0.39905600  0.98998200  0.64473000  1
  O  O46  1  0.64473000  0.39905600  0.98998200  1
  O  O47  1  0.01001800  0.35527000  0.60094400  1
  O  O48  1  0.60094400  0.01001800  0.35527000  1
  O  O49  1  0.35527000  0.60094400  0.01001800  1
  O  O50  1  0.81674400  0.63106200  0.61672200  1
  O  O51  1  0.61672200  0.81674400  0.63106200  1
  O  O52  1  0.63106200  0.61672200  0.81674400  1
  O  O53  1  0.18325600  0.36893800  0.38327800  1
  O  O54  1  0.38327800  0.18325600  0.36893800  1
  O  O55  1  0.36893800  0.38327800  0.18325600  1
  O  O56  1  0.26257900  0.27193100  0.89580300  1
  O  O57  1  0.89580300  0.26257900  0.27193100  1
  O  O58  1  0.27193100  0.89580300  0.26257900  1
  O  O59  1  0.73742100  0.72806900  0.10419700  1
  O  O60  1  0.10419700  0.73742100  0.72806900  1
  O  O61  1  0.72806900  0.10419700  0.73742100  1
  O  O62  1  0.99583200  0.26582700  0.91479700  1
  O  O63  1  0.91479700  0.99583200  0.26582700  1
  O  O64  1  0.26582700  0.91479700  0.99583200  1
  O  O65  1  0.00416800  0.73417300  0.08520300  1
  O  O66  1  0.08520300  0.00416800  0.73417300  1
  O  O67  1  0.73417300  0.08520300  0.00416800  1
  O  O68  1  0.12095300  0.49905500  0.90490900  1
  O  O69  1  0.90490900  0.12095300  0.49905500  1
  O  O70  1  0.49905500  0.90490900  0.12095300  1
  O  O71  1  0.87904700  0.50094500  0.09509100  1
  O  O72  1  0.09509100  0.87904700  0.50094500  1
  O  O73  1  0.50094500  0.09509100  0.87904700  1
  O  O74  1  0.13434200  0.32911000  0.13138900  1
  O  O75  1  0.13138900  0.13434200  0.32911000  1
  O  O76  1  0.32911000  0.13138900  0.13434200  1
  O  O77  1  0.86565800  0.67089000  0.86861100  1
  O  O78  1  0.86861100  0.86565800  0.67089000  1
  O  O79  1  0.67089000  0.86861100  0.86565800  1
