# generated using pymatgen
data_P7H54Ir2C18ClF6
_symmetry_space_group_name_H-M   'P 1'
_cell_length_a   9.96195498
_cell_length_b   15.42465788
_cell_length_c   14.98010732
_cell_angle_alpha   82.81212064
_cell_angle_beta   70.60787311
_cell_angle_gamma   89.86565758
_symmetry_Int_Tables_number   1
_chemical_formula_structural   P7H54Ir2C18ClF6
_chemical_formula_sum   'P14 H108 Ir4 C36 Cl2 F12'
_cell_volume   2152.29815165
_cell_formula_units_Z   2
loop_
 _symmetry_equiv_pos_site_id
 _symmetry_equiv_pos_as_xyz
  1  'x, y, z'
loop_
 _atom_site_type_symbol
 _atom_site_label
 _atom_site_symmetry_multiplicity
 _atom_site_fract_x
 _atom_site_fract_y
 _atom_site_fract_z
 _atom_site_occupancy
  P  P0  1  0.70204336  0.93466652  0.17884991  1
  P  P1  1  0.29795664  0.06533348  0.82115009  1
  P  P2  1  0.92314690  0.97255306  0.29995244  1
  P  P3  1  0.07685310  0.02744694  0.70004756  1
  P  P4  1  0.68706811  0.84194755  0.47985654  1
  P  P5  1  0.31293189  0.15805245  0.52014346  1
  P  P6  1  0.63456633  0.55151927  0.25342578  1
  P  P7  1  0.36543367  0.44848073  0.74657422  1
  P  P8  1  0.93411718  0.48441527  0.29442281  1
  P  P9  1  0.06588282  0.51558473  0.70557719  1
  P  P10  1  0.09533383  0.63162570  0.09887367  1
  P  P11  1  0.90466617  0.36837430  0.90112633  1
  P  P12  1  0.63136089  0.75525222  0.85374913  1
  P  P13  1  0.36863911  0.24474778  0.14625087  1
  H  H14  1  0.83196859  0.07166321  0.09922211  1
  H  H15  1  0.16803141  0.92833679  0.90077789  1
  H  H16  1  0.66253264  0.06781197  0.08280207  1
  H  H17  1  0.33746736  0.93218803  0.91719793  1
  H  H18  1  0.67418119  0.08942126  0.19399668  1
  H  H19  1  0.32581881  0.91057874  0.80600332  1
  H  H20  1  0.81088617  0.81439216  0.09896092  1
  H  H21  1  0.18911383  0.18560784  0.90103908  1
  H  H22  1  0.73771173  0.88318753  0.02276325  1
  H  H23  1  0.26228827  0.11681247  0.97723675  1
  H  H24  1  0.90188520  0.91477638  0.03746335  1
  H  H25  1  0.09811480  0.08522362  0.96253665  1
  H  H26  1  0.44304757  0.94700351  0.24345999  1
  H  H27  1  0.55695243  0.05299649  0.75654001  1
  H  H28  1  0.50109369  0.92361201  0.12270095  1
  H  H29  1  0.49890631  0.07638799  0.87729905  1
  H  H30  1  0.48946742  0.83835786  0.21761968  1
  H  H31  1  0.51053258  0.16164214  0.78238032  1
  H  H32  1  0.85494896  0.08672513  0.40430125  1
  H  H33  1  0.14505104  0.91327487  0.59569875  1
  H  H34  1  0.02647347  0.11215540  0.31312573  1
  H  H35  1  0.97352653  0.88784460  0.68687427  1
  H  H36  1  0.86646838  0.12515692  0.28476584  1
  H  H37  1  0.13353162  0.87484308  0.71523416  1
  H  H38  1  0.07992848  0.86008666  0.32425196  1
  H  H39  1  0.92007152  0.13991334  0.67574804  1
  H  H40  1  0.13632586  0.96270871  0.34765846  1
  H  H41  1  0.86367414  0.03729129  0.65234154  1
  H  H42  1  0.99014249  0.89872583  0.43460193  1
  H  H43  1  0.00985751  0.10127417  0.56539807  1
  H  H44  1  0.01867842  0.04442537  0.13467602  1
  H  H45  1  0.98132158  0.95557463  0.86532398  1
  H  H46  1  0.15600403  0.00205005  0.17628460  1
  H  H47  1  0.84399597  0.99794995  0.82371540  1
  H  H48  1  0.04484067  0.92912237  0.14398154  1
  H  H49  1  0.95515933  0.07087763  0.85601846  1
  H  H50  1  0.47315558  0.74861699  0.51014304  1
  H  H51  1  0.52684442  0.25138301  0.48985696  1
  H  H52  1  0.47756628  0.79002754  0.61560645  1
  H  H53  1  0.52243372  0.20997246  0.38439355  1
  H  H54  1  0.42871830  0.85913391  0.52707244  1
  H  H55  1  0.57128170  0.14086609  0.47292756  1
  H  H56  1  0.88563604  0.75774187  0.50132957  1
  H  H57  1  0.11436396  0.24225813  0.49867043  1
  H  H58  1  0.72922301  0.73496693  0.60475515  1
  H  H59  1  0.27077699  0.26503307  0.39524485  1
  H  H60  1  0.74497248  0.69013798  0.49666041  1
  H  H61  1  0.25502752  0.30986202  0.50333959  1
  H  H62  1  0.63258983  0.97956398  0.54306338  1
  H  H63  1  0.36741017  0.02043602  0.45693662  1
  H  H64  1  0.66465560  0.89865066  0.63035092  1
  H  H65  1  0.33534440  0.10134934  0.36964908  1
  H  H66  1  0.80978479  0.95176894  0.53327208  1
  H  H67  1  0.19021521  0.04823106  0.46672792  1
  H  H68  1  0.60350544  0.40066988  0.33188369  1
  H  H69  1  0.39649456  0.59933012  0.66811631  1
  H  H70  1  0.45777765  0.42876898  0.29094707  1
  H  H71  1  0.54222235  0.57123102  0.70905293  1
  H  H72  1  0.62563945  0.40651106  0.20869616  1
  H  H73  1  0.37436055  0.59348894  0.79130384  1
  H  H74  1  0.54133203  0.66743325  0.34603822  1
  H  H75  1  0.45866797  0.33256675  0.65396178  1
  H  H76  1  0.40222394  0.58547626  0.36595189  1
  H  H77  1  0.59777606  0.41452374  0.63404811  1
  H  H78  1  0.53536911  0.56867962  0.42239176  1
  H  H79  1  0.46463089  0.43132038  0.57760824  1
  H  H80  1  0.59716686  0.56177984  0.09861967  1
  H  H81  1  0.40283314  0.43822016  0.90138033  1
  H  H82  1  0.44424668  0.59184005  0.19011144  1
  H  H83  1  0.55575332  0.40815995  0.80988856  1
  H  H84  1  0.59491932  0.66641227  0.13686654  1
  H  H85  1  0.40508068  0.33358773  0.86313346  1
  H  H86  1  0.04409074  0.36269207  0.20953502  1
  H  H87  1  0.95590926  0.63730793  0.79046498  1
  H  H88  1  0.98497275  0.33254322  0.33548763  1
  H  H89  1  0.01502725  0.66745678  0.66451237  1
  H  H90  1  0.85875176  0.34079531  0.27321067  1
  H  H91  1  0.14124824  0.65920469  0.72678933  1
  H  H92  1  0.08200406  0.57886221  0.34316789  1
  H  H93  1  0.91799594  0.42113779  0.65683211  1
  H  H94  1  0.11101417  0.46605931  0.37607229  1
  H  H95  1  0.88898583  0.53394069  0.62392771  1
  H  H96  1  0.19081234  0.51648420  0.25591674  1
  H  H97  1  0.80918766  0.48351580  0.74408326  1
  H  H98  1  0.70224166  0.45305170  0.42226175  1
  H  H99  1  0.29775834  0.54694830  0.57773825  1
  H  H100  1  0.84647560  0.42550503  0.46475599  1
  H  H101  1  0.15352440  0.57449497  0.53524401  1
  H  H102  1  0.80460906  0.53776542  0.44315802  1
  H  H103  1  0.19539094  0.46223458  0.55684198  1
  H  H104  1  0.98376192  0.71534744  0.99101478  1
  H  H105  1  0.01623808  0.28465256  0.00898522  1
  H  H106  1  0.17430390  0.72811189  0.94721710  1
  H  H107  1  0.82569610  0.27188811  0.05278290  1
  H  H108  1  0.08848998  0.62988483  0.93780046  1
  H  H109  1  0.91151002  0.37011517  0.06219954  1
  H  H110  1  0.22529760  0.69587271  0.18936389  1
  H  H111  1  0.77470240  0.30412729  0.81063611  1
  H  H112  1  0.30991673  0.72798867  0.06352313  1
  H  H113  1  0.69008327  0.27201133  0.93647687  1
  H  H114  1  0.14830502  0.77627592  0.12793946  1
  H  H115  1  0.85169498  0.22372408  0.87206054  1
  H  H116  1  0.16621034  0.49796835  0.03137680  1
  H  H117  1  0.83378966  0.50203165  0.96862320  1
  H  H118  1  0.31674600  0.57372925  0.00057714  1
  H  H119  1  0.68325400  0.42627075  0.99942286  1
  H  H120  1  0.25196660  0.51074436  0.11562376  1
  H  H121  1  0.74803340  0.48925564  0.88437624  1
  Ir  Ir122  1  0.74355819  0.88285504  0.31799234  1
  Ir  Ir123  1  0.25644181  0.11714496  0.68200766  1
  Ir  Ir124  1  0.87199608  0.59136163  0.20742516  1
  Ir  Ir125  1  0.12800392  0.40863837  0.79257484  1
  C  C126  1  0.71898272  0.05182527  0.13408512  1
  C  C127  1  0.28101728  0.94817473  0.86591488  1
  C  C128  1  0.79634823  0.88254719  0.07317212  1
  C  C129  1  0.20365177  0.11745281  0.92682788  1
  C  C130  1  0.51535243  0.90839699  0.19255329  1
  C  C131  1  0.48464757  0.09160301  0.80744671  1
  C  C132  1  0.91775511  0.08494934  0.32906789  1
  C  C133  1  0.08224489  0.91505066  0.67093211  1
  C  C134  1  0.04378887  0.91913131  0.35822990  1
  C  C135  1  0.95621113  0.08086869  0.64177010  1
  C  C136  1  0.04762528  0.98867642  0.17655628  1
  C  C137  1  0.95237472  0.01132358  0.82344372  1
  C  C138  1  0.49793293  0.80663432  0.53847390  1
  C  C139  1  0.50206707  0.19336568  0.46152610  1
  C  C140  1  0.76930531  0.74734176  0.52636312  1
  C  C141  1  0.23069469  0.25265824  0.47363688  1
  C  C142  1  0.69991897  0.92552698  0.55442830  1
  C  C143  1  0.30008103  0.07447302  0.44557170  1
  C  C144  1  0.57353978  0.43640785  0.27365227  1
  C  C145  1  0.42646022  0.56359215  0.72634773  1
  C  C146  1  0.51478555  0.59685368  0.35746504  1
  C  C147  1  0.48521445  0.40314632  0.64253496  1
  C  C148  1  0.56128534  0.59720647  0.16078060  1
  C  C149  1  0.43871466  0.40279353  0.83921940  1
  C  C150  1  0.95794304  0.36916004  0.27626170  1
  C  C151  1  0.04205696  0.63083996  0.72373830  1
  C  C152  1  0.09588717  0.51374440  0.31957009  1
  C  C153  1  0.90411283  0.48625560  0.68042991  1
  C  C154  1  0.80957276  0.47350725  0.41815017  1
  C  C155  1  0.19042724  0.52649275  0.58184983  1
  C  C156  1  0.08313817  0.68141641  0.98299158  1
  C  C157  1  0.91686183  0.31858359  0.01700842  1
  C  C158  1  0.20702633  0.71569891  0.12151013  1
  C  C159  1  0.79297367  0.28430109  0.87848987  1
  C  C160  1  0.22040813  0.54570468  0.05789257  1
  C  C161  1  0.77959187  0.45429532  0.94210743  1
  Cl  Cl162  1  0.80009719  0.73673537  0.26000442  1
  Cl  Cl163  1  0.19990281  0.26326463  0.73999558  1
  F  F164  1  0.55591844  0.81852301  0.93522205  1
  F  F165  1  0.44408156  0.18147699  0.06477795  1
  F  F166  1  0.76641091  0.74417929  0.89304858  1
  F  F167  1  0.23358909  0.25582071  0.10695142  1
  F  F168  1  0.70687782  0.69217602  0.77146380  1
  F  F169  1  0.29312218  0.30782398  0.22853620  1
  F  F170  1  0.49688814  0.76669670  0.81318248  1
  F  F171  1  0.50311186  0.23330330  0.18681752  1
  F  F172  1  0.71345857  0.84187621  0.77931582  1
  F  F173  1  0.28654143  0.15812379  0.22068418  1
  F  F174  1  0.54927515  0.66895394  0.92725213  1
  F  F175  1  0.45072485  0.33104606  0.07274787  1
