# generated using pymatgen
data_FeAs2H18(C2I)3
_symmetry_space_group_name_H-M   'P 1'
_cell_length_a   11.21595100
_cell_length_b   12.17456000
_cell_length_c   15.89853800
_cell_angle_alpha   90.00000000
_cell_angle_beta   90.00000000
_cell_angle_gamma   90.00000000
_symmetry_Int_Tables_number   1
_chemical_formula_structural   FeAs2H18(C2I)3
_chemical_formula_sum   'Fe4 As8 H72 C24 I12'
_cell_volume   2170.93373263
_cell_formula_units_Z   4
loop_
 _symmetry_equiv_pos_site_id
 _symmetry_equiv_pos_as_xyz
  1  'x, y, z'
loop_
 _atom_site_type_symbol
 _atom_site_label
 _atom_site_symmetry_multiplicity
 _atom_site_fract_x
 _atom_site_fract_y
 _atom_site_fract_z
 _atom_site_occupancy
  Fe  Fe0  1  0.30111600  0.25000000  0.02783000  1
  Fe  Fe1  1  0.80111600  0.25000000  0.47217000  1
  Fe  Fe2  1  0.69888400  0.75000000  0.97217000  1
  Fe  Fe3  1  0.19888400  0.75000000  0.52783000  1
  As  As4  1  0.12042300  0.25000000  0.91698200  1
  As  As5  1  0.62042300  0.25000000  0.58301800  1
  As  As6  1  0.87957700  0.75000000  0.08301800  1
  As  As7  1  0.37957700  0.75000000  0.41698200  1
  As  As8  1  0.48217800  0.25000000  0.13514100  1
  As  As9  1  0.98217800  0.25000000  0.36485900  1
  As  As10  1  0.51782200  0.75000000  0.86485900  1
  As  As11  1  0.01782200  0.75000000  0.63514100  1
  H  H12  1  0.12363400  0.04888400  0.87941300  1
  H  H13  1  0.62363400  0.45111600  0.62058700  1
  H  H14  1  0.87636600  0.54888400  0.12058700  1
  H  H15  1  0.37636600  0.95111600  0.37941300  1
  H  H16  1  0.87636600  0.95111600  0.12058700  1
  H  H17  1  0.37636600  0.54888400  0.37941300  1
  H  H18  1  0.12363400  0.45111600  0.87941300  1
  H  H19  1  0.62363400  0.04888400  0.62058700  1
  H  H20  1  0.04063100  0.12166600  0.80036600  1
  H  H21  1  0.54063100  0.37833400  0.69963400  1
  H  H22  1  0.95936900  0.62166600  0.19963400  1
  H  H23  1  0.45936900  0.87833400  0.30036600  1
  H  H24  1  0.95936900  0.87833400  0.19963400  1
  H  H25  1  0.45936900  0.62166600  0.30036600  1
  H  H26  1  0.04063100  0.37833400  0.80036600  1
  H  H27  1  0.54063100  0.12166600  0.69963400  1
  H  H28  1  0.20071100  0.12684400  0.80147100  1
  H  H29  1  0.70071100  0.37315600  0.69852900  1
  H  H30  1  0.79928900  0.62684400  0.19852900  1
  H  H31  1  0.29928900  0.87315600  0.30147100  1
  H  H32  1  0.79928900  0.87315600  0.19852900  1
  H  H33  1  0.29928900  0.62684400  0.30147100  1
  H  H34  1  0.20071100  0.37315600  0.80147100  1
  H  H35  1  0.70071100  0.12684400  0.69852900  1
  H  H36  1  0.94546000  0.17650600  0.99983400  1
  H  H37  1  0.44546000  0.32349400  0.50016600  1
  H  H38  1  0.05454000  0.67650600  0.00016600  1
  H  H39  1  0.55454000  0.82349400  0.49983400  1
  H  H40  1  0.05454000  0.82349400  0.00016600  1
  H  H41  1  0.55454000  0.67650600  0.49983400  1
  H  H42  1  0.94546000  0.32349400  0.99983400  1
  H  H43  1  0.44546000  0.17650600  0.50016600  1
  H  H44  1  0.88815800  0.25000000  0.91105300  1
  H  H45  1  0.38815800  0.25000000  0.58894700  1
  H  H46  1  0.11184200  0.75000000  0.08894700  1
  H  H47  1  0.61184200  0.75000000  0.41105300  1
  H  H48  1  0.53892500  0.04847900  0.13047600  1
  H  H49  1  0.03892500  0.45152100  0.36952400  1
  H  H50  1  0.46107500  0.54847900  0.86952400  1
  H  H51  1  0.96107500  0.95152100  0.63047600  1
  H  H52  1  0.46107500  0.95152100  0.86952400  1
  H  H53  1  0.96107500  0.54847900  0.63047600  1
  H  H54  1  0.53892500  0.45152100  0.13047600  1
  H  H55  1  0.03892500  0.04847900  0.36952400  1
  H  H56  1  0.63658900  0.12803400  0.06652400  1
  H  H57  1  0.13658900  0.37196600  0.43347600  1
  H  H58  1  0.36341100  0.62803400  0.93347600  1
  H  H59  1  0.86341100  0.87196600  0.56652400  1
  H  H60  1  0.36341100  0.87196600  0.93347600  1
  H  H61  1  0.86341100  0.62803400  0.56652400  1
  H  H62  1  0.63658900  0.37196600  0.06652400  1
  H  H63  1  0.13658900  0.12803400  0.43347600  1
  H  H64  1  0.65672500  0.12564100  0.17893300  1
  H  H65  1  0.15672500  0.37435900  0.32106700  1
  H  H66  1  0.34327500  0.62564100  0.82106700  1
  H  H67  1  0.84327500  0.87435900  0.67893300  1
  H  H68  1  0.34327500  0.87435900  0.82106700  1
  H  H69  1  0.84327500  0.62564100  0.67893300  1
  H  H70  1  0.65672500  0.37435900  0.17893300  1
  H  H71  1  0.15672500  0.12564100  0.32106700  1
  H  H72  1  0.38319800  0.17651000  0.26617100  1
  H  H73  1  0.88319800  0.32349000  0.23382900  1
  H  H74  1  0.61680200  0.67651000  0.73382900  1
  H  H75  1  0.11680200  0.82349000  0.76617100  1
  H  H76  1  0.61680200  0.82349000  0.73382900  1
  H  H77  1  0.11680200  0.67651000  0.76617100  1
  H  H78  1  0.38319800  0.32349000  0.26617100  1
  H  H79  1  0.88319800  0.17651000  0.23382900  1
  H  H80  1  0.51554500  0.25000000  0.29600800  1
  H  H81  1  0.01554500  0.25000000  0.20399200  1
  H  H82  1  0.48445500  0.75000000  0.70399200  1
  H  H83  1  0.98445500  0.75000000  0.79600800  1
  C  C84  1  0.12025100  0.12278500  0.84049100  1
  C  C85  1  0.62025100  0.37721500  0.65950900  1
  C  C86  1  0.87974900  0.62278500  0.15950900  1
  C  C87  1  0.37974900  0.87721500  0.34049100  1
  C  C88  1  0.87974900  0.87721500  0.15950900  1
  C  C89  1  0.37974900  0.62278500  0.34049100  1
  C  C90  1  0.12025100  0.37721500  0.84049100  1
  C  C91  1  0.62025100  0.12278500  0.65950900  1
  C  C92  1  0.95559000  0.25000000  0.96095400  1
  C  C93  1  0.45559000  0.25000000  0.53904600  1
  C  C94  1  0.04441000  0.75000000  0.03904600  1
  C  C95  1  0.54441000  0.75000000  0.46095400  1
  C  C96  1  0.59144300  0.12392900  0.12752900  1
  C  C97  1  0.09144300  0.37607100  0.37247100  1
  C  C98  1  0.40855700  0.62392900  0.87247100  1
  C  C99  1  0.90855700  0.87607100  0.62752900  1
  C  C100  1  0.40855700  0.87607100  0.87247100  1
  C  C101  1  0.90855700  0.62392900  0.62752900  1
  C  C102  1  0.59144300  0.37607100  0.12752900  1
  C  C103  1  0.09144300  0.12392900  0.37247100  1
  C  C104  1  0.43690700  0.25000000  0.25482600  1
  C  C105  1  0.93690700  0.25000000  0.24517400  1
  C  C106  1  0.56309300  0.75000000  0.74517400  1
  C  C107  1  0.06309300  0.75000000  0.75482600  1
  I  I108  1  0.22644100  0.06805300  0.09248300  1
  I  I109  1  0.72644100  0.43194700  0.40751700  1
  I  I110  1  0.77355900  0.56805300  0.90751700  1
  I  I111  1  0.27355900  0.93194700  0.59248300  1
  I  I112  1  0.77355900  0.93194700  0.90751700  1
  I  I113  1  0.27355900  0.56805300  0.59248300  1
  I  I114  1  0.22644100  0.43194700  0.09248300  1
  I  I115  1  0.72644100  0.06805300  0.40751700  1
  I  I116  1  0.44988700  0.25000000  0.90411900  1
  I  I117  1  0.94988700  0.25000000  0.59588100  1
  I  I118  1  0.55011300  0.75000000  0.09588100  1
  I  I119  1  0.05011300  0.75000000  0.40411900  1
