# generated using pymatgen
data_SmH10C6S6N3O17F18
_symmetry_space_group_name_H-M   'P 1'
_cell_length_a   13.33983732
_cell_length_b   13.29489776
_cell_length_c   18.91311695
_cell_angle_alpha   90.00000000
_cell_angle_beta   90.00000000
_cell_angle_gamma   94.56582193
_symmetry_Int_Tables_number   1
_chemical_formula_structural   SmH10C6S6N3O17F18
_chemical_formula_sum   'Sm4 H40 C24 S24 N12 O68 F72'
_cell_volume   3343.63017837
_cell_formula_units_Z   4
loop_
 _symmetry_equiv_pos_site_id
 _symmetry_equiv_pos_as_xyz
  1  'x, y, z'
loop_
 _atom_site_type_symbol
 _atom_site_label
 _atom_site_symmetry_multiplicity
 _atom_site_fract_x
 _atom_site_fract_y
 _atom_site_fract_z
 _atom_site_occupancy
  Sm  Sm0  1  0.15080128  0.21234634  0.25313782  1
  Sm  Sm1  1  0.65080128  0.71234634  0.24686218  1
  Sm  Sm2  1  0.84919872  0.78765366  0.74686218  1
  Sm  Sm3  1  0.34919872  0.28765366  0.75313782  1
  H  H4  1  0.34846104  0.10264237  0.23172024  1
  H  H5  1  0.84846104  0.60264237  0.26827976  1
  H  H6  1  0.65153896  0.89735763  0.76827976  1
  H  H7  1  0.15153896  0.39735763  0.73172024  1
  H  H8  1  0.36455412  0.21548144  0.20259238  1
  H  H9  1  0.86455412  0.71548144  0.29740762  1
  H  H10  1  0.63544588  0.78451856  0.79740762  1
  H  H11  1  0.13544588  0.28451856  0.70259238  1
  H  H12  1  0.10395655  0.18689614  0.41438755  1
  H  H13  1  0.60395655  0.68689614  0.08561245  1
  H  H14  1  0.89604345  0.81310386  0.58561245  1
  H  H15  1  0.39604345  0.31310386  0.91438755  1
  H  H16  1  0.21254841  0.24099775  0.40783497  1
  H  H17  1  0.71254841  0.74099775  0.09216503  1
  H  H18  1  0.78745159  0.75900225  0.59216503  1
  H  H19  1  0.28745159  0.25900225  0.90783497  1
  H  H20  1  0.17716695  0.98445316  0.25204919  1
  H  H21  1  0.67716695  0.48445316  0.24795081  1
  H  H22  1  0.82283305  0.01554684  0.74795081  1
  H  H23  1  0.32283305  0.51554684  0.75204919  1
  H  H24  1  0.12509580  0.00679465  0.32615304  1
  H  H25  1  0.62509580  0.50679465  0.17384696  1
  H  H26  1  0.87490420  0.99320535  0.67384696  1
  H  H27  1  0.37490420  0.49320535  0.82615304  1
  H  H28  1  0.95813791  0.07575440  0.27389144  1
  H  H29  1  0.45813791  0.57575440  0.22610856  1
  H  H30  1  0.04186209  0.92424560  0.72610856  1
  H  H31  1  0.54186209  0.42424560  0.77389144  1
  H  H32  1  0.93000171  0.18397718  0.30016770  1
  H  H33  1  0.43000171  0.68397718  0.19983230  1
  H  H34  1  0.06999829  0.81602282  0.69983230  1
  H  H35  1  0.56999829  0.31602282  0.80016770  1
  H  H36  1  0.09317878  0.14368749  0.10178242  1
  H  H37  1  0.59317878  0.64368749  0.39821758  1
  H  H38  1  0.90682122  0.85631251  0.89821758  1
  H  H39  1  0.40682122  0.35631251  0.60178242  1
  H  H40  1  0.06732157  0.04785317  0.14786704  1
  H  H41  1  0.56732157  0.54785317  0.35213296  1
  H  H42  1  0.93267843  0.95214683  0.85213296  1
  H  H43  1  0.43267843  0.45214683  0.64786704  1
  C  C44  1  0.27869465  0.52686348  0.36559319  1
  C  C45  1  0.77869465  0.02686348  0.13440681  1
  C  C46  1  0.72130535  0.47313652  0.63440681  1
  C  C47  1  0.22130535  0.97313652  0.86559319  1
  C  C48  1  0.51720102  0.23601963  0.40385207  1
  C  C49  1  0.01720102  0.73601963  0.09614793  1
  C  C50  1  0.48279898  0.76398037  0.59614793  1
  C  C51  1  0.98279898  0.26398037  0.90385207  1
  C  C52  1  0.25946081  0.48559637  0.09170618  1
  C  C53  1  0.75946081  0.98559637  0.40829382  1
  C  C54  1  0.74053919  0.51440363  0.90829382  1
  C  C55  1  0.24053919  0.01440363  0.59170618  1
  C  C56  1  0.55929756  0.25314174  0.11447819  1
  C  C57  1  0.05929756  0.75314174  0.38552181  1
  C  C58  1  0.44070244  0.74685826  0.88552181  1
  C  C59  1  0.94070244  0.24685826  0.61447819  1
  C  C60  1  0.91297185  0.38584574  0.14495014  1
  C  C61  1  0.41297185  0.88584574  0.35504986  1
  C  C62  1  0.08702815  0.61415426  0.85504986  1
  C  C63  1  0.58702815  0.11415426  0.64495014  1
  C  C64  1  0.85525160  0.42535537  0.41716323  1
  C  C65  1  0.35525160  0.92535537  0.08283677  1
  C  C66  1  0.14474840  0.57464463  0.58283677  1
  C  C67  1  0.64474840  0.07464463  0.91716323  1
  S  S68  1  0.33900315  0.41415621  0.33043143  1
  S  S69  1  0.83900315  0.91415621  0.16956857  1
  S  S70  1  0.66099685  0.58584379  0.66956857  1
  S  S71  1  0.16099685  0.08584379  0.83043143  1
  S  S72  1  0.46106674  0.35025328  0.44091240  1
  S  S73  1  0.96106674  0.85025328  0.05908760  1
  S  S74  1  0.53893326  0.64974672  0.55908760  1
  S  S75  1  0.03893326  0.14974672  0.94091240  1
  S  S76  1  0.27710857  0.34644291  0.09136903  1
  S  S77  1  0.77710857  0.84644291  0.40863097  1
  S  S78  1  0.72289143  0.65355709  0.90863097  1
  S  S79  1  0.22289143  0.15355709  0.59136903  1
  S  S80  1  0.48821760  0.35743260  0.07719797  1
  S  S81  1  0.98821760  0.85743260  0.42280203  1
  S  S82  1  0.51178240  0.64256740  0.92280203  1
  S  S83  1  0.01178240  0.14256740  0.57719797  1
  S  S84  1  0.97950526  0.43044844  0.22842444  1
  S  S85  1  0.47950526  0.93044844  0.27157556  1
  S  S86  1  0.02049474  0.56955156  0.77157556  1
  S  S87  1  0.52049474  0.06955156  0.72842444  1
  S  S88  1  0.81983450  0.38075279  0.32552916  1
  S  S89  1  0.31983450  0.88075279  0.17447084  1
  S  S90  1  0.18016550  0.61924721  0.67447084  1
  S  S91  1  0.68016550  0.11924721  0.82552916  1
  N  N92  1  0.35645628  0.34781004  0.39762360  1
  N  N93  1  0.85645628  0.84781004  0.10237640  1
  N  N94  1  0.64354372  0.65218996  0.60237640  1
  N  N95  1  0.14354372  0.15218996  0.89762360  1
  N  N96  1  0.38617627  0.33685927  0.12246187  1
  N  N97  1  0.88617627  0.83685927  0.37753813  1
  N  N98  1  0.61382373  0.66314073  0.87753813  1
  N  N99  1  0.11382373  0.16314073  0.62246187  1
  N  N100  1  0.89017157  0.45810987  0.27847692  1
  N  N101  1  0.39017157  0.95810987  0.22152308  1
  N  N102  1  0.10982843  0.54189013  0.72152308  1
  N  N103  1  0.60982843  0.04189013  0.77847692  1
  O  O104  1  0.32170547  0.16970698  0.23244890  1
  O  O105  1  0.82170547  0.66970698  0.26755110  1
  O  O106  1  0.67829453  0.83029302  0.76755110  1
  O  O107  1  0.17829453  0.33029302  0.73244890  1
  O  O108  1  0.15327418  0.21659815  0.38023787  1
  O  O109  1  0.65327418  0.71659815  0.11976213  1
  O  O110  1  0.84672582  0.78340185  0.61976213  1
  O  O111  1  0.34672582  0.28340185  0.88023787  1
  O  O112  1  0.16099163  0.03822061  0.28528343  1
  O  O113  1  0.66099163  0.53822061  0.21471657  1
  O  O114  1  0.83900837  0.96177939  0.71471657  1
  O  O115  1  0.33900837  0.46177939  0.78528343  1
  O  O116  1  0.98596144  0.14162925  0.29083932  1
  O  O117  1  0.48596144  0.64162925  0.20916068  1
  O  O118  1  0.01403856  0.85837075  0.70916068  1
  O  O119  1  0.51403856  0.35837075  0.79083932  1
  O  O120  1  0.09634675  0.11780259  0.15062894  1
  O  O121  1  0.59634675  0.61780259  0.34937106  1
  O  O122  1  0.90365325  0.88219741  0.84937106  1
  O  O123  1  0.40365325  0.38219741  0.65062894  1
  O  O124  1  0.25799833  0.36210032  0.28916126  1
  O  O125  1  0.75799833  0.86210032  0.21083874  1
  O  O126  1  0.74200167  0.63789968  0.71083874  1
  O  O127  1  0.24200167  0.13789968  0.78916126  1
  O  O128  1  0.42629083  0.45567086  0.29150770  1
  O  O129  1  0.92629083  0.95567086  0.20849230  1
  O  O130  1  0.57370917  0.54432914  0.70849230  1
  O  O131  1  0.07370917  0.04432914  0.79150770  1
  O  O132  1  0.43826615  0.32351581  0.51335890  1
  O  O133  1  0.93826615  0.82351581  0.98664110  1
  O  O134  1  0.56173385  0.67648419  0.48664110  1
  O  O135  1  0.06173385  0.17648419  0.01335890  1
  O  O136  1  0.53180561  0.43530246  0.42572022  1
  O  O137  1  0.03180561  0.93530246  0.07427978  1
  O  O138  1  0.46819439  0.56469754  0.57427978  1
  O  O139  1  0.96819439  0.06469754  0.92572022  1
  O  O140  1  0.20569882  0.30549479  0.14482587  1
  O  O141  1  0.70569882  0.80549479  0.35517413  1
  O  O142  1  0.79430118  0.69450521  0.85517413  1
  O  O143  1  0.29430118  0.19450521  0.64482587  1
  O  O144  1  0.25956625  0.31497989  0.01932176  1
  O  O145  1  0.75956625  0.81497989  0.48067824  1
  O  O146  1  0.74043375  0.68502011  0.98067824  1
  O  O147  1  0.24043375  0.18502011  0.51932176  1
  O  O148  1  0.47922295  0.33903447  0.00210789  1
  O  O149  1  0.97922295  0.83903447  0.49789211  1
  O  O150  1  0.52077705  0.66096553  0.99789211  1
  O  O151  1  0.02077705  0.16096553  0.50210789  1
  O  O152  1  0.54543719  0.44844742  0.10071071  1
  O  O153  1  0.04543719  0.94844742  0.39928929  1
  O  O154  1  0.45456281  0.55155258  0.89928929  1
  O  O155  1  0.95456281  0.05155258  0.60071071  1
  O  O156  1  0.02988330  0.34171157  0.25127914  1
  O  O157  1  0.52988330  0.84171157  0.24872086  1
  O  O158  1  0.97011670  0.65828843  0.74872086  1
  O  O159  1  0.47011670  0.15828843  0.75127914  1
  O  O160  1  0.04037803  0.52056326  0.21100254  1
  O  O161  1  0.54037803  0.02056326  0.28899746  1
  O  O162  1  0.95962197  0.47943674  0.78899746  1
  O  O163  1  0.45962197  0.97943674  0.71100254  1
  O  O164  1  0.84160373  0.27599293  0.32343557  1
  O  O165  1  0.34160373  0.77599293  0.17656443  1
  O  O166  1  0.15839627  0.72400707  0.67656443  1
  O  O167  1  0.65839627  0.22400707  0.82343557  1
  O  O168  1  0.71653542  0.40453270  0.31634272  1
  O  O169  1  0.21653542  0.90453270  0.18365728  1
  O  O170  1  0.28346458  0.59546730  0.68365728  1
  O  O171  1  0.78346458  0.09546730  0.81634272  1
  F  F172  1  0.26109136  0.58905737  0.31130386  1
  F  F173  1  0.76109136  0.08905737  0.18869614  1
  F  F174  1  0.73890864  0.41094263  0.68869614  1
  F  F175  1  0.23890864  0.91094263  0.81130386  1
  F  F176  1  0.19085124  0.49833616  0.39789545  1
  F  F177  1  0.69085124  0.99833616  0.10210455  1
  F  F178  1  0.80914876  0.50166384  0.60210455  1
  F  F179  1  0.30914876  0.00166384  0.89789545  1
  F  F180  1  0.34167545  0.57618057  0.41201758  1
  F  F181  1  0.84167545  0.07618057  0.08798242  1
  F  F182  1  0.65832455  0.42381943  0.58798242  1
  F  F183  1  0.15832455  0.92381943  0.91201758  1
  F  F184  1  0.45710161  0.15196237  0.41752346  1
  F  F185  1  0.95710161  0.65196237  0.08247654  1
  F  F186  1  0.54289839  0.84803763  0.58247654  1
  F  F187  1  0.04289839  0.34803763  0.91752346  1
  F  F188  1  0.60778828  0.22742314  0.43404476  1
  F  F189  1  0.10778828  0.72742314  0.06595524  1
  F  F190  1  0.39221172  0.77257686  0.56595524  1
  F  F191  1  0.89221172  0.27257686  0.93404476  1
  F  F192  1  0.52862680  0.24692421  0.33339649  1
  F  F193  1  0.02862680  0.74692421  0.16660351  1
  F  F194  1  0.47137320  0.75307579  0.66660351  1
  F  F195  1  0.97137320  0.25307579  0.83339649  1
  F  F196  1  0.26845221  0.52389976  0.15765195  1
  F  F197  1  0.76845221  0.02389976  0.34234805  1
  F  F198  1  0.73154779  0.47610024  0.84234805  1
  F  F199  1  0.23154779  0.97610024  0.65765195  1
  F  F200  1  0.33037336  0.53303558  0.04989243  1
  F  F201  1  0.83037336  0.03303558  0.45010757  1
  F  F202  1  0.66962664  0.46696442  0.95010757  1
  F  F203  1  0.16962664  0.96696442  0.54989243  1
  F  F204  1  0.16765328  0.50037592  0.06609533  1
  F  F205  1  0.66765328  0.00037592  0.43390467  1
  F  F206  1  0.83234672  0.49962408  0.93390467  1
  F  F207  1  0.33234672  0.99962408  0.56609533  1
  F  F208  1  0.51124313  0.16195054  0.10064733  1
  F  F209  1  0.01124313  0.66195054  0.39935267  1
  F  F210  1  0.48875687  0.83804946  0.89935267  1
  F  F211  1  0.98875687  0.33804946  0.60064733  1
  F  F212  1  0.56962750  0.26384246  0.18527258  1
  F  F213  1  0.06962750  0.76384246  0.31472742  1
  F  F214  1  0.43037250  0.73615754  0.81472742  1
  F  F215  1  0.93037250  0.23615754  0.68527258  1
  F  F216  1  0.65130972  0.25835702  0.08463383  1
  F  F217  1  0.15130972  0.75835702  0.41536617  1
  F  F218  1  0.34869028  0.74164298  0.91536617  1
  F  F219  1  0.84869028  0.24164298  0.58463383  1
  F  F220  1  0.85104956  0.30258936  0.15903196  1
  F  F221  1  0.35104956  0.80258936  0.34096804  1
  F  F222  1  0.14895044  0.69741064  0.84096804  1
  F  F223  1  0.64895044  0.19741064  0.65903196  1
  F  F224  1  0.85801503  0.45846978  0.11957354  1
  F  F225  1  0.35801503  0.95846978  0.38042646  1
  F  F226  1  0.14198497  0.54153022  0.88042646  1
  F  F227  1  0.64198497  0.04153022  0.61957354  1
  F  F228  1  0.98121736  0.36303431  0.09632588  1
  F  F229  1  0.48121736  0.86303431  0.40367412  1
  F  F230  1  0.01878264  0.63696569  0.90367412  1
  F  F231  1  0.51878264  0.13696569  0.59632588  1
  F  F232  1  0.95460665  0.41824575  0.42770529  1
  F  F233  1  0.45460665  0.91824575  0.07229471  1
  F  F234  1  0.04539335  0.58175425  0.57229471  1
  F  F235  1  0.54539335  0.08175425  0.92770529  1
  F  F236  1  0.80245647  0.36705201  0.46442106  1
  F  F237  1  0.30245647  0.86705201  0.03557894  1
  F  F238  1  0.19754353  0.63294799  0.53557894  1
  F  F239  1  0.69754353  0.13294799  0.96442106  1
  F  F240  1  0.83408256  0.52215041  0.42586542  1
  F  F241  1  0.33408256  0.02215041  0.07413458  1
  F  F242  1  0.16591744  0.47784959  0.57413458  1
  F  F243  1  0.66591744  0.97784959  0.92586542  1
