# generated using pymatgen
data_Mg17(SiO3)20
_symmetry_space_group_name_H-M   'P 1'
_cell_length_a   5.36293502
_cell_length_b   9.51082640
_cell_length_c   23.02846967
_cell_angle_alpha   90.00134111
_cell_angle_beta   83.31323082
_cell_angle_gamma   90.01150678
_symmetry_Int_Tables_number   1
_chemical_formula_structural   Mg17(SiO3)20
_chemical_formula_sum   'Mg17 Si20 O60'
_cell_volume   1166.59874606
_cell_formula_units_Z   1
loop_
 _symmetry_equiv_pos_site_id
 _symmetry_equiv_pos_as_xyz
  1  'x, y, z'
loop_
 _atom_site_type_symbol
 _atom_site_label
 _atom_site_symmetry_multiplicity
 _atom_site_fract_x
 _atom_site_fract_y
 _atom_site_fract_z
 _atom_site_occupancy
  Mg  Mg0  1  0.23436800  0.50000000  0.53126400  1
  Mg  Mg1  1  0.76563200  0.50000000  0.46873600  1
  Mg  Mg2  1  0.69777000  0.50000000  0.60446000  1
  Mg  Mg3  1  0.30223000  0.50000000  0.39554000  1
  Mg  Mg4  1  0.16043600  0.50000000  0.67912900  1
  Mg  Mg5  1  0.83956400  0.50000000  0.32087100  1
  Mg  Mg6  1  0.62732300  0.50000000  0.74535500  1
  Mg  Mg7  1  0.37267700  0.50000000  0.25464500  1
  Mg  Mg8  1  0.09422200  0.50000000  0.81155500  1
  Mg  Mg9  1  0.90577800  0.50000000  0.18844500  1
  Mg  Mg10  1  0.53695800  0.00000000  0.92608300  1
  Mg  Mg11  1  0.46304200  0.00000000  0.07391700  1
  Mg  Mg12  1  0.07044000  0.00000000  0.85912100  1
  Mg  Mg13  1  0.92956000  0.00000000  0.14087900  1
  Mg  Mg14  1  0.00000000  0.00000000  0.00000000  1
  Mg  Mg15  1  0.60292400  0.00000000  0.79415300  1
  Mg  Mg16  1  0.39707600  0.00000000  0.20584700  1
  Si  Si17  1  0.57311100  0.78874100  0.53384200  1
  Si  Si18  1  0.89304700  0.21125900  0.53384200  1
  Si  Si19  1  0.42688900  0.21125900  0.46615800  1
  Si  Si20  1  0.10695300  0.78874100  0.46615800  1
  Si  Si21  1  0.49272800  0.78522500  0.66962800  1
  Si  Si22  1  0.83764400  0.21477500  0.66962800  1
  Si  Si23  1  0.50727200  0.21477500  0.33037200  1
  Si  Si24  1  0.16235600  0.78522500  0.33037200  1
  Si  Si25  1  0.95993700  0.79320100  0.73954300  1
  Si  Si26  1  0.30052000  0.20679900  0.73954300  1
  Si  Si27  1  0.04006300  0.20679900  0.26045700  1
  Si  Si28  1  0.69948000  0.79320100  0.26045700  1
  Si  Si29  1  0.86021200  0.71551000  0.93299800  1
  Si  Si30  1  0.20679000  0.28449000  0.93299800  1
  Si  Si31  1  0.13978800  0.28449000  0.06700200  1
  Si  Si32  1  0.79321000  0.71551000  0.06700200  1
  Si  Si33  1  0.39730000  0.70623800  0.86434900  1
  Si  Si34  1  0.73835100  0.29376200  0.86434900  1
  Si  Si35  1  0.60270000  0.29376200  0.13565100  1
  Si  Si36  1  0.26164900  0.70623800  0.13565100  1
  O  O37  1  0.05446300  0.58810300  0.60507500  1
  O  O38  1  0.34046200  0.41189700  0.60507500  1
  O  O39  1  0.94553700  0.41189700  0.39492500  1
  O  O40  1  0.65953800  0.58810300  0.39492500  1
  O  O41  1  0.84075000  0.84587100  0.50026700  1
  O  O42  1  0.65898300  0.15412900  0.50026700  1
  O  O43  1  0.15925000  0.15412900  0.49973300  1
  O  O44  1  0.34101700  0.84587100  0.49973300  1
  O  O45  1  0.57371500  0.61601700  0.53394400  1
  O  O46  1  0.89234100  0.38398300  0.53394400  1
  O  O47  1  0.42628500  0.38398300  0.46605600  1
  O  O48  1  0.10765900  0.61601700  0.46605600  1
  O  O49  1  0.54029800  0.84253500  0.60221200  1
  O  O50  1  0.85749000  0.15746500  0.60221200  1
  O  O51  1  0.45970200  0.15746500  0.39778800  1
  O  O52  1  0.14251000  0.84253500  0.39778800  1
  O  O53  1  0.50392600  0.61353100  0.67288100  1
  O  O54  1  0.82319300  0.38646900  0.67288100  1
  O  O55  1  0.49607400  0.38646900  0.32711900  1
  O  O56  1  0.17680700  0.61353100  0.32711900  1
  O  O57  1  0.22224200  0.84242900  0.70042400  1
  O  O58  1  0.07733500  0.15757100  0.70042400  1
  O  O59  1  0.77775800  0.15757100  0.29957600  1
  O  O60  1  0.92266500  0.84242900  0.29957600  1
  O  O61  1  0.71028400  0.84913400  0.70778400  1
  O  O62  1  0.58193200  0.15086600  0.70778400  1
  O  O63  1  0.28971600  0.15086600  0.29221600  1
  O  O64  1  0.41806800  0.84913400  0.29221600  1
  O  O65  1  0.95762700  0.62078400  0.74415600  1
  O  O66  1  0.29821600  0.37921600  0.74415600  1
  O  O67  1  0.04237300  0.37921600  0.25584400  1
  O  O68  1  0.70178400  0.62078400  0.25584400  1
  O  O69  1  0.91376400  0.87909700  0.80033700  1
  O  O70  1  0.28589900  0.12090300  0.80033700  1
  O  O71  1  0.08623600  0.12090300  0.19966300  1
  O  O72  1  0.71410100  0.87909700  0.19966300  1
  O  O73  1  0.35550400  0.91083000  0.00000000  1
  O  O74  1  0.64449600  0.08917000  0.00000000  1
  O  O75  1  0.87316900  0.88705200  0.93098500  1
  O  O76  1  0.19584500  0.11294800  0.93098500  1
  O  O77  1  0.12683100  0.11294800  0.06901500  1
  O  O78  1  0.80415500  0.88705200  0.06901500  1
  O  O79  1  0.39890700  0.87897800  0.86058200  1
  O  O80  1  0.74051000  0.12102200  0.86058200  1
  O  O81  1  0.60109300  0.12102200  0.13941800  1
  O  O82  1  0.25949000  0.87897800  0.13941800  1
  O  O83  1  0.41293600  0.61924900  0.80408900  1
  O  O84  1  0.78297500  0.38075100  0.80408900  1
  O  O85  1  0.58706400  0.38075100  0.19591100  1
  O  O86  1  0.21702500  0.61924900  0.19591100  1
  O  O87  1  0.61810700  0.65611200  0.90384900  1
  O  O88  1  0.47804400  0.34388800  0.90384900  1
  O  O89  1  0.38189300  0.34388800  0.09615100  1
  O  O90  1  0.52195600  0.65611200  0.09615100  1
  O  O91  1  0.11440400  0.65003900  0.89520700  1
  O  O92  1  0.99039000  0.34996100  0.89520700  1
  O  O93  1  0.88559600  0.34996100  0.10479300  1
  O  O94  1  0.00961000  0.65003900  0.10479300  1
  O  O95  1  0.84668800  0.65713400  0.00000000  1
  O  O96  1  0.15331200  0.34286600  0.00000000  1
