# generated using pymatgen
data_Cs2TlCl5O
_symmetry_space_group_name_H-M   'P 1'
_cell_length_a   7.60648100
_cell_length_b   11.53687000
_cell_length_c   14.66119200
_cell_angle_alpha   90.00000000
_cell_angle_beta   90.00000000
_cell_angle_gamma   90.00000000
_symmetry_Int_Tables_number   1
_chemical_formula_structural   Cs2TlCl5O
_chemical_formula_sum   'Cs8 Tl4 Cl20 O4'
_cell_volume   1286.59264672
_cell_formula_units_Z   4
loop_
 _symmetry_equiv_pos_site_id
 _symmetry_equiv_pos_as_xyz
  1  'x, y, z'
loop_
 _atom_site_type_symbol
 _atom_site_label
 _atom_site_symmetry_multiplicity
 _atom_site_fract_x
 _atom_site_fract_y
 _atom_site_fract_z
 _atom_site_occupancy
  Cs  Cs0  1  0.71238000  0.49044900  0.36968800  1
  Cs  Cs1  1  0.78762000  0.00955100  0.86968800  1
  Cs  Cs2  1  0.28762000  0.99044900  0.63031200  1
  Cs  Cs3  1  0.21238000  0.50955100  0.13031200  1
  Cs  Cs4  1  0.28762000  0.50955100  0.63031200  1
  Cs  Cs5  1  0.21238000  0.99044900  0.13031200  1
  Cs  Cs6  1  0.71238000  0.00955100  0.36968800  1
  Cs  Cs7  1  0.78762000  0.49044900  0.86968800  1
  Tl  Tl8  1  0.74440400  0.75000000  0.11377700  1
  Tl  Tl9  1  0.75559600  0.75000000  0.61377700  1
  Tl  Tl10  1  0.25559600  0.25000000  0.88622300  1
  Tl  Tl11  1  0.24440400  0.25000000  0.38622300  1
  Cl  Cl12  1  0.96814200  0.75000000  0.98458100  1
  Cl  Cl13  1  0.53185800  0.75000000  0.48458100  1
  Cl  Cl14  1  0.03185800  0.25000000  0.01541900  1
  Cl  Cl15  1  0.46814200  0.25000000  0.51541900  1
  Cl  Cl16  1  0.90920700  0.75000000  0.26520000  1
  Cl  Cl17  1  0.59079300  0.75000000  0.76520000  1
  Cl  Cl18  1  0.09079300  0.25000000  0.73480000  1
  Cl  Cl19  1  0.40920700  0.25000000  0.23480000  1
  Cl  Cl20  1  0.39937200  0.75000000  0.23920200  1
  Cl  Cl21  1  0.10062800  0.75000000  0.73920200  1
  Cl  Cl22  1  0.60062800  0.25000000  0.76079800  1
  Cl  Cl23  1  0.89937200  0.25000000  0.26079800  1
  Cl  Cl24  1  0.72258800  0.52400000  0.11107500  1
  Cl  Cl25  1  0.77741200  0.97600000  0.61107500  1
  Cl  Cl26  1  0.27741200  0.02400000  0.88892500  1
  Cl  Cl27  1  0.22258800  0.47600000  0.38892500  1
  Cl  Cl28  1  0.27741200  0.47600000  0.88892500  1
  Cl  Cl29  1  0.22258800  0.02400000  0.38892500  1
  Cl  Cl30  1  0.72258800  0.97600000  0.11107500  1
  Cl  Cl31  1  0.77741200  0.52400000  0.61107500  1
  O  O32  1  0.44879300  0.75000000  0.12625000  1
  O  O33  1  0.05120700  0.75000000  0.62625000  1
  O  O34  1  0.55120700  0.25000000  0.87375000  1
  O  O35  1  0.94879300  0.25000000  0.37375000  1
