# generated using pymatgen
data_Ca(CO2)2
_symmetry_space_group_name_H-M   'P 1'
_cell_length_a   6.46649100
_cell_length_b   10.31181500
_cell_length_c   13.49618800
_cell_angle_alpha   90.00000000
_cell_angle_beta   90.00000000
_cell_angle_gamma   90.00000000
_symmetry_Int_Tables_number   1
_chemical_formula_structural   Ca(CO2)2
_chemical_formula_sum   'Ca8 C16 O32'
_cell_volume   899.94280607
_cell_formula_units_Z   8
loop_
 _symmetry_equiv_pos_site_id
 _symmetry_equiv_pos_as_xyz
  1  'x, y, z'
loop_
 _atom_site_type_symbol
 _atom_site_label
 _atom_site_symmetry_multiplicity
 _atom_site_fract_x
 _atom_site_fract_y
 _atom_site_fract_z
 _atom_site_occupancy
  Ca  Ca0  1  0.47670700  0.13370600  0.38884200  1
  Ca  Ca1  1  0.02329300  0.63370600  0.61115800  1
  Ca  Ca2  1  0.97670700  0.86629400  0.11115800  1
  Ca  Ca3  1  0.52329300  0.36629400  0.88884200  1
  Ca  Ca4  1  0.52329300  0.86629400  0.61115800  1
  Ca  Ca5  1  0.97670700  0.36629400  0.38884200  1
  Ca  Ca6  1  0.02329300  0.13370600  0.88884200  1
  Ca  Ca7  1  0.47670700  0.63370600  0.11115800  1
  C  C8  1  0.16205300  0.11343200  0.54626300  1
  C  C9  1  0.33794700  0.61343200  0.45373700  1
  C  C10  1  0.66205300  0.88656800  0.95373700  1
  C  C11  1  0.83794700  0.38656800  0.04626300  1
  C  C12  1  0.83794700  0.88656800  0.45373700  1
  C  C13  1  0.66205300  0.38656800  0.54626300  1
  C  C14  1  0.33794700  0.11343200  0.04626300  1
  C  C15  1  0.16205300  0.61343200  0.95373700  1
  C  C16  1  0.85563300  0.12955500  0.23163500  1
  C  C17  1  0.64436700  0.62955500  0.76836500  1
  C  C18  1  0.35563300  0.87044500  0.26836500  1
  C  C19  1  0.14436700  0.37044500  0.73163500  1
  C  C20  1  0.14436700  0.87044500  0.76836500  1
  C  C21  1  0.35563300  0.37044500  0.23163500  1
  C  C22  1  0.64436700  0.12955500  0.73163500  1
  C  C23  1  0.85563300  0.62955500  0.26836500  1
  O  O24  1  0.31225800  0.03680700  0.54861200  1
  O  O25  1  0.18774200  0.53680700  0.45138800  1
  O  O26  1  0.81225800  0.96319300  0.95138800  1
  O  O27  1  0.68774200  0.46319300  0.04861200  1
  O  O28  1  0.68774200  0.96319300  0.45138800  1
  O  O29  1  0.81225800  0.46319300  0.54861200  1
  O  O30  1  0.18774200  0.03680700  0.04861200  1
  O  O31  1  0.31225800  0.53680700  0.95138800  1
  O  O32  1  0.12427700  0.19978000  0.48352500  1
  O  O33  1  0.37572300  0.69978000  0.51647500  1
  O  O34  1  0.62427700  0.80022000  0.01647500  1
  O  O35  1  0.87572300  0.30022000  0.98352500  1
  O  O36  1  0.87572300  0.80022000  0.51647500  1
  O  O37  1  0.62427700  0.30022000  0.48352500  1
  O  O38  1  0.37572300  0.19978000  0.98352500  1
  O  O39  1  0.12427700  0.69978000  0.01647500  1
  O  O40  1  0.78360300  0.20052300  0.29974100  1
  O  O41  1  0.71639700  0.70052300  0.70025900  1
  O  O42  1  0.28360300  0.79947700  0.20025900  1
  O  O43  1  0.21639700  0.29947700  0.79974100  1
  O  O44  1  0.21639700  0.79947700  0.70025900  1
  O  O45  1  0.28360300  0.29947700  0.29974100  1
  O  O46  1  0.71639700  0.20052300  0.79974100  1
  O  O47  1  0.78360300  0.70052300  0.20025900  1
  O  O48  1  0.79721800  0.02255600  0.20000900  1
  O  O49  1  0.70278200  0.52255600  0.79999100  1
  O  O50  1  0.29721800  0.97744400  0.29999100  1
  O  O51  1  0.20278200  0.47744400  0.70000900  1
  O  O52  1  0.20278200  0.97744400  0.79999100  1
  O  O53  1  0.29721800  0.47744400  0.20000900  1
  O  O54  1  0.70278200  0.02255600  0.70000900  1
  O  O55  1  0.79721800  0.52255600  0.29999100  1
