# generated using pymatgen
data_H13RuN5(ClO)2
_symmetry_space_group_name_H-M   'P 1'
_cell_length_a   6.90791740
_cell_length_b   6.90791740
_cell_length_c   11.22281540
_cell_angle_alpha   74.62620101
_cell_angle_beta   74.62620101
_cell_angle_gamma   66.98726695
_symmetry_Int_Tables_number   1
_chemical_formula_structural   H13RuN5(ClO)2
_chemical_formula_sum   'H26 Ru2 N10 Cl4 O4'
_cell_volume   467.35384214
_cell_formula_units_Z   2
loop_
 _symmetry_equiv_pos_site_id
 _symmetry_equiv_pos_as_xyz
  1  'x, y, z'
loop_
 _atom_site_type_symbol
 _atom_site_label
 _atom_site_symmetry_multiplicity
 _atom_site_fract_x
 _atom_site_fract_y
 _atom_site_fract_z
 _atom_site_occupancy
  H  H0  1  0.89689500  0.89689500  0.81993300  1
  H  H1  1  0.10310500  0.10310500  0.18006700  1
  H  H2  1  0.06837900  0.42874900  0.88098500  1
  H  H3  1  0.42874900  0.06837900  0.88098500  1
  H  H4  1  0.93162100  0.57125100  0.11901500  1
  H  H5  1  0.57125100  0.93162100  0.11901500  1
  H  H6  1  0.93872100  0.27200700  0.97577000  1
  H  H7  1  0.27200700  0.93872100  0.97577000  1
  H  H8  1  0.06127900  0.72799300  0.02423000  1
  H  H9  1  0.72799300  0.06127900  0.02423000  1
  H  H10  1  0.82401800  0.45944400  0.86198500  1
  H  H11  1  0.45944400  0.82401800  0.86198500  1
  H  H12  1  0.17598200  0.54055600  0.13801500  1
  H  H13  1  0.54055600  0.17598200  0.13801500  1
  H  H14  1  0.74155100  0.37511100  0.69776000  1
  H  H15  1  0.37511100  0.74155100  0.69776000  1
  H  H16  1  0.25844900  0.62488900  0.30224000  1
  H  H17  1  0.62488900  0.25844900  0.30224000  1
  H  H18  1  0.82587800  0.14694000  0.64528400  1
  H  H19  1  0.14694000  0.82587800  0.64528400  1
  H  H20  1  0.17412200  0.85306000  0.35471600  1
  H  H21  1  0.85306000  0.17412200  0.35471600  1
  H  H22  1  0.92410700  0.33622900  0.56452100  1
  H  H23  1  0.33622900  0.92410700  0.56452100  1
  H  H24  1  0.07589300  0.66377100  0.43547900  1
  H  H25  1  0.66377100  0.07589300  0.43547900  1
  Ru  Ru26  1  0.12476500  0.12476500  0.76110000  1
  Ru  Ru27  1  0.87523500  0.87523500  0.23890000  1
  N  N28  1  0.27557400  0.27557400  0.65889300  1
  N  N29  1  0.72442600  0.72442600  0.34110700  1
  N  N30  1  0.96671400  0.35002800  0.88422600  1
  N  N31  1  0.35002800  0.96671400  0.88422600  1
  N  N32  1  0.03328600  0.64997200  0.11577400  1
  N  N33  1  0.64997200  0.03328600  0.11577400  1
  N  N34  1  0.87370100  0.26624800  0.65369200  1
  N  N35  1  0.26624800  0.87370100  0.65369200  1
  N  N36  1  0.12629900  0.73375200  0.34630800  1
  N  N37  1  0.73375200  0.12629900  0.34630800  1
  Cl  Cl38  1  0.43097500  0.43097500  0.85936300  1
  Cl  Cl39  1  0.56902500  0.56902500  0.14063700  1
  Cl  Cl40  1  0.81450600  0.81450600  0.64816000  1
  Cl  Cl41  1  0.18549400  0.18549400  0.35184000  1
  O  O42  1  0.37119000  0.37119000  0.57985100  1
  O  O43  1  0.62881000  0.62881000  0.42014900  1
  O  O44  1  0.95249400  0.95249400  0.87097900  1
  O  O45  1  0.04750600  0.04750600  0.12902100  1
