# generated using pymatgen
data_PtC2S2(O4F)2
_symmetry_space_group_name_H-M   'P 1'
_cell_length_a   15.31355400
_cell_length_b   7.71836400
_cell_length_c   11.92528243
_cell_angle_alpha   50.50271112
_cell_angle_beta   90.00000000
_cell_angle_gamma   90.00000000
_symmetry_Int_Tables_number   1
_chemical_formula_structural   PtC2S2(O4F)2
_chemical_formula_sum   'Pt4 C8 S8 O32 F8'
_cell_volume   1087.65940222
_cell_formula_units_Z   4
loop_
 _symmetry_equiv_pos_site_id
 _symmetry_equiv_pos_as_xyz
  1  'x, y, z'
loop_
 _atom_site_type_symbol
 _atom_site_label
 _atom_site_symmetry_multiplicity
 _atom_site_fract_x
 _atom_site_fract_y
 _atom_site_fract_z
 _atom_site_occupancy
  Pt  Pt0  1  0.63822300  0.72715400  0.30333800  1
  Pt  Pt1  1  0.86177700  0.72715400  0.80333800  1
  Pt  Pt2  1  0.36177700  0.27284600  0.69666200  1
  Pt  Pt3  1  0.13822300  0.27284600  0.19666200  1
  C  C4  1  0.60475500  0.55484200  0.24911200  1
  C  C5  1  0.89524500  0.55484200  0.74911200  1
  C  C6  1  0.39524500  0.44515800  0.75088800  1
  C  C7  1  0.10475500  0.44515800  0.25088800  1
  C  C8  1  0.73505400  0.53897700  0.40809300  1
  C  C9  1  0.76494600  0.53897700  0.90809300  1
  C  C10  1  0.26494600  0.46102300  0.59190700  1
  C  C11  1  0.23505400  0.46102300  0.09190700  1
  S  S12  1  0.67847300  0.86772300  0.49894300  1
  S  S13  1  0.82152700  0.86772300  0.99894300  1
  S  S14  1  0.32152700  0.13227700  0.50105700  1
  S  S15  1  0.17847300  0.13227700  0.00105700  1
  S  S16  1  0.44263400  0.90718200  0.22355700  1
  S  S17  1  0.05736600  0.90718200  0.72355700  1
  S  S18  1  0.55736600  0.09281800  0.77644300  1
  S  S19  1  0.94263400  0.09281800  0.27644300  1
  O  O20  1  0.58152900  0.44911900  0.21859200  1
  O  O21  1  0.91847100  0.44911900  0.71859200  1
  O  O22  1  0.41847100  0.55088100  0.78140800  1
  O  O23  1  0.08152900  0.55088100  0.28140800  1
  O  O24  1  0.79371500  0.42604600  0.47146100  1
  O  O25  1  0.70628500  0.42604600  0.97146100  1
  O  O26  1  0.20628500  0.57395400  0.52853900  1
  O  O27  1  0.29371500  0.57395400  0.02853900  1
  O  O28  1  0.66963200  0.93383000  0.34876400  1
  O  O29  1  0.83036800  0.93383000  0.84876400  1
  O  O30  1  0.33036800  0.06617000  0.65123600  1
  O  O31  1  0.16963200  0.06617000  0.15123600  1
  O  O32  1  0.71824000  0.65152100  0.60439100  1
  O  O33  1  0.78176000  0.65152100  0.10439100  1
  O  O34  1  0.28176000  0.34847900  0.39560900  1
  O  O35  1  0.21824000  0.34847900  0.89560900  1
  O  O36  1  0.70685900  0.05823500  0.48369000  1
  O  O37  1  0.79314100  0.05823500  0.98369000  1
  O  O38  1  0.29314100  0.94176500  0.51631000  1
  O  O39  1  0.20685900  0.94176500  0.01631000  1
  O  O40  1  0.53941300  0.95059600  0.18266500  1
  O  O41  1  0.96058700  0.95059600  0.68266500  1
  O  O42  1  0.46058700  0.04940400  0.81733500  1
  O  O43  1  0.03941300  0.04940400  0.31733500  1
  O  O44  1  0.42805200  0.75623000  0.37738300  1
  O  O45  1  0.07194800  0.75623000  0.87738300  1
  O  O46  1  0.57194800  0.24377000  0.62261700  1
  O  O47  1  0.92805200  0.24377000  0.12261700  1
  O  O48  1  0.39607600  0.11453300  0.12918200  1
  O  O49  1  0.10392400  0.11453300  0.62918200  1
  O  O50  1  0.60392400  0.88546700  0.87081800  1
  O  O51  1  0.89607600  0.88546700  0.37081800  1
  F  F52  1  0.57773700  0.83283400  0.54606300  1
  F  F53  1  0.92226300  0.83283400  0.04606300  1
  F  F54  1  0.42226300  0.16716600  0.45393700  1
  F  F55  1  0.07773700  0.16716600  0.95393700  1
  F  F56  1  0.41622200  0.76660200  0.17090400  1
  F  F57  1  0.08377800  0.76660200  0.67090400  1
  F  F58  1  0.58377800  0.23339800  0.82909600  1
  F  F59  1  0.91622200  0.23339800  0.32909600  1
