# generated using pymatgen
data_Zn(BO3)3
_symmetry_space_group_name_H-M   'P 1'
_cell_length_a   7.05862300
_cell_length_b   8.65568800
_cell_length_c   8.96144200
_cell_angle_alpha   90.00000000
_cell_angle_beta   90.00000000
_cell_angle_gamma   90.00000000
_symmetry_Int_Tables_number   1
_chemical_formula_structural   Zn(BO3)3
_chemical_formula_sum   'Zn4 B12 O36'
_cell_volume   547.51935826
_cell_formula_units_Z   4
loop_
 _symmetry_equiv_pos_site_id
 _symmetry_equiv_pos_as_xyz
  1  'x, y, z'
loop_
 _atom_site_type_symbol
 _atom_site_label
 _atom_site_symmetry_multiplicity
 _atom_site_fract_x
 _atom_site_fract_y
 _atom_site_fract_z
 _atom_site_occupancy
  Zn  Zn0  1  0.25000000  0.96297400  0.22365600  1
  Zn  Zn1  1  0.25000000  0.46297400  0.27634400  1
  Zn  Zn2  1  0.75000000  0.03702600  0.77634400  1
  Zn  Zn3  1  0.75000000  0.53702600  0.72365600  1
  B  B4  1  0.43307800  0.25281600  0.07945800  1
  B  B5  1  0.06692200  0.75281600  0.42054200  1
  B  B6  1  0.93307800  0.74718400  0.92054200  1
  B  B7  1  0.56692200  0.24718400  0.57945800  1
  B  B8  1  0.56692200  0.74718400  0.92054200  1
  B  B9  1  0.93307800  0.24718400  0.57945800  1
  B  B10  1  0.06692200  0.25281600  0.07945800  1
  B  B11  1  0.43307800  0.75281600  0.42054200  1
  B  B12  1  0.25000000  0.29888100  0.85246700  1
  B  B13  1  0.25000000  0.79888100  0.64753300  1
  B  B14  1  0.75000000  0.70111900  0.14753300  1
  B  B15  1  0.75000000  0.20111900  0.35246700  1
  O  O16  1  0.46537500  0.38700800  0.16185500  1
  O  O17  1  0.03462500  0.88700800  0.33814500  1
  O  O18  1  0.96537500  0.61299200  0.83814500  1
  O  O19  1  0.53462500  0.11299200  0.66185500  1
  O  O20  1  0.53462500  0.61299200  0.83814500  1
  O  O21  1  0.96537500  0.11299200  0.66185500  1
  O  O22  1  0.03462500  0.38700800  0.16185500  1
  O  O23  1  0.46537500  0.88700800  0.33814500  1
  O  O24  1  0.25000000  0.16425700  0.11854200  1
  O  O25  1  0.25000000  0.66425700  0.38145800  1
  O  O26  1  0.75000000  0.83574300  0.88145800  1
  O  O27  1  0.75000000  0.33574300  0.61854200  1
  O  O28  1  0.58300500  0.12654000  0.10916500  1
  O  O29  1  0.91699500  0.62654000  0.39083500  1
  O  O30  1  0.08300500  0.87346000  0.89083500  1
  O  O31  1  0.41699500  0.37346000  0.60916500  1
  O  O32  1  0.41699500  0.87346000  0.89083500  1
  O  O33  1  0.08300500  0.37346000  0.60916500  1
  O  O34  1  0.91699500  0.12654000  0.10916500  1
  O  O35  1  0.58300500  0.62654000  0.39083500  1
  O  O36  1  0.41957200  0.28697100  0.91633900  1
  O  O37  1  0.08042800  0.78697100  0.58366100  1
  O  O38  1  0.91957200  0.71302900  0.08366100  1
  O  O39  1  0.58042800  0.21302900  0.41633900  1
  O  O40  1  0.58042800  0.71302900  0.08366100  1
  O  O41  1  0.91957200  0.21302900  0.41633900  1
  O  O42  1  0.08042800  0.28697100  0.91633900  1
  O  O43  1  0.41957200  0.78697100  0.58366100  1
  O  O44  1  0.25000000  0.30426400  0.67954000  1
  O  O45  1  0.25000000  0.80426400  0.82046000  1
  O  O46  1  0.75000000  0.69573600  0.32046000  1
  O  O47  1  0.75000000  0.19573600  0.17954000  1
  O  O48  1  0.25000000  0.74204200  0.13845900  1
  O  O49  1  0.25000000  0.24204200  0.36154100  1
  O  O50  1  0.75000000  0.25795800  0.86154100  1
  O  O51  1  0.75000000  0.75795800  0.63845900  1
