# generated using pymatgen
data_Ca5V3O13
_symmetry_space_group_name_H-M   'P 1'
_cell_length_a   9.92792453
_cell_length_b   9.92792453
_cell_length_c   7.04142500
_cell_angle_alpha   90.00000000
_cell_angle_beta   90.00000000
_cell_angle_gamma   120.00000352
_symmetry_Int_Tables_number   1
_chemical_formula_structural   Ca5V3O13
_chemical_formula_sum   'Ca10 V6 O26'
_cell_volume   601.04654929
_cell_formula_units_Z   2
loop_
 _symmetry_equiv_pos_site_id
 _symmetry_equiv_pos_as_xyz
  1  'x, y, z'
loop_
 _atom_site_type_symbol
 _atom_site_label
 _atom_site_symmetry_multiplicity
 _atom_site_fract_x
 _atom_site_fract_y
 _atom_site_fract_z
 _atom_site_occupancy
  Ca  Ca0  1  0.33333300  0.66666700  0.49765800  1
  Ca  Ca1  1  0.66666700  0.33333300  0.99765800  1
  Ca  Ca2  1  0.66666700  0.33333300  0.50234200  1
  Ca  Ca3  1  0.33333300  0.66666700  0.00234200  1
  Ca  Ca4  1  0.75531800  0.75092100  0.25000000  1
  Ca  Ca5  1  0.99560400  0.24468200  0.25000000  1
  Ca  Ca6  1  0.24907900  0.00439600  0.25000000  1
  Ca  Ca7  1  0.24468200  0.24907900  0.75000000  1
  Ca  Ca8  1  0.00439600  0.75531800  0.75000000  1
  Ca  Ca9  1  0.75092100  0.99560400  0.75000000  1
  V  V10  1  0.97059000  0.60010900  0.25000000  1
  V  V11  1  0.62951900  0.02941000  0.25000000  1
  V  V12  1  0.39989100  0.37048100  0.25000000  1
  V  V13  1  0.02941000  0.39989100  0.75000000  1
  V  V14  1  0.37048100  0.97059000  0.75000000  1
  V  V15  1  0.60010900  0.62951900  0.75000000  1
  O  O16  1  0.17024200  0.67539600  0.25000000  1
  O  O17  1  0.50515400  0.82975800  0.25000000  1
  O  O18  1  0.32460400  0.49484600  0.25000000  1
  O  O19  1  0.82975800  0.32460400  0.75000000  1
  O  O20  1  0.49484600  0.17024200  0.75000000  1
  O  O21  1  0.67539600  0.50515400  0.75000000  1
  O  O22  1  0.86583300  0.39501000  0.25000000  1
  O  O23  1  0.52917700  0.13416700  0.25000000  1
  O  O24  1  0.60499000  0.47082300  0.25000000  1
  O  O25  1  0.13416700  0.60499000  0.75000000  1
  O  O26  1  0.47082300  0.86583300  0.75000000  1
  O  O27  1  0.39501000  0.52917700  0.75000000  1
  O  O28  1  0.90983100  0.66199700  0.44466900  1
  O  O29  1  0.75216600  0.09016900  0.44466900  1
  O  O30  1  0.33800300  0.24783400  0.44466900  1
  O  O31  1  0.09016900  0.33800300  0.94466900  1
  O  O32  1  0.24783400  0.90983100  0.94466900  1
  O  O33  1  0.66199700  0.75216600  0.94466900  1
  O  O34  1  0.09016900  0.33800300  0.55533100  1
  O  O35  1  0.24783400  0.90983100  0.55533100  1
  O  O36  1  0.66199700  0.75216600  0.55533100  1
  O  O37  1  0.90983100  0.66199700  0.05533100  1
  O  O38  1  0.75216600  0.09016900  0.05533100  1
  O  O39  1  0.33800300  0.24783400  0.05533100  1
  O  O40  1  0.00000000  0.00000000  0.25000000  1
  O  O41  1  0.00000000  0.00000000  0.75000000  1
