# generated using pymatgen
data_K2GeC6O13
_symmetry_space_group_name_H-M   'P 1'
_cell_length_a   10.21024963
_cell_length_b   10.21024963
_cell_length_c   15.54361845
_cell_angle_alpha   82.98708212
_cell_angle_beta   82.98708212
_cell_angle_gamma   121.18218140
_symmetry_Int_Tables_number   1
_chemical_formula_structural   K2GeC6O13
_chemical_formula_sum   'K8 Ge4 C24 O52'
_cell_volume   1342.76529738
_cell_formula_units_Z   4
loop_
 _symmetry_equiv_pos_site_id
 _symmetry_equiv_pos_as_xyz
  1  'x, y, z'
loop_
 _atom_site_type_symbol
 _atom_site_label
 _atom_site_symmetry_multiplicity
 _atom_site_fract_x
 _atom_site_fract_y
 _atom_site_fract_z
 _atom_site_occupancy
  K  K0  1  0.22308700  0.66280100  0.38773600  1
  K  K1  1  0.33719900  0.77691300  0.11226400  1
  K  K2  1  0.77691300  0.33719900  0.61226400  1
  K  K3  1  0.66280100  0.22308700  0.88773600  1
  K  K4  1  0.92080100  0.73934200  0.03840600  1
  K  K5  1  0.26065800  0.07919900  0.46159400  1
  K  K6  1  0.07919900  0.26065800  0.96159400  1
  K  K7  1  0.73934200  0.92080100  0.53840600  1
  Ge  Ge8  1  0.64167900  0.35832100  0.25000000  1
  Ge  Ge9  1  0.35832100  0.64167900  0.75000000  1
  Ge  Ge10  1  0.93828400  0.06171600  0.25000000  1
  Ge  Ge11  1  0.06171600  0.93828400  0.75000000  1
  C  C12  1  0.12567500  0.95305500  0.28687900  1
  C  C13  1  0.04694500  0.87432500  0.21312100  1
  C  C14  1  0.87432500  0.04694500  0.71312100  1
  C  C15  1  0.95305500  0.12567500  0.78687900  1
  C  C16  1  0.06865300  0.37681800  0.23822100  1
  C  C17  1  0.62318200  0.93134700  0.26177900  1
  C  C18  1  0.93134700  0.62318200  0.76177900  1
  C  C19  1  0.37681800  0.06865300  0.73822100  1
  C  C20  1  0.12848800  0.35866700  0.14677700  1
  C  C21  1  0.64133300  0.87151200  0.35322300  1
  C  C22  1  0.87151200  0.64133300  0.85322300  1
  C  C23  1  0.35866700  0.12848800  0.64677700  1
  C  C24  1  0.54711100  0.56133200  0.20362000  1
  C  C25  1  0.43866800  0.45288900  0.29638000  1
  C  C26  1  0.45288900  0.43866800  0.79638000  1
  C  C27  1  0.56133200  0.54711100  0.70362000  1
  C  C28  1  0.56154500  0.19633000  0.11802400  1
  C  C29  1  0.80367000  0.43845500  0.38197600  1
  C  C30  1  0.43845500  0.80367000  0.88197600  1
  C  C31  1  0.19633000  0.56154500  0.61802400  1
  C  C32  1  0.74450000  0.29068200  0.10123900  1
  C  C33  1  0.70931800  0.25550000  0.39876100  1
  C  C34  1  0.25550000  0.70931800  0.89876100  1
  C  C35  1  0.29068200  0.74450000  0.60123900  1
  O  O36  1  0.09879500  0.06145100  0.30420400  1
  O  O37  1  0.93854900  0.90120500  0.19579600  1
  O  O38  1  0.90120500  0.93854900  0.69579600  1
  O  O39  1  0.06145100  0.09879500  0.80420400  1
  O  O40  1  0.20344200  0.91594200  0.32532700  1
  O  O41  1  0.08405800  0.79655800  0.17467300  1
  O  O42  1  0.79655800  0.08405800  0.67467300  1
  O  O43  1  0.91594200  0.20344200  0.82532700  1
  O  O44  1  0.97375900  0.24138800  0.29528700  1
  O  O45  1  0.75861200  0.02624100  0.20471300  1
  O  O46  1  0.02624100  0.75861200  0.70471300  1
  O  O47  1  0.24138800  0.97375900  0.79528700  1
  O  O48  1  0.10714900  0.50561100  0.25321300  1
  O  O49  1  0.49438900  0.89285100  0.24678700  1
  O  O50  1  0.89285100  0.49438900  0.74678700  1
  O  O51  1  0.50561100  0.10714900  0.75321300  1
  O  O52  1  0.07687000  0.21133300  0.14301300  1
  O  O53  1  0.78866700  0.92313000  0.35698700  1
  O  O54  1  0.92313000  0.78866700  0.85698700  1
  O  O55  1  0.21133300  0.07687000  0.64301300  1
  O  O56  1  0.21381200  0.46996700  0.08372600  1
  O  O57  1  0.53003300  0.78618800  0.41627400  1
  O  O58  1  0.78618800  0.53003300  0.91627400  1
  O  O59  1  0.46996700  0.21381200  0.58372600  1
  O  O60  1  0.65354400  0.53146300  0.17470700  1
  O  O61  1  0.46853700  0.34645600  0.32529300  1
  O  O62  1  0.34645600  0.46853700  0.82529300  1
  O  O63  1  0.53146300  0.65354400  0.67470700  1
  O  O64  1  0.53152000  0.66204700  0.16422000  1
  O  O65  1  0.33795300  0.46848000  0.33578000  1
  O  O66  1  0.46848000  0.33795300  0.83578000  1
  O  O67  1  0.66204700  0.53152000  0.66422000  1
  O  O68  1  0.49534900  0.21107800  0.19095200  1
  O  O69  1  0.78892200  0.50465100  0.30904800  1
  O  O70  1  0.50465100  0.78892200  0.80904800  1
  O  O71  1  0.21107800  0.49534900  0.69095200  1
  O  O72  1  0.49088700  0.11855300  0.06599000  1
  O  O73  1  0.88144700  0.50911300  0.43401000  1
  O  O74  1  0.50911300  0.88144700  0.93401000  1
  O  O75  1  0.11855300  0.49088700  0.56599000  1
  O  O76  1  0.80032900  0.37353000  0.16196200  1
  O  O77  1  0.62647000  0.19967100  0.33803800  1
  O  O78  1  0.19967100  0.62647000  0.83803800  1
  O  O79  1  0.37353000  0.80032900  0.66196200  1
  O  O80  1  0.82518300  0.28779400  0.03741800  1
  O  O81  1  0.71220600  0.17481700  0.46258200  1
  O  O82  1  0.17481700  0.71220600  0.96258200  1
  O  O83  1  0.28779400  0.82518300  0.53741800  1
  O  O84  1  0.05743700  0.20294700  0.48541400  1
  O  O85  1  0.79705300  0.94256300  0.01458600  1
  O  O86  1  0.94256300  0.79705300  0.51458600  1
  O  O87  1  0.20294700  0.05743700  0.98541400  1
