# generated using pymatgen
data_Rb2U2Cr2O15F2
_symmetry_space_group_name_H-M   'P 1'
_cell_length_a   9.58492100
_cell_length_b   13.35054700
_cell_length_c   13.95259174
_cell_angle_alpha   79.20949371
_cell_angle_beta   90.00000000
_cell_angle_gamma   90.00000000
_symmetry_Int_Tables_number   1
_chemical_formula_structural   Rb2U2Cr2O15F2
_chemical_formula_sum   'Rb8 U8 Cr8 O60 F8'
_cell_volume   1753.85915048
_cell_formula_units_Z   4
loop_
 _symmetry_equiv_pos_site_id
 _symmetry_equiv_pos_as_xyz
  1  'x, y, z'
loop_
 _atom_site_type_symbol
 _atom_site_label
 _atom_site_symmetry_multiplicity
 _atom_site_fract_x
 _atom_site_fract_y
 _atom_site_fract_z
 _atom_site_occupancy
  Rb  Rb0  1  0.14680500  0.91427400  0.42278100  1
  Rb  Rb1  1  0.64680500  0.58572600  0.57721900  1
  Rb  Rb2  1  0.85319500  0.08572600  0.57721900  1
  Rb  Rb3  1  0.35319500  0.41427400  0.42278100  1
  Rb  Rb4  1  0.87676300  0.32130300  0.02322700  1
  Rb  Rb5  1  0.37676300  0.17869700  0.97677300  1
  Rb  Rb6  1  0.12323700  0.67869700  0.97677300  1
  Rb  Rb7  1  0.62323700  0.82130300  0.02322700  1
  U  U8  1  0.82000100  0.06389300  0.25350400  1
  U  U9  1  0.32000100  0.43610700  0.74649600  1
  U  U10  1  0.17999900  0.93610700  0.74649600  1
  U  U11  1  0.67999900  0.56389300  0.25350400  1
  U  U12  1  0.18484700  0.20392200  0.25429000  1
  U  U13  1  0.68484700  0.29607800  0.74571000  1
  U  U14  1  0.81515300  0.79607800  0.74571000  1
  U  U15  1  0.31515300  0.70392200  0.25429000  1
  Cr  Cr16  1  0.05409500  0.47672900  0.22388800  1
  Cr  Cr17  1  0.55409500  0.02327100  0.77611200  1
  Cr  Cr18  1  0.94590500  0.52327100  0.77611200  1
  Cr  Cr19  1  0.44590500  0.97672900  0.22388800  1
  Cr  Cr20  1  0.93755800  0.78596300  0.22349700  1
  Cr  Cr21  1  0.43755800  0.71403700  0.77650300  1
  Cr  Cr22  1  0.06244200  0.21403700  0.77650300  1
  Cr  Cr23  1  0.56244200  0.28596300  0.22349700  1
  O  O24  1  0.85677400  0.02910200  0.38463100  1
  O  O25  1  0.35677400  0.47089800  0.61536900  1
  O  O26  1  0.14322600  0.97089800  0.61536900  1
  O  O27  1  0.64322600  0.52910200  0.38463100  1
  O  O28  1  0.79191800  0.10244900  0.12339500  1
  O  O29  1  0.29191800  0.39755100  0.87660500  1
  O  O30  1  0.20808200  0.89755100  0.87660500  1
  O  O31  1  0.70808200  0.60244900  0.12339500  1
  O  O32  1  0.17476300  0.15624900  0.38525300  1
  O  O33  1  0.67476300  0.34375100  0.61474700  1
  O  O34  1  0.82523700  0.84375100  0.61474700  1
  O  O35  1  0.32523700  0.65624900  0.38525300  1
  O  O36  1  0.18850200  0.24801900  0.12266800  1
  O  O37  1  0.68850200  0.25198100  0.87733200  1
  O  O38  1  0.81149800  0.75198100  0.87733200  1
  O  O39  1  0.31149800  0.74801900  0.12266800  1
  O  O40  1  0.13481200  0.36947800  0.28126900  1
  O  O41  1  0.63481200  0.13052200  0.71873100  1
  O  O42  1  0.86518800  0.63052200  0.71873100  1
  O  O43  1  0.36518800  0.86947800  0.28126900  1
  O  O44  1  0.89546100  0.48499700  0.27305500  1
  O  O45  1  0.39546100  0.01500300  0.72694500  1
  O  O46  1  0.10453900  0.51500300  0.72694500  1
  O  O47  1  0.60453900  0.98499700  0.27305500  1
  O  O48  1  0.14949300  0.57847700  0.23734200  1
  O  O49  1  0.64949300  0.92152300  0.76265800  1
  O  O50  1  0.85050700  0.42152300  0.76265800  1
  O  O51  1  0.35050700  0.07847700  0.23734200  1
  O  O52  1  0.03739700  0.47447400  0.10895700  1
  O  O53  1  0.53739700  0.02552600  0.89104300  1
  O  O54  1  0.96260300  0.52552600  0.89104300  1
  O  O55  1  0.46260300  0.97447400  0.10895700  1
  O  O56  1  0.83754200  0.69034500  0.28154900  1
  O  O57  1  0.33754200  0.80965500  0.71845100  1
  O  O58  1  0.16245800  0.30965500  0.71845100  1
  O  O59  1  0.66245800  0.19034500  0.28154900  1
  O  O60  1  0.09900900  0.77902000  0.27403200  1
  O  O61  1  0.59900900  0.72098000  0.72596800  1
  O  O62  1  0.90099100  0.22098000  0.72596800  1
  O  O63  1  0.40099100  0.27902000  0.27403200  1
  O  O64  1  0.86438400  0.89759600  0.23393500  1
  O  O65  1  0.36438400  0.60240400  0.76606500  1
  O  O66  1  0.13561600  0.10240400  0.76606500  1
  O  O67  1  0.63561600  0.39759600  0.23393500  1
  O  O68  1  0.94643100  0.77818400  0.10929600  1
  O  O69  1  0.44643100  0.72181600  0.89070400  1
  O  O70  1  0.05356900  0.22181600  0.89070400  1
  O  O71  1  0.55356900  0.27818400  0.10929600  1
  O  O72  1  0.55921500  0.49754300  0.98336400  1
  O  O73  1  0.05921500  0.00245700  0.01663600  1
  O  O74  1  0.44078500  0.50245700  0.01663600  1
  O  O75  1  0.94078500  0.99754300  0.98336400  1
  O  O76  1  0.51050800  0.90246500  0.48331500  1
  O  O77  1  0.01050800  0.59753500  0.51668500  1
  O  O78  1  0.48949200  0.09753500  0.51668500  1
  O  O79  1  0.98949200  0.40246500  0.48331500  1
  O  O80  1  0.09009000  0.66420900  0.53433200  1
  O  O81  1  0.59009000  0.83579100  0.46566800  1
  O  O82  1  0.90991000  0.33579100  0.46566800  1
  O  O83  1  0.40991000  0.16420900  0.53433200  1
  F  F84  1  0.94221900  0.22010300  0.24243700  1
  F  F85  1  0.44221900  0.27989700  0.75756300  1
  F  F86  1  0.05778100  0.77989700  0.75756300  1
  F  F87  1  0.55778100  0.72010300  0.24243700  1
  F  F88  1  0.06548200  0.05288600  0.23740600  1
  F  F89  1  0.56548200  0.44711400  0.76259400  1
  F  F90  1  0.93451800  0.94711400  0.76259400  1
  F  F91  1  0.43451800  0.55288500  0.23740600  1
