# generated using pymatgen
data_CsFe5(MoO4)7
_symmetry_space_group_name_H-M   'P 1'
_cell_length_a   21.83487600
_cell_length_b   7.06069200
_cell_length_c   8.82019680
_cell_angle_alpha   78.06672172
_cell_angle_beta   90.00000000
_cell_angle_gamma   90.00000000
_symmetry_Int_Tables_number   1
_chemical_formula_structural   CsFe5(MoO4)7
_chemical_formula_sum   'Cs2 Fe10 Mo14 O56'
_cell_volume   1330.41722052
_cell_formula_units_Z   2
loop_
 _symmetry_equiv_pos_site_id
 _symmetry_equiv_pos_as_xyz
  1  'x, y, z'
loop_
 _atom_site_type_symbol
 _atom_site_label
 _atom_site_symmetry_multiplicity
 _atom_site_fract_x
 _atom_site_fract_y
 _atom_site_fract_z
 _atom_site_occupancy
  Cs  Cs0  1  0.25000000  0.49481900  0.03125000  1
  Cs  Cs1  1  0.75000000  0.50518100  0.96875000  1
  Fe  Fe2  1  0.09861700  0.64804100  0.34135100  1
  Fe  Fe3  1  0.59861700  0.35195900  0.65864900  1
  Fe  Fe4  1  0.90138300  0.35195900  0.65864900  1
  Fe  Fe5  1  0.40138300  0.64804100  0.34135100  1
  Fe  Fe6  1  0.25000000  0.04535100  0.68875900  1
  Fe  Fe7  1  0.75000000  0.95464900  0.31124100  1
  Fe  Fe8  1  0.50241500  0.97487900  0.18870000  1
  Fe  Fe9  1  0.00241500  0.02512100  0.81130000  1
  Fe  Fe10  1  0.49758500  0.02512100  0.81130000  1
  Fe  Fe11  1  0.99758500  0.97487900  0.18870000  1
  Mo  Mo12  1  0.14235400  0.98725200  0.03030400  1
  Mo  Mo13  1  0.64235400  0.01274800  0.96969600  1
  Mo  Mo14  1  0.85764600  0.01274800  0.96969600  1
  Mo  Mo15  1  0.35764600  0.98725200  0.03030400  1
  Mo  Mo16  1  0.10836400  0.11864500  0.44984700  1
  Mo  Mo17  1  0.60836400  0.88135500  0.55015300  1
  Mo  Mo18  1  0.89163600  0.88135500  0.55015300  1
  Mo  Mo19  1  0.39163600  0.11864500  0.44984700  1
  Mo  Mo20  1  0.25000000  0.58555100  0.56330300  1
  Mo  Mo21  1  0.75000000  0.41444900  0.43669700  1
  Mo  Mo22  1  0.54234000  0.47104000  0.24853400  1
  Mo  Mo23  1  0.04234000  0.52896000  0.75146600  1
  Mo  Mo24  1  0.45766000  0.52896000  0.75146600  1
  Mo  Mo25  1  0.95766000  0.47104000  0.24853400  1
  O  O26  1  0.14511500  0.73907400  0.14261000  1
  O  O27  1  0.64511500  0.26092600  0.85739000  1
  O  O28  1  0.85488500  0.26092600  0.85739000  1
  O  O29  1  0.35488500  0.73907400  0.14261000  1
  O  O30  1  0.18528900  0.00185500  0.85254800  1
  O  O31  1  0.68528900  0.99814500  0.14745200  1
  O  O32  1  0.81471100  0.99814500  0.14745200  1
  O  O33  1  0.31471100  0.00185500  0.85254800  1
  O  O34  1  0.06148800  0.04343000  0.99422600  1
  O  O35  1  0.56148800  0.95657000  0.00577400  1
  O  O36  1  0.93851200  0.95657000  0.00577400  1
  O  O37  1  0.43851200  0.04343000  0.99422600  1
  O  O38  1  0.17476500  0.13947400  0.14087400  1
  O  O39  1  0.67476500  0.86052600  0.85912600  1
  O  O40  1  0.82523500  0.86052600  0.85912600  1
  O  O41  1  0.32523500  0.13947400  0.14087400  1
  O  O42  1  0.09907400  0.36490300  0.34508100  1
  O  O43  1  0.59907400  0.63509700  0.65491900  1
  O  O44  1  0.90092600  0.63509700  0.65491900  1
  O  O45  1  0.40092600  0.36490300  0.34508100  1
  O  O46  1  0.18530600  0.07349800  0.51741900  1
  O  O47  1  0.68530600  0.92650200  0.48258100  1
  O  O48  1  0.81469400  0.92650200  0.48258100  1
  O  O49  1  0.31469400  0.07349800  0.51741900  1
  O  O50  1  0.06220300  0.09170000  0.61627800  1
  O  O51  1  0.56220300  0.90830000  0.38372200  1
  O  O52  1  0.93779700  0.90830000  0.38372200  1
  O  O53  1  0.43779700  0.09170000  0.61627800  1
  O  O54  1  0.08014800  0.94375800  0.33567600  1
  O  O55  1  0.58014800  0.05624200  0.66432400  1
  O  O56  1  0.91985200  0.05624200  0.66432400  1
  O  O57  1  0.41985200  0.94375800  0.33567600  1
  O  O58  1  0.25000000  0.33962700  0.67316800  1
  O  O59  1  0.75000000  0.66037300  0.32683200  1
  O  O60  1  0.25000000  0.75078700  0.69394200  1
  O  O61  1  0.75000000  0.24921300  0.30605800  1
  O  O62  1  0.31708800  0.62783500  0.44446700  1
  O  O63  1  0.81708800  0.37216500  0.55553300  1
  O  O64  1  0.68291200  0.37216500  0.55553300  1
  O  O65  1  0.18291200  0.62783500  0.44446700  1
  O  O66  1  0.48323600  0.66859000  0.22528300  1
  O  O67  1  0.98323600  0.33141000  0.77471700  1
  O  O68  1  0.51676400  0.33141000  0.77471700  1
  O  O69  1  0.01676400  0.66859000  0.22528300  1
  O  O70  1  0.51682000  0.26431000  0.17829600  1
  O  O71  1  0.01682000  0.73569000  0.82170400  1
  O  O72  1  0.48318000  0.73569000  0.82170400  1
  O  O73  1  0.98318000  0.26431000  0.17829600  1
  O  O74  1  0.60932900  0.55645900  0.15269700  1
  O  O75  1  0.10932900  0.44354100  0.84730300  1
  O  O76  1  0.39067100  0.44354100  0.84730300  1
  O  O77  1  0.89067100  0.55645900  0.15269700  1
  O  O78  1  0.55994500  0.39468000  0.45202800  1
  O  O79  1  0.05994500  0.60532000  0.54797200  1
  O  O80  1  0.44005500  0.60532000  0.54797200  1
  O  O81  1  0.94005500  0.39468000  0.45202800  1
