# generated using pymatgen
data_Y2Al3Fe14
_symmetry_space_group_name_H-M   'P 1'
_cell_length_a   8.21028300
_cell_length_b   8.54911252
_cell_length_c   8.54911252
_cell_angle_alpha   119.99464875
_cell_angle_beta   90.00000000
_cell_angle_gamma   90.00000000
_symmetry_Int_Tables_number   1
_chemical_formula_structural   Y2Al3Fe14
_chemical_formula_sum   'Y4 Al6 Fe28'
_cell_volume   519.70182392
_cell_formula_units_Z   2
loop_
 _symmetry_equiv_pos_site_id
 _symmetry_equiv_pos_as_xyz
  1  'x, y, z'
loop_
 _atom_site_type_symbol
 _atom_site_label
 _atom_site_symmetry_multiplicity
 _atom_site_fract_x
 _atom_site_fract_y
 _atom_site_fract_z
 _atom_site_occupancy
  Y  Y0  1  0.75000000  0.99996500  0.00003500  1
  Y  Y1  1  0.25000000  0.00003500  0.99996500  1
  Y  Y2  1  0.25000000  0.66653100  0.33346900  1
  Y  Y3  1  0.75000000  0.33346900  0.66653100  1
  Al  Al4  1  0.50000000  0.50000000  0.00000000  1
  Al  Al5  1  0.50000000  0.50000000  0.50000000  1
  Al  Al6  1  0.50000000  0.00000000  0.50000000  1
  Al  Al7  1  0.00000000  0.50000000  0.00000000  1
  Al  Al8  1  0.00000000  0.50000000  0.50000000  1
  Al  Al9  1  0.00000000  0.00000000  0.50000000  1
  Fe  Fe10  1  0.61157400  0.66665700  0.33334300  1
  Fe  Fe11  1  0.38842600  0.33334300  0.66665700  1
  Fe  Fe12  1  0.11157400  0.33334300  0.66665700  1
  Fe  Fe13  1  0.88842600  0.66665700  0.33334300  1
  Fe  Fe14  1  0.75000000  0.67698000  0.02954400  1
  Fe  Fe15  1  0.75000000  0.35267600  0.32301800  1
  Fe  Fe16  1  0.75000000  0.97020500  0.64718800  1
  Fe  Fe17  1  0.75000000  0.35281200  0.02979500  1
  Fe  Fe18  1  0.75000000  0.97045600  0.32302000  1
  Fe  Fe19  1  0.75000000  0.67698200  0.64732400  1
  Fe  Fe20  1  0.25000000  0.32302000  0.97045600  1
  Fe  Fe21  1  0.25000000  0.64732400  0.67698200  1
  Fe  Fe22  1  0.25000000  0.02979500  0.35281200  1
  Fe  Fe23  1  0.25000000  0.64718800  0.97020500  1
  Fe  Fe24  1  0.25000000  0.02954400  0.67698000  1
  Fe  Fe25  1  0.25000000  0.32301800  0.35267600  1
  Fe  Fe26  1  0.48809400  0.83391300  0.66799500  1
  Fe  Fe27  1  0.48838500  0.83399600  0.16600400  1
  Fe  Fe28  1  0.48809400  0.33200500  0.16608700  1
  Fe  Fe29  1  0.51190600  0.16608700  0.33200500  1
  Fe  Fe30  1  0.51161500  0.16600400  0.83399600  1
  Fe  Fe31  1  0.51190600  0.66799500  0.83391300  1
  Fe  Fe32  1  0.98809400  0.16608700  0.33200500  1
  Fe  Fe33  1  0.98838500  0.16600400  0.83399600  1
  Fe  Fe34  1  0.98809400  0.66799500  0.83391300  1
  Fe  Fe35  1  0.01190600  0.83391300  0.66799500  1
  Fe  Fe36  1  0.01161500  0.83399600  0.16600400  1
  Fe  Fe37  1  0.01190600  0.33200500  0.16608700  1
