# generated using pymatgen
data_K2SnH2OF6
_symmetry_space_group_name_H-M   'P 1'
_cell_length_a   11.26338812
_cell_length_b   10.94481797
_cell_length_c   9.20633759
_cell_angle_alpha   67.32690475
_cell_angle_beta   63.71744594
_cell_angle_gamma   48.95564931
_symmetry_Int_Tables_number   1
_chemical_formula_structural   K2SnH2OF6
_chemical_formula_sum   'K8 Sn4 H8 O4 F24'
_cell_volume   759.90437351
_cell_formula_units_Z   4
loop_
 _symmetry_equiv_pos_site_id
 _symmetry_equiv_pos_as_xyz
  1  'x, y, z'
loop_
 _atom_site_type_symbol
 _atom_site_label
 _atom_site_symmetry_multiplicity
 _atom_site_fract_x
 _atom_site_fract_y
 _atom_site_fract_z
 _atom_site_occupancy
  K  K0  1  0.12354100  0.12354100  0.87645900  1
  K  K1  1  0.87645900  0.87645900  0.12354100  1
  K  K2  1  0.12645900  0.12645900  0.37354100  1
  K  K3  1  0.37354100  0.37354100  0.12645900  1
  K  K4  1  0.28628400  0.71371600  0.71371600  1
  K  K5  1  0.71371600  0.28628400  0.28628400  1
  K  K6  1  0.96371600  0.53628400  0.53628400  1
  K  K7  1  0.53628400  0.96371600  0.96371600  1
  Sn  Sn8  1  0.78132700  0.21867300  0.78132700  1
  Sn  Sn9  1  0.21867300  0.78132700  0.21867300  1
  Sn  Sn10  1  0.46867300  0.03132700  0.46867300  1
  Sn  Sn11  1  0.03132700  0.46867300  0.03132700  1
  H  H12  1  0.63028500  0.51605000  0.48578300  1
  H  H13  1  0.36788200  0.48578300  0.51605000  1
  H  H14  1  0.48578300  0.36788200  0.63028500  1
  H  H15  1  0.51605000  0.63028500  0.36788200  1
  H  H16  1  0.61971500  0.73395000  0.76421700  1
  H  H17  1  0.88211800  0.76421700  0.73395000  1
  H  H18  1  0.76421700  0.88211800  0.61971500  1
  H  H19  1  0.73395000  0.61971500  0.88211800  1
  O  O20  1  0.60531400  0.60531400  0.39468600  1
  O  O21  1  0.39468600  0.39468600  0.60531400  1
  O  O22  1  0.64468600  0.64468600  0.85531400  1
  O  O23  1  0.85531400  0.85531400  0.64468600  1
  F  F24  1  0.65879700  0.12059800  0.92215500  1
  F  F25  1  0.29845000  0.92215500  0.12059800  1
  F  F26  1  0.92215500  0.29845000  0.65879700  1
  F  F27  1  0.12059800  0.65879700  0.29845000  1
  F  F28  1  0.59120300  0.12940200  0.32784500  1
  F  F29  1  0.95155000  0.32784500  0.12940200  1
  F  F30  1  0.32784500  0.95155000  0.59120300  1
  F  F31  1  0.12940200  0.59120300  0.95155000  1
  F  F32  1  0.56256800  0.43583200  0.78580200  1
  F  F33  1  0.21579800  0.78580200  0.43583200  1
  F  F34  1  0.78580200  0.21579800  0.56256800  1
  F  F35  1  0.43583200  0.56256800  0.21579800  1
  F  F36  1  0.68743200  0.81416800  0.46419800  1
  F  F37  1  0.03420200  0.46419800  0.81416800  1
  F  F38  1  0.46419800  0.03420200  0.68743200  1
  F  F39  1  0.81416800  0.68743200  0.03420200  1
  F  F40  1  0.78818700  0.22907900  0.98989600  1
  F  F41  1  0.99283800  0.98989600  0.22907900  1
  F  F42  1  0.98989600  0.99283800  0.78818700  1
  F  F43  1  0.22907900  0.78818700  0.99283800  1
  F  F44  1  0.46181300  0.02092100  0.26010400  1
  F  F45  1  0.25716200  0.26010400  0.02092100  1
  F  F46  1  0.26010400  0.25716200  0.46181300  1
  F  F47  1  0.02092100  0.46181300  0.25716200  1
