# generated using pymatgen
data_Zn3(AsO3)2
_symmetry_space_group_name_H-M   'P 1'
_cell_length_a   5.28814900
_cell_length_b   8.39084900
_cell_length_c   16.10969430
_cell_angle_alpha   82.65656830
_cell_angle_beta   90.00000000
_cell_angle_gamma   90.00000000
_symmetry_Int_Tables_number   1
_chemical_formula_structural   Zn3(AsO3)2
_chemical_formula_sum   'Zn12 As8 O24'
_cell_volume   708.95724696
_cell_formula_units_Z   4
loop_
 _symmetry_equiv_pos_site_id
 _symmetry_equiv_pos_as_xyz
  1  'x, y, z'
loop_
 _atom_site_type_symbol
 _atom_site_label
 _atom_site_symmetry_multiplicity
 _atom_site_fract_x
 _atom_site_fract_y
 _atom_site_fract_z
 _atom_site_occupancy
  Zn  Zn0  1  0.14577800  0.86962200  0.76024900  1
  Zn  Zn1  1  0.64577800  0.13037800  0.73975100  1
  Zn  Zn2  1  0.85422200  0.13037800  0.23975100  1
  Zn  Zn3  1  0.35422200  0.86962200  0.26024900  1
  Zn  Zn4  1  0.62636500  0.38952600  0.56687900  1
  Zn  Zn5  1  0.12636500  0.61047400  0.93312100  1
  Zn  Zn6  1  0.37363500  0.61047400  0.43312100  1
  Zn  Zn7  1  0.87363500  0.38952600  0.06687900  1
  Zn  Zn8  1  0.04975100  0.50999900  0.68888400  1
  Zn  Zn9  1  0.54975100  0.49000100  0.81111600  1
  Zn  Zn10  1  0.95024900  0.49000100  0.31111600  1
  Zn  Zn11  1  0.45024900  0.50999900  0.18888400  1
  As  As12  1  0.54092600  0.74115900  0.63084500  1
  As  As13  1  0.04092600  0.25884100  0.86915500  1
  As  As14  1  0.45907400  0.25884100  0.36915500  1
  As  As15  1  0.95907400  0.74115900  0.13084500  1
  As  As16  1  0.13188700  0.16635800  0.60615200  1
  As  As17  1  0.63188700  0.83364200  0.89384800  1
  As  As18  1  0.86811300  0.83364200  0.39384800  1
  As  As19  1  0.36811300  0.16635800  0.10615200  1
  O  O20  1  0.49323300  0.61371800  0.55036100  1
  O  O21  1  0.99323300  0.38628200  0.94963900  1
  O  O22  1  0.50676700  0.38628200  0.44963900  1
  O  O23  1  0.00676700  0.61371800  0.05036100  1
  O  O24  1  0.44083400  0.22192300  0.64293800  1
  O  O25  1  0.94083400  0.77807700  0.85706200  1
  O  O26  1  0.55916600  0.77807700  0.35706200  1
  O  O27  1  0.05916600  0.22192300  0.14293800  1
  O  O28  1  0.99958100  0.07248800  0.70428300  1
  O  O29  1  0.49958100  0.92751200  0.79571700  1
  O  O30  1  0.00041900  0.92751200  0.29571700  1
  O  O31  1  0.50041900  0.07248800  0.20428300  1
  O  O32  1  0.98157400  0.36174400  0.60414300  1
  O  O33  1  0.48157400  0.63825600  0.89585700  1
  O  O34  1  0.01842600  0.63825600  0.39585700  1
  O  O35  1  0.51842600  0.36174400  0.10414300  1
  O  O36  1  0.19394500  0.41395800  0.79771000  1
  O  O37  1  0.69394500  0.58604200  0.70229000  1
  O  O38  1  0.80605500  0.58604200  0.20229000  1
  O  O39  1  0.30605500  0.41395800  0.29771000  1
  O  O40  1  0.22764000  0.72052100  0.67684900  1
  O  O41  1  0.72764000  0.27947900  0.82315100  1
  O  O42  1  0.77236000  0.27947900  0.32315100  1
  O  O43  1  0.27236000  0.72052100  0.17684900  1
