# generated using pymatgen
data_Na5V3O12
_symmetry_space_group_name_H-M   'P 1'
_cell_length_a   5.65319495
_cell_length_b   5.65319495
_cell_length_c   21.30043400
_cell_angle_alpha   90.00000000
_cell_angle_beta   90.00000000
_cell_angle_gamma   118.38655159
_symmetry_Int_Tables_number   1
_chemical_formula_structural   Na5V3O12
_chemical_formula_sum   'Na10 V6 O24'
_cell_volume   598.88120165
_cell_formula_units_Z   2
loop_
 _symmetry_equiv_pos_site_id
 _symmetry_equiv_pos_as_xyz
  1  'x, y, z'
loop_
 _atom_site_type_symbol
 _atom_site_label
 _atom_site_symmetry_multiplicity
 _atom_site_fract_x
 _atom_site_fract_y
 _atom_site_fract_z
 _atom_site_occupancy
  Na  Na0  1  0.51532400  0.51532400  0.00000000  1
  Na  Na1  1  0.48467600  0.48467600  0.50000000  1
  Na  Na2  1  0.20492600  0.84638100  0.94275600  1
  Na  Na3  1  0.84638100  0.20492600  0.05724400  1
  Na  Na4  1  0.79507400  0.15361900  0.44275600  1
  Na  Na5  1  0.15361900  0.79507400  0.55724400  1
  Na  Na6  1  0.53722100  0.47557000  0.83265700  1
  Na  Na7  1  0.47557000  0.53722100  0.16734300  1
  Na  Na8  1  0.46277900  0.52443000  0.33265700  1
  Na  Na9  1  0.52443000  0.46277900  0.66734300  1
  V  V10  1  0.89465500  0.10534500  0.75000000  1
  V  V11  1  0.10534500  0.89465500  0.25000000  1
  V  V12  1  0.85166200  0.13549600  0.90284500  1
  V  V13  1  0.13549600  0.85166200  0.09715500  1
  V  V14  1  0.14833800  0.86450400  0.40284500  1
  V  V15  1  0.86450400  0.14833800  0.59715500  1
  O  O16  1  0.66597600  0.20599100  0.95584500  1
  O  O17  1  0.20599100  0.66597600  0.04415500  1
  O  O18  1  0.33402400  0.79400900  0.45584500  1
  O  O19  1  0.79400900  0.33402400  0.54415500  1
  O  O20  1  0.76593000  0.18944000  0.82195200  1
  O  O21  1  0.18944000  0.76593000  0.17804800  1
  O  O22  1  0.23407000  0.81056000  0.32195200  1
  O  O23  1  0.81056000  0.23407000  0.67804800  1
  O  O24  1  0.78458700  0.80784800  0.91393100  1
  O  O25  1  0.80784800  0.78458700  0.08606900  1
  O  O26  1  0.21541300  0.19215200  0.41393100  1
  O  O27  1  0.19215200  0.21541300  0.58606900  1
  O  O28  1  0.76632100  0.77187200  0.74547200  1
  O  O29  1  0.77187200  0.76632100  0.25452800  1
  O  O30  1  0.23367900  0.22812800  0.24547200  1
  O  O31  1  0.22812800  0.23367900  0.75452800  1
  O  O32  1  0.66160500  0.81068600  0.58368800  1
  O  O33  1  0.81068600  0.66160500  0.41631200  1
  O  O34  1  0.33839500  0.18931400  0.08368800  1
  O  O35  1  0.18931400  0.33839500  0.91631200  1
  O  O36  1  0.31198800  0.76861300  0.84066500  1
  O  O37  1  0.76861300  0.31198800  0.15933500  1
  O  O38  1  0.68801200  0.23138700  0.34066500  1
  O  O39  1  0.23138700  0.68801200  0.65933500  1
