# generated using pymatgen
data_KZn2Ru2C4(ClO12)2
_symmetry_space_group_name_H-M   'P 1'
_cell_length_a   11.21882247
_cell_length_b   11.21882247
_cell_length_c   9.84770171
_cell_angle_alpha   80.88870693
_cell_angle_beta   80.88870693
_cell_angle_gamma   93.97693300
_symmetry_Int_Tables_number   1
_chemical_formula_structural   KZn2Ru2C4(ClO12)2
_chemical_formula_sum   'K2 Zn4 Ru4 C8 Cl4 O48'
_cell_volume   1202.68961054
_cell_formula_units_Z   2
loop_
 _symmetry_equiv_pos_site_id
 _symmetry_equiv_pos_as_xyz
  1  'x, y, z'
loop_
 _atom_site_type_symbol
 _atom_site_label
 _atom_site_symmetry_multiplicity
 _atom_site_fract_x
 _atom_site_fract_y
 _atom_site_fract_z
 _atom_site_occupancy
  K  K0  1  0.84915100  0.84915100  0.43248600  1
  K  K1  1  0.15084900  0.15084900  0.56751400  1
  Zn  Zn2  1  0.00000000  0.50000000  0.00000000  1
  Zn  Zn3  1  0.50000000  0.00000000  0.00000000  1
  Zn  Zn4  1  0.00000000  0.50000000  0.50000000  1
  Zn  Zn5  1  0.50000000  0.00000000  0.50000000  1
  Ru  Ru6  1  0.01571200  0.01571200  0.11034300  1
  Ru  Ru7  1  0.98428800  0.98428800  0.88965700  1
  Ru  Ru8  1  0.45142400  0.45142400  0.11307000  1
  Ru  Ru9  1  0.54857600  0.54857600  0.88693000  1
  C  C10  1  0.28343700  0.52933600  0.92230900  1
  C  C11  1  0.52933600  0.28343700  0.92230900  1
  C  C12  1  0.71656300  0.47066400  0.07769100  1
  C  C13  1  0.47066400  0.71656300  0.07769100  1
  C  C14  1  0.00353800  0.24160100  0.91775500  1
  C  C15  1  0.24160100  0.00353800  0.91775500  1
  C  C16  1  0.99646200  0.75839900  0.08224500  1
  C  C17  1  0.75839900  0.99646200  0.08224500  1
  Cl  Cl18  1  0.05517400  0.05517400  0.33291500  1
  Cl  Cl19  1  0.94482600  0.94482600  0.66708500  1
  Cl  Cl20  1  0.34390300  0.34390300  0.33158600  1
  Cl  Cl21  1  0.65609700  0.65609700  0.66841400  1
  O  O22  1  0.01690900  0.19306800  0.04497100  1
  O  O23  1  0.19306800  0.01690900  0.04497100  1
  O  O24  1  0.98309100  0.80693200  0.95502900  1
  O  O25  1  0.80693200  0.98309100  0.95502900  1
  O  O26  1  0.29388400  0.46872200  0.04577600  1
  O  O27  1  0.46872200  0.29388400  0.04577600  1
  O  O28  1  0.70611600  0.53127800  0.95422400  1
  O  O29  1  0.53127800  0.70611600  0.95422400  1
  O  O30  1  0.00505800  0.83633600  0.16956500  1
  O  O31  1  0.83633600  0.00505800  0.16956500  1
  O  O32  1  0.99494200  0.16366400  0.83043500  1
  O  O33  1  0.16366400  0.99494200  0.83043500  1
  O  O34  1  0.61293200  0.44063300  0.16635500  1
  O  O35  1  0.44063300  0.61293200  0.16635500  1
  O  O36  1  0.38706800  0.55936700  0.83364500  1
  O  O37  1  0.55936700  0.38706800  0.83364500  1
  O  O38  1  0.18512400  0.55686500  0.88899400  1
  O  O39  1  0.55686500  0.18512400  0.88899400  1
  O  O40  1  0.81487600  0.44313500  0.11100600  1
  O  O41  1  0.44313500  0.81487600  0.11100600  1
  O  O42  1  0.99961100  0.35209400  0.87900900  1
  O  O43  1  0.35209400  0.99961100  0.87900900  1
  O  O44  1  0.00038900  0.64790600  0.12099100  1
  O  O45  1  0.64790600  0.00038900  0.12099100  1
  O  O46  1  0.03964400  0.33791500  0.45347700  1
  O  O47  1  0.33791500  0.03964400  0.45347700  1
  O  O48  1  0.96035600  0.66208500  0.54652300  1
  O  O49  1  0.66208500  0.96035600  0.54652300  1
  O  O50  1  0.10758300  0.37899300  0.54552500  1
  O  O51  1  0.37899300  0.10758300  0.54552500  1
  O  O52  1  0.89241700  0.62100700  0.45447500  1
  O  O53  1  0.62100700  0.89241700  0.45447500  1
  O  O54  1  0.19164300  0.62351700  0.35208400  1
  O  O55  1  0.62351700  0.19164300  0.35208400  1
  O  O56  1  0.80835700  0.37648300  0.64791600  1
  O  O57  1  0.37648300  0.80835700  0.64791600  1
  O  O58  1  0.26724000  0.78388200  0.65033900  1
  O  O59  1  0.78388200  0.26724000  0.65033900  1
  O  O60  1  0.73276000  0.21611800  0.34966100  1
  O  O61  1  0.21611800  0.73276000  0.34966100  1
  O  O62  1  0.60482000  0.47339700  0.46564300  1
  O  O63  1  0.47339700  0.60482000  0.46564300  1
  O  O64  1  0.39518000  0.52660300  0.53435700  1
  O  O65  1  0.52660300  0.39518000  0.53435700  1
  O  O66  1  0.06360900  0.39698200  0.15494100  1
  O  O67  1  0.39698200  0.06360900  0.15494100  1
  O  O68  1  0.93639100  0.60301800  0.84505900  1
  O  O69  1  0.60301800  0.93639100  0.84505900  1
