# generated using pymatgen
data_UH6C2(SO4)2
_symmetry_space_group_name_H-M   'P 1'
_cell_length_a   10.34117600
_cell_length_b   13.36240600
_cell_length_c   15.86635087
_cell_angle_alpha   67.60759396
_cell_angle_beta   90.00000000
_cell_angle_gamma   90.00000000
_symmetry_Int_Tables_number   1
_chemical_formula_structural   UH6C2(SO4)2
_chemical_formula_sum   'U8 H48 C16 S16 O64'
_cell_volume   2027.14076507
_cell_formula_units_Z   8
loop_
 _symmetry_equiv_pos_site_id
 _symmetry_equiv_pos_as_xyz
  1  'x, y, z'
loop_
 _atom_site_type_symbol
 _atom_site_label
 _atom_site_symmetry_multiplicity
 _atom_site_fract_x
 _atom_site_fract_y
 _atom_site_fract_z
 _atom_site_occupancy
  U  U0  1  0.77774400  0.92423300  0.30008200  1
  U  U1  1  0.27774400  0.07576700  0.19991800  1
  U  U2  1  0.22225600  0.07576700  0.69991800  1
  U  U3  1  0.72225600  0.92423300  0.80008200  1
  U  U4  1  0.44500300  0.56767000  0.21993300  1
  U  U5  1  0.94500300  0.43233000  0.28006700  1
  U  U6  1  0.55499700  0.43233000  0.78006700  1
  U  U7  1  0.05499700  0.56767000  0.71993300  1
  H  H8  1  0.60850700  0.32254300  0.16197200  1
  H  H9  1  0.10850700  0.67745700  0.33802800  1
  H  H10  1  0.39149300  0.67745700  0.83802800  1
  H  H11  1  0.89149300  0.32254300  0.66197200  1
  H  H12  1  0.63067100  0.34519400  0.04328000  1
  H  H13  1  0.13067100  0.65480600  0.45672000  1
  H  H14  1  0.36932900  0.65480600  0.95672000  1
  H  H15  1  0.86932900  0.34519400  0.54328000  1
  H  H16  1  0.76420000  0.29918600  0.12127500  1
  H  H17  1  0.26420000  0.70081400  0.37872500  1
  H  H18  1  0.23580000  0.70081400  0.87872500  1
  H  H19  1  0.73580000  0.29918600  0.62127500  1
  H  H20  1  0.62485400  0.17566300  0.34669100  1
  H  H21  1  0.12485400  0.82433700  0.15330900  1
  H  H22  1  0.37514600  0.82433700  0.65330900  1
  H  H23  1  0.87514600  0.17566300  0.84669100  1
  H  H24  1  0.48116100  0.18667700  0.40698600  1
  H  H25  1  0.98116100  0.81332300  0.09301400  1
  H  H26  1  0.51883900  0.81332300  0.59301400  1
  H  H27  1  0.01883900  0.18667700  0.90698600  1
  H  H28  1  0.63273700  0.14832700  0.46702800  1
  H  H29  1  0.13273700  0.85167300  0.03297200  1
  H  H30  1  0.36726300  0.85167300  0.53297200  1
  H  H31  1  0.86726300  0.14832700  0.96702800  1
  H  H32  1  0.79855700  0.61290700  0.49396600  1
  H  H33  1  0.29855700  0.38709300  0.00603400  1
  H  H34  1  0.20144300  0.38709300  0.50603400  1
  H  H35  1  0.70144300  0.61290700  0.99396600  1
  H  H36  1  0.68101800  0.51210700  0.49472000  1
  H  H37  1  0.18101800  0.48789300  0.00528000  1
  H  H38  1  0.31898200  0.48789300  0.50528000  1
  H  H39  1  0.81898200  0.51210700  0.99472000  1
  H  H40  1  0.63149500  0.64995200  0.46526800  1
  H  H41  1  0.13149500  0.35004800  0.03473200  1
  H  H42  1  0.36850500  0.35004800  0.53473200  1
  H  H43  1  0.86850500  0.64995200  0.96526800  1
  H  H44  1  0.62161000  0.95857200  0.05357300  1
  H  H45  1  0.12161000  0.04142800  0.44642700  1
  H  H46  1  0.37839000  0.04142800  0.94642700  1
  H  H47  1  0.87839000  0.95857200  0.55357300  1
  H  H48  1  0.52670500  0.85368800  0.03630800  1
  H  H49  1  0.02670500  0.14631200  0.46369200  1
  H  H50  1  0.47329500  0.14631200  0.96369200  1
  H  H51  1  0.97329500  0.85368800  0.53630800  1
  H  H52  1  0.66656100  0.81850400  0.10955600  1
  H  H53  1  0.16656100  0.18149600  0.39044400  1
  H  H54  1  0.33343900  0.18149600  0.89044400  1
  H  H55  1  0.83343900  0.81850400  0.60955600  1
  C  C56  1  0.65921500  0.29618300  0.11347200  1
  C  C57  1  0.15921500  0.70381700  0.38652800  1
  C  C58  1  0.34078500  0.70381700  0.88652800  1
  C  C59  1  0.84078500  0.29618300  0.61347200  1
  C  C60  1  0.58640400  0.19668900  0.40206600  1
  C  C61  1  0.08640400  0.80331100  0.09793400  1
  C  C62  1  0.41359600  0.80331100  0.59793400  1
  C  C63  1  0.91359600  0.19668900  0.90206600  1
  C  C64  1  0.71080900  0.59690400  0.46233600  1
  C  C65  1  0.21080900  0.40309600  0.03766400  1
  C  C66  1  0.28919100  0.40309600  0.53766400  1
  C  C67  1  0.78919100  0.59690400  0.96233600  1
  C  C68  1  0.58588500  0.87521700  0.08410700  1
  C  C69  1  0.08588500  0.12478300  0.41589300  1
  C  C70  1  0.41411500  0.12478300  0.91589300  1
  C  C71  1  0.91411500  0.87521700  0.58410700  1
  S  S72  1  0.61729800  0.16067800  0.13382100  1
  S  S73  1  0.11729800  0.83932200  0.36617900  1
  S  S74  1  0.38270200  0.83932200  0.86617900  1
  S  S75  1  0.88270200  0.16067800  0.63382100  1
  S  S76  1  0.62050200  0.33386400  0.38062500  1
  S  S77  1  0.12050200  0.66613600  0.11937500  1
  S  S78  1  0.37949800  0.66613600  0.61937500  1
  S  S79  1  0.87949800  0.33386400  0.88062500  1
  S  S80  1  0.74452000  0.62491700  0.34682100  1
  S  S81  1  0.24452000  0.37508300  0.15317900  1
  S  S82  1  0.25548000  0.37508300  0.65317900  1
  S  S83  1  0.75548000  0.62491700  0.84682100  1
  S  S84  1  0.48991200  0.86288400  0.17923400  1
  S  S85  1  0.98991200  0.13711600  0.32076600  1
  S  S86  1  0.51008800  0.13711600  0.82076600  1
  S  S87  1  0.01008800  0.86288400  0.67923400  1
  O  O88  1  0.70082400  0.88197100  0.40961500  1
  O  O89  1  0.20082400  0.11802900  0.09038500  1
  O  O90  1  0.29917600  0.11802900  0.59038500  1
  O  O91  1  0.79917600  0.88197100  0.90961500  1
  O  O92  1  0.85677900  0.96199100  0.19206400  1
  O  O93  1  0.35677900  0.03800900  0.30793600  1
  O  O94  1  0.14322100  0.03800900  0.80793600  1
  O  O95  1  0.64322100  0.96199100  0.69206400  1
  O  O96  1  0.34249300  0.52515200  0.31821700  1
  O  O97  1  0.84249300  0.47484800  0.18178300  1
  O  O98  1  0.65750700  0.47484800  0.68178300  1
  O  O99  1  0.15750700  0.52515200  0.81821700  1
  O  O100  1  0.54517200  0.61423000  0.11954500  1
  O  O101  1  0.04517200  0.38577000  0.38045500  1
  O  O102  1  0.45482800  0.38577000  0.88045500  1
  O  O103  1  0.95482800  0.61423000  0.61954500  1
  O  O104  1  0.67428300  0.13013100  0.06376400  1
  O  O105  1  0.17428300  0.86986900  0.43623600  1
  O  O106  1  0.32571700  0.86986900  0.93623600  1
  O  O107  1  0.82571700  0.13013100  0.56376400  1
  O  O108  1  0.47253400  0.15904400  0.13048100  1
  O  O109  1  0.97253400  0.84095600  0.36951900  1
  O  O110  1  0.52746600  0.84095600  0.86951900  1
  O  O111  1  0.02746600  0.15904400  0.63048100  1
  O  O112  1  0.66288600  0.09480200  0.22841500  1
  O  O113  1  0.16288600  0.90519800  0.27158500  1
  O  O114  1  0.33711400  0.90519800  0.77158500  1
  O  O115  1  0.83711400  0.09480200  0.72841500  1
  O  O116  1  0.57393700  0.35861200  0.45653200  1
  O  O117  1  0.07393700  0.64138800  0.04346800  1
  O  O118  1  0.42606300  0.64138800  0.54346800  1
  O  O119  1  0.92606300  0.35861200  0.95653200  1
  O  O120  1  0.76429600  0.34573700  0.36950300  1
  O  O121  1  0.26429600  0.65426300  0.13049700  1
  O  O122  1  0.23570400  0.65426300  0.63049700  1
  O  O123  1  0.73570400  0.34573700  0.86950300  1
  O  O124  1  0.55686600  0.39845700  0.29131700  1
  O  O125  1  0.05686600  0.60154300  0.20868300  1
  O  O126  1  0.44313400  0.60154300  0.70868300  1
  O  O127  1  0.94313400  0.39845700  0.79131700  1
  O  O128  1  0.62778900  0.59979900  0.30553200  1
  O  O129  1  0.12778900  0.40020100  0.19446800  1
  O  O130  1  0.37221100  0.40020100  0.69446800  1
  O  O131  1  0.87221100  0.59979900  0.80553200  1
  O  O132  1  0.78005200  0.74029300  0.30331700  1
  O  O133  1  0.28005200  0.25970700  0.19668300  1
  O  O134  1  0.21994800  0.25970700  0.69668300  1
  O  O135  1  0.71994800  0.74029300  0.80331700  1
  O  O136  1  0.85579700  0.55654800  0.34392200  1
  O  O137  1  0.35579700  0.44345200  0.15607800  1
  O  O138  1  0.14420300  0.44345200  0.65607800  1
  O  O139  1  0.64420300  0.55654800  0.84392200  1
  O  O140  1  0.43586600  0.75238700  0.21623800  1
  O  O141  1  0.93586600  0.24761300  0.28376200  1
  O  O142  1  0.56413400  0.24761300  0.78376200  1
  O  O143  1  0.06413400  0.75238700  0.71623800  1
  O  O144  1  0.57377100  0.88302200  0.24639900  1
  O  O145  1  0.07377100  0.11697800  0.25360100  1
  O  O146  1  0.42622900  0.11697800  0.75360100  1
  O  O147  1  0.92622900  0.88302200  0.74639900  1
  O  O148  1  0.38516500  0.94415400  0.14843200  1
  O  O149  1  0.88516500  0.05584600  0.35156800  1
  O  O150  1  0.61483500  0.05584600  0.85156800  1
  O  O151  1  0.11483500  0.94415400  0.64843200  1
