# generated using pymatgen
data_KIn(PO4)2
_symmetry_space_group_name_H-M   'P 1'
_cell_length_a   8.57039300
_cell_length_b   9.61006100
_cell_length_c   9.78202123
_cell_angle_alpha   64.28873039
_cell_angle_beta   90.00000000
_cell_angle_gamma   90.00000000
_symmetry_Int_Tables_number   1
_chemical_formula_structural   KIn(PO4)2
_chemical_formula_sum   'K4 In4 P8 O32'
_cell_volume   725.89913004
_cell_formula_units_Z   4
loop_
 _symmetry_equiv_pos_site_id
 _symmetry_equiv_pos_as_xyz
  1  'x, y, z'
loop_
 _atom_site_type_symbol
 _atom_site_label
 _atom_site_symmetry_multiplicity
 _atom_site_fract_x
 _atom_site_fract_y
 _atom_site_fract_z
 _atom_site_occupancy
  K  K0  1  0.36502200  0.09247500  0.81980000  1
  K  K1  1  0.86502200  0.40752500  0.18020000  1
  K  K2  1  0.63497800  0.90752500  0.18020000  1
  K  K3  1  0.13497800  0.59247500  0.81980000  1
  In  In4  1  0.62685000  0.49141400  0.74415500  1
  In  In5  1  0.12685000  0.00858600  0.25584500  1
  In  In6  1  0.37315000  0.50858600  0.25584500  1
  In  In7  1  0.87315000  0.99141400  0.74415500  1
  P  P8  1  0.67783300  0.32551100  0.50651900  1
  P  P9  1  0.17783300  0.17448900  0.49348100  1
  P  P10  1  0.32216700  0.67448900  0.49348100  1
  P  P11  1  0.82216700  0.82551100  0.50651900  1
  P  P12  1  0.56315900  0.73811500  0.90902900  1
  P  P13  1  0.06315900  0.76188500  0.09097100  1
  P  P14  1  0.43684100  0.26188500  0.09097100  1
  P  P15  1  0.93684100  0.23811500  0.90902900  1
  O  O16  1  0.58800000  0.34096100  0.63547700  1
  O  O17  1  0.08800000  0.15903900  0.36452300  1
  O  O18  1  0.41200000  0.65903900  0.36452300  1
  O  O19  1  0.91200000  0.84096100  0.63547700  1
  O  O20  1  0.58271000  0.38079500  0.35913400  1
  O  O21  1  0.08271000  0.11920500  0.64086600  1
  O  O22  1  0.41729000  0.61920500  0.64086600  1
  O  O23  1  0.91729000  0.88079500  0.35913400  1
  O  O24  1  0.73689100  0.15737400  0.55320800  1
  O  O25  1  0.23689100  0.34262600  0.44679200  1
  O  O26  1  0.26310900  0.84262600  0.44679200  1
  O  O27  1  0.76310900  0.65737400  0.55320800  1
  O  O28  1  0.84162800  0.40389900  0.47410200  1
  O  O29  1  0.34162800  0.09610100  0.52589800  1
  O  O30  1  0.15837200  0.59610100  0.52589800  1
  O  O31  1  0.65837200  0.90389900  0.47410200  1
  O  O32  1  0.65757400  0.88844200  0.85760500  1
  O  O33  1  0.15757400  0.61155800  0.14239500  1
  O  O34  1  0.34242600  0.11155800  0.14239500  1
  O  O35  1  0.84242600  0.38844200  0.85760500  1
  O  O36  1  0.51511200  0.68947800  0.07800900  1
  O  O37  1  0.01511200  0.81052200  0.92199100  1
  O  O38  1  0.48488800  0.31052200  0.92199100  1
  O  O39  1  0.98488800  0.18947800  0.07800900  1
  O  O40  1  0.65085800  0.61138000  0.88645100  1
  O  O41  1  0.15085800  0.88862000  0.11354900  1
  O  O42  1  0.34914200  0.38862000  0.11354900  1
  O  O43  1  0.84914200  0.11138000  0.88645100  1
  O  O44  1  0.39466100  0.77052500  0.84136400  1
  O  O45  1  0.89466100  0.72947500  0.15863600  1
  O  O46  1  0.60533900  0.22947500  0.15863600  1
  O  O47  1  0.10533900  0.27052500  0.84136400  1
