# generated using pymatgen
data_ScRhO3
_symmetry_space_group_name_H-M   'P 1'
_cell_length_a   7.53168100
_cell_length_b   7.56037700
_cell_length_c   10.41708387
_cell_angle_alpha   46.86314749
_cell_angle_beta   90.00000000
_cell_angle_gamma   90.00000000
_symmetry_Int_Tables_number   1
_chemical_formula_structural   ScRhO3
_chemical_formula_sum   'Sc8 Rh8 O24'
_cell_volume   432.85192610
_cell_formula_units_Z   8
loop_
 _symmetry_equiv_pos_site_id
 _symmetry_equiv_pos_as_xyz
  1  'x, y, z'
loop_
 _atom_site_type_symbol
 _atom_site_label
 _atom_site_symmetry_multiplicity
 _atom_site_fract_x
 _atom_site_fract_y
 _atom_site_fract_z
 _atom_site_occupancy
  Sc  Sc0  1  0.74048100  0.56857000  0.72527600  1
  Sc  Sc1  1  0.75951900  0.56857000  0.22527600  1
  Sc  Sc2  1  0.25951900  0.43143000  0.27472400  1
  Sc  Sc3  1  0.24048100  0.43143000  0.77472400  1
  Sc  Sc4  1  0.73285000  0.06464300  0.21046200  1
  Sc  Sc5  1  0.76715000  0.06464300  0.71046200  1
  Sc  Sc6  1  0.26715000  0.93535700  0.78953800  1
  Sc  Sc7  1  0.23285000  0.93535700  0.28953800  1
  Rh  Rh8  1  0.50000000  0.00000000  0.50000000  1
  Rh  Rh9  1  0.00000000  0.00000000  0.00000000  1
  Rh  Rh10  1  0.50000000  0.50000000  0.00000000  1
  Rh  Rh11  1  0.00000000  0.50000000  0.50000000  1
  Rh  Rh12  1  0.50000000  0.00000000  0.00000000  1
  Rh  Rh13  1  0.00000000  0.00000000  0.50000000  1
  Rh  Rh14  1  0.50000000  0.50000000  0.50000000  1
  Rh  Rh15  1  0.00000000  0.50000000  0.00000000  1
  O  O16  1  0.96348800  0.34972200  0.89036200  1
  O  O17  1  0.53651200  0.34972200  0.39036200  1
  O  O18  1  0.03651200  0.65027800  0.10963800  1
  O  O19  1  0.46348800  0.65027800  0.60963800  1
  O  O20  1  0.04606200  0.14541700  0.74659200  1
  O  O21  1  0.45393800  0.14541700  0.24659200  1
  O  O22  1  0.95393800  0.85458300  0.25340800  1
  O  O23  1  0.54606200  0.85458300  0.75340800  1
  O  O24  1  0.75173500  0.92523700  0.46410300  1
  O  O25  1  0.74826500  0.92523700  0.96410300  1
  O  O26  1  0.24826500  0.07476300  0.53589700  1
  O  O27  1  0.25173500  0.07476300  0.03589700  1
  O  O28  1  0.09966100  0.21404500  0.24629500  1
  O  O29  1  0.40033900  0.21404500  0.74629500  1
  O  O30  1  0.90033900  0.78595500  0.75370500  1
  O  O31  1  0.59966100  0.78595500  0.25370500  1
  O  O32  1  0.75008100  0.42387700  0.61193000  1
  O  O33  1  0.74991900  0.42387700  0.11193000  1
  O  O34  1  0.24991900  0.57612300  0.38807000  1
  O  O35  1  0.25008100  0.57612300  0.88807000  1
  O  O36  1  0.89761900  0.29280600  0.45392600  1
  O  O37  1  0.60238100  0.29280600  0.95392600  1
  O  O38  1  0.10238100  0.70719400  0.54607400  1
  O  O39  1  0.39761900  0.70719400  0.04607400  1
