# generated using pymatgen
data_Ho5Ga3
_symmetry_space_group_name_H-M   'P 1'
_cell_length_a   7.59694200
_cell_length_b   7.59694200
_cell_length_c   14.06900600
_cell_angle_alpha   90.00000000
_cell_angle_beta   90.00000000
_cell_angle_gamma   90.00000000
_symmetry_Int_Tables_number   1
_chemical_formula_structural   Ho5Ga3
_chemical_formula_sum   'Ho20 Ga12'
_cell_volume   811.97196822
_cell_formula_units_Z   4
loop_
 _symmetry_equiv_pos_site_id
 _symmetry_equiv_pos_as_xyz
  1  'x, y, z'
loop_
 _atom_site_type_symbol
 _atom_site_label
 _atom_site_symmetry_multiplicity
 _atom_site_fract_x
 _atom_site_fract_y
 _atom_site_fract_z
 _atom_site_occupancy
  Ho  Ho0  1  0.00000000  0.50000000  0.76229800  1
  Ho  Ho1  1  0.00000000  0.50000000  0.26229800  1
  Ho  Ho2  1  0.50000000  0.00000000  0.23770200  1
  Ho  Ho3  1  0.50000000  0.00000000  0.73770200  1
  Ho  Ho4  1  0.67566600  0.66246000  0.60213800  1
  Ho  Ho5  1  0.67566600  0.33754000  0.10213800  1
  Ho  Ho6  1  0.82433400  0.83754000  0.39786200  1
  Ho  Ho7  1  0.17566600  0.83754000  0.89786200  1
  Ho  Ho8  1  0.32433400  0.33754000  0.60213800  1
  Ho  Ho9  1  0.32433400  0.66246000  0.10213800  1
  Ho  Ho10  1  0.17566600  0.16246000  0.39786200  1
  Ho  Ho11  1  0.82433400  0.16246000  0.89786200  1
  Ho  Ho12  1  0.66246000  0.32433400  0.39786200  1
  Ho  Ho13  1  0.33754000  0.32433400  0.89786200  1
  Ho  Ho14  1  0.16246000  0.82433400  0.60213800  1
  Ho  Ho15  1  0.83754000  0.82433400  0.10213800  1
  Ho  Ho16  1  0.33754000  0.67566600  0.39786200  1
  Ho  Ho17  1  0.66246000  0.67566600  0.89786200  1
  Ho  Ho18  1  0.83754000  0.17566600  0.60213800  1
  Ho  Ho19  1  0.16246000  0.17566600  0.10213800  1
  Ga  Ga20  1  0.00000000  0.50000000  0.49601300  1
  Ga  Ga21  1  0.00000000  0.50000000  0.99601300  1
  Ga  Ga22  1  0.50000000  0.00000000  0.50398700  1
  Ga  Ga23  1  0.50000000  0.00000000  0.00398700  1
  Ga  Ga24  1  0.87721900  0.87721900  0.75000000  1
  Ga  Ga25  1  0.87721900  0.12278100  0.25000000  1
  Ga  Ga26  1  0.62278100  0.62278100  0.25000000  1
  Ga  Ga27  1  0.37721900  0.62278100  0.75000000  1
  Ga  Ga28  1  0.12278100  0.12278100  0.75000000  1
  Ga  Ga29  1  0.12278100  0.87721900  0.25000000  1
  Ga  Ga30  1  0.37721900  0.37721900  0.25000000  1
  Ga  Ga31  1  0.62278100  0.37721900  0.75000000  1
