# generated using pymatgen
data_MgV2O6
_symmetry_space_group_name_H-M   'P 1'
_cell_length_a   4.89871900
_cell_length_b   5.61092200
_cell_length_c   13.73152500
_cell_angle_alpha   90.00000000
_cell_angle_beta   90.00000000
_cell_angle_gamma   90.00000000
_symmetry_Int_Tables_number   1
_chemical_formula_structural   MgV2O6
_chemical_formula_sum   'Mg4 V8 O24'
_cell_volume   377.42923042
_cell_formula_units_Z   4
loop_
 _symmetry_equiv_pos_site_id
 _symmetry_equiv_pos_as_xyz
  1  'x, y, z'
loop_
 _atom_site_type_symbol
 _atom_site_label
 _atom_site_symmetry_multiplicity
 _atom_site_fract_x
 _atom_site_fract_y
 _atom_site_fract_z
 _atom_site_occupancy
  Mg  Mg0  1  0.25000000  0.17677400  0.00000000  1
  Mg  Mg1  1  0.75000000  0.32322600  0.50000000  1
  Mg  Mg2  1  0.75000000  0.82322600  0.00000000  1
  Mg  Mg3  1  0.25000000  0.67677400  0.50000000  1
  V  V4  1  0.74043400  0.32238000  0.83673600  1
  V  V5  1  0.24043400  0.17762000  0.66326400  1
  V  V6  1  0.25956600  0.17762000  0.33673600  1
  V  V7  1  0.75956600  0.32238000  0.16326400  1
  V  V8  1  0.25956600  0.67762000  0.16326400  1
  V  V9  1  0.75956600  0.82238000  0.33673600  1
  V  V10  1  0.74043400  0.82238000  0.66326400  1
  V  V11  1  0.24043400  0.67762000  0.83673600  1
  O  O12  1  0.04818700  0.39813500  0.90150300  1
  O  O13  1  0.54818700  0.10186500  0.59849700  1
  O  O14  1  0.95181300  0.10186500  0.40150300  1
  O  O15  1  0.45181300  0.39813500  0.09849700  1
  O  O16  1  0.95181300  0.60186500  0.09849700  1
  O  O17  1  0.45181300  0.89813500  0.40150300  1
  O  O18  1  0.04818700  0.89813500  0.59849700  1
  O  O19  1  0.54818700  0.60186500  0.90150300  1
  O  O20  1  0.60017700  0.12478900  0.91710300  1
  O  O21  1  0.10017700  0.37521100  0.58289700  1
  O  O22  1  0.39982300  0.37521100  0.41710300  1
  O  O23  1  0.89982300  0.12478900  0.08289700  1
  O  O24  1  0.39982300  0.87521100  0.08289700  1
  O  O25  1  0.89982300  0.62478900  0.41710300  1
  O  O26  1  0.60017700  0.62478900  0.58289700  1
  O  O27  1  0.10017700  0.87521100  0.91710300  1
  O  O28  1  0.89802200  0.13560400  0.74506100  1
  O  O29  1  0.39802200  0.36439600  0.75493900  1
  O  O30  1  0.10197800  0.36439600  0.24506100  1
  O  O31  1  0.60197800  0.13560400  0.25493900  1
  O  O32  1  0.10197800  0.86439600  0.25493900  1
  O  O33  1  0.60197800  0.63560400  0.24506100  1
  O  O34  1  0.89802200  0.63560400  0.75493900  1
  O  O35  1  0.39802200  0.86439600  0.74506100  1
