# generated using pymatgen
data_LaN3
_symmetry_space_group_name_H-M   'P 1'
_cell_length_a   10.23464300
_cell_length_b   7.40059400
_cell_length_c   8.71095716
_cell_angle_alpha   65.53539956
_cell_angle_beta   90.00000000
_cell_angle_gamma   90.00000000
_symmetry_Int_Tables_number   1
_chemical_formula_structural   LaN3
_chemical_formula_sum   'La8 N24'
_cell_volume   600.55148658
_cell_formula_units_Z   8
loop_
 _symmetry_equiv_pos_site_id
 _symmetry_equiv_pos_as_xyz
  1  'x, y, z'
loop_
 _atom_site_type_symbol
 _atom_site_label
 _atom_site_symmetry_multiplicity
 _atom_site_fract_x
 _atom_site_fract_y
 _atom_site_fract_z
 _atom_site_occupancy
  La  La0  1  0.33875200  0.41510900  0.06809500  1
  La  La1  1  0.83875200  0.58489100  0.43190500  1
  La  La2  1  0.66124800  0.58489100  0.93190500  1
  La  La3  1  0.16124800  0.41510900  0.56809500  1
  La  La4  1  0.56227400  0.98953800  0.28756000  1
  La  La5  1  0.06227400  0.01046200  0.21244000  1
  La  La6  1  0.43772600  0.01046200  0.71244000  1
  La  La7  1  0.93772600  0.98953800  0.78756000  1
  N  N8  1  0.85124800  0.89073200  0.09632800  1
  N  N9  1  0.35124800  0.10926800  0.40367200  1
  N  N10  1  0.14875200  0.10926800  0.90367200  1
  N  N11  1  0.64875200  0.89073200  0.59632800  1
  N  N12  1  0.52198900  0.59258500  0.30874700  1
  N  N13  1  0.02198900  0.40741500  0.19125300  1
  N  N14  1  0.47801100  0.40741500  0.69125300  1
  N  N15  1  0.97801100  0.59258500  0.80874700  1
  N  N16  1  0.04271800  0.71000800  0.41636800  1
  N  N17  1  0.54271800  0.28999200  0.08363200  1
  N  N18  1  0.95728200  0.28999200  0.58363200  1
  N  N19  1  0.45728200  0.71000800  0.91636800  1
  N  N20  1  0.08633000  0.54003800  0.16714200  1
  N  N21  1  0.58633000  0.45996200  0.33285800  1
  N  N22  1  0.91367000  0.45996200  0.83285800  1
  N  N23  1  0.41367000  0.54003800  0.66714200  1
  N  N24  1  0.81023200  0.95696100  0.20556600  1
  N  N25  1  0.31023200  0.04303900  0.29443400  1
  N  N26  1  0.18976800  0.04303900  0.79443400  1
  N  N27  1  0.68976800  0.95696100  0.70556600  1
  N  N28  1  0.80131000  0.73958500  0.07592500  1
  N  N29  1  0.30131000  0.26041500  0.42407500  1
  N  N30  1  0.19869000  0.26041500  0.92407500  1
  N  N31  1  0.69869000  0.73958500  0.57592500  1
