# generated using pymatgen
data_Cr2P4Pb3O16
_symmetry_space_group_name_H-M   'P 1'
_cell_length_a   9.13841700
_cell_length_b   9.09065200
_cell_length_c   9.42169549
_cell_angle_alpha   63.09556791
_cell_angle_beta   90.00000000
_cell_angle_gamma   90.00000000
_symmetry_Int_Tables_number   1
_chemical_formula_structural   Cr2P4Pb3O16
_chemical_formula_sum   'Cr4 P8 Pb6 O32'
_cell_volume   697.98210477
_cell_formula_units_Z   2
loop_
 _symmetry_equiv_pos_site_id
 _symmetry_equiv_pos_as_xyz
  1  'x, y, z'
loop_
 _atom_site_type_symbol
 _atom_site_label
 _atom_site_symmetry_multiplicity
 _atom_site_fract_x
 _atom_site_fract_y
 _atom_site_fract_z
 _atom_site_occupancy
  Cr  Cr0  1  0.13124500  0.75202700  0.74537200  1
  Cr  Cr1  1  0.63124500  0.24797300  0.75462800  1
  Cr  Cr2  1  0.86875500  0.24797300  0.25462800  1
  Cr  Cr3  1  0.36875500  0.75202700  0.24537200  1
  P  P4  1  0.58901900  0.42454700  0.35848000  1
  P  P5  1  0.08901900  0.57545300  0.14152000  1
  P  P6  1  0.41098100  0.57545300  0.64152000  1
  P  P7  1  0.91098100  0.42454700  0.85848000  1
  P  P8  1  0.63876700  0.01910300  0.15488800  1
  P  P9  1  0.13876700  0.98089700  0.34511200  1
  P  P10  1  0.36123300  0.98089700  0.84511200  1
  P  P11  1  0.86123300  0.01910300  0.65488800  1
  Pb  Pb12  1  0.70812900  0.69945100  0.03103900  1
  Pb  Pb13  1  0.20812900  0.30054900  0.46896100  1
  Pb  Pb14  1  0.29187100  0.30054900  0.96896100  1
  Pb  Pb15  1  0.79187100  0.69945100  0.53103900  1
  Pb  Pb16  1  0.00000000  0.00000000  0.00000000  1
  Pb  Pb17  1  0.50000000  0.00000000  0.50000000  1
  O  O18  1  0.09110800  0.84284000  0.50842800  1
  O  O19  1  0.59110800  0.15716000  0.99157200  1
  O  O20  1  0.90889200  0.15716000  0.49157200  1
  O  O21  1  0.40889200  0.84284000  0.00842800  1
  O  O22  1  0.20560400  0.90740600  0.23804200  1
  O  O23  1  0.70560400  0.09259400  0.26195800  1
  O  O24  1  0.79439600  0.09259400  0.76195800  1
  O  O25  1  0.29439600  0.90740600  0.73804200  1
  O  O26  1  0.71611900  0.41056300  0.25449000  1
  O  O27  1  0.21611900  0.58943700  0.24551000  1
  O  O28  1  0.28388100  0.58943700  0.74551000  1
  O  O29  1  0.78388100  0.41056300  0.75449000  1
  O  O30  1  0.54551100  0.61043300  0.25836400  1
  O  O31  1  0.04551100  0.38956700  0.24163600  1
  O  O32  1  0.45448900  0.38956700  0.74163600  1
  O  O33  1  0.95448900  0.61043300  0.75836400  1
  O  O34  1  0.99538400  0.92053500  0.75630400  1
  O  O35  1  0.49538400  0.07946500  0.74369600  1
  O  O36  1  0.00461600  0.07946500  0.24369600  1
  O  O37  1  0.50461600  0.92053500  0.25630400  1
  O  O38  1  0.15006600  0.60826600  0.97836800  1
  O  O39  1  0.65006600  0.39173400  0.52163200  1
  O  O40  1  0.84993400  0.39173400  0.02163200  1
  O  O41  1  0.34993400  0.60826600  0.47836800  1
  O  O42  1  0.74761100  0.90006700  0.13318100  1
  O  O43  1  0.24761100  0.09993300  0.36681900  1
  O  O44  1  0.25238900  0.09993300  0.86681900  1
  O  O45  1  0.75238900  0.90006700  0.63318100  1
  O  O46  1  0.95841900  0.68771100  0.12926600  1
  O  O47  1  0.45841900  0.31228900  0.37073400  1
  O  O48  1  0.04158100  0.31228900  0.87073400  1
  O  O49  1  0.54158100  0.68771100  0.62926600  1
