# generated using pymatgen
data_K2TaF7
_symmetry_space_group_name_H-M   'P 1'
_cell_length_a   5.87280600
_cell_length_b   9.91288800
_cell_length_c   11.88896100
_cell_angle_alpha   90.00000000
_cell_angle_beta   90.00000000
_cell_angle_gamma   90.00000000
_symmetry_Int_Tables_number   1
_chemical_formula_structural   K2TaF7
_chemical_formula_sum   'K8 Ta4 F28'
_cell_volume   692.13331908
_cell_formula_units_Z   4
loop_
 _symmetry_equiv_pos_site_id
 _symmetry_equiv_pos_as_xyz
  1  'x, y, z'
loop_
 _atom_site_type_symbol
 _atom_site_label
 _atom_site_symmetry_multiplicity
 _atom_site_fract_x
 _atom_site_fract_y
 _atom_site_fract_z
 _atom_site_occupancy
  K  K0  1  0.75000000  0.12820500  0.04918600  1
  K  K1  1  0.75000000  0.62820500  0.45081400  1
  K  K2  1  0.25000000  0.87179500  0.95081400  1
  K  K3  1  0.25000000  0.37179500  0.54918600  1
  K  K4  1  0.25000000  0.46361400  0.17165900  1
  K  K5  1  0.25000000  0.96361400  0.32834100  1
  K  K6  1  0.75000000  0.53638600  0.82834100  1
  K  K7  1  0.75000000  0.03638600  0.67165900  1
  Ta  Ta8  1  0.25000000  0.24263700  0.86843400  1
  Ta  Ta9  1  0.25000000  0.74263700  0.63156600  1
  Ta  Ta10  1  0.75000000  0.75736300  0.13156600  1
  Ta  Ta11  1  0.75000000  0.25736300  0.36843400  1
  F  F12  1  0.03118900  0.36073100  0.94700800  1
  F  F13  1  0.46881100  0.86073100  0.55299200  1
  F  F14  1  0.53118900  0.63926900  0.05299200  1
  F  F15  1  0.96881100  0.13926900  0.44700800  1
  F  F16  1  0.96881100  0.63926900  0.05299200  1
  F  F17  1  0.53118900  0.13926900  0.44700800  1
  F  F18  1  0.46881100  0.36073100  0.94700800  1
  F  F19  1  0.03118900  0.86073100  0.55299200  1
  F  F20  1  0.03083600  0.09088400  0.85315600  1
  F  F21  1  0.46916400  0.59088400  0.64684400  1
  F  F22  1  0.53083600  0.90911600  0.14684400  1
  F  F23  1  0.96916400  0.40911600  0.35315600  1
  F  F24  1  0.96916400  0.90911600  0.14684400  1
  F  F25  1  0.53083600  0.40911600  0.35315600  1
  F  F26  1  0.46916400  0.09088400  0.85315600  1
  F  F27  1  0.03083600  0.59088400  0.64684400  1
  F  F28  1  0.04538200  0.30078500  0.74582900  1
  F  F29  1  0.45461800  0.80078500  0.75417100  1
  F  F30  1  0.54538200  0.69921500  0.25417100  1
  F  F31  1  0.95461800  0.19921500  0.24582900  1
  F  F32  1  0.95461800  0.69921500  0.25417100  1
  F  F33  1  0.54538200  0.19921500  0.24582900  1
  F  F34  1  0.45461800  0.30078500  0.74582900  1
  F  F35  1  0.04538200  0.80078500  0.75417100  1
  F  F36  1  0.25000000  0.16201400  0.02250600  1
  F  F37  1  0.25000000  0.66201400  0.47749400  1
  F  F38  1  0.75000000  0.83798600  0.97749400  1
  F  F39  1  0.75000000  0.33798600  0.52250600  1
