# generated using pymatgen
data_Tb11Ge10
_symmetry_space_group_name_H-M   'P 1'
_cell_length_a   11.35561654
_cell_length_b   11.35561654
_cell_length_c   11.35561654
_cell_angle_alpha   122.15512679
_cell_angle_beta   122.15512679
_cell_angle_gamma   86.30605932
_symmetry_Int_Tables_number   1
_chemical_formula_structural   Tb11Ge10
_chemical_formula_sum   'Tb22 Ge20'
_cell_volume   999.43105174
_cell_formula_units_Z   2
loop_
 _symmetry_equiv_pos_site_id
 _symmetry_equiv_pos_as_xyz
  1  'x, y, z'
loop_
 _atom_site_type_symbol
 _atom_site_label
 _atom_site_symmetry_multiplicity
 _atom_site_fract_x
 _atom_site_fract_y
 _atom_site_fract_z
 _atom_site_occupancy
  Tb  Tb0  1  0.80963100  0.06188500  0.25225400  1
  Tb  Tb1  1  0.80963100  0.55737700  0.74774600  1
  Tb  Tb2  1  0.06188500  0.80963100  0.25225400  1
  Tb  Tb3  1  0.55737700  0.80963100  0.74774600  1
  Tb  Tb4  1  0.19036900  0.93811500  0.74774600  1
  Tb  Tb5  1  0.19036900  0.44262300  0.25225400  1
  Tb  Tb6  1  0.93811500  0.19036900  0.74774600  1
  Tb  Tb7  1  0.44262300  0.19036900  0.25225400  1
  Tb  Tb8  1  0.17767000  0.17767000  0.35534000  1
  Tb  Tb9  1  0.82233000  0.82233000  0.64466000  1
  Tb  Tb10  1  0.17767000  0.82233000  0.00000000  1
  Tb  Tb11  1  0.82233000  0.17767000  0.00000000  1
  Tb  Tb12  1  0.65990300  0.65990300  0.00000000  1
  Tb  Tb13  1  0.34009700  0.34009700  0.00000000  1
  Tb  Tb14  1  0.60244800  0.92611300  0.32366500  1
  Tb  Tb15  1  0.60244800  0.27878300  0.67633500  1
  Tb  Tb16  1  0.92611300  0.60244800  0.32366500  1
  Tb  Tb17  1  0.27878300  0.60244800  0.67633500  1
  Tb  Tb18  1  0.39755200  0.07388700  0.67633500  1
  Tb  Tb19  1  0.39755200  0.72121700  0.32366500  1
  Tb  Tb20  1  0.07388700  0.39755200  0.67633500  1
  Tb  Tb21  1  0.72121700  0.39755200  0.32366500  1
  Ge  Ge22  1  0.36124300  0.00000000  0.36124300  1
  Ge  Ge23  1  0.63875700  0.00000000  0.63875700  1
  Ge  Ge24  1  0.00000000  0.63875700  0.63875700  1
  Ge  Ge25  1  0.00000000  0.36124300  0.36124300  1
  Ge  Ge26  1  0.88714800  0.88714800  0.00000000  1
  Ge  Ge27  1  0.11285200  0.11285200  0.00000000  1
  Ge  Ge28  1  0.38057300  0.38057300  0.76114500  1
  Ge  Ge29  1  0.61942700  0.61942700  0.23885500  1
  Ge  Ge30  1  0.38057300  0.61942700  0.00000000  1
  Ge  Ge31  1  0.61942700  0.38057300  0.00000000  1
  Ge  Ge32  1  0.75000000  0.25000000  0.50000000  1
  Ge  Ge33  1  0.25000000  0.75000000  0.50000000  1
  Ge  Ge34  1  0.89170000  0.89170000  0.42011600  1
  Ge  Ge35  1  0.47158400  0.47158400  0.57988400  1
  Ge  Ge36  1  0.89170000  0.47158400  0.00000000  1
  Ge  Ge37  1  0.47158400  0.89170000  0.00000000  1
  Ge  Ge38  1  0.10830000  0.10830000  0.57988400  1
  Ge  Ge39  1  0.52841600  0.52841600  0.42011600  1
  Ge  Ge40  1  0.10830000  0.52841600  0.00000000  1
  Ge  Ge41  1  0.52841600  0.10830000  0.00000000  1
