# generated using pymatgen
data_KP2(HO2)3
_symmetry_space_group_name_H-M   'P 1'
_cell_length_a   7.27359709
_cell_length_b   7.88911219
_cell_length_c   11.15386200
_cell_angle_alpha   90.00000000
_cell_angle_beta   90.00000000
_cell_angle_gamma   92.41048028
_symmetry_Int_Tables_number   1
_chemical_formula_structural   KP2(HO2)3
_chemical_formula_sum   'K4 P8 H12 O24'
_cell_volume   639.46707032
_cell_formula_units_Z   4
loop_
 _symmetry_equiv_pos_site_id
 _symmetry_equiv_pos_as_xyz
  1  'x, y, z'
loop_
 _atom_site_type_symbol
 _atom_site_label
 _atom_site_symmetry_multiplicity
 _atom_site_fract_x
 _atom_site_fract_y
 _atom_site_fract_z
 _atom_site_occupancy
  K  K0  1  0.57013400  0.00382900  0.74851700  1
  K  K1  1  0.07013400  0.50382900  0.75148300  1
  K  K2  1  0.42986600  0.99617100  0.25148300  1
  K  K3  1  0.92986600  0.49617100  0.24851700  1
  P  P4  1  0.06730200  0.04369400  0.58344500  1
  P  P5  1  0.56730200  0.54369400  0.91655500  1
  P  P6  1  0.93269800  0.95630600  0.41655500  1
  P  P7  1  0.43269800  0.45630600  0.08344500  1
  P  P8  1  0.12384700  0.93635000  0.96866800  1
  P  P9  1  0.62384700  0.43635000  0.53133200  1
  P  P10  1  0.87615300  0.06365000  0.03133200  1
  P  P11  1  0.37615300  0.56365000  0.46866800  1
  H  H12  1  0.00888400  0.90064200  0.76653600  1
  H  H13  1  0.50888400  0.40064200  0.73346400  1
  H  H14  1  0.99111600  0.09935800  0.23346400  1
  H  H15  1  0.49111600  0.59935800  0.26653600  1
  H  H16  1  0.27270100  0.83637300  0.57578600  1
  H  H17  1  0.77270100  0.33637300  0.92421400  1
  H  H18  1  0.72729900  0.16362700  0.42421400  1
  H  H19  1  0.22729900  0.66362700  0.07578600  1
  H  H20  1  0.32065700  0.15956300  0.98902900  1
  H  H21  1  0.82065700  0.65956300  0.51097100  1
  H  H22  1  0.67934300  0.84043700  0.01097100  1
  H  H23  1  0.17934300  0.34043700  0.48902900  1
  O  O24  1  0.08190400  0.23508100  0.58924800  1
  O  O25  1  0.58190400  0.73508100  0.91075200  1
  O  O26  1  0.91809600  0.76491900  0.41075200  1
  O  O27  1  0.41809600  0.26491900  0.08924800  1
  O  O28  1  0.94453400  0.95607400  0.68150100  1
  O  O29  1  0.44453400  0.45607400  0.81849900  1
  O  O30  1  0.05546600  0.04392600  0.31849900  1
  O  O31  1  0.55546600  0.54392600  0.18150100  1
  O  O32  1  0.26585400  0.97029000  0.58259100  1
  O  O33  1  0.76585400  0.47029000  0.91740900  1
  O  O34  1  0.73414600  0.02971000  0.41740900  1
  O  O35  1  0.23414600  0.52971000  0.08259100  1
  O  O36  1  0.20020900  0.84108600  0.07467600  1
  O  O37  1  0.70020900  0.34108600  0.42532400  1
  O  O38  1  0.79979100  0.15891400  0.92532400  1
  O  O39  1  0.29979100  0.65891400  0.57467600  1
  O  O40  1  0.07208100  0.82720600  0.85856800  1
  O  O41  1  0.57208100  0.32720600  0.64143200  1
  O  O42  1  0.92791900  0.17279400  0.14143200  1
  O  O43  1  0.42791900  0.67279400  0.35856800  1
  O  O44  1  0.26105000  0.08427700  0.92258000  1
  O  O45  1  0.76105000  0.58427700  0.57742000  1
  O  O46  1  0.73895000  0.91572300  0.07742000  1
  O  O47  1  0.23895000  0.41572300  0.42258000  1
