# generated using pymatgen
data_Nd2Mo4O15
_symmetry_space_group_name_H-M   'P 1'
_cell_length_a   7.52642600
_cell_length_b   7.63798189
_cell_length_c   11.90455490
_cell_angle_alpha   88.84311299
_cell_angle_beta   84.07278436
_cell_angle_gamma   84.04211339
_symmetry_Int_Tables_number   1
_chemical_formula_structural   Nd2Mo4O15
_chemical_formula_sum   'Nd4 Mo8 O30'
_cell_volume   676.98717050
_cell_formula_units_Z   2
loop_
 _symmetry_equiv_pos_site_id
 _symmetry_equiv_pos_as_xyz
  1  'x, y, z'
loop_
 _atom_site_type_symbol
 _atom_site_label
 _atom_site_symmetry_multiplicity
 _atom_site_fract_x
 _atom_site_fract_y
 _atom_site_fract_z
 _atom_site_occupancy
  Nd  Nd0  1  0.75290800  0.58597400  0.77692600  1
  Nd  Nd1  1  0.24709200  0.41402600  0.22307400  1
  Nd  Nd2  1  0.31946500  0.91063400  0.77615400  1
  Nd  Nd3  1  0.68053500  0.08936600  0.22384600  1
  Mo  Mo4  1  0.56095100  0.74715200  0.47173800  1
  Mo  Mo5  1  0.43904900  0.25284800  0.52826200  1
  Mo  Mo6  1  0.27183900  0.43007900  0.87178200  1
  Mo  Mo7  1  0.72816100  0.56992100  0.12821800  1
  Mo  Mo8  1  0.77183600  0.07082900  0.87066600  1
  Mo  Mo9  1  0.22816400  0.92917100  0.12933400  1
  Mo  Mo10  1  0.90417100  0.33015100  0.47078900  1
  Mo  Mo11  1  0.09582900  0.66984900  0.52921100  1
  O  O12  1  0.91610600  0.52640700  0.59684900  1
  O  O13  1  0.08389400  0.47359300  0.40315100  1
  O  O14  1  0.33195200  0.70803600  0.44112200  1
  O  O15  1  0.66804800  0.29196400  0.55887800  1
  O  O16  1  0.42626200  0.59294000  0.81936100  1
  O  O17  1  0.57373800  0.40706000  0.18063900  1
  O  O18  1  0.64575000  0.90472600  0.81306600  1
  O  O19  1  0.35425000  0.09527400  0.18693400  1
  O  O20  1  0.70401300  0.56967500  0.40981800  1
  O  O21  1  0.29598700  0.43032500  0.59018200  1
  O  O22  1  0.13649600  0.77306000  0.65607800  1
  O  O23  1  0.86350400  0.22694000  0.34392200  1
  O  O24  1  0.29457100  0.90345500  0.98241800  1
  O  O25  1  0.70542900  0.09654500  0.01758200  1
  O  O26  1  0.03273800  0.16998600  0.53820600  1
  O  O27  1  0.96726200  0.83001400  0.46179400  1
  O  O28  1  0.57806500  0.73481000  0.62117600  1
  O  O29  1  0.42193500  0.26519000  0.37882400  1
  O  O30  1  0.00324300  0.99181300  0.84725200  1
  O  O31  1  0.99675700  0.00818700  0.15274800  1
  O  O32  1  0.72551300  0.59186000  0.97939600  1
  O  O33  1  0.27448700  0.40814000  0.02060400  1
  O  O34  1  0.73707800  0.28283100  0.80433100  1
  O  O35  1  0.26292200  0.71716900  0.19566900  1
  O  O36  1  0.33473800  0.21540700  0.81463400  1
  O  O37  1  0.66526200  0.78459300  0.18536600  1
  O  O38  1  0.05228400  0.51311500  0.84078800  1
  O  O39  1  0.94771600  0.48688500  0.15921200  1
  O  O40  1  0.62035300  0.94711400  0.40390700  1
  O  O41  1  0.37964700  0.05288600  0.59609300  1
