# generated using pymatgen
data_B2AsH13C3Br3N
_symmetry_space_group_name_H-M   'P 1'
_cell_length_a   11.55603100
_cell_length_b   6.78031200
_cell_length_c   18.73390491
_cell_angle_alpha   90.00000000
_cell_angle_beta   102.97927925
_cell_angle_gamma   90.00000000
_symmetry_Int_Tables_number   1
_chemical_formula_structural   B2AsH13C3Br3N
_chemical_formula_sum   'B8 As4 H52 C12 Br12 N4'
_cell_volume   1430.36492393
_cell_formula_units_Z   4
loop_
 _symmetry_equiv_pos_site_id
 _symmetry_equiv_pos_as_xyz
  1  'x, y, z'
loop_
 _atom_site_type_symbol
 _atom_site_label
 _atom_site_symmetry_multiplicity
 _atom_site_fract_x
 _atom_site_fract_y
 _atom_site_fract_z
 _atom_site_occupancy
  B  B0  1  0.79385700  0.61493300  0.14702800  1
  B  B1  1  0.20614300  0.11493300  0.35297200  1
  B  B2  1  0.20614300  0.38506700  0.85297200  1
  B  B3  1  0.79385700  0.88506700  0.64702800  1
  B  B4  1  0.68800700  0.56463300  0.31371600  1
  B  B5  1  0.31199300  0.06463300  0.18628400  1
  B  B6  1  0.31199300  0.43536700  0.68628400  1
  B  B7  1  0.68800700  0.93536700  0.81371600  1
  As  As8  1  0.82020700  0.51469200  0.25577400  1
  As  As9  1  0.17979300  0.01469200  0.24422600  1
  As  As10  1  0.17979300  0.48530800  0.74422600  1
  As  As11  1  0.82020700  0.98530800  0.75577400  1
  H  H12  1  0.59598700  0.51504000  0.27319600  1
  H  H13  1  0.40401300  0.01504000  0.22680400  1
  H  H14  1  0.40401300  0.48496000  0.72680400  1
  H  H15  1  0.59598700  0.98496000  0.77319600  1
  H  H16  1  0.69593300  0.73804800  0.32897900  1
  H  H17  1  0.30406700  0.23804800  0.17102100  1
  H  H18  1  0.30406700  0.26195200  0.67102100  1
  H  H19  1  0.69593300  0.76195200  0.82897900  1
  H  H20  1  0.85384200  0.29780000  0.25530000  1
  H  H21  1  0.14615800  0.79780000  0.24470000  1
  H  H22  1  0.14615800  0.70220000  0.74470000  1
  H  H23  1  0.85384200  0.20220000  0.75530000  1
  H  H24  1  0.93986400  0.59673100  0.29558200  1
  H  H25  1  0.06013600  0.09673100  0.20441800  1
  H  H26  1  0.06013600  0.40326900  0.70441800  1
  H  H27  1  0.93986400  0.90326900  0.79558200  1
  H  H28  1  0.82734300  0.63542600  0.45248500  1
  H  H29  1  0.17265700  0.13542600  0.04751500  1
  H  H30  1  0.17265700  0.36457400  0.54751500  1
  H  H31  1  0.82734300  0.86457400  0.95248500  1
  H  H32  1  0.82393900  0.39372300  0.49075700  1
  H  H33  1  0.17606100  0.89372300  0.00924300  1
  H  H34  1  0.17606100  0.60627700  0.50924300  1
  H  H35  1  0.82393900  0.10627700  0.99075700  1
  H  H36  1  0.89270100  0.43084900  0.41509400  1
  H  H37  1  0.10729900  0.93084900  0.08490600  1
  H  H38  1  0.10729900  0.56915100  0.58490600  1
  H  H39  1  0.89270100  0.06915100  0.91509400  1
  H  H40  1  0.60888600  0.41853200  0.47245000  1
  H  H41  1  0.39111400  0.91853200  0.02755000  1
  H  H42  1  0.39111400  0.58146800  0.52755000  1
  H  H43  1  0.60888600  0.08146800  0.97245000  1
  H  H44  1  0.62102400  0.66326500  0.43794200  1
  H  H45  1  0.37897600  0.16326500  0.06205800  1
  H  H46  1  0.37897600  0.33673500  0.56205800  1
  H  H47  1  0.62102400  0.83673500  0.93794200  1
  H  H48  1  0.52102100  0.49010000  0.38431500  1
  H  H49  1  0.47897900  0.99010000  0.11568500  1
  H  H50  1  0.47897900  0.50990000  0.61568500  1
  H  H51  1  0.52102100  0.00990000  0.88431500  1
  H  H52  1  0.76285900  0.16831200  0.35195100  1
  H  H53  1  0.23714100  0.66831200  0.14804900  1
  H  H54  1  0.23714100  0.83168800  0.64804900  1
  H  H55  1  0.76285900  0.33168800  0.85195100  1
  H  H56  1  0.69118700  0.14798300  0.42705900  1
  H  H57  1  0.30881300  0.64798300  0.07294100  1
  H  H58  1  0.30881300  0.85201700  0.57294100  1
  H  H59  1  0.69118700  0.35201700  0.92705900  1
  H  H60  1  0.60458100  0.19578300  0.33660300  1
  H  H61  1  0.39541900  0.69578300  0.16339700  1
  H  H62  1  0.39541900  0.80421700  0.66339700  1
  H  H63  1  0.60458100  0.30421700  0.83660300  1
  C  C64  1  0.81998500  0.47734300  0.44028200  1
  C  C65  1  0.18001500  0.97734300  0.05971800  1
  C  C66  1  0.18001500  0.52265700  0.55971800  1
  C  C67  1  0.81998500  0.02265700  0.94028200  1
  C  C68  1  0.60640600  0.50783600  0.42327300  1
  C  C69  1  0.39359400  0.00783600  0.07672700  1
  C  C70  1  0.39359400  0.49216400  0.57672700  1
  C  C71  1  0.60640600  0.99216400  0.92327300  1
  C  C72  1  0.68962000  0.22272500  0.37488400  1
  C  C73  1  0.31038000  0.72272500  0.12511600  1
  C  C74  1  0.31038000  0.77727500  0.62511600  1
  C  C75  1  0.68962000  0.27727500  0.87488400  1
  Br  Br76  1  0.93549100  0.53154500  0.10646000  1
  Br  Br77  1  0.06450900  0.03154500  0.39354000  1
  Br  Br78  1  0.06450900  0.46845500  0.89354000  1
  Br  Br79  1  0.93549100  0.96845500  0.60646000  1
  Br  Br80  1  0.78113300  0.91258400  0.14957300  1
  Br  Br81  1  0.21886700  0.41258400  0.35042700  1
  Br  Br82  1  0.21886700  0.08741600  0.85042700  1
  Br  Br83  1  0.78113300  0.58741600  0.64957300  1
  Br  Br84  1  0.64259900  0.48997100  0.08881200  1
  Br  Br85  1  0.35740100  0.98997100  0.41118800  1
  Br  Br86  1  0.35740100  0.51002900  0.91118800  1
  Br  Br87  1  0.64259900  0.01002900  0.58881200  1
  N  N88  1  0.70391100  0.43984400  0.38804400  1
  N  N89  1  0.29608900  0.93984400  0.11195600  1
  N  N90  1  0.29608900  0.56015600  0.61195600  1
  N  N91  1  0.70391100  0.06015600  0.88804400  1
