# generated using pymatgen
data_Sr5Ti9O23
_symmetry_space_group_name_H-M   'P 1'
_cell_length_a   8.04211000
_cell_length_b   5.57976200
_cell_length_c   31.93135584
_cell_angle_alpha   89.19547665
_cell_angle_beta   90.00000000
_cell_angle_gamma   90.00000000
_symmetry_Int_Tables_number   1
_chemical_formula_structural   Sr5Ti9O23
_chemical_formula_sum   'Sr10 Ti18 O46'
_cell_volume   1432.71638618
_cell_formula_units_Z   2
loop_
 _symmetry_equiv_pos_site_id
 _symmetry_equiv_pos_as_xyz
  1  'x, y, z'
loop_
 _atom_site_type_symbol
 _atom_site_label
 _atom_site_symmetry_multiplicity
 _atom_site_fract_x
 _atom_site_fract_y
 _atom_site_fract_z
 _atom_site_occupancy
  Sr  Sr0  1  0.00000000  0.00497400  0.82580400  1
  Sr  Sr1  1  0.00000000  0.99502600  0.17419600  1
  Sr  Sr2  1  0.50000000  0.01015100  0.82863200  1
  Sr  Sr3  1  0.50000000  0.98984900  0.17136800  1
  Sr  Sr4  1  0.00000000  0.50209500  0.91394600  1
  Sr  Sr5  1  0.00000000  0.49790500  0.08605400  1
  Sr  Sr6  1  0.50000000  0.50294400  0.91276900  1
  Sr  Sr7  1  0.50000000  0.49705600  0.08723100  1
  Sr  Sr8  1  0.00000000  0.00000000  0.00000000  1
  Sr  Sr9  1  0.50000000  0.00000000  0.00000000  1
  Ti  Ti10  1  0.79904600  0.46253900  0.73104500  1
  Ti  Ti11  1  0.20095400  0.46253900  0.73104500  1
  Ti  Ti12  1  0.20095400  0.53746100  0.26895500  1
  Ti  Ti13  1  0.79904600  0.53746100  0.26895500  1
  Ti  Ti14  1  0.70738300  0.95570000  0.73531600  1
  Ti  Ti15  1  0.29261700  0.95570000  0.73531600  1
  Ti  Ti16  1  0.29261700  0.04430000  0.26468400  1
  Ti  Ti17  1  0.70738300  0.04430000  0.26468400  1
  Ti  Ti18  1  0.75167700  0.50668800  0.82710900  1
  Ti  Ti19  1  0.24832300  0.50668800  0.82710900  1
  Ti  Ti20  1  0.24832300  0.49331200  0.17289100  1
  Ti  Ti21  1  0.75167700  0.49331200  0.17289100  1
  Ti  Ti22  1  0.74936900  0.00227100  0.91323800  1
  Ti  Ti23  1  0.25063100  0.00227100  0.91323800  1
  Ti  Ti24  1  0.25063100  0.99772900  0.08676200  1
  Ti  Ti25  1  0.74936900  0.99772900  0.08676200  1
  Ti  Ti26  1  0.75099300  0.50000000  0.00000000  1
  Ti  Ti27  1  0.24900700  0.50000000  0.00000000  1
  O  O28  1  0.80165000  0.18659200  0.70124400  1
  O  O29  1  0.19835000  0.18659200  0.70124400  1
  O  O30  1  0.19835000  0.81340800  0.29875600  1
  O  O31  1  0.80165000  0.81340800  0.29875600  1
  O  O32  1  0.67014500  0.69064200  0.70485500  1
  O  O33  1  0.32985500  0.69064200  0.70485500  1
  O  O34  1  0.32985500  0.30935800  0.29514500  1
  O  O35  1  0.67014500  0.30935800  0.29514500  1
  O  O36  1  0.00000000  0.59884000  0.72364000  1
  O  O37  1  0.00000000  0.40116000  0.27636000  1
  O  O38  1  0.50000000  0.06305500  0.74840100  1
  O  O39  1  0.50000000  0.93694500  0.25159900  1
  O  O40  1  0.77704600  0.27037200  0.78169000  1
  O  O41  1  0.22295400  0.27037200  0.78169000  1
  O  O42  1  0.22295400  0.72962800  0.21831000  1
  O  O43  1  0.77704600  0.72962800  0.21831000  1
  O  O44  1  0.77130700  0.76208400  0.78222100  1
  O  O45  1  0.22869300  0.76208400  0.78222100  1
  O  O46  1  0.22869300  0.23791600  0.21777900  1
  O  O47  1  0.77130700  0.23791600  0.21777900  1
  O  O48  1  0.00000000  0.51766100  0.83453500  1
  O  O49  1  0.00000000  0.48233900  0.16546500  1
  O  O50  1  0.50000000  0.50358000  0.82617100  1
  O  O51  1  0.50000000  0.49642000  0.17382900  1
  O  O52  1  0.74434800  0.25222600  0.86869100  1
  O  O53  1  0.25565200  0.25222600  0.86869100  1
  O  O54  1  0.25565200  0.74777400  0.13130900  1
  O  O55  1  0.74434800  0.74777400  0.13130900  1
  O  O56  1  0.73724400  0.76039600  0.86983300  1
  O  O57  1  0.26275600  0.76039600  0.86983300  1
  O  O58  1  0.26275600  0.23960400  0.13016700  1
  O  O59  1  0.73724400  0.23960400  0.13016700  1
  O  O60  1  0.00000000  0.00036600  0.91150900  1
  O  O61  1  0.00000000  0.99963400  0.08849100  1
  O  O62  1  0.50000000  0.01141100  0.91561000  1
  O  O63  1  0.50000000  0.98858900  0.08439000  1
  O  O64  1  0.75466000  0.25636500  0.95599500  1
  O  O65  1  0.24534000  0.25636500  0.95599500  1
  O  O66  1  0.24534000  0.74363500  0.04400500  1
  O  O67  1  0.75466000  0.74363500  0.04400500  1
  O  O68  1  0.75164400  0.75540700  0.95697600  1
  O  O69  1  0.24835600  0.75540700  0.95697600  1
  O  O70  1  0.24835600  0.24459300  0.04302400  1
  O  O71  1  0.75164400  0.24459300  0.04302400  1
  O  O72  1  0.00000000  0.50000000  0.00000000  1
  O  O73  1  0.50000000  0.50000000  0.00000000  1
