# generated using pymatgen
data_As2S2O9
_symmetry_space_group_name_H-M   'P 1'
_cell_length_a   6.86768000
_cell_length_b   6.86536400
_cell_length_c   17.48025961
_cell_angle_alpha   84.74113595
_cell_angle_beta   90.00000000
_cell_angle_gamma   90.00000000
_symmetry_Int_Tables_number   1
_chemical_formula_structural   As2S2O9
_chemical_formula_sum   'As8 S8 O36'
_cell_volume   820.70974411
_cell_formula_units_Z   4
loop_
 _symmetry_equiv_pos_site_id
 _symmetry_equiv_pos_as_xyz
  1  'x, y, z'
loop_
 _atom_site_type_symbol
 _atom_site_label
 _atom_site_symmetry_multiplicity
 _atom_site_fract_x
 _atom_site_fract_y
 _atom_site_fract_z
 _atom_site_occupancy
  As  As0  1  0.01488500  0.00296200  0.50248400  1
  As  As1  1  0.98511500  0.00296200  0.00248400  1
  As  As2  1  0.87043200  0.11463600  0.66783800  1
  As  As3  1  0.12956800  0.11463600  0.16783800  1
  As  As4  1  0.37387500  0.48513400  0.75932900  1
  As  As5  1  0.62612500  0.48513400  0.25932900  1
  As  As6  1  0.51517900  0.59500100  0.92523000  1
  As  As7  1  0.48482100  0.59500100  0.42523000  1
  S  S8  1  0.97715500  0.44945800  0.53356000  1
  S  S9  1  0.02284500  0.44945800  0.03356000  1
  S  S10  1  0.32198800  0.02423400  0.64112900  1
  S  S11  1  0.67801200  0.02423400  0.14112900  1
  S  S12  1  0.46952200  0.14922400  0.89251800  1
  S  S13  1  0.53047800  0.14922400  0.39251800  1
  S  S14  1  0.82452400  0.57437700  0.78857100  1
  S  S15  1  0.17547600  0.57437700  0.28857100  1
  O  O16  1  0.86692700  0.97150400  0.58697100  1
  O  O17  1  0.13307300  0.97150400  0.08697100  1
  O  O18  1  0.37146400  0.63040900  0.83949900  1
  O  O19  1  0.62853600  0.63040900  0.33949900  1
  O  O20  1  0.98978000  0.27572300  0.48149400  1
  O  O21  1  0.01022000  0.27572300  0.98149400  1
  O  O22  1  0.88347200  0.36502400  0.61045600  1
  O  O23  1  0.11652800  0.36502400  0.11045600  1
  O  O24  1  0.83987300  0.58850500  0.49689700  1
  O  O25  1  0.16012700  0.58850500  0.99689700  1
  O  O26  1  0.16946000  0.52215900  0.54746500  1
  O  O27  1  0.83054000  0.52215900  0.04746500  1
  O  O28  1  0.25825700  0.01835100  0.55585700  1
  O  O29  1  0.74174300  0.01835100  0.05585700  1
  O  O30  1  0.14346200  0.09976100  0.68514900  1
  O  O31  1  0.85653800  0.09976100  0.18514900  1
  O  O32  1  0.47162800  0.17240500  0.64300800  1
  O  O33  1  0.52837200  0.17240500  0.14300800  1
  O  O34  1  0.37127200  0.82927800  0.67271200  1
  O  O35  1  0.62872800  0.82927800  0.17271200  1
  O  O36  1  0.36548400  0.23626100  0.81835900  1
  O  O37  1  0.63451600  0.23626100  0.31835900  1
  O  O38  1  0.48812500  0.32187100  0.94492900  1
  O  O39  1  0.51187500  0.32187100  0.44492900  1
  O  O40  1  0.33855200  0.00821200  0.93173600  1
  O  O41  1  0.66144800  0.00821200  0.43173600  1
  O  O42  1  0.66042200  0.07801500  0.87450600  1
  O  O43  1  0.33957800  0.07801500  0.37450600  1
  O  O44  1  0.65075600  0.47865500  0.74815900  1
  O  O45  1  0.34924400  0.47865500  0.24815900  1
  O  O46  1  0.76097000  0.58731100  0.87357900  1
  O  O47  1  0.23903000  0.58731100  0.37357900  1
  O  O48  1  0.98295300  0.43504100  0.78842800  1
  O  O49  1  0.01704700  0.43504100  0.28842800  1
  O  O50  1  0.86076300  0.76898700  0.75353700  1
  O  O51  1  0.13923700  0.76898700  0.25353700  1
