# generated using pymatgen
data_ZrSO6
_symmetry_space_group_name_H-M   'P 1'
_cell_length_a   5.74091500
_cell_length_b   6.91176000
_cell_length_c   11.45150400
_cell_angle_alpha   90.00000000
_cell_angle_beta   90.00000000
_cell_angle_gamma   90.00000000
_symmetry_Int_Tables_number   1
_chemical_formula_structural   ZrSO6
_chemical_formula_sum   'Zr4 S4 O24'
_cell_volume   454.39369372
_cell_formula_units_Z   4
loop_
 _symmetry_equiv_pos_site_id
 _symmetry_equiv_pos_as_xyz
  1  'x, y, z'
loop_
 _atom_site_type_symbol
 _atom_site_label
 _atom_site_symmetry_multiplicity
 _atom_site_fract_x
 _atom_site_fract_y
 _atom_site_fract_z
 _atom_site_occupancy
  Zr  Zr0  1  0.25000000  0.33208300  0.57181900  1
  Zr  Zr1  1  0.25000000  0.16791700  0.07181900  1
  Zr  Zr2  1  0.75000000  0.66791700  0.42818100  1
  Zr  Zr3  1  0.75000000  0.83208300  0.92818100  1
  S  S4  1  0.25000000  0.54695100  0.85624100  1
  S  S5  1  0.25000000  0.95304900  0.35624100  1
  S  S6  1  0.75000000  0.45304900  0.14375900  1
  S  S7  1  0.75000000  0.04695100  0.64375900  1
  O  O8  1  0.25000000  0.43324400  0.96585800  1
  O  O9  1  0.25000000  0.06675600  0.46585800  1
  O  O10  1  0.75000000  0.56675600  0.03414200  1
  O  O11  1  0.75000000  0.93324400  0.53414200  1
  O  O12  1  0.25000000  0.41396000  0.75580300  1
  O  O13  1  0.25000000  0.08604000  0.25580300  1
  O  O14  1  0.75000000  0.58604000  0.24419700  1
  O  O15  1  0.75000000  0.91396000  0.74419700  1
  O  O16  1  0.04014700  0.67045400  0.85032600  1
  O  O17  1  0.45985300  0.82954600  0.35032600  1
  O  O18  1  0.54014700  0.32954600  0.14967400  1
  O  O19  1  0.95985300  0.17045400  0.64967400  1
  O  O20  1  0.95985300  0.32954600  0.14967400  1
  O  O21  1  0.54014700  0.17045400  0.64967400  1
  O  O22  1  0.45985300  0.67045400  0.85032600  1
  O  O23  1  0.04014700  0.82954600  0.35032600  1
  O  O24  1  0.99943300  0.06493400  0.94663400  1
  O  O25  1  0.50056700  0.43506600  0.44663400  1
  O  O26  1  0.49943300  0.93506600  0.05336600  1
  O  O27  1  0.00056700  0.56493400  0.55336600  1
  O  O28  1  0.00056700  0.93506600  0.05336600  1
  O  O29  1  0.49943300  0.56493400  0.55336600  1
  O  O30  1  0.50056700  0.06493400  0.94663400  1
  O  O31  1  0.99943300  0.43506600  0.44663400  1
