# generated using pymatgen
data_Cd5(PO5)4
_symmetry_space_group_name_H-M   'P 1'
_cell_length_a   10.20250887
_cell_length_b   10.20250887
_cell_length_c   9.79300099
_cell_angle_alpha   85.44003753
_cell_angle_beta   85.44003753
_cell_angle_gamma   53.51750473
_symmetry_Int_Tables_number   1
_chemical_formula_structural   Cd5(PO5)4
_chemical_formula_sum   'Cd10 P8 O40'
_cell_volume   816.35358582
_cell_formula_units_Z   2
loop_
 _symmetry_equiv_pos_site_id
 _symmetry_equiv_pos_as_xyz
  1  'x, y, z'
loop_
 _atom_site_type_symbol
 _atom_site_label
 _atom_site_symmetry_multiplicity
 _atom_site_fract_x
 _atom_site_fract_y
 _atom_site_fract_z
 _atom_site_occupancy
  Cd  Cd0  1  0.12950800  0.87049200  0.25000000  1
  Cd  Cd1  1  0.87049200  0.12950800  0.75000000  1
  Cd  Cd2  1  0.73481500  0.59202300  0.18800700  1
  Cd  Cd3  1  0.40797700  0.26518500  0.31199300  1
  Cd  Cd4  1  0.26518500  0.40797700  0.81199300  1
  Cd  Cd5  1  0.59202400  0.73481500  0.68800700  1
  Cd  Cd6  1  0.81079400  0.84000600  0.36923800  1
  Cd  Cd7  1  0.15999400  0.18920600  0.13076200  1
  Cd  Cd8  1  0.18920600  0.15999400  0.63076200  1
  Cd  Cd9  1  0.84000600  0.81079400  0.86923800  1
  P  P10  1  0.89507200  0.26872700  0.40781500  1
  P  P11  1  0.73127300  0.10492800  0.09218500  1
  P  P12  1  0.10492800  0.73127300  0.59218500  1
  P  P13  1  0.26872700  0.89507200  0.90781500  1
  P  P14  1  0.09703300  0.57431200  0.12298600  1
  P  P15  1  0.42568800  0.90296700  0.37701400  1
  P  P16  1  0.90296700  0.42568800  0.87701400  1
  P  P17  1  0.57431200  0.09703300  0.62298600  1
  O  O18  1  0.87632800  0.43077900  0.37359700  1
  O  O19  1  0.56922100  0.12367200  0.12640300  1
  O  O20  1  0.12367200  0.56922100  0.62640300  1
  O  O21  1  0.43077900  0.87632800  0.87359700  1
  O  O22  1  0.72508900  0.30386300  0.40717800  1
  O  O23  1  0.69613700  0.27491100  0.09282200  1
  O  O24  1  0.27491100  0.69613700  0.59282200  1
  O  O25  1  0.30386300  0.72508900  0.90717800  1
  O  O26  1  0.00837900  0.14727300  0.29459300  1
  O  O27  1  0.85272700  0.99162100  0.20540700  1
  O  O28  1  0.99162100  0.85272700  0.70540700  1
  O  O29  1  0.14727300  0.00837900  0.79459300  1
  O  O30  1  0.96888400  0.19499900  0.55009500  1
  O  O31  1  0.80500100  0.03111600  0.94990500  1
  O  O32  1  0.03111600  0.80500100  0.44990500  1
  O  O33  1  0.19499900  0.96888400  0.05009500  1
  O  O34  1  0.08480600  0.60144600  0.96505200  1
  O  O35  1  0.39855400  0.91519400  0.53494800  1
  O  O36  1  0.91519400  0.39855400  0.03494800  1
  O  O37  1  0.60144600  0.08480600  0.46505200  1
  O  O38  1  0.18554600  0.63646400  0.18239600  1
  O  O39  1  0.36353600  0.81445400  0.31760400  1
  O  O40  1  0.81445400  0.36353600  0.81760400  1
  O  O41  1  0.63646400  0.18554600  0.68239600  1
  O  O42  1  0.19933000  0.38632700  0.15907000  1
  O  O43  1  0.61367300  0.80067000  0.34093000  1
  O  O44  1  0.80067000  0.61367300  0.84093000  1
  O  O45  1  0.38632700  0.19933000  0.65907000  1
  O  O46  1  0.92059000  0.66403100  0.18762300  1
  O  O47  1  0.33596900  0.07941000  0.31237700  1
  O  O48  1  0.07941000  0.33596900  0.81237700  1
  O  O49  1  0.66403100  0.92059000  0.68762300  1
  O  O50  1  0.51204900  0.58604900  0.18974100  1
  O  O51  1  0.41395100  0.48795100  0.31025900  1
  O  O52  1  0.48795100  0.41395100  0.81025900  1
  O  O53  1  0.58604900  0.51204900  0.68974100  1
  O  O54  1  0.80553100  0.65483600  0.52541800  1
  O  O55  1  0.34516400  0.19446900  0.97458200  1
  O  O56  1  0.19446900  0.34516400  0.47458200  1
  O  O57  1  0.65483600  0.80553100  0.02541800  1
