# generated using pymatgen
data_Pd(NO)6
_symmetry_space_group_name_H-M   'P 1'
_cell_length_a   9.45689879
_cell_length_b   9.45689879
_cell_length_c   11.54748381
_cell_angle_alpha   71.39939096
_cell_angle_beta   71.39939096
_cell_angle_gamma   73.33781456
_symmetry_Int_Tables_number   1
_chemical_formula_structural   Pd(NO)6
_chemical_formula_sum   'Pd4 N24 O24'
_cell_volume   907.76986137
_cell_formula_units_Z   4
loop_
 _symmetry_equiv_pos_site_id
 _symmetry_equiv_pos_as_xyz
  1  'x, y, z'
loop_
 _atom_site_type_symbol
 _atom_site_label
 _atom_site_symmetry_multiplicity
 _atom_site_fract_x
 _atom_site_fract_y
 _atom_site_fract_z
 _atom_site_occupancy
  Pd  Pd0  1  0.00000000  0.50000000  0.00000000  1
  Pd  Pd1  1  0.50000000  0.00000000  0.50000000  1
  Pd  Pd2  1  0.50000000  0.00000000  0.00000000  1
  Pd  Pd3  1  0.00000000  0.50000000  0.50000000  1
  N  N4  1  0.79967700  0.65225600  0.00530100  1
  N  N5  1  0.34774400  0.20032300  0.49469900  1
  N  N6  1  0.20032300  0.34774400  0.99469900  1
  N  N7  1  0.65225600  0.79967700  0.50530100  1
  N  N8  1  0.88671700  0.32801000  0.08297600  1
  N  N9  1  0.67199000  0.11328300  0.41702400  1
  N  N10  1  0.11328300  0.67199000  0.91702400  1
  N  N11  1  0.32801000  0.88671700  0.58297600  1
  N  N12  1  0.34586900  0.86615500  0.08987800  1
  N  N13  1  0.13384500  0.65413100  0.41012200  1
  N  N14  1  0.65413100  0.13384500  0.91012200  1
  N  N15  1  0.86615500  0.34586900  0.58987800  1
  N  N16  1  0.51984800  0.00393600  0.16789800  1
  N  N17  1  0.99606400  0.48015200  0.33210200  1
  N  N18  1  0.48015200  0.99606400  0.83210200  1
  N  N19  1  0.00393600  0.51984800  0.66789800  1
  N  N20  1  0.12972900  0.07483600  0.34313500  1
  N  N21  1  0.92516400  0.87027100  0.15686500  1
  N  N22  1  0.87027100  0.92516400  0.65686500  1
  N  N23  1  0.07483600  0.12972900  0.84313500  1
  N  N24  1  0.45655300  0.42995100  0.15568400  1
  N  N25  1  0.57004900  0.54344700  0.34431600  1
  N  N26  1  0.54344700  0.57004900  0.84431600  1
  N  N27  1  0.42995100  0.45655300  0.65568400  1
  O  O28  1  0.08213000  0.13298600  0.24568400  1
  O  O29  1  0.86701400  0.91787000  0.25431600  1
  O  O30  1  0.91787000  0.86701400  0.75431600  1
  O  O31  1  0.13298600  0.08213000  0.74568400  1
  O  O32  1  0.22823800  0.95210000  0.35118700  1
  O  O33  1  0.04790000  0.77176200  0.14881300  1
  O  O34  1  0.77176200  0.04790000  0.64881300  1
  O  O35  1  0.95210000  0.22823800  0.85118700  1
  O  O36  1  0.08200900  0.13646500  0.43370700  1
  O  O37  1  0.86353500  0.91799100  0.06629300  1
  O  O38  1  0.91799100  0.86353500  0.56629300  1
  O  O39  1  0.13646500  0.08200900  0.93370700  1
  O  O40  1  0.31506400  0.44826400  0.18206400  1
  O  O41  1  0.55173600  0.68493600  0.31793600  1
  O  O42  1  0.68493600  0.55173600  0.81793600  1
  O  O43  1  0.44826400  0.31506400  0.68206400  1
  O  O44  1  0.51825200  0.54474000  0.10895500  1
  O  O45  1  0.45526000  0.48174800  0.39104500  1
  O  O46  1  0.48174800  0.45526000  0.89104500  1
  O  O47  1  0.54474000  0.51825200  0.60895500  1
  O  O48  1  0.53968900  0.29925000  0.17465600  1
  O  O49  1  0.70075000  0.46031100  0.32534400  1
  O  O50  1  0.46031100  0.70075000  0.82534400  1
  O  O51  1  0.29925000  0.53968900  0.67465600  1
