# generated using pymatgen
data_CdH8C2S2(NO)6
_symmetry_space_group_name_H-M   'P 1'
_cell_length_a   4.45374200
_cell_length_b   12.24888900
_cell_length_c   11.56724432
_cell_angle_alpha   90.00000000
_cell_angle_beta   99.95015507
_cell_angle_gamma   90.00000000
_symmetry_Int_Tables_number   1
_chemical_formula_structural   CdH8C2S2(NO)6
_chemical_formula_sum   'Cd2 H16 C4 S4 N12 O12'
_cell_volume   621.54069925
_cell_formula_units_Z   2
loop_
 _symmetry_equiv_pos_site_id
 _symmetry_equiv_pos_as_xyz
  1  'x, y, z'
loop_
 _atom_site_type_symbol
 _atom_site_label
 _atom_site_symmetry_multiplicity
 _atom_site_fract_x
 _atom_site_fract_y
 _atom_site_fract_z
 _atom_site_occupancy
  Cd  Cd0  1  0.50000000  0.50000000  0.00000000  1
  Cd  Cd1  1  0.50000000  0.00000000  0.50000000  1
  H  H2  1  0.99445700  0.27918000  0.32716800  1
  H  H3  1  0.99445700  0.22082000  0.82716800  1
  H  H4  1  0.00554300  0.72082000  0.67283200  1
  H  H5  1  0.00554300  0.77918000  0.17283200  1
  H  H6  1  0.15171300  0.31144400  0.20172800  1
  H  H7  1  0.15171300  0.18855600  0.70172800  1
  H  H8  1  0.84828700  0.68855600  0.79827200  1
  H  H9  1  0.84828700  0.81144400  0.29827200  1
  H  H10  1  0.74023900  0.41420300  0.41636100  1
  H  H11  1  0.74023900  0.08579700  0.91636100  1
  H  H12  1  0.25976100  0.58579700  0.58363900  1
  H  H13  1  0.25976100  0.91420300  0.08363900  1
  H  H14  1  0.69858600  0.54444100  0.35399600  1
  H  H15  1  0.69858600  0.95555900  0.85399600  1
  H  H16  1  0.30141400  0.45555900  0.64600400  1
  H  H17  1  0.30141400  0.04444100  0.14600400  1
  C  C18  1  0.92167000  0.43558200  0.26563800  1
  C  C19  1  0.92167000  0.06441800  0.76563800  1
  C  C20  1  0.07833000  0.56441800  0.73436200  1
  C  C21  1  0.07833000  0.93558200  0.23436200  1
  S  S22  1  0.96970200  0.52941300  0.15652500  1
  S  S23  1  0.96970200  0.97058700  0.65652500  1
  S  S24  1  0.03029800  0.47058700  0.84347500  1
  S  S25  1  0.03029800  0.02941300  0.34347500  1
  N  N26  1  0.03520000  0.33482900  0.26604000  1
  N  N27  1  0.03520000  0.16517100  0.76604000  1
  N  N28  1  0.96480000  0.66517100  0.73396000  1
  N  N29  1  0.96480000  0.83482900  0.23396000  1
  N  N30  1  0.77861600  0.46683200  0.35148500  1
  N  N31  1  0.77861600  0.03316800  0.85148500  1
  N  N32  1  0.22138400  0.53316800  0.64851500  1
  N  N33  1  0.22138400  0.96683200  0.14851500  1
  N  N34  1  0.54367800  0.24970200  0.02704100  1
  N  N35  1  0.54367800  0.25029800  0.52704100  1
  N  N36  1  0.45632200  0.75029800  0.97295900  1
  N  N37  1  0.45632200  0.74970200  0.47295900  1
  O  O38  1  0.69417900  0.28489100  0.95182600  1
  O  O39  1  0.69417900  0.21510900  0.45182600  1
  O  O40  1  0.30582100  0.71510900  0.04817400  1
  O  O41  1  0.30582100  0.78489100  0.54817400  1
  O  O42  1  0.39799900  0.31854400  0.08033100  1
  O  O43  1  0.39799900  0.18145600  0.58033100  1
  O  O44  1  0.60200100  0.68145600  0.91966900  1
  O  O45  1  0.60200100  0.81854400  0.41966900  1
  O  O46  1  0.53365000  0.14925600  0.04953000  1
  O  O47  1  0.53365000  0.35074400  0.54953000  1
  O  O48  1  0.46635000  0.85074400  0.95047000  1
  O  O49  1  0.46635000  0.64925600  0.45047000  1
