# generated using pymatgen
data_Nd2SiS5
_symmetry_space_group_name_H-M   'P 1'
_cell_length_a   8.21262600
_cell_length_b   8.66037103
_cell_length_c   12.17465696
_cell_angle_alpha   92.77512853
_cell_angle_beta   90.00000000
_cell_angle_gamma   90.00000000
_symmetry_Int_Tables_number   1
_chemical_formula_structural   Nd2SiS5
_chemical_formula_sum   'Nd8 Si4 S20'
_cell_volume   864.89952571
_cell_formula_units_Z   4
loop_
 _symmetry_equiv_pos_site_id
 _symmetry_equiv_pos_as_xyz
  1  'x, y, z'
loop_
 _atom_site_type_symbol
 _atom_site_label
 _atom_site_symmetry_multiplicity
 _atom_site_fract_x
 _atom_site_fract_y
 _atom_site_fract_z
 _atom_site_occupancy
  Nd  Nd0  1  0.42705500  0.50475500  0.66095800  1
  Nd  Nd1  1  0.92705500  0.49524500  0.83904200  1
  Nd  Nd2  1  0.57294500  0.49524500  0.33904200  1
  Nd  Nd3  1  0.07294500  0.50475500  0.16095800  1
  Nd  Nd4  1  0.42561500  0.74398400  0.00748900  1
  Nd  Nd5  1  0.92561500  0.25601600  0.49251100  1
  Nd  Nd6  1  0.57438500  0.25601600  0.99251100  1
  Nd  Nd7  1  0.07438500  0.74398400  0.50748900  1
  Si  Si8  1  0.21608800  0.04010300  0.21547100  1
  Si  Si9  1  0.71608800  0.95989700  0.28452900  1
  Si  Si10  1  0.78391200  0.95989700  0.78452900  1
  Si  Si11  1  0.28391200  0.04010300  0.71547100  1
  S  S12  1  0.59130800  0.52607600  0.86773500  1
  S  S13  1  0.09130800  0.47392400  0.63226500  1
  S  S14  1  0.40869200  0.47392400  0.13226500  1
  S  S15  1  0.90869200  0.52607600  0.36773500  1
  S  S16  1  0.79887000  0.94636900  0.44342300  1
  S  S17  1  0.29887000  0.05363100  0.05657700  1
  S  S18  1  0.20113000  0.05363100  0.55657700  1
  S  S19  1  0.70113000  0.94636900  0.94342300  1
  S  S20  1  0.66929400  0.75898700  0.19296200  1
  S  S21  1  0.16929400  0.24101300  0.30703800  1
  S  S22  1  0.33070600  0.24101300  0.80703800  1
  S  S23  1  0.83070600  0.75898700  0.69296200  1
  S  S24  1  0.09951200  0.67969900  0.97973200  1
  S  S25  1  0.59951200  0.32030100  0.52026800  1
  S  S26  1  0.90048800  0.32030100  0.02026800  1
  S  S27  1  0.40048800  0.67969900  0.47973200  1
  S  S28  1  0.33004900  0.82698500  0.77145300  1
  S  S29  1  0.83004900  0.17301500  0.72854700  1
  S  S30  1  0.66995100  0.17301500  0.22854700  1
  S  S31  1  0.16995100  0.82698500  0.27145300  1
