# generated using pymatgen
data_PNO3
_symmetry_space_group_name_H-M   'P 1'
_cell_length_a   7.37439920
_cell_length_b   7.37439920
_cell_length_c   14.28133400
_cell_angle_alpha   90.00000000
_cell_angle_beta   90.00000000
_cell_angle_gamma   90.05854303
_symmetry_Int_Tables_number   1
_chemical_formula_structural   PNO3
_chemical_formula_sum   'P8 N8 O24'
_cell_volume   776.64372321
_cell_formula_units_Z   8
loop_
 _symmetry_equiv_pos_site_id
 _symmetry_equiv_pos_as_xyz
  1  'x, y, z'
loop_
 _atom_site_type_symbol
 _atom_site_label
 _atom_site_symmetry_multiplicity
 _atom_site_fract_x
 _atom_site_fract_y
 _atom_site_fract_z
 _atom_site_occupancy
  P  P0  1  0.05366300  0.94633700  0.13564100  1
  P  P1  1  0.94633700  0.05366300  0.86435900  1
  P  P2  1  0.44633700  0.55366300  0.63564100  1
  P  P3  1  0.55366300  0.44633700  0.36435900  1
  P  P4  1  0.76807200  0.76807200  0.00000000  1
  P  P5  1  0.26807200  0.26807200  0.50000000  1
  P  P6  1  0.23192800  0.23192800  0.00000000  1
  P  P7  1  0.73192800  0.73192800  0.50000000  1
  N  N8  1  0.24686100  0.75313900  0.91875500  1
  N  N9  1  0.75313900  0.24686100  0.08124500  1
  N  N10  1  0.25313900  0.74686100  0.41875500  1
  N  N11  1  0.74686100  0.25313900  0.58124500  1
  N  N12  1  0.04144800  0.45855200  0.25000000  1
  N  N13  1  0.45855200  0.04144800  0.75000000  1
  N  N14  1  0.95855200  0.54144800  0.75000000  1
  N  N15  1  0.54144800  0.95855200  0.25000000  1
  O  O16  1  0.82170100  0.17829900  0.14510200  1
  O  O17  1  0.17829900  0.82170100  0.85489800  1
  O  O18  1  0.67829900  0.32170100  0.64510200  1
  O  O19  1  0.32170100  0.67829900  0.35489800  1
  O  O20  1  0.08734800  0.91265200  0.23488700  1
  O  O21  1  0.91265200  0.08734800  0.76511300  1
  O  O22  1  0.41265200  0.58734800  0.73488700  1
  O  O23  1  0.58734800  0.41265200  0.26511300  1
  O  O24  1  0.60234500  0.82123300  0.04974800  1
  O  O25  1  0.82123300  0.60234500  0.95025200  1
  O  O26  1  0.32123300  0.10234500  0.54974800  1
  O  O27  1  0.10234500  0.32123300  0.45025200  1
  O  O28  1  0.39765500  0.17876700  0.95025200  1
  O  O29  1  0.17876700  0.39765500  0.04974800  1
  O  O30  1  0.67876700  0.89765500  0.45025200  1
  O  O31  1  0.89765500  0.67876700  0.54974800  1
  O  O32  1  0.94694200  0.81122000  0.07537800  1
  O  O33  1  0.81122000  0.94694200  0.92462200  1
  O  O34  1  0.31122000  0.44694200  0.57537800  1
  O  O35  1  0.44694200  0.31122000  0.42462200  1
  O  O36  1  0.05305800  0.18878000  0.92462200  1
  O  O37  1  0.18878000  0.05305800  0.07537800  1
  O  O38  1  0.68878000  0.55305800  0.42462200  1
  O  O39  1  0.55305800  0.68878000  0.57537800  1
