# generated using pymatgen
data_VP(HO)9
_symmetry_space_group_name_H-M   'P 1'
_cell_length_a   6.44648100
_cell_length_b   9.04847276
_cell_length_c   13.49758432
_cell_angle_alpha   79.75555745
_cell_angle_beta   76.87445519
_cell_angle_gamma   71.42114170
_symmetry_Int_Tables_number   1
_chemical_formula_structural   VP(HO)9
_chemical_formula_sum   'V4 P4 H36 O36'
_cell_volume   722.03555627
_cell_formula_units_Z   4
loop_
 _symmetry_equiv_pos_site_id
 _symmetry_equiv_pos_as_xyz
  1  'x, y, z'
loop_
 _atom_site_type_symbol
 _atom_site_label
 _atom_site_symmetry_multiplicity
 _atom_site_fract_x
 _atom_site_fract_y
 _atom_site_fract_z
 _atom_site_occupancy
  V  V0  1  0.34850400  0.01778600  0.80156200  1
  V  V1  1  0.65149600  0.98221400  0.19843800  1
  V  V2  1  0.73295900  0.38655700  0.69354600  1
  V  V3  1  0.26704100  0.61344300  0.30645400  1
  P  P4  1  0.86877400  0.01426900  0.75899900  1
  P  P5  1  0.13122600  0.98573100  0.24100100  1
  P  P6  1  0.20902200  0.38923900  0.73083900  1
  P  P7  1  0.79097800  0.61076100  0.26916100  1
  H  H8  1  0.90176800  0.87673600  0.63181000  1
  H  H9  1  0.09823200  0.12326400  0.36819000  1
  H  H10  1  0.65639500  0.11155900  0.49018700  1
  H  H11  1  0.34360500  0.88844100  0.50981300  1
  H  H12  1  0.56069200  0.73846500  0.89192100  1
  H  H13  1  0.43930800  0.26153500  0.10807900  1
  H  H14  1  0.32156300  0.98843300  0.03632600  1
  H  H15  1  0.67843700  0.01156700  0.96367400  1
  H  H16  1  0.85762300  0.48697000  0.46547000  1
  H  H17  1  0.14237700  0.51303000  0.53453000  1
  H  H18  1  0.31839300  0.73623700  0.88844600  1
  H  H19  1  0.68160700  0.26376300  0.11155400  1
  H  H20  1  0.71932900  0.85712800  0.52127500  1
  H  H21  1  0.28067100  0.14287200  0.47872500  1
  H  H22  1  0.71470300  0.36626900  0.49107500  1
  H  H23  1  0.28529700  0.63373100  0.50892500  1
  H  H24  1  0.56087700  0.68285900  0.73467700  1
  H  H25  1  0.43912300  0.31714100  0.26532300  1
  H  H26  1  0.55292200  0.68488200  0.61521400  1
  H  H27  1  0.44707800  0.31511800  0.38478600  1
  H  H28  1  0.10855700  0.08582000  0.99347300  1
  H  H29  1  0.89144300  0.91418000  0.00652700  1
  H  H30  1  0.06489400  0.64192000  0.75358800  1
  H  H31  1  0.93510600  0.35808000  0.24641200  1
  H  H32  1  0.95010200  0.87328800  0.45958700  1
  H  H33  1  0.04989800  0.12671200  0.54041300  1
  H  H34  1  0.49298800  0.24436200  0.55723200  1
  H  H35  1  0.50701200  0.75563800  0.44276800  1
  H  H36  1  0.83757200  0.32243600  0.94145000  1
  H  H37  1  0.16242800  0.67756400  0.05855000  1
  H  H38  1  0.99943300  0.33686800  0.01148700  1
  H  H39  1  0.00056700  0.66313200  0.98851300  1
  H  H40  1  0.63129800  0.70208000  0.05150900  1
  H  H41  1  0.36870200  0.29792000  0.94849100  1
  H  H42  1  0.73672300  0.54939600  0.99665200  1
  H  H43  1  0.26327700  0.45060400  0.00334800  1
  O  O44  1  0.21986100  0.25031500  0.81494500  1
  O  O45  1  0.78013900  0.74968500  0.18505500  1
  O  O46  1  0.64500500  0.01785900  0.83271400  1
  O  O47  1  0.35499500  0.98214100  0.16728600  1
  O  O48  1  0.04012000  0.99451800  0.82598400  1
  O  O49  1  0.95988000  0.00548200  0.17401600  1
  O  O50  1  0.44677600  0.77154900  0.84516800  1
  O  O51  1  0.55322400  0.22845100  0.15483200  1
  O  O52  1  0.41930600  0.01241900  0.67784700  1
  O  O53  1  0.58069400  0.98758100  0.32215300  1
  O  O54  1  0.25513400  0.01294800  0.97381400  1
  O  O55  1  0.74486600  0.98705200  0.02618600  1
  O  O56  1  0.43793700  0.38605200  0.66354200  1
  O  O57  1  0.56206300  0.61394800  0.33645800  1
  O  O58  1  0.85128100  0.15502100  0.67478100  1
  O  O59  1  0.14871900  0.84497900  0.32521900  1
  O  O60  1  0.05179500  0.40149700  0.65698400  1
  O  O61  1  0.94820500  0.59850300  0.34301600  1
  O  O62  1  0.63724100  0.63055500  0.67173700  1
  O  O63  1  0.36275900  0.36944500  0.32826300  1
  O  O64  1  0.68408600  0.37327400  0.81956200  1
  O  O65  1  0.31591400  0.62672600  0.18043800  1
  O  O66  1  0.80217200  0.41360700  0.52034600  1
  O  O67  1  0.19782800  0.58639300  0.47965400  1
  O  O68  1  0.95193000  0.86060700  0.70020400  1
  O  O69  1  0.04807000  0.13939300  0.29979600  1
  O  O70  1  0.11618100  0.53856300  0.79349800  1
  O  O71  1  0.88381900  0.46143700  0.20650200  1
  O  O72  1  0.83172100  0.91115700  0.51786900  1
  O  O73  1  0.16827900  0.08884300  0.48213100  1
  O  O74  1  0.84348800  0.34271000  0.01014200  1
  O  O75  1  0.15651200  0.65729000  0.98985800  1
  O  O76  1  0.55475700  0.22080200  0.48595000  1
  O  O77  1  0.44524300  0.77919800  0.51405000  1
  O  O78  1  0.71229600  0.66534600  0.98556600  1
  O  O79  1  0.28770400  0.33465400  0.01443400  1
