# generated using pymatgen
data_Ca4Si3H2O11
_symmetry_space_group_name_H-M   'P 1'
_cell_length_a   6.96692346
_cell_length_b   6.96692346
_cell_length_c   20.78053800
_cell_angle_alpha   90.00000000
_cell_angle_beta   90.00000000
_cell_angle_gamma   97.39347787
_symmetry_Int_Tables_number   1
_chemical_formula_structural   Ca4Si3H2O11
_chemical_formula_sum   'Ca16 Si12 H8 O44'
_cell_volume   1000.26015321
_cell_formula_units_Z   4
loop_
 _symmetry_equiv_pos_site_id
 _symmetry_equiv_pos_as_xyz
  1  'x, y, z'
loop_
 _atom_site_type_symbol
 _atom_site_label
 _atom_site_symmetry_multiplicity
 _atom_site_fract_x
 _atom_site_fract_y
 _atom_site_fract_z
 _atom_site_occupancy
  Ca  Ca0  1  0.15563300  0.96510800  0.85419100  1
  Ca  Ca1  1  0.96510800  0.15563300  0.14580900  1
  Ca  Ca2  1  0.15563300  0.96510800  0.64580900  1
  Ca  Ca3  1  0.96510800  0.15563300  0.35419100  1
  Ca  Ca4  1  0.53352300  0.34525900  0.86313200  1
  Ca  Ca5  1  0.34525900  0.53352300  0.13686800  1
  Ca  Ca6  1  0.53352300  0.34525900  0.63686800  1
  Ca  Ca7  1  0.34525900  0.53352300  0.36313200  1
  Ca  Ca8  1  0.84959800  0.62044400  0.75000000  1
  Ca  Ca9  1  0.62044400  0.84959800  0.25000000  1
  Ca  Ca10  1  0.62178400  0.62178400  0.00000000  1
  Ca  Ca11  1  0.62178400  0.62178400  0.50000000  1
  Ca  Ca12  1  0.78539500  0.11505900  0.75000000  1
  Ca  Ca13  1  0.11505900  0.78539500  0.25000000  1
  Ca  Ca14  1  0.21481800  0.21481800  0.00000000  1
  Ca  Ca15  1  0.21481800  0.21481800  0.50000000  1
  Si  Si16  1  0.63881200  0.87653200  0.87324800  1
  Si  Si17  1  0.87653200  0.63881200  0.12675200  1
  Si  Si18  1  0.63881200  0.87653200  0.62675200  1
  Si  Si19  1  0.87653200  0.63881200  0.37324800  1
  Si  Si20  1  0.12006200  0.69258500  0.99646100  1
  Si  Si21  1  0.69258500  0.12006200  0.00353900  1
  Si  Si22  1  0.12006200  0.69258500  0.50353900  1
  Si  Si23  1  0.69258500  0.12006200  0.49646100  1
  Si  Si24  1  0.04896100  0.44923700  0.87388500  1
  Si  Si25  1  0.44923700  0.04896100  0.12611500  1
  Si  Si26  1  0.04896100  0.44923700  0.62611500  1
  Si  Si27  1  0.44923700  0.04896100  0.37388500  1
  H  H28  1  0.31802900  0.64593100  0.84847800  1
  H  H29  1  0.64593100  0.31802900  0.15152200  1
  H  H30  1  0.31802900  0.64593100  0.65152200  1
  H  H31  1  0.64593100  0.31802900  0.34847800  1
  H  H32  1  0.22824000  0.19393200  0.75000000  1
  H  H33  1  0.19393200  0.22824000  0.25000000  1
  H  H34  1  0.42140300  0.50302500  0.75000000  1
  H  H35  1  0.50302500  0.42140300  0.25000000  1
  O  O36  1  0.57179800  0.28711400  0.97465200  1
  O  O37  1  0.28711400  0.57179800  0.02534800  1
  O  O38  1  0.57179800  0.28711400  0.52534800  1
  O  O39  1  0.28711400  0.57179800  0.47465200  1
  O  O40  1  0.19059600  0.89910300  0.96375000  1
  O  O41  1  0.89910300  0.19059600  0.03625000  1
  O  O42  1  0.19059600  0.89910300  0.53625000  1
  O  O43  1  0.89910300  0.19059600  0.46375000  1
  O  O44  1  0.98611900  0.55111800  0.94198100  1
  O  O45  1  0.55111800  0.98611900  0.05801900  1
  O  O46  1  0.98611900  0.55111800  0.55801900  1
  O  O47  1  0.55111800  0.98611900  0.44198100  1
  O  O48  1  0.71731500  0.95323300  0.94677000  1
  O  O49  1  0.95323300  0.71731500  0.05323000  1
  O  O50  1  0.71731500  0.95323300  0.55323000  1
  O  O51  1  0.95323300  0.71731500  0.44677000  1
  O  O52  1  0.19144000  0.28748100  0.88965400  1
  O  O53  1  0.28748100  0.19144000  0.11034600  1
  O  O54  1  0.19144000  0.28748100  0.61034600  1
  O  O55  1  0.28748100  0.19144000  0.38965400  1
  O  O56  1  0.50600900  0.02336000  0.83855900  1
  O  O57  1  0.02336000  0.50600900  0.16144100  1
  O  O58  1  0.50600900  0.02336000  0.66144100  1
  O  O59  1  0.02336000  0.50600900  0.33855900  1
  O  O60  1  0.86098800  0.37635900  0.83020900  1
  O  O61  1  0.37635900  0.86098800  0.16979100  1
  O  O62  1  0.86098800  0.37635900  0.66979100  1
  O  O63  1  0.37635900  0.86098800  0.33020900  1
  O  O64  1  0.82743000  0.86564100  0.82635500  1
  O  O65  1  0.86564100  0.82743000  0.17364500  1
  O  O66  1  0.82743000  0.86564100  0.67364500  1
  O  O67  1  0.86564100  0.82743000  0.32635500  1
  O  O68  1  0.52131400  0.66216900  0.88814900  1
  O  O69  1  0.66216900  0.52131400  0.11185100  1
  O  O70  1  0.52131400  0.66216900  0.61185100  1
  O  O71  1  0.66216900  0.52131400  0.38814900  1
  O  O72  1  0.17926600  0.62715400  0.83053700  1
  O  O73  1  0.62715400  0.17926600  0.16946300  1
  O  O74  1  0.17926600  0.62715400  0.66946300  1
  O  O75  1  0.62715400  0.17926600  0.33053700  1
  O  O76  1  0.12218100  0.08791100  0.75000000  1
  O  O77  1  0.08791100  0.12218100  0.25000000  1
  O  O78  1  0.53345100  0.43177700  0.75000000  1
  O  O79  1  0.43177700  0.53345100  0.25000000  1
