# generated using pymatgen
data_Rb4WS3O14
_symmetry_space_group_name_H-M   'P 1'
_cell_length_a   14.34597700
_cell_length_b   9.87720100
_cell_length_c   14.79716630
_cell_angle_alpha   48.59427843
_cell_angle_beta   90.00000000
_cell_angle_gamma   90.00000000
_symmetry_Int_Tables_number   1
_chemical_formula_structural   Rb4WS3O14
_chemical_formula_sum   'Rb16 W4 S12 O56'
_cell_volume   1572.64215439
_cell_formula_units_Z   4
loop_
 _symmetry_equiv_pos_site_id
 _symmetry_equiv_pos_as_xyz
  1  'x, y, z'
loop_
 _atom_site_type_symbol
 _atom_site_label
 _atom_site_symmetry_multiplicity
 _atom_site_fract_x
 _atom_site_fract_y
 _atom_site_fract_z
 _atom_site_occupancy
  Rb  Rb0  1  0.80968800  0.34268700  0.84591700  1
  Rb  Rb1  1  0.69031200  0.34268700  0.34591700  1
  Rb  Rb2  1  0.19031200  0.65731300  0.15408300  1
  Rb  Rb3  1  0.30968800  0.65731300  0.65408300  1
  Rb  Rb4  1  0.51080400  0.28817500  0.70333000  1
  Rb  Rb5  1  0.98919600  0.28817500  0.20333000  1
  Rb  Rb6  1  0.48919600  0.71182500  0.29667000  1
  Rb  Rb7  1  0.01080400  0.71182500  0.79667000  1
  Rb  Rb8  1  0.51366500  0.32230900  0.98602200  1
  Rb  Rb9  1  0.98633500  0.32230900  0.48602200  1
  Rb  Rb10  1  0.48633500  0.67769100  0.01397800  1
  Rb  Rb11  1  0.01366500  0.67769100  0.51397800  1
  Rb  Rb12  1  0.72597800  0.97742600  0.75354700  1
  Rb  Rb13  1  0.77402200  0.97742600  0.25354700  1
  Rb  Rb14  1  0.27402200  0.02257400  0.24645300  1
  Rb  Rb15  1  0.22597800  0.02257400  0.74645300  1
  W  W16  1  0.61813100  0.75170600  0.58147800  1
  W  W17  1  0.88186900  0.75170600  0.08147800  1
  W  W18  1  0.38186900  0.24829400  0.41852200  1
  W  W19  1  0.11813100  0.24829400  0.91852200  1
  S  S20  1  0.48077800  0.88113400  0.69499600  1
  S  S21  1  0.01922200  0.88113400  0.19499600  1
  S  S22  1  0.51922200  0.11886600  0.30500400  1
  S  S23  1  0.98077800  0.11886600  0.80500400  1
  S  S24  1  0.72810500  0.51899600  0.52111900  1
  S  S25  1  0.77189500  0.51899600  0.02111900  1
  S  S26  1  0.27189500  0.48100400  0.47888100  1
  S  S27  1  0.22810500  0.48100400  0.97888100  1
  S  S28  1  0.84108300  0.91025700  0.55359600  1
  S  S29  1  0.65891700  0.91025700  0.05359600  1
  S  S30  1  0.15891700  0.08974300  0.44640400  1
  S  S31  1  0.34108300  0.08974300  0.94640400  1
  O  O32  1  0.63827300  0.55636700  0.73298400  1
  O  O33  1  0.86172700  0.55636700  0.23298400  1
  O  O34  1  0.36172700  0.44363300  0.26701600  1
  O  O35  1  0.13827300  0.44363300  0.76701600  1
  O  O36  1  0.51246200  0.69041800  0.55458400  1
  O  O37  1  0.98753800  0.69041800  0.05458400  1
  O  O38  1  0.48753800  0.30958200  0.44541600  1
  O  O39  1  0.01246200  0.30958200  0.94541600  1
  O  O40  1  0.70416500  0.69060300  0.50710800  1
  O  O41  1  0.79583500  0.69060300  0.00710800  1
  O  O42  1  0.29583500  0.30939700  0.49289200  1
  O  O43  1  0.20416500  0.30939700  0.99289200  1
  O  O44  1  0.55965800  0.90442600  0.61410500  1
  O  O45  1  0.94034200  0.90442600  0.11410500  1
  O  O46  1  0.44034200  0.09557400  0.38589500  1
  O  O47  1  0.05965800  0.09557400  0.88589500  1
  O  O48  1  0.73284300  0.90690500  0.55980900  1
  O  O49  1  0.76715700  0.90690500  0.05980900  1
  O  O50  1  0.26715700  0.09309500  0.44019100  1
  O  O51  1  0.23284300  0.09309500  0.94019100  1
  O  O52  1  0.60281900  0.02063100  0.38562800  1
  O  O53  1  0.89718100  0.02063100  0.88562800  1
  O  O54  1  0.39718100  0.97936900  0.61437200  1
  O  O55  1  0.10281900  0.97936900  0.11437200  1
  O  O56  1  0.87585100  0.72241400  0.63984600  1
  O  O57  1  0.62414900  0.72241400  0.13984600  1
  O  O58  1  0.12414900  0.27758600  0.36015400  1
  O  O59  1  0.37585100  0.27758600  0.86015400  1
  O  O60  1  0.72732300  0.36036000  0.65075000  1
  O  O61  1  0.77267700  0.36036000  0.15075000  1
  O  O62  1  0.27267700  0.63964000  0.34925000  1
  O  O63  1  0.22732300  0.63964000  0.84925000  1
  O  O64  1  0.65390200  0.51192800  0.45589100  1
  O  O65  1  0.84609800  0.51192800  0.95589100  1
  O  O66  1  0.34609800  0.48807200  0.54410900  1
  O  O67  1  0.15390200  0.48807200  0.04410900  1
  O  O68  1  0.86929400  0.01306500  0.58962900  1
  O  O69  1  0.63070600  0.01306500  0.08962900  1
  O  O70  1  0.13070600  0.98693500  0.41037100  1
  O  O71  1  0.36929400  0.98693500  0.91037100  1
  O  O72  1  0.45822600  0.68994400  0.78875200  1
  O  O73  1  0.04177400  0.68994400  0.28875200  1
  O  O74  1  0.54177400  0.31005600  0.21124800  1
  O  O75  1  0.95822600  0.31005600  0.71124800  1
  O  O76  1  0.81980000  0.56349400  0.46401400  1
  O  O77  1  0.68020000  0.56349400  0.96401400  1
  O  O78  1  0.18020000  0.43650600  0.53598600  1
  O  O79  1  0.31980000  0.43650600  0.03598600  1
  O  O80  1  0.86736200  0.00204600  0.42845800  1
  O  O81  1  0.63263800  0.00204600  0.92845800  1
  O  O82  1  0.13263800  0.99795400  0.57154200  1
  O  O83  1  0.36736200  0.99795400  0.07154200  1
  O  O84  1  0.51514700  0.96412700  0.74146600  1
  O  O85  1  0.98485300  0.96412700  0.24146600  1
  O  O86  1  0.48485300  0.03587300  0.25853400  1
  O  O87  1  0.01514700  0.03587300  0.75853400  1
