# generated using pymatgen
data_SbSO2F7
_symmetry_space_group_name_H-M   'P 1'
_cell_length_a   5.21878800
_cell_length_b   8.28937800
_cell_length_c   19.03424027
_cell_angle_alpha   90.00000000
_cell_angle_beta   90.52671015
_cell_angle_gamma   90.00000000
_symmetry_Int_Tables_number   1
_chemical_formula_structural   SbSO2F7
_chemical_formula_sum   'Sb4 S4 O8 F28'
_cell_volume   823.39608054
_cell_formula_units_Z   4
loop_
 _symmetry_equiv_pos_site_id
 _symmetry_equiv_pos_as_xyz
  1  'x, y, z'
loop_
 _atom_site_type_symbol
 _atom_site_label
 _atom_site_symmetry_multiplicity
 _atom_site_fract_x
 _atom_site_fract_y
 _atom_site_fract_z
 _atom_site_occupancy
  Sb  Sb0  1  0.89868800  0.59633800  0.86315900  1
  Sb  Sb1  1  0.10131200  0.09633800  0.63684100  1
  Sb  Sb2  1  0.10131200  0.40366200  0.13684100  1
  Sb  Sb3  1  0.89868800  0.90366200  0.36315900  1
  S  S4  1  0.48614700  0.63617800  0.62224700  1
  S  S5  1  0.51385300  0.13617800  0.87775300  1
  S  S6  1  0.51385300  0.36382200  0.37775300  1
  S  S7  1  0.48614700  0.86382200  0.12224700  1
  O  O8  1  0.45089900  0.66810400  0.54988200  1
  O  O9  1  0.54910100  0.16810400  0.95011800  1
  O  O10  1  0.54910100  0.33189600  0.45011800  1
  O  O11  1  0.45089900  0.83189600  0.04988200  1
  O  O12  1  0.38758200  0.50203900  0.65926300  1
  O  O13  1  0.61241800  0.00203900  0.84073700  1
  O  O14  1  0.61241800  0.49796100  0.34073700  1
  O  O15  1  0.38758200  0.99796100  0.15926300  1
  F  F16  1  0.09941000  0.49325500  0.79387900  1
  F  F17  1  0.90059000  0.99325500  0.70612100  1
  F  F18  1  0.90059000  0.50674500  0.20612100  1
  F  F19  1  0.09941000  0.00674500  0.29387900  1
  F  F20  1  0.61843300  0.62060800  0.92456300  1
  F  F21  1  0.38156700  0.12060800  0.57543700  1
  F  F22  1  0.38156700  0.37939200  0.07543700  1
  F  F23  1  0.61843300  0.87939200  0.42456300  1
  F  F24  1  0.03917100  0.44782600  0.92849600  1
  F  F25  1  0.96082900  0.94782600  0.57150400  1
  F  F26  1  0.96082900  0.55217400  0.07150400  1
  F  F27  1  0.03917100  0.05217400  0.42849600  1
  F  F28  1  0.59896800  0.29514300  0.83552600  1
  F  F29  1  0.40103200  0.79514300  0.66447400  1
  F  F30  1  0.40103200  0.70485700  0.16447400  1
  F  F31  1  0.59896800  0.20485700  0.33552600  1
  F  F32  1  0.67566300  0.65740400  0.78885300  1
  F  F33  1  0.32433700  0.15740400  0.71114700  1
  F  F34  1  0.32433700  0.34259600  0.21114700  1
  F  F35  1  0.67566300  0.84259600  0.28885300  1
  F  F36  1  0.08814100  0.78438600  0.88012700  1
  F  F37  1  0.91185900  0.28438600  0.61987300  1
  F  F38  1  0.91185900  0.21561400  0.11987300  1
  F  F39  1  0.08814100  0.71561400  0.38012700  1
  F  F40  1  0.77895300  0.65376400  0.64067400  1
  F  F41  1  0.22104700  0.15376400  0.85932600  1
  F  F42  1  0.22104700  0.34623600  0.35932600  1
  F  F43  1  0.77895300  0.84623600  0.14067400  1
