# generated using pymatgen
data_K2TiF5
_symmetry_space_group_name_H-M   'P 1'
_cell_length_a   6.15801600
_cell_length_b   7.71045400
_cell_length_c   10.89233700
_cell_angle_alpha   90.00000000
_cell_angle_beta   90.00000000
_cell_angle_gamma   90.00000000
_symmetry_Int_Tables_number   1
_chemical_formula_structural   K2TiF5
_chemical_formula_sum   'K8 Ti4 F20'
_cell_volume   517.18013252
_cell_formula_units_Z   4
loop_
 _symmetry_equiv_pos_site_id
 _symmetry_equiv_pos_as_xyz
  1  'x, y, z'
loop_
 _atom_site_type_symbol
 _atom_site_label
 _atom_site_symmetry_multiplicity
 _atom_site_fract_x
 _atom_site_fract_y
 _atom_site_fract_z
 _atom_site_occupancy
  K  K0  1  0.00938400  0.25000000  0.13315200  1
  K  K1  1  0.50938400  0.25000000  0.36684800  1
  K  K2  1  0.99061600  0.75000000  0.86684800  1
  K  K3  1  0.49061600  0.75000000  0.63315200  1
  K  K4  1  0.08929000  0.75000000  0.21115900  1
  K  K5  1  0.58929000  0.75000000  0.28884100  1
  K  K6  1  0.91071000  0.25000000  0.78884100  1
  K  K7  1  0.41071000  0.25000000  0.71115900  1
  Ti  Ti8  1  0.50000000  0.50000000  0.00000000  1
  Ti  Ti9  1  0.00000000  0.00000000  0.50000000  1
  Ti  Ti10  1  0.50000000  0.00000000  0.00000000  1
  Ti  Ti11  1  0.00000000  0.50000000  0.50000000  1
  F  F12  1  0.78678300  0.55742800  0.07051400  1
  F  F13  1  0.28678300  0.94257200  0.42948600  1
  F  F14  1  0.21321700  0.05742800  0.92948600  1
  F  F15  1  0.71321700  0.44257200  0.57051400  1
  F  F16  1  0.21321700  0.44257200  0.92948600  1
  F  F17  1  0.71321700  0.05742800  0.57051400  1
  F  F18  1  0.78678300  0.94257200  0.07051400  1
  F  F19  1  0.28678300  0.55742800  0.42948600  1
  F  F20  1  0.61941300  0.53216800  0.83255400  1
  F  F21  1  0.11941300  0.96783200  0.66744600  1
  F  F22  1  0.38058700  0.03216800  0.16744600  1
  F  F23  1  0.88058700  0.46783200  0.33255400  1
  F  F24  1  0.38058700  0.46783200  0.16744600  1
  F  F25  1  0.88058700  0.03216800  0.33255400  1
  F  F26  1  0.61941300  0.96783200  0.83255400  1
  F  F27  1  0.11941300  0.53216800  0.66744600  1
  F  F28  1  0.59262100  0.25000000  0.98616000  1
  F  F29  1  0.09262100  0.25000000  0.51384000  1
  F  F30  1  0.40737900  0.75000000  0.01384000  1
  F  F31  1  0.90737900  0.75000000  0.48616000  1
