# generated using pymatgen
data_H18Se3(NO3)4
_symmetry_space_group_name_H-M   'P 1'
_cell_length_a   7.82819700
_cell_length_b   10.51529667
_cell_length_c   10.68582074
_cell_angle_alpha   114.31348767
_cell_angle_beta   93.14829895
_cell_angle_gamma   108.20416806
_symmetry_Int_Tables_number   1
_chemical_formula_structural   H18Se3(NO3)4
_chemical_formula_sum   'H36 Se6 N8 O24'
_cell_volume   744.16341514
_cell_formula_units_Z   2
loop_
 _symmetry_equiv_pos_site_id
 _symmetry_equiv_pos_as_xyz
  1  'x, y, z'
loop_
 _atom_site_type_symbol
 _atom_site_label
 _atom_site_symmetry_multiplicity
 _atom_site_fract_x
 _atom_site_fract_y
 _atom_site_fract_z
 _atom_site_occupancy
  H  H0  1  0.99694700  0.92856200  0.32448700  1
  H  H1  1  0.00305300  0.07143800  0.67551300  1
  H  H2  1  0.73992700  0.40879900  0.46335100  1
  H  H3  1  0.26007300  0.59120100  0.53664900  1
  H  H4  1  0.70377200  0.57387100  0.02015300  1
  H  H5  1  0.29622800  0.42612900  0.97984700  1
  H  H6  1  0.82208300  0.49503100  0.07915700  1
  H  H7  1  0.17791700  0.50496900  0.92084300  1
  H  H8  1  0.60996000  0.38832000  0.97068400  1
  H  H9  1  0.39004000  0.61168000  0.02931600  1
  H  H10  1  0.79369700  0.45672000  0.90676400  1
  H  H11  1  0.20630300  0.54328000  0.09323600  1
  H  H12  1  0.63544200  0.09344300  0.78347800  1
  H  H13  1  0.36455800  0.90655700  0.21652200  1
  H  H14  1  0.48703100  0.03977900  0.88052600  1
  H  H15  1  0.51296900  0.96022100  0.11947400  1
  H  H16  1  0.61948400  0.93920200  0.80766500  1
  H  H17  1  0.38051600  0.06079800  0.19233500  1
  H  H18  1  0.71634200  0.11192800  0.94258000  1
  H  H19  1  0.28365800  0.88807200  0.05742000  1
  H  H20  1  0.06899600  0.79655300  0.80640700  1
  H  H21  1  0.93100400  0.20344700  0.19359300  1
  H  H22  1  0.96711800  0.60818100  0.74267700  1
  H  H23  1  0.03288200  0.39181900  0.25732300  1
  H  H24  1  0.03113200  0.68777000  0.63295200  1
  H  H25  1  0.96886800  0.31223000  0.36704800  1
  H  H26  1  0.85210900  0.70940700  0.71177200  1
  H  H27  1  0.14789100  0.29059300  0.28822800  1
  H  H28  1  0.61480200  0.88074400  0.44749500  1
  H  H29  1  0.38519800  0.11925600  0.55250500  1
  H  H30  1  0.64309400  0.79196100  0.54392000  1
  H  H31  1  0.35690600  0.20803900  0.45608000  1
  H  H32  1  0.58112400  0.69721900  0.36708400  1
  H  H33  1  0.41887600  0.30278100  0.63291600  1
  H  H34  1  0.79681300  0.82031600  0.44234300  1
  H  H35  1  0.20318700  0.17968400  0.55765700  1
  Se  Se36  1  0.85423800  0.26852800  0.63265100  1
  Se  Se37  1  0.14576200  0.73147200  0.36734900  1
  Se  Se38  1  0.54552600  0.36760900  0.27044100  1
  Se  Se39  1  0.45447400  0.63239100  0.72955900  1
  Se  Se40  1  0.83154200  0.86897500  0.11274500  1
  Se  Se41  1  0.16845800  0.13102500  0.88725500  1
  N  N42  1  0.73178300  0.47689000  0.99344000  1
  N  N43  1  0.26821700  0.52311000  0.00656000  1
  N  N44  1  0.61337600  0.04649600  0.85356400  1
  N  N45  1  0.38662400  0.95350400  0.14643600  1
  N  N46  1  0.97878200  0.69910600  0.72268500  1
  N  N47  1  0.02121800  0.30089400  0.27731500  1
  N  N48  1  0.65967000  0.80004400  0.45173200  1
  N  N49  1  0.34033000  0.19995600  0.54826800  1
  O  O50  1  0.66207100  0.16428400  0.65732600  1
  O  O51  1  0.33792900  0.83571600  0.34267400  1
  O  O52  1  0.94948000  0.43664000  0.77523700  1
  O  O53  1  0.05052000  0.56336000  0.22476300  1
  O  O54  1  0.99728700  0.17387000  0.60316700  1
  O  O55  1  0.00271300  0.82613000  0.39683300  1
  O  O56  1  0.80916600  0.29323800  0.49035100  1
  O  O57  1  0.19083400  0.70676200  0.50964900  1
  O  O58  1  0.48358300  0.48943800  0.23869700  1
  O  O59  1  0.51641700  0.51056200  0.76130300  1
  O  O60  1  0.65251500  0.28038300  0.15615200  1
  O  O61  1  0.34748500  0.71961700  0.84384800  1
  O  O62  1  0.70244400  0.47992200  0.43515100  1
  O  O63  1  0.29755600  0.52007800  0.56484900  1
  O  O64  1  0.37061800  0.24494900  0.29501200  1
  O  O65  1  0.62938200  0.75505100  0.70498800  1
  O  O66  1  0.65278000  0.75042600  0.13612600  1
  O  O67  1  0.34722000  0.24957400  0.86387400  1
  O  O68  1  0.76982600  0.98459100  0.06872300  1
  O  O69  1  0.23017400  0.01540900  0.93127700  1
  O  O70  1  0.95009600  0.77813700  0.01404700  1
  O  O71  1  0.04990400  0.22186300  0.98595300  1
  O  O72  1  0.97973700  0.99432500  0.27936300  1
  O  O73  1  0.02026300  0.00567500  0.72063700  1
