# generated using pymatgen
data_Ca2B5H7O13
_symmetry_space_group_name_H-M   'P 1'
_cell_length_a   7.01726500
_cell_length_b   11.75965300
_cell_length_c   12.48311007
_cell_angle_alpha   69.31075680
_cell_angle_beta   90.00000000
_cell_angle_gamma   90.00000000
_symmetry_Int_Tables_number   1
_chemical_formula_structural   Ca2B5H7O13
_chemical_formula_sum   'Ca8 B20 H28 O52'
_cell_volume   963.68210238
_cell_formula_units_Z   4
loop_
 _symmetry_equiv_pos_site_id
 _symmetry_equiv_pos_as_xyz
  1  'x, y, z'
loop_
 _atom_site_type_symbol
 _atom_site_label
 _atom_site_symmetry_multiplicity
 _atom_site_fract_x
 _atom_site_fract_y
 _atom_site_fract_z
 _atom_site_occupancy
  Ca  Ca0  1  0.75689400  0.99215200  0.58219900  1
  Ca  Ca1  1  0.25689400  0.00784800  0.91780100  1
  Ca  Ca2  1  0.24310600  0.00784800  0.41780100  1
  Ca  Ca3  1  0.74310600  0.99215200  0.08219900  1
  Ca  Ca4  1  0.24750000  0.69324700  0.37613000  1
  Ca  Ca5  1  0.74750000  0.30675300  0.12387000  1
  Ca  Ca6  1  0.75250000  0.30675300  0.62387000  1
  Ca  Ca7  1  0.25250000  0.69324700  0.87613000  1
  B  B8  1  0.75024200  0.75096000  0.35478300  1
  B  B9  1  0.25024200  0.24904000  0.14521700  1
  B  B10  1  0.24975800  0.24904000  0.64521700  1
  B  B11  1  0.74975800  0.75096000  0.85478300  1
  B  B12  1  0.72655900  0.98163400  0.33005300  1
  B  B13  1  0.22655900  0.01836600  0.16994700  1
  B  B14  1  0.27344100  0.01836600  0.66994700  1
  B  B15  1  0.77344100  0.98163400  0.83005300  1
  B  B16  1  0.53601600  0.81585200  0.48045600  1
  B  B17  1  0.03601600  0.18414800  0.01954400  1
  B  B18  1  0.46398400  0.18414800  0.51954400  1
  B  B19  1  0.96398400  0.81585200  0.98045600  1
  B  B20  1  0.28445600  0.69734500  0.62518500  1
  B  B21  1  0.78445600  0.30265500  0.87481500  1
  B  B22  1  0.71554400  0.30265500  0.37481500  1
  B  B23  1  0.21554400  0.69734500  0.12518500  1
  B  B24  1  0.62011300  0.71128100  0.68961500  1
  B  B25  1  0.12011300  0.28871900  0.81038500  1
  B  B26  1  0.37988700  0.28871900  0.31038500  1
  B  B27  1  0.87988700  0.71128100  0.18961500  1
  H  H28  1  0.22222200  0.51444800  0.64584400  1
  H  H29  1  0.72222200  0.48555200  0.85415600  1
  H  H30  1  0.77777800  0.48555200  0.35415600  1
  H  H31  1  0.27777800  0.51444800  0.14584400  1
  H  H32  1  0.99798800  0.68973000  0.69819300  1
  H  H33  1  0.49798800  0.31027000  0.80180700  1
  H  H34  1  0.00201200  0.31027000  0.30180700  1
  H  H35  1  0.50201200  0.68973000  0.19819300  1
  H  H36  1  0.91313500  0.73599500  0.49479800  1
  H  H37  1  0.41313500  0.26400500  0.00520200  1
  H  H38  1  0.08686500  0.26400500  0.50520200  1
  H  H39  1  0.58686500  0.73599500  0.99479800  1
  H  H40  1  0.88852800  0.11202100  0.36091700  1
  H  H41  1  0.38852800  0.88797900  0.13908300  1
  H  H42  1  0.11147200  0.88797900  0.63908300  1
  H  H43  1  0.61147200  0.11202100  0.86091700  1
  H  H44  1  0.52991900  0.09579700  0.22346900  1
  H  H45  1  0.02991900  0.90420300  0.27653100  1
  H  H46  1  0.47008100  0.90420300  0.77653100  1
  H  H47  1  0.97008100  0.09579700  0.72346900  1
  H  H48  1  0.26537000  0.42983200  0.45163500  1
  H  H49  1  0.76537000  0.57016800  0.04836500  1
  H  H50  1  0.73463000  0.57016800  0.54836500  1
  H  H51  1  0.23463000  0.42983200  0.95163500  1
  H  H52  1  0.47096600  0.46556400  0.40608900  1
  H  H53  1  0.97096600  0.53443600  0.09391100  1
  H  H54  1  0.52903400  0.53443600  0.59391100  1
  H  H55  1  0.02903400  0.46556400  0.90608900  1
  O  O56  1  0.75613200  0.68299200  0.77526000  1
  O  O57  1  0.25613200  0.31700800  0.72474000  1
  O  O58  1  0.24386800  0.31700800  0.22474000  1
  O  O59  1  0.74386800  0.68299200  0.27526000  1
  O  O60  1  0.91553400  0.69923200  0.43594300  1
  O  O61  1  0.41553400  0.30076800  0.06405700  1
  O  O62  1  0.08446600  0.30076800  0.56405700  1
  O  O63  1  0.58446600  0.69923200  0.93594300  1
  O  O64  1  0.57120500  0.73563000  0.41632600  1
  O  O65  1  0.07120500  0.26437000  0.08367400  1
  O  O66  1  0.42879500  0.26437000  0.58367400  1
  O  O67  1  0.92879500  0.73563000  0.91632600  1
  O  O68  1  0.78891900  0.88347500  0.28913000  1
  O  O69  1  0.28891900  0.11652500  0.21087000  1
  O  O70  1  0.21108100  0.11652500  0.71087000  1
  O  O71  1  0.71108100  0.88347500  0.78913000  1
  O  O72  1  0.89085300  0.02088800  0.38939200  1
  O  O73  1  0.39085300  0.97911200  0.11060800  1
  O  O74  1  0.10914700  0.97911200  0.61060800  1
  O  O75  1  0.60914700  0.02088800  0.88939200  1
  O  O76  1  0.67246300  0.08905700  0.22742300  1
  O  O77  1  0.17246300  0.91094300  0.27257700  1
  O  O78  1  0.32753700  0.91094300  0.77257700  1
  O  O79  1  0.82753700  0.08905700  0.72742300  1
  O  O80  1  0.56539800  0.94488600  0.41040900  1
  O  O81  1  0.06539800  0.05511400  0.08959100  1
  O  O82  1  0.43460200  0.05511400  0.58959100  1
  O  O83  1  0.93460200  0.94488600  0.91040900  1
  O  O84  1  0.67223000  0.78797300  0.58130700  1
  O  O85  1  0.17223000  0.21202700  0.91869300  1
  O  O86  1  0.32777000  0.21202700  0.41869300  1
  O  O87  1  0.82777000  0.78797300  0.08130700  1
  O  O88  1  0.33598300  0.80065500  0.52052800  1
  O  O89  1  0.83598300  0.19934500  0.97947200  1
  O  O90  1  0.66401700  0.19934500  0.47947200  1
  O  O91  1  0.16401700  0.80065500  0.02052800  1
  O  O92  1  0.11861200  0.73461800  0.67895400  1
  O  O93  1  0.61861200  0.26538200  0.82104600  1
  O  O94  1  0.88138800  0.26538200  0.32104600  1
  O  O95  1  0.38138800  0.73461800  0.17895400  1
  O  O96  1  0.25692800  0.59265000  0.58793600  1
  O  O97  1  0.75692800  0.40735000  0.91206400  1
  O  O98  1  0.74307200  0.40735000  0.41206400  1
  O  O99  1  0.24307200  0.59265000  0.08793600  1
  O  O100  1  0.43694800  0.67063000  0.71440500  1
  O  O101  1  0.93694800  0.32937000  0.78559500  1
  O  O102  1  0.56305200  0.32937000  0.28559500  1
  O  O103  1  0.06305200  0.67063000  0.21440500  1
  O  O104  1  0.33725900  0.49196700  0.39101200  1
  O  O105  1  0.83725900  0.50803300  0.10898800  1
  O  O106  1  0.66274100  0.50803300  0.60898800  1
  O  O107  1  0.16274100  0.49196700  0.89101200  1
