# generated using pymatgen
data_Na2PH6(SeO)3
_symmetry_space_group_name_H-M   'P 1'
_cell_length_a   7.35995786
_cell_length_b   20.97563998
_cell_length_c   26.44116194
_cell_angle_alpha   113.30081983
_cell_angle_beta   90.00000000
_cell_angle_gamma   90.00000000
_symmetry_Int_Tables_number   1
_chemical_formula_structural   Na2PH6(SeO)3
_chemical_formula_sum   'Na32 P16 H96 Se48 O48'
_cell_volume   3749.05848266
_cell_formula_units_Z   16
loop_
 _symmetry_equiv_pos_site_id
 _symmetry_equiv_pos_as_xyz
  1  'x, y, z'
loop_
 _atom_site_type_symbol
 _atom_site_label
 _atom_site_symmetry_multiplicity
 _atom_site_fract_x
 _atom_site_fract_y
 _atom_site_fract_z
 _atom_site_occupancy
  Na  Na0  1  0.93230523  0.26684862  0.97844045  1
  Na  Na1  1  0.43230523  0.23315138  0.02155955  1
  Na  Na2  1  0.06769477  0.73315138  0.02155955  1
  Na  Na3  1  0.56769477  0.76684862  0.97844045  1
  Na  Na4  1  0.71630544  0.63585031  0.13001046  1
  Na  Na5  1  0.21630544  0.86414969  0.86998954  1
  Na  Na6  1  0.28369456  0.36414969  0.86998954  1
  Na  Na7  1  0.78369456  0.13585031  0.13001046  1
  Na  Na8  1  0.21679216  0.63700695  0.13190134  1
  Na  Na9  1  0.71679216  0.86299305  0.86809866  1
  Na  Na10  1  0.78320784  0.36299305  0.86809866  1
  Na  Na11  1  0.28320784  0.13700695  0.13190134  1
  Na  Na12  1  0.29326803  0.44918511  0.14923688  1
  Na  Na13  1  0.79326803  0.05081489  0.85076312  1
  Na  Na14  1  0.70673197  0.55081489  0.85076312  1
  Na  Na15  1  0.20673197  0.94918511  0.14923688  1
  Na  Na16  1  0.53518013  0.71100426  0.47967406  1
  Na  Na17  1  0.03518013  0.78899574  0.52032594  1
  Na  Na18  1  0.46481987  0.28899574  0.52032594  1
  Na  Na19  1  0.96481987  0.21100426  0.47967406  1
  Na  Na20  1  0.67183895  0.79897777  0.35010419  1
  Na  Na21  1  0.17183895  0.70102223  0.64989581  1
  Na  Na22  1  0.32816105  0.20102223  0.64989581  1
  Na  Na23  1  0.82816105  0.29897777  0.35010419  1
  Na  Na24  1  0.28794760  0.00612895  0.36898114  1
  Na  Na25  1  0.78794760  0.49387105  0.63101886  1
  Na  Na26  1  0.71205240  0.99387105  0.63101886  1
  Na  Na27  1  0.21205240  0.50612895  0.36898114  1
  Na  Na28  1  0.78812372  0.00462801  0.36808086  1
  Na  Na29  1  0.28812372  0.49537199  0.63191914  1
  Na  Na30  1  0.21187628  0.99537199  0.63191914  1
  Na  Na31  1  0.71187628  0.50462801  0.36808086  1
  P  P32  1  0.75797649  0.42538021  0.10402388  1
  P  P33  1  0.25797649  0.07461979  0.89597612  1
  P  P34  1  0.24202351  0.57461979  0.89597612  1
  P  P35  1  0.74202351  0.92538021  0.10402388  1
  P  P36  1  0.76446350  0.34429418  0.14283465  1
  P  P37  1  0.26446350  0.15570582  0.85716535  1
  P  P38  1  0.23553650  0.65570582  0.85716535  1
  P  P39  1  0.73553650  0.84429418  0.14283465  1
  P  P40  1  0.21592124  0.82204446  0.39607675  1
  P  P41  1  0.71592124  0.67795554  0.60392325  1
  P  P42  1  0.78407876  0.17795554  0.60392325  1
  P  P43  1  0.28407876  0.32204446  0.39607675  1
  P  P44  1  0.19416414  0.70234345  0.35720831  1
  P  P45  1  0.69416414  0.79765655  0.64279169  1
  P  P46  1  0.80583586  0.29765655  0.64279169  1
  P  P47  1  0.30583586  0.20234345  0.35720831  1
  H  H48  1  0.76690423  0.23032040  0.87732205  1
  H  H49  1  0.26690423  0.26967960  0.12267795  1
  H  H50  1  0.23309577  0.76967960  0.12267795  1
  H  H51  1  0.73309577  0.73032040  0.87732205  1
  H  H52  1  0.61361681  0.27351264  0.91698588  1
  H  H53  1  0.11361681  0.22648736  0.08301412  1
  H  H54  1  0.38638319  0.72648736  0.08301412  1
  H  H55  1  0.88638319  0.77351264  0.91698588  1
  H  H56  1  0.45843369  0.69638663  0.22806169  1
  H  H57  1  0.95843369  0.80361337  0.77193831  1
  H  H58  1  0.54156631  0.30361337  0.77193831  1
  H  H59  1  0.04156631  0.19638663  0.22806169  1
  H  H60  1  0.47347637  0.74891338  0.19939408  1
  H  H61  1  0.97347637  0.75108662  0.80060592  1
  H  H62  1  0.52652363  0.25108662  0.80060592  1
  H  H63  1  0.02652363  0.24891338  0.19939408  1
  H  H64  1  0.05705822  0.56190921  0.19391801  1
  H  H65  1  0.55705822  0.93809079  0.80608199  1
  H  H66  1  0.94294178  0.43809079  0.80608199  1
  H  H67  1  0.44294178  0.06190921  0.19391801  1
  H  H68  1  0.24044487  0.59317481  0.22398624  1
  H  H69  1  0.74044487  0.90682519  0.77601376  1
  H  H70  1  0.75955513  0.40682519  0.77601376  1
  H  H71  1  0.25955513  0.09317481  0.22398624  1
  H  H72  1  0.46911868  0.52215667  0.06273551  1
  H  H73  1  0.96911868  0.97784333  0.93726449  1
  H  H74  1  0.53088132  0.47784333  0.93726449  1
  H  H75  1  0.03088132  0.02215667  0.06273551  1
  H  H76  1  0.45076086  0.57500982  0.03430008  1
  H  H77  1  0.95076086  0.92499018  0.96569992  1
  H  H78  1  0.54923914  0.42499018  0.96569992  1
  H  H79  1  0.04923914  0.07500982  0.03430008  1
  H  H80  1  0.97949832  0.58380360  0.03307907  1
  H  H81  1  0.47949832  0.91619640  0.96692093  1
  H  H82  1  0.02050168  0.41619640  0.96692093  1
  H  H83  1  0.52050168  0.08380360  0.03307907  1
  H  H84  1  0.97500540  0.52935797  0.06015736  1
  H  H85  1  0.47500540  0.97064203  0.93984264  1
  H  H86  1  0.02499460  0.47064203  0.93984264  1
  H  H87  1  0.52499460  0.02935797  0.06015736  1
  H  H88  1  0.97308157  0.69762659  0.22644975  1
  H  H89  1  0.47308157  0.80237341  0.77355025  1
  H  H90  1  0.02691843  0.30237341  0.77355025  1
  H  H91  1  0.52691843  0.19762659  0.22644975  1
  H  H92  1  0.96987287  0.74737101  0.19474407  1
  H  H93  1  0.46987287  0.75262899  0.80525593  1
  H  H94  1  0.03012713  0.25262899  0.80525593  1
  H  H95  1  0.53012713  0.24737101  0.19474407  1
  H  H96  1  0.70329005  0.64740697  0.37706543  1
  H  H97  1  0.20329005  0.85259303  0.62293457  1
  H  H98  1  0.29670995  0.35259303  0.62293457  1
  H  H99  1  0.79670995  0.14740697  0.37706543  1
  H  H100  1  0.85355885  0.64571363  0.41760692  1
  H  H101  1  0.35355885  0.85428637  0.58239308  1
  H  H102  1  0.14644115  0.35428637  0.58239308  1
  H  H103  1  0.64644115  0.14571363  0.41760692  1
  H  H104  1  0.91652433  0.86443428  0.30446150  1
  H  H105  1  0.41652433  0.63556572  0.69553850  1
  H  H106  1  0.08347567  0.13556572  0.69553850  1
  H  H107  1  0.58347567  0.36443428  0.30446150  1
  H  H108  1  0.73156118  0.87003802  0.27674664  1
  H  H109  1  0.23156118  0.62996198  0.72325336  1
  H  H110  1  0.26843882  0.12996198  0.72325336  1
  H  H111  1  0.76843882  0.37003802  0.27674664  1
  H  H112  1  0.02342643  0.96356790  0.27105280  1
  H  H113  1  0.52342643  0.53643210  0.72894720  1
  H  H114  1  0.97657357  0.03643210  0.72894720  1
  H  H115  1  0.47657357  0.46356790  0.27105280  1
  H  H116  1  0.04059897  0.04498669  0.29924239  1
  H  H117  1  0.54059897  0.45501331  0.70075761  1
  H  H118  1  0.95940103  0.95501331  0.70075761  1
  H  H119  1  0.45940103  0.54498669  0.29924239  1
  H  H120  1  0.02611611  0.05191080  0.46662580  1
  H  H121  1  0.52611611  0.44808920  0.53337420  1
  H  H122  1  0.97388389  0.94808920  0.53337420  1
  H  H123  1  0.47388389  0.55191080  0.46662580  1
  H  H124  1  0.02637662  0.97062651  0.43957153  1
  H  H125  1  0.52637662  0.52937349  0.56042847  1
  H  H126  1  0.97362338  0.02937349  0.56042847  1
  H  H127  1  0.47362338  0.47062651  0.43957153  1
  H  H128  1  0.54196933  0.05810862  0.30584760  1
  H  H129  1  0.04196933  0.44189138  0.69415240  1
  H  H130  1  0.45803067  0.94189138  0.69415240  1
  H  H131  1  0.95803067  0.55810862  0.30584760  1
  H  H132  1  0.54199147  0.97706588  0.27353957  1
  H  H133  1  0.04199147  0.52293412  0.72646043  1
  H  H134  1  0.45800853  0.02293412  0.72646043  1
  H  H135  1  0.95800853  0.47706588  0.27353957  1
  H  H136  1  0.52877054  0.95793002  0.43666645  1
  H  H137  1  0.02877054  0.54206998  0.56333355  1
  H  H138  1  0.47122946  0.04206998  0.56333355  1
  H  H139  1  0.97122946  0.45793002  0.43666645  1
  H  H140  1  0.55114133  0.03890283  0.46518619  1
  H  H141  1  0.05114133  0.46109717  0.53481381  1
  H  H142  1  0.44885867  0.96109717  0.53481381  1
  H  H143  1  0.94885867  0.53890283  0.46518619  1
  Se  Se144  1  0.01945678  0.41395496  0.05979891  1
  Se  Se145  1  0.51945678  0.08604504  0.94020109  1
  Se  Se146  1  0.98054322  0.58604504  0.94020109  1
  Se  Se147  1  0.48054322  0.91395496  0.05979891  1
  Se  Se148  1  0.72216972  0.52306689  0.17507338  1
  Se  Se149  1  0.22216972  0.97693311  0.82492662  1
  Se  Se150  1  0.27783028  0.47693311  0.82492662  1
  Se  Se151  1  0.77783028  0.02306689  0.17507338  1
  Se  Se152  1  0.52245331  0.39555385  0.04688782  1
  Se  Se153  1  0.02245331  0.10444615  0.95311218  1
  Se  Se154  1  0.47754669  0.60444615  0.95311218  1
  Se  Se155  1  0.97754669  0.89555385  0.04688782  1
  Se  Se156  1  -0.00099180  0.36687106  0.19928928  1
  Se  Se157  1  0.49900820  0.13312894  0.80071072  1
  Se  Se158  1  0.00099180  0.63312894  0.80071072  1
  Se  Se159  1  0.50099180  0.86687106  0.19928928  1
  Se  Se160  1  0.50113935  0.35435123  0.18622809  1
  Se  Se161  1  0.00113935  0.14564877  0.81377191  1
  Se  Se162  1  0.49886065  0.64564877  0.81377191  1
  Se  Se163  1  0.99886065  0.85435123  0.18622809  1
  Se  Se164  1  0.79384308  0.24085569  0.07416245  1
  Se  Se165  1  0.29384308  0.25914431  0.92583755  1
  Se  Se166  1  0.20615692  0.75914431  0.92583755  1
  Se  Se167  1  0.70615692  0.74085569  0.07416245  1
  Se  Se168  1  0.25765405  0.84794827  0.32482693  1
  Se  Se169  1  0.75765405  0.65205173  0.67517307  1
  Se  Se170  1  0.74234595  0.15205173  0.67517307  1
  Se  Se171  1  0.24234595  0.34794827  0.32482693  1
  Se  Se172  1  0.45284255  0.84634618  0.45268468  1
  Se  Se173  1  0.95284255  0.65365382  0.54731532  1
  Se  Se174  1  0.54715745  0.15365382  0.54731532  1
  Se  Se175  1  0.04715745  0.34634618  0.45268468  1
  Se  Se176  1  0.95647646  0.85767413  0.44060792  1
  Se  Se177  1  0.45647646  0.64232587  0.55939208  1
  Se  Se178  1  0.04352354  0.14232587  0.55939208  1
  Se  Se179  1  0.54352354  0.35767413  0.44060792  1
  Se  Se180  1  0.44326786  0.66262895  0.30685162  1
  Se  Se181  1  0.94326786  0.83737105  0.69314838  1
  Se  Se182  1  0.55673214  0.33737105  0.69314838  1
  Se  Se183  1  0.05673214  0.16262895  0.30685162  1
  Se  Se184  1  0.17627302  0.66696102  0.42587036  1
  Se  Se185  1  0.67627302  0.83303898  0.57412964  1
  Se  Se186  1  0.82372698  0.33303898  0.57412964  1
  Se  Se187  1  0.32372698  0.16696102  0.42587036  1
  Se  Se188  1  0.94341177  0.67516620  0.30780258  1
  Se  Se189  1  0.44341177  0.82483380  0.69219742  1
  Se  Se190  1  0.05658823  0.32483380  0.69219742  1
  Se  Se191  1  0.55658823  0.17516620  0.30780258  1
  O  O192  1  0.74541324  0.27422791  0.90942957  1
  O  O193  1  0.24541324  0.22577209  0.09057043  1
  O  O194  1  0.25458676  0.72577209  0.09057043  1
  O  O195  1  0.75458676  0.77422791  0.90942957  1
  O  O196  1  0.47324681  0.69882204  0.19175408  1
  O  O197  1  0.97324681  0.80117796  0.80824592  1
  O  O198  1  0.52675319  0.30117796  0.80824592  1
  O  O199  1  0.02675319  0.19882204  0.19175408  1
  O  O200  1  0.18897121  0.56346203  0.18775893  1
  O  O201  1  0.68897121  0.93653797  0.81224107  1
  O  O202  1  0.81102879  0.43653797  0.81224107  1
  O  O203  1  0.31102879  0.06346203  0.18775893  1
  O  O204  1  0.45976003  0.57216674  0.07058390  1
  O  O205  1  0.95976003  0.92783326  0.92941610  1
  O  O206  1  0.54023997  0.42783326  0.92941610  1
  O  O207  1  0.04023997  0.07216674  0.07058390  1
  O  O208  1  0.96640396  0.57964224  0.06877543  1
  O  O209  1  0.46640396  0.92035776  0.93122457  1
  O  O210  1  0.03359604  0.42035776  0.93122457  1
  O  O211  1  0.53359604  0.07964224  0.06877543  1
  O  O212  1  0.96307030  0.69789244  0.18921801  1
  O  O213  1  0.46307030  0.80210756  0.81078199  1
  O  O214  1  0.03692970  0.30210756  0.81078199  1
  O  O215  1  0.53692970  0.19789244  0.18921801  1
  O  O216  1  0.72211218  0.63667042  0.40980205  1
  O  O217  1  0.22211218  0.86332958  0.59019795  1
  O  O218  1  0.27788782  0.36332958  0.59019795  1
  O  O219  1  0.77788782  0.13667042  0.40980205  1
  O  O220  1  0.78626301  0.87474268  0.31215847  1
  O  O221  1  0.28626301  0.62525732  0.68784153  1
  O  O222  1  0.21373699  0.12525732  0.68784153  1
  O  O223  1  0.71373699  0.37474268  0.31215847  1
  O  O224  1  0.04240202  0.00254259  0.30693924  1
  O  O225  1  0.54240202  0.49745741  0.69306076  1
  O  O226  1  0.95759798  0.99745741  0.69306076  1
  O  O227  1  0.45759798  0.50254259  0.30693924  1
  O  O228  1  0.03854920  0.01209780  0.43082272  1
  O  O229  1  0.53854920  0.48790220  0.56917728  1
  O  O230  1  0.96145080  0.98790220  0.56917728  1
  O  O231  1  0.46145080  0.51209780  0.43082272  1
  O  O232  1  0.53655467  0.01398315  0.31110011  1
  O  O233  1  0.03655467  0.48601685  0.68889989  1
  O  O234  1  0.46344533  0.98601685  0.68889989  1
  O  O235  1  0.96344533  0.51398315  0.31110011  1
  O  O236  1  0.54107347  0.00006783  0.42893141  1
  O  O237  1  0.04107347  0.49993217  0.57106859  1
  O  O238  1  0.45892653  -0.00006783  0.57106859  1
  O  O239  1  0.95892653  0.50006783  0.42893141  1
