# generated using pymatgen
data_H9C2N5(ClO4)2
_symmetry_space_group_name_H-M   'P 1'
_cell_length_a   7.57451600
_cell_length_b   7.80469628
_cell_length_c   9.99654182
_cell_angle_alpha   82.02109046
_cell_angle_beta   83.43241961
_cell_angle_gamma   70.57699739
_symmetry_Int_Tables_number   1
_chemical_formula_structural   H9C2N5(ClO4)2
_chemical_formula_sum   'H18 C4 N10 Cl4 O16'
_cell_volume   550.46176247
_cell_formula_units_Z   2
loop_
 _symmetry_equiv_pos_site_id
 _symmetry_equiv_pos_as_xyz
  1  'x, y, z'
loop_
 _atom_site_type_symbol
 _atom_site_label
 _atom_site_symmetry_multiplicity
 _atom_site_fract_x
 _atom_site_fract_y
 _atom_site_fract_z
 _atom_site_occupancy
  H  H0  1  0.76279200  0.13717400  0.61564200  1
  H  H1  1  0.23720800  0.86282600  0.38435800  1
  H  H2  1  0.89032100  0.22612700  0.48361000  1
  H  H3  1  0.10967900  0.77387300  0.51639000  1
  H  H4  1  0.78533500  0.55037700  0.42934100  1
  H  H5  1  0.21466500  0.44962300  0.57065900  1
  H  H6  1  0.66089400  0.68883100  0.55631900  1
  H  H7  1  0.33910600  0.31116900  0.44368100  1
  H  H8  1  0.50235700  0.56903100  0.72675000  1
  H  H9  1  0.49764300  0.43096900  0.27325000  1
  H  H10  1  0.32687000  0.41838500  0.88704000  1
  H  H11  1  0.67313000  0.58161500  0.11296000  1
  H  H12  1  0.46165400  0.25979400  0.00851100  1
  H  H13  1  0.53834600  0.74020600  0.99148900  1
  H  H14  1  0.76964200  0.10327500  0.95146800  1
  H  H15  1  0.23035800  0.89672500  0.04853200  1
  H  H16  1  0.89197600  0.17999700  0.81001100  1
  H  H17  1  0.10802400  0.82000300  0.18998900  1
  C  C18  1  0.70832700  0.41328300  0.60213800  1
  C  C19  1  0.29167300  0.58671700  0.39786200  1
  C  C20  1  0.60768200  0.31859600  0.83602900  1
  C  C21  1  0.39231800  0.68140400  0.16397100  1
  N  N22  1  0.79640700  0.24740100  0.56705900  1
  N  N23  1  0.20359300  0.75259900  0.43294100  1
  N  N24  1  0.72253600  0.56212600  0.52520400  1
  N  N25  1  0.27746400  0.43787400  0.47479600  1
  N  N26  1  0.59263600  0.43862100  0.71909900  1
  N  N27  1  0.40736400  0.56137900  0.28090100  1
  N  N28  1  0.45629000  0.34550400  0.92107900  1
  N  N29  1  0.54371000  0.65449600  0.07892100  1
  N  N30  1  0.76697100  0.18782900  0.86351700  1
  N  N31  1  0.23302900  0.81217100  0.13648300  1
  Cl  Cl32  1  0.96587400  0.70144400  0.79084400  1
  Cl  Cl33  1  0.03412600  0.29855600  0.20915600  1
  Cl  Cl34  1  0.34876500  0.00732300  0.73163600  1
  Cl  Cl35  1  0.65123500  0.99267700  0.26836400  1
  O  O36  1  0.80721100  0.63643500  0.83430000  1
  O  O37  1  0.19278900  0.36356500  0.16570000  1
  O  O38  1  0.00897100  0.78668200  0.89726300  1
  O  O39  1  0.99102900  0.21331800  0.10273700  1
  O  O40  1  0.13179000  0.54515100  0.75537500  1
  O  O41  1  0.86821000  0.45484900  0.24462500  1
  O  O42  1  0.92234400  0.83087500  0.66773400  1
  O  O43  1  0.07765600  0.16912500  0.33226600  1
  O  O44  1  0.15883600  0.12623100  0.70647800  1
  O  O45  1  0.84116400  0.87376900  0.29352200  1
  O  O46  1  0.48243100  0.09370100  0.66278000  1
  O  O47  1  0.51756900  0.90629900  0.33722000  1
  O  O48  1  0.38170400  0.83166300  0.67902800  1
  O  O49  1  0.61829600  0.16833700  0.32097200  1
  O  O50  1  0.37309700  0.97609800  0.87761900  1
  O  O51  1  0.62690300  0.02390200  0.12238100  1
