# generated using pymatgen
data_ThP2(HO4)2
_symmetry_space_group_name_H-M   'P 1'
_cell_length_a   8.75677800
_cell_length_b   9.57694000
_cell_length_c   19.53207500
_cell_angle_alpha   90.00000000
_cell_angle_beta   90.00000000
_cell_angle_gamma   90.00000000
_symmetry_Int_Tables_number   1
_chemical_formula_structural   ThP2(HO4)2
_chemical_formula_sum   'Th8 P16 H16 O64'
_cell_volume   1638.02109137
_cell_formula_units_Z   8
loop_
 _symmetry_equiv_pos_site_id
 _symmetry_equiv_pos_as_xyz
  1  'x, y, z'
loop_
 _atom_site_type_symbol
 _atom_site_label
 _atom_site_symmetry_multiplicity
 _atom_site_fract_x
 _atom_site_fract_y
 _atom_site_fract_z
 _atom_site_occupancy
  Th  Th0  1  0.48581400  0.86647800  0.12762600  1
  Th  Th1  1  0.98581400  0.63352200  0.87237400  1
  Th  Th2  1  0.51418600  0.36647800  0.37237400  1
  Th  Th3  1  0.01418600  0.13352200  0.62762600  1
  Th  Th4  1  0.51418600  0.13352200  0.87237400  1
  Th  Th5  1  0.01418600  0.36647800  0.12762600  1
  Th  Th6  1  0.48581400  0.63352200  0.62762600  1
  Th  Th7  1  0.98581400  0.86647800  0.37237400  1
  P  P8  1  0.76283000  0.09547500  0.03346000  1
  P  P9  1  0.26283000  0.40452500  0.96654000  1
  P  P10  1  0.23717000  0.59547500  0.46654000  1
  P  P11  1  0.73717000  0.90452500  0.53346000  1
  P  P12  1  0.23717000  0.90452500  0.96654000  1
  P  P13  1  0.73717000  0.59547500  0.03346000  1
  P  P14  1  0.76283000  0.40452500  0.53346000  1
  P  P15  1  0.26283000  0.09547500  0.46654000  1
  P  P16  1  0.08550100  0.98616000  0.18726300  1
  P  P17  1  0.58550100  0.51384000  0.81273700  1
  P  P18  1  0.91449900  0.48616000  0.31273700  1
  P  P19  1  0.41449900  0.01384000  0.68726300  1
  P  P20  1  0.91449900  0.01384000  0.81273700  1
  P  P21  1  0.41449900  0.48616000  0.18726300  1
  P  P22  1  0.08550100  0.51384000  0.68726300  1
  P  P23  1  0.58550100  0.98616000  0.31273700  1
  H  H24  1  0.86450700  0.99296100  0.00828100  1
  H  H25  1  0.36450700  0.50703900  0.99171900  1
  H  H26  1  0.13549300  0.49296100  0.49171900  1
  H  H27  1  0.63549300  0.00703900  0.50828100  1
  H  H28  1  0.13549300  0.00703900  0.99171900  1
  H  H29  1  0.63549300  0.49296100  0.00828100  1
  H  H30  1  0.86450700  0.50703900  0.50828100  1
  H  H31  1  0.36450700  0.99296100  0.49171900  1
  H  H32  1  0.97915800  0.91892100  0.14427300  1
  H  H33  1  0.47915800  0.58107900  0.85572700  1
  H  H34  1  0.02084200  0.41892100  0.35572700  1
  H  H35  1  0.52084200  0.08107900  0.64427300  1
  H  H36  1  0.02084200  0.08107900  0.85572700  1
  H  H37  1  0.52084200  0.41892100  0.14427300  1
  H  H38  1  0.97915800  0.58107900  0.64427300  1
  H  H39  1  0.47915800  0.91892100  0.35572700  1
  O  O40  1  0.44308800  0.12247100  0.10044800  1
  O  O41  1  0.94308800  0.37752900  0.89955200  1
  O  O42  1  0.55691200  0.62247100  0.39955200  1
  O  O43  1  0.05691200  0.87752900  0.60044800  1
  O  O44  1  0.55691200  0.87752900  0.89955200  1
  O  O45  1  0.05691200  0.62247100  0.10044800  1
  O  O46  1  0.44308800  0.37752900  0.60044800  1
  O  O47  1  0.94308800  0.12247100  0.39955200  1
  O  O48  1  0.68796000  0.74033200  0.19152600  1
  O  O49  1  0.18796000  0.75966800  0.80847400  1
  O  O50  1  0.31204000  0.24033200  0.30847400  1
  O  O51  1  0.81204000  0.25966800  0.69152600  1
  O  O52  1  0.31204000  0.25966800  0.80847400  1
  O  O53  1  0.81204000  0.24033200  0.19152600  1
  O  O54  1  0.68796000  0.75966800  0.69152600  1
  O  O55  1  0.18796000  0.74033200  0.30847400  1
  O  O56  1  0.35305400  0.87317500  0.02341100  1
  O  O57  1  0.85305400  0.62682500  0.97658900  1
  O  O58  1  0.64694600  0.37317500  0.47658900  1
  O  O59  1  0.14694600  0.12682500  0.52341100  1
  O  O60  1  0.64694600  0.12682500  0.97658900  1
  O  O61  1  0.14694600  0.37317500  0.02341100  1
  O  O62  1  0.35305400  0.62682500  0.52341100  1
  O  O63  1  0.85305400  0.87317500  0.47658900  1
  O  O64  1  0.68493200  0.02158200  0.09523300  1
  O  O65  1  0.18493200  0.47841800  0.90476700  1
  O  O66  1  0.31506800  0.52158200  0.40476700  1
  O  O67  1  0.81506800  0.97841800  0.59523300  1
  O  O68  1  0.31506800  0.97841800  0.90476700  1
  O  O69  1  0.81506800  0.52158200  0.09523300  1
  O  O70  1  0.68493200  0.47841800  0.59523300  1
  O  O71  1  0.18493200  0.02158200  0.40476700  1
  O  O72  1  0.85571500  0.22257900  0.05483800  1
  O  O73  1  0.35571500  0.27742100  0.94516200  1
  O  O74  1  0.14428500  0.72257900  0.44516200  1
  O  O75  1  0.64428500  0.77742100  0.55483800  1
  O  O76  1  0.14428500  0.77742100  0.94516200  1
  O  O77  1  0.64428500  0.72257900  0.05483800  1
  O  O78  1  0.85571500  0.27742100  0.55483800  1
  O  O79  1  0.35571500  0.22257900  0.44516200  1
  O  O80  1  0.43060000  0.64456200  0.17162300  1
  O  O81  1  0.93060000  0.85543800  0.82837700  1
  O  O82  1  0.56940000  0.14456200  0.32837700  1
  O  O83  1  0.06940000  0.35543800  0.67162300  1
  O  O84  1  0.56940000  0.35543800  0.82837700  1
  O  O85  1  0.06940000  0.14456200  0.17162300  1
  O  O86  1  0.43060000  0.85543800  0.67162300  1
  O  O87  1  0.93060000  0.64456200  0.32837700  1
  O  O88  1  0.24379200  0.93463300  0.16719800  1
  O  O89  1  0.74379200  0.56536700  0.83280200  1
  O  O90  1  0.75620800  0.43463300  0.33280200  1
  O  O91  1  0.25620800  0.06536700  0.66719800  1
  O  O92  1  0.75620800  0.06536700  0.83280200  1
  O  O93  1  0.25620800  0.43463300  0.16719800  1
  O  O94  1  0.24379200  0.56536700  0.66719800  1
  O  O95  1  0.74379200  0.93463300  0.33280200  1
  O  O96  1  0.04403900  0.95266500  0.26183100  1
  O  O97  1  0.54403900  0.54733500  0.73816900  1
  O  O98  1  0.95596100  0.45266500  0.23816900  1
  O  O99  1  0.45596100  0.04733500  0.76183100  1
  O  O100  1  0.95596100  0.04733500  0.73816900  1
  O  O101  1  0.45596100  0.45266500  0.26183100  1
  O  O102  1  0.04403900  0.54733500  0.76183100  1
  O  O103  1  0.54403900  0.95266500  0.23816900  1
