# generated using pymatgen
data_ReBi9O17
_symmetry_space_group_name_H-M   'P 1'
_cell_length_a   20.12747600
_cell_length_b   10.09193400
_cell_length_c   11.82370787
_cell_angle_alpha   54.89318908
_cell_angle_beta   90.00000000
_cell_angle_gamma   90.00000000
_symmetry_Int_Tables_number   1
_chemical_formula_structural   ReBi9O17
_chemical_formula_sum   'Re4 Bi36 O68'
_cell_volume   1964.77990100
_cell_formula_units_Z   4
loop_
 _symmetry_equiv_pos_site_id
 _symmetry_equiv_pos_as_xyz
  1  'x, y, z'
loop_
 _atom_site_type_symbol
 _atom_site_label
 _atom_site_symmetry_multiplicity
 _atom_site_fract_x
 _atom_site_fract_y
 _atom_site_fract_z
 _atom_site_occupancy
  Re  Re0  1  0.93968200  0.36466000  0.68042500  1
  Re  Re1  1  0.43968200  0.63534000  0.81957500  1
  Re  Re2  1  0.06031800  0.63534000  0.31957500  1
  Re  Re3  1  0.56031800  0.36466000  0.18042500  1
  Bi  Bi4  1  0.75216700  0.91652600  0.90427600  1
  Bi  Bi5  1  0.25216700  0.08347400  0.59572400  1
  Bi  Bi6  1  0.24783300  0.08347400  0.09572400  1
  Bi  Bi7  1  0.74783300  0.91652600  0.40427600  1
  Bi  Bi8  1  0.77406600  0.39238100  0.18552600  1
  Bi  Bi9  1  0.27406600  0.60761900  0.31447400  1
  Bi  Bi10  1  0.22593400  0.60761900  0.81447400  1
  Bi  Bi11  1  0.72593400  0.39238100  0.68552600  1
  Bi  Bi12  1  0.55309800  0.89979800  0.93552700  1
  Bi  Bi13  1  0.05309800  0.10020200  0.56447300  1
  Bi  Bi14  1  0.44690200  0.10020200  0.06447300  1
  Bi  Bi15  1  0.94690200  0.89979800  0.43552700  1
  Bi  Bi16  1  0.94642200  0.86164100  0.93946500  1
  Bi  Bi17  1  0.44642200  0.13835900  0.56053500  1
  Bi  Bi18  1  0.05357800  0.13835900  0.06053500  1
  Bi  Bi19  1  0.55357800  0.86164100  0.43946500  1
  Bi  Bi20  1  0.95049900  0.37965700  0.17376100  1
  Bi  Bi21  1  0.45049900  0.62034300  0.32623900  1
  Bi  Bi22  1  0.04950100  0.62034300  0.82623900  1
  Bi  Bi23  1  0.54950100  0.37965700  0.67376100  1
  Bi  Bi24  1  0.14706000  0.91682700  0.89117300  1
  Bi  Bi25  1  0.64706000  0.08317300  0.60882700  1
  Bi  Bi26  1  0.85294000  0.08317300  0.10882700  1
  Bi  Bi27  1  0.35294000  0.91682700  0.39117300  1
  Bi  Bi28  1  0.34451600  0.89382500  0.94547700  1
  Bi  Bi29  1  0.84451600  0.10617500  0.55452300  1
  Bi  Bi30  1  0.65548400  0.10617500  0.05452300  1
  Bi  Bi31  1  0.15548400  0.89382500  0.44547700  1
  Bi  Bi32  1  0.34235500  0.33788200  0.69479000  1
  Bi  Bi33  1  0.84235500  0.66211800  0.80521000  1
  Bi  Bi34  1  0.65764500  0.66211800  0.30521000  1
  Bi  Bi35  1  0.15764500  0.33788200  0.19479000  1
  Bi  Bi36  1  0.16634000  0.37282500  0.69216800  1
  Bi  Bi37  1  0.66634000  0.62717500  0.80783200  1
  Bi  Bi38  1  0.83366000  0.62717500  0.30783200  1
  Bi  Bi39  1  0.33366000  0.37282500  0.19216800  1
  O  O40  1  0.60430500  0.54278900  0.12636400  1
  O  O41  1  0.10430500  0.45721100  0.37363600  1
  O  O42  1  0.39569500  0.45721100  0.87363600  1
  O  O43  1  0.89569500  0.54278900  0.62636400  1
  O  O44  1  0.95363100  0.35493300  0.53880700  1
  O  O45  1  0.45363100  0.64506700  0.96119300  1
  O  O46  1  0.04636900  0.64506700  0.46119300  1
  O  O47  1  0.54636900  0.35493300  0.03880700  1
  O  O48  1  0.98524400  0.64306100  0.24059600  1
  O  O49  1  0.48524400  0.35693900  0.25940400  1
  O  O50  1  0.01475600  0.35693900  0.75940400  1
  O  O51  1  0.51475600  0.64306100  0.74059600  1
  O  O52  1  0.39070700  0.80251600  0.69719000  1
  O  O53  1  0.89070700  0.19748400  0.80281000  1
  O  O54  1  0.60929300  0.19748400  0.30281000  1
  O  O55  1  0.10929300  0.80251600  0.19719000  1
  O  O56  1  0.74258000  0.55202000  0.25909600  1
  O  O57  1  0.24258000  0.44798000  0.24090400  1
  O  O58  1  0.25742000  0.44798000  0.74090400  1
  O  O59  1  0.75742000  0.55202000  0.75909600  1
  O  O60  1  0.74931000  0.09193800  0.67077800  1
  O  O61  1  0.24931000  0.90806200  0.82922200  1
  O  O62  1  0.25069000  0.90806200  0.32922200  1
  O  O63  1  0.75069000  0.09193800  0.17077800  1
  O  O64  1  0.86381400  0.47684400  0.22558900  1
  O  O65  1  0.36381400  0.52315600  0.27441100  1
  O  O66  1  0.13618600  0.52315600  0.77441100  1
  O  O67  1  0.63618600  0.47684400  0.72558900  1
  O  O68  1  0.63413600  0.32661100  0.59722400  1
  O  O69  1  0.13413600  0.67338900  0.90277600  1
  O  O70  1  0.36586400  0.67338900  0.40277600  1
  O  O71  1  0.86586400  0.32661100  0.09722400  1
  O  O72  1  0.74338600  0.68585500  0.40135500  1
  O  O73  1  0.24338600  0.31414500  0.09864500  1
  O  O74  1  0.25661400  0.31414500  0.59864500  1
  O  O75  1  0.75661400  0.68585500  0.90135500  1
  O  O76  1  0.77200600  0.16780700  0.39018800  1
  O  O77  1  0.27200600  0.83219300  0.10981200  1
  O  O78  1  0.22799400  0.83219300  0.60981200  1
  O  O79  1  0.72799400  0.16780700  0.89018800  1
  O  O80  1  0.93889500  0.11524500  0.42680100  1
  O  O81  1  0.43889500  0.88475500  0.07319900  1
  O  O82  1  0.06110500  0.88475500  0.57319900  1
  O  O83  1  0.56110500  0.11524500  0.92680100  1
  O  O84  1  0.53407500  0.63123600  0.47953800  1
  O  O85  1  0.03407500  0.36876400  0.02046200  1
  O  O86  1  0.46592500  0.36876400  0.52046200  1
  O  O87  1  0.96592500  0.63123600  0.97953800  1
  O  O88  1  0.85280300  0.91480500  0.33310300  1
  O  O89  1  0.35280300  0.08519500  0.16689700  1
  O  O90  1  0.14719700  0.08519500  0.66689700  1
  O  O91  1  0.64719700  0.91480500  0.83310300  1
  O  O92  1  0.65758500  0.85044300  0.61220600  1
  O  O93  1  0.15758500  0.14955700  0.88779400  1
  O  O94  1  0.34241500  0.14955700  0.38779400  1
  O  O95  1  0.84241500  0.85044300  0.11220600  1
  O  O96  1  0.63275700  0.89315900  0.30821600  1
  O  O97  1  0.13275700  0.10684100  0.19178400  1
  O  O98  1  0.36724300  0.10684100  0.69178400  1
  O  O99  1  0.86724300  0.89315900  0.80821600  1
  O  O100  1  0.83510600  0.87036200  0.59056500  1
  O  O101  1  0.33510600  0.12963800  0.90943500  1
  O  O102  1  0.16489400  0.12963800  0.40943500  1
  O  O103  1  0.66489400  0.87036200  0.09056500  1
  O  O104  1  0.47481200  0.96192500  0.28347400  1
  O  O105  1  0.97481200  0.03807500  0.21652600  1
  O  O106  1  0.52518800  0.03807500  0.71652600  1
  O  O107  1  0.02518800  0.96192500  0.78347400  1
