# generated using pymatgen
data_KDyP2H4O9
_symmetry_space_group_name_H-M   'P 1'
_cell_length_a   7.79710486
_cell_length_b   10.36755437
_cell_length_c   10.73353800
_cell_angle_alpha   90.00000000
_cell_angle_beta   90.00000000
_cell_angle_gamma   94.83930732
_symmetry_Int_Tables_number   1
_chemical_formula_structural   KDyP2H4O9
_chemical_formula_sum   'K4 Dy4 P8 H16 O36'
_cell_volume   864.57298962
_cell_formula_units_Z   4
loop_
 _symmetry_equiv_pos_site_id
 _symmetry_equiv_pos_as_xyz
  1  'x, y, z'
loop_
 _atom_site_type_symbol
 _atom_site_label
 _atom_site_symmetry_multiplicity
 _atom_site_fract_x
 _atom_site_fract_y
 _atom_site_fract_z
 _atom_site_occupancy
  K  K0  1  0.74488800  0.81655300  0.18867300  1
  K  K1  1  0.25511200  0.18344700  0.81132700  1
  K  K2  1  0.25511200  0.68344700  0.68867300  1
  K  K3  1  0.74488800  0.31655300  0.31132700  1
  Dy  Dy4  1  0.75001100  0.66437200  0.62460900  1
  Dy  Dy5  1  0.24998900  0.33562800  0.37539100  1
  Dy  Dy6  1  0.24998900  0.83562800  0.12460900  1
  Dy  Dy7  1  0.75001100  0.16437200  0.87539100  1
  P  P8  1  0.95929900  0.87355400  0.85476500  1
  P  P9  1  0.04070100  0.12644600  0.14523500  1
  P  P10  1  0.04070100  0.62644600  0.35476500  1
  P  P11  1  0.95929900  0.37355400  0.64523500  1
  P  P12  1  0.59109200  0.83474700  0.88553000  1
  P  P13  1  0.40890800  0.16525300  0.11447000  1
  P  P14  1  0.40890800  0.66525300  0.38553000  1
  P  P15  1  0.59109200  0.33474700  0.61447000  1
  H  H16  1  0.82573600  0.95379300  0.62442000  1
  H  H17  1  0.17426400  0.04620700  0.37558000  1
  H  H18  1  0.17426400  0.54620700  0.12442000  1
  H  H19  1  0.82573600  0.45379300  0.87558000  1
  H  H20  1  0.44254300  0.96518100  0.70518900  1
  H  H21  1  0.55745700  0.03481900  0.29481100  1
  H  H22  1  0.55745700  0.53481900  0.20518900  1
  H  H23  1  0.44254300  0.46518100  0.79481100  1
  H  H24  1  0.26458400  0.98518300  0.63831200  1
  H  H25  1  0.73541600  0.01481700  0.36168800  1
  H  H26  1  0.73541600  0.51481700  0.13831200  1
  H  H27  1  0.26458400  0.48518300  0.86168800  1
  H  H28  1  0.66233100  0.92795300  0.53837100  1
  H  H29  1  0.33766900  0.07204700  0.46162900  1
  H  H30  1  0.33766900  0.57204700  0.03837100  1
  H  H31  1  0.66233100  0.42795300  0.96162900  1
  O  O32  1  0.57636600  0.73379100  0.78129900  1
  O  O33  1  0.42363400  0.26620900  0.21870100  1
  O  O34  1  0.42363400  0.76620900  0.28129900  1
  O  O35  1  0.57636600  0.23379100  0.71870100  1
  O  O36  1  0.95448900  0.77595400  0.74752800  1
  O  O37  1  0.04551100  0.22404600  0.25247200  1
  O  O38  1  0.04551100  0.72404600  0.24752800  1
  O  O39  1  0.95448900  0.27595400  0.75247200  1
  O  O40  1  0.94262700  0.51181000  0.69279500  1
  O  O41  1  0.05737300  0.48819000  0.30720500  1
  O  O42  1  0.05737300  0.98819000  0.19279500  1
  O  O43  1  0.94262700  0.01181000  0.80720500  1
  O  O44  1  0.89021200  0.63853200  0.44289700  1
  O  O45  1  0.10978800  0.36146800  0.55710300  1
  O  O46  1  0.10978800  0.86146800  0.94289700  1
  O  O47  1  0.89021200  0.13853200  0.05710300  1
  O  O48  1  0.78796100  0.83436000  0.94089700  1
  O  O49  1  0.21203900  0.16564000  0.05910300  1
  O  O50  1  0.21203900  0.66564000  0.44089700  1
  O  O51  1  0.78796100  0.33436000  0.55910300  1
  O  O52  1  0.77215900  0.89494100  0.56165200  1
  O  O53  1  0.22784100  0.10505900  0.43834800  1
  O  O54  1  0.22784100  0.60505900  0.06165200  1
  O  O55  1  0.77215900  0.39494100  0.93834800  1
  O  O56  1  0.37058900  0.94265800  0.63041900  1
  O  O57  1  0.62941100  0.05734200  0.36958100  1
  O  O58  1  0.62941100  0.55734200  0.13041900  1
  O  O59  1  0.37058900  0.44265800  0.86958100  1
  O  O60  1  0.52225200  0.69930000  0.49745000  1
  O  O61  1  0.47774800  0.30070000  0.50255000  1
  O  O62  1  0.47774800  0.80070000  0.99745000  1
  O  O63  1  0.52225200  0.19930000  0.00255000  1
  O  O64  1  0.57574300  0.97348600  0.83686200  1
  O  O65  1  0.42425700  0.02651400  0.16313800  1
  O  O66  1  0.42425700  0.52651400  0.33686200  1
  O  O67  1  0.57574300  0.47348600  0.66313800  1
