# generated using pymatgen
data_U2TiS5
_symmetry_space_group_name_H-M   'P 1'
_cell_length_a   7.13711600
_cell_length_b   7.68447800
_cell_length_c   11.14844900
_cell_angle_alpha   90.00000000
_cell_angle_beta   90.00000000
_cell_angle_gamma   90.00000000
_symmetry_Int_Tables_number   1
_chemical_formula_structural   U2TiS5
_chemical_formula_sum   'U8 Ti4 S20'
_cell_volume   611.43680676
_cell_formula_units_Z   4
loop_
 _symmetry_equiv_pos_site_id
 _symmetry_equiv_pos_as_xyz
  1  'x, y, z'
loop_
 _atom_site_type_symbol
 _atom_site_label
 _atom_site_symmetry_multiplicity
 _atom_site_fract_x
 _atom_site_fract_y
 _atom_site_fract_z
 _atom_site_occupancy
  U  U0  1  0.53100700  0.49780300  0.32028100  1
  U  U1  1  0.96899300  0.00219700  0.82028100  1
  U  U2  1  0.46899300  0.99780300  0.67971900  1
  U  U3  1  0.03100700  0.50219700  0.17971900  1
  U  U4  1  0.46899300  0.50219700  0.67971900  1
  U  U5  1  0.03100700  0.99780300  0.17971900  1
  U  U6  1  0.53100700  0.00219700  0.32028100  1
  U  U7  1  0.96899300  0.49780300  0.82028100  1
  Ti  Ti8  1  0.07918100  0.75000000  0.49508600  1
  Ti  Ti9  1  0.42081900  0.75000000  0.99508600  1
  Ti  Ti10  1  0.92081900  0.25000000  0.50491400  1
  Ti  Ti11  1  0.57918100  0.25000000  0.00491400  1
  S  S12  1  0.83546700  0.96405300  0.58575000  1
  S  S13  1  0.66453300  0.53594700  0.08575000  1
  S  S14  1  0.16453300  0.46405300  0.41425000  1
  S  S15  1  0.33546700  0.03594700  0.91425000  1
  S  S16  1  0.16453300  0.03594700  0.41425000  1
  S  S17  1  0.33546700  0.46405300  0.91425000  1
  S  S18  1  0.83546700  0.53594700  0.58575000  1
  S  S19  1  0.66453300  0.96405300  0.08575000  1
  S  S20  1  0.83875800  0.75000000  0.31826700  1
  S  S21  1  0.66124200  0.75000000  0.81826700  1
  S  S22  1  0.16124200  0.25000000  0.68173300  1
  S  S23  1  0.33875800  0.25000000  0.18173300  1
  S  S24  1  0.45226100  0.75000000  0.49616200  1
  S  S25  1  0.04773900  0.75000000  0.99616200  1
  S  S26  1  0.54773900  0.25000000  0.50383800  1
  S  S27  1  0.95226100  0.25000000  0.00383800  1
  S  S28  1  0.18272100  0.75000000  0.70684200  1
  S  S29  1  0.31727900  0.75000000  0.20684200  1
  S  S30  1  0.81727900  0.25000000  0.29315800  1
  S  S31  1  0.68272100  0.25000000  0.79315800  1
