# generated using pymatgen
data_Pr23Mg4Ru7
_symmetry_space_group_name_H-M   'P 1'
_cell_length_a   10.12915651
_cell_length_b   10.12915651
_cell_length_c   22.80154100
_cell_angle_alpha   90.00000000
_cell_angle_beta   90.00000000
_cell_angle_gamma   120.00000331
_symmetry_Int_Tables_number   1
_chemical_formula_structural   Pr23Mg4Ru7
_chemical_formula_sum   'Pr46 Mg8 Ru14'
_cell_volume   2026.00904181
_cell_formula_units_Z   2
loop_
 _symmetry_equiv_pos_site_id
 _symmetry_equiv_pos_as_xyz
  1  'x, y, z'
loop_
 _atom_site_type_symbol
 _atom_site_label
 _atom_site_symmetry_multiplicity
 _atom_site_fract_x
 _atom_site_fract_y
 _atom_site_fract_z
 _atom_site_occupancy
  Pr  Pr0  1  0.12707300  0.87292700  0.36420000  1
  Pr  Pr1  1  0.74585300  0.87292700  0.36420000  1
  Pr  Pr2  1  0.12707300  0.25414700  0.36420000  1
  Pr  Pr3  1  0.87292700  0.12707300  0.86420000  1
  Pr  Pr4  1  0.25414700  0.12707300  0.86420000  1
  Pr  Pr5  1  0.87292700  0.74585300  0.86420000  1
  Pr  Pr6  1  0.20788700  0.79211300  0.21809900  1
  Pr  Pr7  1  0.58422500  0.79211300  0.21809900  1
  Pr  Pr8  1  0.20788700  0.41577500  0.21809900  1
  Pr  Pr9  1  0.79211300  0.20788700  0.71809900  1
  Pr  Pr10  1  0.41577500  0.20788700  0.71809900  1
  Pr  Pr11  1  0.79211300  0.58422500  0.71809900  1
  Pr  Pr12  1  0.20778700  0.79221300  0.05065600  1
  Pr  Pr13  1  0.58442700  0.79221300  0.05065600  1
  Pr  Pr14  1  0.20778700  0.41557300  0.05065600  1
  Pr  Pr15  1  0.79221300  0.20778700  0.55065600  1
  Pr  Pr16  1  0.41557300  0.20778700  0.55065600  1
  Pr  Pr17  1  0.79221300  0.58442700  0.55065600  1
  Pr  Pr18  1  0.20864600  0.79135400  0.50729100  1
  Pr  Pr19  1  0.58270900  0.79135400  0.50729100  1
  Pr  Pr20  1  0.20864600  0.41729100  0.50729100  1
  Pr  Pr21  1  0.79135400  0.20864600  0.00729100  1
  Pr  Pr22  1  0.41729100  0.20864600  0.00729100  1
  Pr  Pr23  1  0.79135400  0.58270900  0.00729100  1
  Pr  Pr24  1  0.54134900  0.45865100  0.41436700  1
  Pr  Pr25  1  0.91730200  0.45865100  0.41436700  1
  Pr  Pr26  1  0.54134900  0.08269800  0.41436700  1
  Pr  Pr27  1  0.45865100  0.54134900  0.91436700  1
  Pr  Pr28  1  0.08269800  0.54134900  0.91436700  1
  Pr  Pr29  1  0.45865100  0.91730200  0.91436700  1
  Pr  Pr30  1  0.54056200  0.45943800  0.14347800  1
  Pr  Pr31  1  0.91887500  0.45943800  0.14347800  1
  Pr  Pr32  1  0.54056200  0.08112500  0.14347800  1
  Pr  Pr33  1  0.45943800  0.54056200  0.64347800  1
  Pr  Pr34  1  0.08112500  0.54056200  0.64347800  1
  Pr  Pr35  1  0.45943800  0.91887500  0.64347800  1
  Pr  Pr36  1  0.33333300  0.66666700  0.35409600  1
  Pr  Pr37  1  0.66666700  0.33333300  0.85409600  1
  Pr  Pr38  1  0.00000000  0.00000000  0.49681700  1
  Pr  Pr39  1  0.00000000  0.00000000  0.99681700  1
  Pr  Pr40  1  0.79146800  0.20853200  0.28058700  1
  Pr  Pr41  1  0.41706500  0.20853200  0.28058700  1
  Pr  Pr42  1  0.79146800  0.58293500  0.28058700  1
  Pr  Pr43  1  0.20853200  0.79146800  0.78058700  1
  Pr  Pr44  1  0.58293500  0.79146800  0.78058700  1
  Pr  Pr45  1  0.20853200  0.41706500  0.78058700  1
  Mg  Mg46  1  0.89517400  0.10482600  0.13607400  1
  Mg  Mg47  1  0.20965200  0.10482600  0.13607400  1
  Mg  Mg48  1  0.89517400  0.79034800  0.13607400  1
  Mg  Mg49  1  0.10482600  0.89517400  0.63607400  1
  Mg  Mg50  1  0.79034800  0.89517400  0.63607400  1
  Mg  Mg51  1  0.10482600  0.20965200  0.63607400  1
  Mg  Mg52  1  0.00000000  0.00000000  0.24795100  1
  Mg  Mg53  1  0.00000000  0.00000000  0.74795100  1
  Ru  Ru54  1  0.48261300  0.51738700  0.28970400  1
  Ru  Ru55  1  0.03477400  0.51738700  0.28970400  1
  Ru  Ru56  1  0.48261300  0.96522600  0.28970400  1
  Ru  Ru57  1  0.51738700  0.48261300  0.78970400  1
  Ru  Ru58  1  0.96522600  0.48261300  0.78970400  1
  Ru  Ru59  1  0.51738700  0.03477400  0.78970400  1
  Ru  Ru60  1  0.85298100  0.14701900  0.43759400  1
  Ru  Ru61  1  0.29403700  0.14701900  0.43759400  1
  Ru  Ru62  1  0.85298100  0.70596300  0.43759400  1
  Ru  Ru63  1  0.14701900  0.85298100  0.93759400  1
  Ru  Ru64  1  0.70596300  0.85298100  0.93759400  1
  Ru  Ru65  1  0.14701900  0.29403700  0.93759400  1
  Ru  Ru66  1  0.33333300  0.66666700  0.13129500  1
  Ru  Ru67  1  0.66666700  0.33333300  0.63129500  1
