# generated using pymatgen
data_Rb21Tl7(Br21O4)2
_symmetry_space_group_name_H-M   'P 1'
_cell_length_a   15.89538133
_cell_length_b   15.89538133
_cell_length_c   15.89538133
_cell_angle_alpha   114.78228620
_cell_angle_beta   114.78228620
_cell_angle_gamma   99.30309795
_symmetry_Int_Tables_number   1
_chemical_formula_structural   Rb21Tl7(Br21O4)2
_chemical_formula_sum   'Rb21 Tl7 Br42 O8'
_cell_volume   3020.55439638
_cell_formula_units_Z   1
loop_
 _symmetry_equiv_pos_site_id
 _symmetry_equiv_pos_as_xyz
  1  'x, y, z'
loop_
 _atom_site_type_symbol
 _atom_site_label
 _atom_site_symmetry_multiplicity
 _atom_site_fract_x
 _atom_site_fract_y
 _atom_site_fract_z
 _atom_site_occupancy
  Rb  Rb0  1  0.50000000  0.50000000  0.00000000  1
  Rb  Rb1  1  0.20579600  0.20579600  0.41159200  1
  Rb  Rb2  1  0.79420400  0.79420400  0.58840800  1
  Rb  Rb3  1  0.20579600  0.79420400  0.00000000  1
  Rb  Rb4  1  0.79420400  0.20579600  0.00000000  1
  Rb  Rb5  1  0.86669500  0.15518700  0.28849200  1
  Rb  Rb6  1  0.86669500  0.57820300  0.71150800  1
  Rb  Rb7  1  0.15518700  0.86669500  0.28849200  1
  Rb  Rb8  1  0.57820300  0.86669500  0.71150800  1
  Rb  Rb9  1  0.13330500  0.84481300  0.71150800  1
  Rb  Rb10  1  0.13330500  0.42179700  0.28849200  1
  Rb  Rb11  1  0.84481300  0.13330500  0.71150800  1
  Rb  Rb12  1  0.42179700  0.13330500  0.28849200  1
  Rb  Rb13  1  0.63187700  0.92267800  0.29080100  1
  Rb  Rb14  1  0.63187700  0.34107600  0.70919900  1
  Rb  Rb15  1  0.92267800  0.63187700  0.29080100  1
  Rb  Rb16  1  0.34107600  0.63187700  0.70919900  1
  Rb  Rb17  1  0.36812300  0.07732200  0.70919900  1
  Rb  Rb18  1  0.36812300  0.65892400  0.29080100  1
  Rb  Rb19  1  0.07732200  0.36812300  0.70919900  1
  Rb  Rb20  1  0.65892400  0.36812300  0.29080100  1
  Tl  Tl21  1  0.00000000  0.00000000  0.00000000  1
  Tl  Tl22  1  0.00000000  0.50000000  0.50000000  1
  Tl  Tl23  1  0.50000000  0.00000000  0.50000000  1
  Tl  Tl24  1  0.00000000  0.00000000  0.50000000  1
  Tl  Tl25  1  0.50000000  0.50000000  0.50000000  1
  Tl  Tl26  1  0.00000000  0.50000000  0.00000000  1
  Tl  Tl27  1  0.50000000  0.00000000  0.00000000  1
  Br  Br28  1  0.87370100  0.87370100  0.00000000  1
  Br  Br29  1  0.12629900  0.12629900  0.00000000  1
  Br  Br30  1  0.17289200  0.00000000  0.17289200  1
  Br  Br31  1  0.82710800  0.00000000  0.82710800  1
  Br  Br32  1  0.00000000  0.82710800  0.82710800  1
  Br  Br33  1  0.00000000  0.17289200  0.17289200  1
  Br  Br34  1  0.86813200  0.36813200  0.50000000  1
  Br  Br35  1  0.36813200  0.86813200  0.50000000  1
  Br  Br36  1  0.13186800  0.63186800  0.50000000  1
  Br  Br37  1  0.63186800  0.13186800  0.50000000  1
  Br  Br38  1  0.38597700  0.12061900  0.50659600  1
  Br  Br39  1  0.61402300  0.87938100  0.49340400  1
  Br  Br40  1  0.38597700  0.87938100  0.26535700  1
  Br  Br41  1  0.61402300  0.12061900  0.73464300  1
  Br  Br42  1  0.12061900  0.61402300  0.73464300  1
  Br  Br43  1  0.87938100  0.38597700  0.26535700  1
  Br  Br44  1  0.12061900  0.38597700  0.50659600  1
  Br  Br45  1  0.87938100  0.61402300  0.49340400  1
  Br  Br46  1  0.80431100  0.46970800  0.00000000  1
  Br  Br47  1  0.46970800  0.80431100  0.00000000  1
  Br  Br48  1  0.80431100  0.80431100  0.33460200  1
  Br  Br49  1  0.46970800  0.46970800  0.66539800  1
  Br  Br50  1  0.19568900  0.53029200  0.00000000  1
  Br  Br51  1  0.53029200  0.19568900  0.00000000  1
  Br  Br52  1  0.19568900  0.19568900  0.66539800  1
  Br  Br53  1  0.53029200  0.53029200  0.33460200  1
  Br  Br54  1  0.99776600  0.67012700  0.00000000  1
  Br  Br55  1  0.67012700  0.99776600  0.00000000  1
  Br  Br56  1  0.99776600  0.99776600  0.32763900  1
  Br  Br57  1  0.67012700  0.67012700  0.67236100  1
  Br  Br58  1  0.00223400  0.32987300  0.00000000  1
  Br  Br59  1  0.32987300  0.00223400  0.00000000  1
  Br  Br60  1  0.00223400  0.00223400  0.67236100  1
  Br  Br61  1  0.32987300  0.32987300  0.32763900  1
  Br  Br62  1  0.11594000  0.61594000  0.23187900  1
  Br  Br63  1  0.38406000  0.88406000  0.76812100  1
  Br  Br64  1  0.11594000  0.88406000  0.50000000  1
  Br  Br65  1  0.38406000  0.61594000  0.50000000  1
  Br  Br66  1  0.61594000  0.38406000  0.50000000  1
  Br  Br67  1  0.88406000  0.11594000  0.50000000  1
  Br  Br68  1  0.61594000  0.11594000  0.23187900  1
  Br  Br69  1  0.88406000  0.38406000  0.76812100  1
  O  O70  1  0.60374900  0.73222300  0.12847400  1
  O  O71  1  0.60374900  0.47527500  0.87152600  1
  O  O72  1  0.73222300  0.60374900  0.12847400  1
  O  O73  1  0.47527500  0.60374900  0.87152600  1
  O  O74  1  0.39625100  0.26777700  0.87152600  1
  O  O75  1  0.39625100  0.52472500  0.12847400  1
  O  O76  1  0.26777700  0.39625100  0.87152600  1
  O  O77  1  0.52472500  0.39625100  0.12847400  1
