# generated using pymatgen
data_K2TiSi3O10
_symmetry_space_group_name_H-M   'P 1'
_cell_length_a   7.20409200
_cell_length_b   10.00165300
_cell_length_c   13.00789400
_cell_angle_alpha   90.00000000
_cell_angle_beta   90.00000000
_cell_angle_gamma   90.00000000
_symmetry_Int_Tables_number   1
_chemical_formula_structural   K2TiSi3O10
_chemical_formula_sum   'K8 Ti4 Si12 O40'
_cell_volume   937.25555376
_cell_formula_units_Z   4
loop_
 _symmetry_equiv_pos_site_id
 _symmetry_equiv_pos_as_xyz
  1  'x, y, z'
loop_
 _atom_site_type_symbol
 _atom_site_label
 _atom_site_symmetry_multiplicity
 _atom_site_fract_x
 _atom_site_fract_y
 _atom_site_fract_z
 _atom_site_occupancy
  K  K0  1  0.34051700  0.78061000  0.12593100  1
  K  K1  1  0.84051700  0.71939000  0.87406900  1
  K  K2  1  0.65948300  0.28061000  0.37406900  1
  K  K3  1  0.15948300  0.21939000  0.62593100  1
  K  K4  1  0.78298400  0.56130300  0.58512700  1
  K  K5  1  0.28298400  0.93869700  0.41487300  1
  K  K6  1  0.21701600  0.06130300  0.91487300  1
  K  K7  1  0.71701600  0.43869700  0.08512700  1
  Ti  Ti8  1  0.23839300  0.54954500  0.70848600  1
  Ti  Ti9  1  0.73839300  0.95045500  0.29151400  1
  Ti  Ti10  1  0.76160700  0.04954500  0.79151400  1
  Ti  Ti11  1  0.26160700  0.45045500  0.20848600  1
  Si  Si12  1  0.48918700  0.82266100  0.67612100  1
  Si  Si13  1  0.98918700  0.67733900  0.32387900  1
  Si  Si14  1  0.51081300  0.32266100  0.82387900  1
  Si  Si15  1  0.01081300  0.17733900  0.17612100  1
  Si  Si16  1  0.76552600  0.96737100  0.54961000  1
  Si  Si17  1  0.26552600  0.53262900  0.45039000  1
  Si  Si18  1  0.23447400  0.46737100  0.95039000  1
  Si  Si19  1  0.73447400  0.03262900  0.04961000  1
  Si  Si20  1  0.92089200  0.35933800  0.83206300  1
  Si  Si21  1  0.42089200  0.14066200  0.16793700  1
  Si  Si22  1  0.07910800  0.85933800  0.66793700  1
  Si  Si23  1  0.57910800  0.64066200  0.33206300  1
  O  O24  1  0.25618400  0.57893800  0.85907100  1
  O  O25  1  0.75618400  0.92106200  0.14092900  1
  O  O26  1  0.74381600  0.07893800  0.64092900  1
  O  O27  1  0.24381600  0.42106200  0.35907100  1
  O  O28  1  0.44623000  0.66409100  0.68675200  1
  O  O29  1  0.94623000  0.83590900  0.31324800  1
  O  O30  1  0.55377000  0.16409100  0.81324800  1
  O  O31  1  0.05377000  0.33590900  0.18675200  1
  O  O32  1  0.22040600  0.48401700  0.56588000  1
  O  O33  1  0.72040600  0.01598300  0.43412000  1
  O  O34  1  0.77959400  0.98401700  0.93412000  1
  O  O35  1  0.27959400  0.51598300  0.06588000  1
  O  O36  1  0.01450500  0.43870000  0.73713600  1
  O  O37  1  0.51450500  0.06130000  0.26286400  1
  O  O38  1  0.98549500  0.93870000  0.76286400  1
  O  O39  1  0.48549500  0.56130000  0.23713600  1
  O  O40  1  0.40322100  0.38592700  0.72558700  1
  O  O41  1  0.90322100  0.11407300  0.27441300  1
  O  O42  1  0.59677900  0.88592700  0.77441300  1
  O  O43  1  0.09677900  0.61407300  0.22558700  1
  O  O44  1  0.06782700  0.69868800  0.68505100  1
  O  O45  1  0.56782700  0.80131200  0.31494900  1
  O  O46  1  0.93217300  0.19868800  0.81494900  1
  O  O47  1  0.43217300  0.30131200  0.18505100  1
  O  O48  1  0.29670300  0.90776600  0.65052900  1
  O  O49  1  0.79670300  0.59223400  0.34947100  1
  O  O50  1  0.70329700  0.40776600  0.84947100  1
  O  O51  1  0.20329700  0.09223400  0.15052900  1
  O  O52  1  0.98059600  0.90772500  0.55839900  1
  O  O53  1  0.48059600  0.59227500  0.44160100  1
  O  O54  1  0.01940400  0.40772500  0.94160100  1
  O  O55  1  0.51940400  0.09227500  0.05839900  1
  O  O56  1  0.62566600  0.83942900  0.57519700  1
  O  O57  1  0.12566600  0.66057100  0.42480300  1
  O  O58  1  0.37433400  0.33942900  0.92480300  1
  O  O59  1  0.87433400  0.16057100  0.07519700  1
  O  O60  1  0.58635600  0.30360300  0.58896100  1
  O  O61  1  0.08635600  0.19639700  0.41103900  1
  O  O62  1  0.41364400  0.80360300  0.91103900  1
  O  O63  1  0.91364400  0.69639700  0.08896100  1
