# generated using pymatgen
data_PrC2ClO7
_symmetry_space_group_name_H-M   'P 1'
_cell_length_a   14.11172100
_cell_length_b   6.07556600
_cell_length_c   9.58414127
_cell_angle_alpha   69.15897254
_cell_angle_beta   90.00000000
_cell_angle_gamma   90.00000000
_symmetry_Int_Tables_number   1
_chemical_formula_structural   PrC2ClO7
_chemical_formula_sum   'Pr4 C8 Cl4 O28'
_cell_volume   767.94886869
_cell_formula_units_Z   4
loop_
 _symmetry_equiv_pos_site_id
 _symmetry_equiv_pos_as_xyz
  1  'x, y, z'
loop_
 _atom_site_type_symbol
 _atom_site_label
 _atom_site_symmetry_multiplicity
 _atom_site_fract_x
 _atom_site_fract_y
 _atom_site_fract_z
 _atom_site_occupancy
  Pr  Pr0  1  0.61345600  0.32725500  0.15613200  1
  Pr  Pr1  1  0.88654400  0.32725500  0.65613200  1
  Pr  Pr2  1  0.38654400  0.67274500  0.84386800  1
  Pr  Pr3  1  0.11345600  0.67274500  0.34386800  1
  C  C4  1  0.53241000  0.89654700  0.04639000  1
  C  C5  1  0.96759000  0.89654700  0.54639000  1
  C  C6  1  0.46759000  0.10345300  0.95361000  1
  C  C7  1  0.03241000  0.10345300  0.45361000  1
  C  C8  1  0.58418600  0.79461600  0.55669800  1
  C  C9  1  0.91581400  0.79461600  0.05669800  1
  C  C10  1  0.41581400  0.20538400  0.44330200  1
  C  C11  1  0.08418600  0.20538400  0.94330200  1
  Cl  Cl12  1  0.80193400  0.17840000  0.15692500  1
  Cl  Cl13  1  0.69806600  0.17840000  0.65692500  1
  Cl  Cl14  1  0.19806600  0.82160000  0.84307500  1
  Cl  Cl15  1  0.30193400  0.82160000  0.34307500  1
  O  O16  1  0.52265100  0.70389100  0.02080800  1
  O  O17  1  0.97734900  0.70389100  0.52080800  1
  O  O18  1  0.47734900  0.29610900  0.97919200  1
  O  O19  1  0.02265100  0.29610900  0.47919200  1
  O  O20  1  0.60494200  0.92434500  0.43725700  1
  O  O21  1  0.89505800  0.92434500  0.93725700  1
  O  O22  1  0.39505800  0.07565500  0.56274300  1
  O  O23  1  0.10494200  0.07565500  0.06274300  1
  O  O24  1  0.58817800  0.92950100  0.13816500  1
  O  O25  1  0.91182200  0.92950100  0.63816500  1
  O  O26  1  0.41182200  0.07049900  0.86183500  1
  O  O27  1  0.08817800  0.07049900  0.36183500  1
  O  O28  1  0.44405800  0.32661900  0.32530300  1
  O  O29  1  0.05594200  0.32661900  0.82530300  1
  O  O30  1  0.55594200  0.67338100  0.67469700  1
  O  O31  1  0.94405800  0.67338100  0.17469700  1
  O  O32  1  0.71107700  0.39218900  0.93411300  1
  O  O33  1  0.78892300  0.39218900  0.43411300  1
  O  O34  1  0.28892300  0.60781100  0.06588700  1
  O  O35  1  0.21107700  0.60781100  0.56588700  1
  O  O36  1  0.74150400  0.59218600  0.08914900  1
  O  O37  1  0.75849600  0.59218600  0.58914900  1
  O  O38  1  0.25849600  0.40781400  0.91085100  1
  O  O39  1  0.24150400  0.40781400  0.41085100  1
  O  O40  1  0.65514100  0.46326900  0.35196800  1
  O  O41  1  0.84485900  0.46326900  0.85196800  1
  O  O42  1  0.34485900  0.53673100  0.64803200  1
  O  O43  1  0.15514100  0.53673100  0.14803200  1
