# generated using pymatgen
data_B6Pb3O11F2
_symmetry_space_group_name_H-M   'P 1'
_cell_length_a   8.45516400
_cell_length_b   6.68828200
_cell_length_c   10.14979484
_cell_angle_alpha   76.62846595
_cell_angle_beta   90.00000000
_cell_angle_gamma   90.00000000
_symmetry_Int_Tables_number   1
_chemical_formula_structural   B6Pb3O11F2
_chemical_formula_sum   'B12 Pb6 O22 F4'
_cell_volume   558.41620820
_cell_formula_units_Z   2
loop_
 _symmetry_equiv_pos_site_id
 _symmetry_equiv_pos_as_xyz
  1  'x, y, z'
loop_
 _atom_site_type_symbol
 _atom_site_label
 _atom_site_symmetry_multiplicity
 _atom_site_fract_x
 _atom_site_fract_y
 _atom_site_fract_z
 _atom_site_occupancy
  B  B0  1  0.97783300  0.00045200  0.04870500  1
  B  B1  1  0.47783300  0.99954800  0.95129500  1
  B  B2  1  0.03949200  0.92463000  0.37985900  1
  B  B3  1  0.53949200  0.07537000  0.62014100  1
  B  B4  1  0.29152400  0.08339600  0.33131800  1
  B  B5  1  0.79152400  0.91660400  0.66868200  1
  B  B6  1  0.04199600  0.29062000  0.28954900  1
  B  B7  1  0.54199600  0.70938000  0.71045100  1
  B  B8  1  0.01711900  0.68232700  0.22665100  1
  B  B9  1  0.51711900  0.31767300  0.77334900  1
  B  B10  1  0.75814300  0.09570600  0.87198300  1
  B  B11  1  0.25814300  0.90429400  0.12801700  1
  Pb  Pb12  1  0.14480300  0.07008200  0.72775200  1
  Pb  Pb13  1  0.64480300  0.92991800  0.27224800  1
  Pb  Pb14  1  0.81469100  0.46187000  0.53721700  1
  Pb  Pb15  1  0.31469100  0.53813000  0.46278300  1
  Pb  Pb16  1  0.80039300  0.53404100  0.96631600  1
  Pb  Pb17  1  0.30039300  0.46595900  0.03368400  1
  O  O18  1  0.19229600  0.93518500  0.42669300  1
  O  O19  1  0.69229600  0.06481500  0.57330700  1
  O  O20  1  0.95660700  0.10755500  0.32870700  1
  O  O21  1  0.45660700  0.89244500  0.67129300  1
  O  O22  1  0.10111900  0.34728300  0.57799500  1
  O  O23  1  0.60111900  0.65271700  0.42200500  1
  O  O24  1  0.91876900  0.81240400  0.11896100  1
  O  O25  1  0.41876900  0.18759600  0.88103900  1
  O  O26  1  0.85018800  0.99938000  0.77836500  1
  O  O27  1  0.35018800  0.00062000  0.22163500  1
  O  O28  1  0.87749900  0.14274900  0.96916800  1
  O  O29  1  0.37749900  0.85725100  0.03083200  1
  O  O30  1  0.97851700  0.74367400  0.35897500  1
  O  O31  1  0.47851700  0.25632600  0.64102500  1
  O  O32  1  0.13442800  0.05203600  0.05898700  1
  O  O33  1  0.63442800  0.94796400  0.94101300  1
  O  O34  1  0.96019400  0.46847500  0.24661200  1
  O  O35  1  0.46019400  0.53152500  0.75338800  1
  O  O36  1  0.70535400  0.71903300  0.71608900  1
  O  O37  1  0.20535400  0.28096700  0.28391100  1
  O  O38  1  0.18572000  0.70546400  0.19490400  1
  O  O39  1  0.68572000  0.29453600  0.80509600  1
  F  F40  1  0.93039900  0.86552700  0.59767400  1
  F  F41  1  0.43039900  0.13447300  0.40232600  1
  F  F42  1  0.07125600  0.58814900  0.90234700  1
  F  F43  1  0.57125600  0.41185100  0.09765300  1
