# generated using pymatgen
data_Ge(C6F5)4
_symmetry_space_group_name_H-M   'P 1'
_cell_length_a   12.85162849
_cell_length_b   12.85162849
_cell_length_c   12.85162849
_cell_angle_alpha   95.68994443
_cell_angle_beta   95.68994443
_cell_angle_gamma   143.29368530
_symmetry_Int_Tables_number   1
_chemical_formula_structural   Ge(C6F5)4
_chemical_formula_sum   'Ge2 C48 F40'
_cell_volume   1204.18989453
_cell_formula_units_Z   2
loop_
 _symmetry_equiv_pos_site_id
 _symmetry_equiv_pos_as_xyz
  1  'x, y, z'
loop_
 _atom_site_type_symbol
 _atom_site_label
 _atom_site_symmetry_multiplicity
 _atom_site_fract_x
 _atom_site_fract_y
 _atom_site_fract_z
 _atom_site_occupancy
  Ge  Ge0  1  0.25000000  0.75000000  0.50000000  1
  Ge  Ge1  1  0.00000000  0.00000000  0.00000000  1
  C  C2  1  0.31905700  0.82893600  0.36381200  1
  C  C3  1  0.46512400  0.95524600  0.63618800  1
  C  C4  1  0.78487600  0.79475400  0.86381200  1
  C  C5  1  0.93094300  0.92106400  0.13618800  1
  C  C6  1  0.04475400  0.68094300  0.50987900  1
  C  C7  1  0.17106400  0.53487600  0.49012100  1
  C  C8  1  0.07893600  0.21512400  0.00987900  1
  C  C9  1  0.20524600  0.06905700  0.99012100  1
  C  C10  1  0.20587700  0.78726500  0.28544500  1
  C  C11  1  0.50182000  0.92043200  0.71455500  1
  C  C12  1  0.74818000  0.82956800  0.78544500  1
  C  C13  1  0.04412300  0.96273500  0.21455500  1
  C  C14  1  0.07956800  0.79412300  0.58138800  1
  C  C15  1  0.21273500  0.49818000  0.41861200  1
  C  C16  1  0.03726500  0.25182000  0.08138800  1
  C  C17  1  0.17043200  0.95587700  0.91861200  1
  C  C18  1  0.24025900  0.62830000  0.06819400  1
  C  C19  1  0.56010700  0.17206500  0.93180600  1
  C  C20  1  0.68989300  0.57793500  0.56819400  1
  C  C21  1  0.00974100  0.12170000  0.43180600  1
  C  C22  1  0.82793500  0.75974100  0.38804200  1
  C  C23  1  0.37170000  0.43989300  0.61195800  1
  C  C24  1  0.87830000  0.31010700  0.88804200  1
  C  C25  1  0.42206500  0.99025900  0.11195800  1
  C  C26  1  0.97057100  0.14265100  0.51802400  1
  C  C27  1  0.62462700  0.45254700  0.48197600  1
  C  C28  1  0.62537300  0.29745300  0.01802400  1
  C  C29  1  0.27942900  0.60734900  0.98197600  1
  C  C30  1  0.54745300  0.02942900  0.17208000  1
  C  C31  1  0.85734900  0.37537300  0.82792000  1
  C  C32  1  0.39265100  0.37462700  0.67208000  1
  C  C33  1  0.70254700  0.72057100  0.32792000  1
  C  C34  1  0.58160800  0.00970300  0.27527300  1
  C  C35  1  0.73443000  0.30633500  0.72472700  1
  C  C36  1  0.51557000  0.44366500  0.77527300  1
  C  C37  1  0.66839200  0.74029700  0.22472700  1
  C  C38  1  0.69366500  0.41839200  0.42809500  1
  C  C39  1  0.99029700  0.26557000  0.57190500  1
  C  C40  1  0.25970300  0.48443000  0.92809500  1
  C  C41  1  0.55633500  0.33160800  0.07190500  1
  C  C42  1  0.49131300  0.93044200  0.35200200  1
  C  C43  1  0.57844000  0.13931100  0.64799800  1
  C  C44  1  0.67156000  0.61068900  0.85200200  1
  C  C45  1  0.75868700  0.81955800  0.14799800  1
  C  C46  1  0.86068900  0.50868700  0.43912900  1
  C  C47  1  0.06955800  0.42156000  0.56087100  1
  C  C48  1  0.18044200  0.32844000  0.93912900  1
  C  C49  1  0.38931100  0.24131300  0.06087100  1
  F  F50  1  0.04703500  0.70156800  0.27651600  1
  F  F51  1  0.42505200  0.77051900  0.72348400  1
  F  F52  1  0.82494800  0.97948100  0.77651600  1
  F  F53  1  0.20296500  0.04843200  0.22348400  1
  F  F54  1  0.22948100  0.95296500  0.65453300  1
  F  F55  1  0.29843200  0.57494800  0.34546700  1
  F  F56  1  0.95156800  0.17505200  0.15453300  1
  F  F57  1  0.02051900  0.79703500  0.84546700  1
  F  F58  1  0.28408200  0.92681900  0.13562800  1
  F  F59  1  0.79119100  0.14845400  0.86437200  1
  F  F60  1  0.45880900  0.60154500  0.63562800  1
  F  F61  1  0.96591800  0.82318100  0.36437200  1
  F  F62  1  0.85154500  0.71591800  0.64273700  1
  F  F63  1  0.07318100  0.20880900  0.35726300  1
  F  F64  1  0.17681900  0.54119100  0.14273700  1
  F  F65  1  0.39845400  0.03408200  0.85726300  1
  F  F66  1  0.68068600  0.11164700  0.12355900  1
  F  F67  1  0.98808800  0.55712700  0.87644100  1
  F  F68  1  0.26191200  0.19287300  0.62355900  1
  F  F69  1  0.56931400  0.63835300  0.37644100  1
  F  F70  1  0.44287300  0.31931400  0.43096000  1
  F  F71  1  0.88835300  0.01191200  0.56904000  1
  F  F72  1  0.36164700  0.73808800  0.93096000  1
  F  F73  1  0.80712700  0.43068600  0.06904000  1
  F  F74  1  0.74222200  0.08668900  0.29698200  1
  F  F75  1  0.78970700  0.44524000  0.70301800  1
  F  F76  1  0.46029300  0.30476000  0.79698200  1
  F  F77  1  0.50777800  0.66331100  0.20301800  1
  F  F78  1  0.55476000  0.25777800  0.34446700  1
  F  F79  1  0.91331100  0.21029300  0.65553300  1
  F  F80  1  0.33668900  0.53970700  0.84446700  1
  F  F81  1  0.69524000  0.49222200  0.15553300  1
  F  F82  1  0.58180000  0.94676800  0.43657700  1
  F  F83  1  0.51019100  0.14522300  0.56342300  1
  F  F84  1  0.73980900  0.60477700  0.93657700  1
  F  F85  1  0.66820000  0.80323200  0.06342300  1
  F  F86  1  0.85477700  0.41820000  0.36496800  1
  F  F87  1  0.05323200  0.48980900  0.63503200  1
  F  F88  1  0.19676800  0.26019100  0.86496800  1
  F  F89  1  0.39522300  0.33180000  0.13503200  1
