# generated using pymatgen
data_GeS2
_symmetry_space_group_name_H-M   'P 1'
_cell_length_a   22.86611800
_cell_length_b   6.96384700
_cell_length_c   6.96545127
_cell_angle_alpha   61.17880944
_cell_angle_beta   90.00000000
_cell_angle_gamma   90.00000000
_symmetry_Int_Tables_number   1
_chemical_formula_structural   GeS2
_chemical_formula_sum   'Ge12 S24'
_cell_volume   971.75928921
_cell_formula_units_Z   12
loop_
 _symmetry_equiv_pos_site_id
 _symmetry_equiv_pos_as_xyz
  1  'x, y, z'
loop_
 _atom_site_type_symbol
 _atom_site_label
 _atom_site_symmetry_multiplicity
 _atom_site_fract_x
 _atom_site_fract_y
 _atom_site_fract_z
 _atom_site_occupancy
  Ge  Ge0  1  0.01217600  0.00221900  0.00027200  1
  Ge  Ge1  1  0.98782400  0.50221900  0.00027200  1
  Ge  Ge2  1  0.26288300  0.24407800  0.75587000  1
  Ge  Ge3  1  0.73711700  0.74407800  0.75587000  1
  Ge  Ge4  1  0.48780700  0.00106900  0.50681500  1
  Ge  Ge5  1  0.51219300  0.50106900  0.50681500  1
  Ge  Ge6  1  0.23809600  0.24963800  0.25243400  1
  Ge  Ge7  1  0.76190400  0.74963800  0.25243400  1
  Ge  Ge8  1  0.12535300  0.39066100  0.86165500  1
  Ge  Ge9  1  0.87464700  0.89066100  0.86165500  1
  Ge  Ge10  1  0.37527200  0.38779100  0.36751900  1
  Ge  Ge11  1  0.62472800  0.88779100  0.36751900  1
  S  S12  1  0.05101700  0.63222900  0.71628100  1
  S  S13  1  0.94898300  0.13222900  0.71628100  1
  S  S14  1  0.10214300  0.07919300  0.85339600  1
  S  S15  1  0.89785700  0.57919300  0.85339600  1
  S  S16  1  0.20025500  0.53032000  0.62208700  1
  S  S17  1  0.79974500  0.03032000  0.62208700  1
  S  S18  1  0.30179900  0.53191600  0.12377200  1
  S  S19  1  0.69820100  0.03191600  0.12377200  1
  S  S20  1  0.44844800  0.63388800  0.22331300  1
  S  S21  1  0.55155200  0.13388800  0.22331300  1
  S  S22  1  0.99905900  0.14016000  0.23066000  1
  S  S23  1  0.00094100  0.64016000  0.23066000  1
  S  S24  1  0.14886100  0.40226900  0.17041700  1
  S  S25  1  0.85113900  0.90226900  0.17041700  1
  S  S26  1  0.24574000  0.01800200  0.61521500  1
  S  S27  1  0.75426000  0.51800200  0.61521500  1
  S  S28  1  0.25366500  0.01674300  0.11920700  1
  S  S29  1  0.74633500  0.51674300  0.11920700  1
  S  S30  1  0.35449500  0.37349900  0.69021000  1
  S  S31  1  0.64550500  0.87349900  0.69021000  1
  S  S32  1  0.39576900  0.06441600  0.38300100  1
  S  S33  1  0.60423100  0.56441600  0.38300100  1
  S  S34  1  0.49385700  0.63691000  0.73517600  1
  S  S35  1  0.50614300  0.13691000  0.73517600  1
