# generated using pymatgen
data_HXe2F15
_symmetry_space_group_name_H-M   'P 1'
_cell_length_a   6.55485400
_cell_length_b   11.01713700
_cell_length_c   15.77500300
_cell_angle_alpha   90.00000000
_cell_angle_beta   90.00000000
_cell_angle_gamma   90.00000000
_symmetry_Int_Tables_number   1
_chemical_formula_structural   HXe2F15
_chemical_formula_sum   'H4 Xe8 F60'
_cell_volume   1139.20327116
_cell_formula_units_Z   4
loop_
 _symmetry_equiv_pos_site_id
 _symmetry_equiv_pos_as_xyz
  1  'x, y, z'
loop_
 _atom_site_type_symbol
 _atom_site_label
 _atom_site_symmetry_multiplicity
 _atom_site_fract_x
 _atom_site_fract_y
 _atom_site_fract_z
 _atom_site_occupancy
  H  H0  1  0.30423400  0.31132400  0.86061200  1
  H  H1  1  0.80423400  0.68867600  0.13938800  1
  H  H2  1  0.80423400  0.18867600  0.36061200  1
  H  H3  1  0.30423400  0.81132400  0.63938800  1
  Xe  Xe4  1  0.74973800  0.28428300  0.03725800  1
  Xe  Xe5  1  0.24973800  0.71571700  0.96274200  1
  Xe  Xe6  1  0.24973800  0.21571700  0.53725800  1
  Xe  Xe7  1  0.74973800  0.78428300  0.46274200  1
  Xe  Xe8  1  0.71002800  0.09066900  0.81223900  1
  Xe  Xe9  1  0.21002800  0.90933100  0.18776100  1
  Xe  Xe10  1  0.21002800  0.40933100  0.31223900  1
  Xe  Xe11  1  0.71002800  0.59066900  0.68776100  1
  F  F12  1  0.71251100  0.44670900  0.98292100  1
  F  F13  1  0.21251100  0.55329100  0.01707900  1
  F  F14  1  0.21251100  0.05329100  0.48292100  1
  F  F15  1  0.71251100  0.94670900  0.51707900  1
  F  F16  1  0.77137800  0.38633500  0.14008100  1
  F  F17  1  0.27137800  0.61366500  0.85991900  1
  F  F18  1  0.27137800  0.11366500  0.64008100  1
  F  F19  1  0.77137800  0.88633500  0.35991900  1
  F  F20  1  0.05079400  0.30939000  0.03947100  1
  F  F21  1  0.55079400  0.69061000  0.96052900  1
  F  F22  1  0.55079400  0.19061000  0.53947100  1
  F  F23  1  0.05079400  0.80939000  0.46052900  1
  F  F24  1  0.78966800  0.15319400  0.12205900  1
  F  F25  1  0.28966800  0.84680600  0.87794100  1
  F  F26  1  0.28966800  0.34680600  0.62205900  1
  F  F27  1  0.78966800  0.65319400  0.37794100  1
  F  F28  1  0.45751700  0.28785000  0.06984000  1
  F  F29  1  0.95751700  0.71215000  0.93016000  1
  F  F30  1  0.95751700  0.21215000  0.56984000  1
  F  F31  1  0.45751700  0.78785000  0.43016000  1
  F  F32  1  0.75832900  0.92790000  0.86212800  1
  F  F33  1  0.25832900  0.07210000  0.13787200  1
  F  F34  1  0.25832900  0.57210000  0.36212800  1
  F  F35  1  0.75832900  0.42790000  0.63787200  1
  F  F36  1  0.68326300  0.99426800  0.70722100  1
  F  F37  1  0.18326300  0.00573200  0.29277900  1
  F  F38  1  0.18326300  0.50573200  0.20722100  1
  F  F39  1  0.68326300  0.49426800  0.79277900  1
  F  F40  1  0.66564100  0.22587700  0.73057700  1
  F  F41  1  0.16564100  0.77412300  0.26942300  1
  F  F42  1  0.16564100  0.27412300  0.23057700  1
  F  F43  1  0.66564100  0.72587700  0.76942300  1
  F  F44  1  0.99929500  0.08783300  0.77556400  1
  F  F45  1  0.49929500  0.91216700  0.22443600  1
  F  F46  1  0.49929500  0.41216700  0.27556400  1
  F  F47  1  0.99929500  0.58783300  0.72443600  1
  F  F48  1  0.41159400  0.05897900  0.81396200  1
  F  F49  1  0.91159400  0.94102100  0.18603800  1
  F  F50  1  0.91159400  0.44102100  0.31396200  1
  F  F51  1  0.41159400  0.55897900  0.68603800  1
  F  F52  1  0.88616000  0.24892600  0.89070000  1
  F  F53  1  0.38616000  0.75107400  0.10930000  1
  F  F54  1  0.38616000  0.25107400  0.39070000  1
  F  F55  1  0.88616000  0.74892600  0.60930000  1
  F  F56  1  0.62775900  0.11268300  0.96519400  1
  F  F57  1  0.12775900  0.88731700  0.03480600  1
  F  F58  1  0.12775900  0.38731700  0.46519400  1
  F  F59  1  0.62775900  0.61268300  0.53480600  1
  F  F60  1  0.55774500  0.93304400  0.03515600  1
  F  F61  1  0.05774500  0.06695600  0.96484400  1
  F  F62  1  0.05774500  0.56695600  0.53515600  1
  F  F63  1  0.55774500  0.43304400  0.46484400  1
  F  F64  1  0.09686000  0.34496700  0.82885700  1
  F  F65  1  0.59686000  0.65503300  0.17114300  1
  F  F66  1  0.59686000  0.15503300  0.32885700  1
  F  F67  1  0.09686000  0.84496700  0.67114300  1
  F  F68  1  0.44992500  0.30014500  0.87509900  1
  F  F69  1  0.94992500  0.69985500  0.12490100  1
  F  F70  1  0.94992500  0.19985500  0.37509900  1
  F  F71  1  0.44992500  0.80014500  0.62490100  1
