# generated using pymatgen
data_Yb11(Gd2Se11)2
_symmetry_space_group_name_H-M   'P 1'
_cell_length_a   4.19918400
_cell_length_b   11.73527060
_cell_length_c   21.59744103
_cell_angle_alpha   94.34483644
_cell_angle_beta   95.57881159
_cell_angle_gamma   90.00000000
_symmetry_Int_Tables_number   1
_chemical_formula_structural   Yb11(Gd2Se11)2
_chemical_formula_sum   'Yb11 Gd4 Se22'
_cell_volume   1056.17649909
_cell_formula_units_Z   1
loop_
 _symmetry_equiv_pos_site_id
 _symmetry_equiv_pos_as_xyz
  1  'x, y, z'
loop_
 _atom_site_type_symbol
 _atom_site_label
 _atom_site_symmetry_multiplicity
 _atom_site_fract_x
 _atom_site_fract_y
 _atom_site_fract_z
 _atom_site_occupancy
  Yb  Yb0  1  0.19853700  0.48241400  0.39707500  1
  Yb  Yb1  1  0.80146300  0.51758600  0.60292500  1
  Yb  Yb2  1  0.54103800  0.20038600  0.08207600  1
  Yb  Yb3  1  0.45896200  0.79961400  0.91792400  1
  Yb  Yb4  1  0.33721000  0.17002200  0.67442100  1
  Yb  Yb5  1  0.66279000  0.82997800  0.32557900  1
  Yb  Yb6  1  0.73256200  0.13869600  0.46512400  1
  Yb  Yb7  1  0.26743800  0.86130400  0.53487600  1
  Yb  Yb8  1  0.93847800  0.17057200  0.87695500  1
  Yb  Yb9  1  0.06152200  0.82942800  0.12304500  1
  Yb  Yb10  1  0.00000000  0.50000000  0.00000000  1
  Gd  Gd11  1  0.10832800  0.49770700  0.21665500  1
  Gd  Gd12  1  0.89167200  0.50229300  0.78334500  1
  Gd  Gd13  1  0.62721100  0.16803900  0.25442200  1
  Gd  Gd14  1  0.37278900  0.83196100  0.74557800  1
  Se  Se15  1  0.08904700  0.25375100  0.17809500  1
  Se  Se16  1  0.91095300  0.74624900  0.82190500  1
  Se  Se17  1  0.18059800  0.16602700  0.36119600  1
  Se  Se18  1  0.81940200  0.83397300  0.63880400  1
  Se  Se19  1  0.27481900  0.10575900  0.54963800  1
  Se  Se20  1  0.72518100  0.89424100  0.45036200  1
  Se  Se21  1  0.57159900  0.98916900  0.14319700  1
  Se  Se22  1  0.42840100  0.01083100  0.85680300  1
  Se  Se23  1  0.85737700  0.99918100  0.71475400  1
  Se  Se24  1  0.14262300  0.00081900  0.28524600  1
  Se  Se25  1  0.41407500  0.33910800  0.82815000  1
  Se  Se26  1  0.58592500  0.66089200  0.17185000  1
  Se  Se27  1  0.55065900  0.48853500  0.10131900  1
  Se  Se28  1  0.44934100  0.51146500  0.89868100  1
  Se  Se29  1  0.64773000  0.41366700  0.29546100  1
  Se  Se30  1  0.35227000  0.58633300  0.70453900  1
  Se  Se31  1  0.84039500  0.32798900  0.68079100  1
  Se  Se32  1  0.15960500  0.67201100  0.31920900  1
  Se  Se33  1  0.00031500  0.25861900  0.00063000  1
  Se  Se34  1  0.99968500  0.74138100  0.99937000  1
  Se  Se35  1  0.73770600  0.39076700  0.47541200  1
  Se  Se36  1  0.26229400  0.60923300  0.52458800  1
