# generated using pymatgen
data_NaSbO6
_symmetry_space_group_name_H-M   'P 1'
_cell_length_a   8.73582600
_cell_length_b   8.73582600
_cell_length_c   6.90360400
_cell_angle_alpha   90.00000000
_cell_angle_beta   90.00000000
_cell_angle_gamma   90.00000000
_symmetry_Int_Tables_number   1
_chemical_formula_structural   NaSbO6
_chemical_formula_sum   'Na4 Sb4 O24'
_cell_volume   526.84616375
_cell_formula_units_Z   4
loop_
 _symmetry_equiv_pos_site_id
 _symmetry_equiv_pos_as_xyz
  1  'x, y, z'
loop_
 _atom_site_type_symbol
 _atom_site_label
 _atom_site_symmetry_multiplicity
 _atom_site_fract_x
 _atom_site_fract_y
 _atom_site_fract_z
 _atom_site_occupancy
  Na  Na0  1  0.25000000  0.75000000  0.25000000  1
  Na  Na1  1  0.75000000  0.25000000  0.25000000  1
  Na  Na2  1  0.25000000  0.25000000  0.75000000  1
  Na  Na3  1  0.75000000  0.75000000  0.75000000  1
  Sb  Sb4  1  0.25000000  0.75000000  0.75000000  1
  Sb  Sb5  1  0.75000000  0.25000000  0.75000000  1
  Sb  Sb6  1  0.25000000  0.25000000  0.25000000  1
  Sb  Sb7  1  0.75000000  0.75000000  0.25000000  1
  O  O8  1  0.22745800  0.50085900  0.90371600  1
  O  O9  1  0.77254200  0.49914100  0.90371600  1
  O  O10  1  0.72745800  0.00085900  0.59628400  1
  O  O11  1  0.27254200  0.99914100  0.59628400  1
  O  O12  1  0.49914100  0.22745800  0.09628400  1
  O  O13  1  0.50085900  0.77254200  0.09628400  1
  O  O14  1  0.99914100  0.72745800  0.40371600  1
  O  O15  1  0.00085900  0.27254200  0.40371600  1
  O  O16  1  0.49914100  0.77254200  0.90371600  1
  O  O17  1  0.50085900  0.22745800  0.90371600  1
  O  O18  1  0.99914100  0.27254200  0.59628400  1
  O  O19  1  0.00085900  0.72745800  0.59628400  1
  O  O20  1  0.22745800  0.49914100  0.09628400  1
  O  O21  1  0.77254200  0.50085900  0.09628400  1
  O  O22  1  0.72745800  0.99914100  0.40371600  1
  O  O23  1  0.27254200  0.00085900  0.40371600  1
  O  O24  1  0.34239200  0.65760800  0.54179400  1
  O  O25  1  0.65760800  0.34239200  0.54179400  1
  O  O26  1  0.84239200  0.15760800  0.95820600  1
  O  O27  1  0.15760800  0.84239200  0.95820600  1
  O  O28  1  0.34239200  0.34239200  0.45820600  1
  O  O29  1  0.65760800  0.65760800  0.45820600  1
  O  O30  1  0.84239200  0.84239200  0.04179400  1
  O  O31  1  0.15760800  0.15760800  0.04179400  1
