# generated using pymatgen
data_SrHg(IO2)4
_symmetry_space_group_name_H-M   'P 1'
_cell_length_a   11.57539200
_cell_length_b   6.93949000
_cell_length_c   14.98513400
_cell_angle_alpha   90.00000000
_cell_angle_beta   90.00000000
_cell_angle_gamma   90.00000000
_symmetry_Int_Tables_number   1
_chemical_formula_structural   SrHg(IO2)4
_chemical_formula_sum   'Sr4 Hg4 I16 O32'
_cell_volume   1203.71560956
_cell_formula_units_Z   4
loop_
 _symmetry_equiv_pos_site_id
 _symmetry_equiv_pos_as_xyz
  1  'x, y, z'
loop_
 _atom_site_type_symbol
 _atom_site_label
 _atom_site_symmetry_multiplicity
 _atom_site_fract_x
 _atom_site_fract_y
 _atom_site_fract_z
 _atom_site_occupancy
  Sr  Sr0  1  0.76168200  0.25000000  0.06607600  1
  Sr  Sr1  1  0.73831800  0.25000000  0.56607600  1
  Sr  Sr2  1  0.23831800  0.75000000  0.93392400  1
  Sr  Sr3  1  0.26168200  0.75000000  0.43392400  1
  Hg  Hg4  1  0.17792600  0.25000000  0.31832600  1
  Hg  Hg5  1  0.32207400  0.25000000  0.81832600  1
  Hg  Hg6  1  0.82207400  0.75000000  0.68167400  1
  Hg  Hg7  1  0.67792600  0.75000000  0.18167400  1
  I  I8  1  0.47664500  0.25000000  0.01400400  1
  I  I9  1  0.02335500  0.25000000  0.51400400  1
  I  I10  1  0.52335500  0.75000000  0.98599600  1
  I  I11  1  0.97664500  0.75000000  0.48599600  1
  I  I12  1  0.39284800  0.25000000  0.50224000  1
  I  I13  1  0.10715200  0.25000000  0.00224000  1
  I  I14  1  0.60715200  0.75000000  0.49776000  1
  I  I15  1  0.89284800  0.75000000  0.99776000  1
  I  I16  1  0.95207100  0.55072900  0.25630100  1
  I  I17  1  0.54792900  0.94927100  0.75630100  1
  I  I18  1  0.04792900  0.05072900  0.74369900  1
  I  I19  1  0.45207100  0.44927100  0.24369900  1
  I  I20  1  0.04792900  0.44927100  0.74369900  1
  I  I21  1  0.45207100  0.05072900  0.24369900  1
  I  I22  1  0.95207100  0.94927100  0.25630100  1
  I  I23  1  0.54792900  0.55072900  0.75630100  1
  O  O24  1  0.97889000  0.25000000  0.07310400  1
  O  O25  1  0.52111000  0.25000000  0.57310400  1
  O  O26  1  0.02111000  0.75000000  0.92689600  1
  O  O27  1  0.47889000  0.75000000  0.42689600  1
  O  O28  1  0.81262000  0.51177900  0.17770600  1
  O  O29  1  0.68738000  0.98822100  0.67770600  1
  O  O30  1  0.18738000  0.01177900  0.82229400  1
  O  O31  1  0.31262000  0.48822100  0.32229400  1
  O  O32  1  0.18738000  0.48822100  0.82229400  1
  O  O33  1  0.31262000  0.01177900  0.32229400  1
  O  O34  1  0.81262000  0.98822100  0.17770600  1
  O  O35  1  0.68738000  0.51177900  0.67770600  1
  O  O36  1  0.68680500  0.95699500  0.45458000  1
  O  O37  1  0.81319500  0.54300500  0.95458100  1
  O  O38  1  0.31319500  0.45699500  0.54541900  1
  O  O39  1  0.18680500  0.04300500  0.04542000  1
  O  O40  1  0.31319500  0.04300500  0.54541900  1
  O  O41  1  0.18680500  0.45699500  0.04542000  1
  O  O42  1  0.68680500  0.54300500  0.45458000  1
  O  O43  1  0.81319500  0.95699500  0.95458100  1
  O  O44  1  0.58619800  0.94625800  0.06601200  1
  O  O45  1  0.91380200  0.55374200  0.56601200  1
  O  O46  1  0.41380200  0.44625800  0.93398800  1
  O  O47  1  0.08619800  0.05374200  0.43398800  1
  O  O48  1  0.41380200  0.05374200  0.93398800  1
  O  O49  1  0.08619800  0.44625800  0.43398800  1
  O  O50  1  0.58619800  0.55374200  0.06601200  1
  O  O51  1  0.91380200  0.94625800  0.56601200  1
  O  O52  1  0.07385500  0.75000000  0.32278100  1
  O  O53  1  0.42614500  0.75000000  0.82278100  1
  O  O54  1  0.92614500  0.25000000  0.67721900  1
  O  O55  1  0.57385500  0.25000000  0.17721900  1
