# generated using pymatgen
data_UH4(C2O5)2
_symmetry_space_group_name_H-M   'P 1'
_cell_length_a   6.79855685
_cell_length_b   6.79855685
_cell_length_c   9.64457413
_cell_angle_alpha   89.34924147
_cell_angle_beta   89.34924147
_cell_angle_gamma   77.93864605
_symmetry_Int_Tables_number   1
_chemical_formula_structural   UH4(C2O5)2
_chemical_formula_sum   'U2 H8 C8 O20'
_cell_volume   435.88855123
_cell_formula_units_Z   2
loop_
 _symmetry_equiv_pos_site_id
 _symmetry_equiv_pos_as_xyz
  1  'x, y, z'
loop_
 _atom_site_type_symbol
 _atom_site_label
 _atom_site_symmetry_multiplicity
 _atom_site_fract_x
 _atom_site_fract_y
 _atom_site_fract_z
 _atom_site_occupancy
  U  U0  1  0.24942900  0.75057100  0.75000000  1
  U  U1  1  0.75057100  0.24942900  0.25000000  1
  H  H2  1  0.63907800  0.92622400  0.70955700  1
  H  H3  1  0.07377600  0.36092200  0.79044300  1
  H  H4  1  0.36092200  0.07377600  0.29044300  1
  H  H5  1  0.92622400  0.63907800  0.20955700  1
  H  H6  1  0.50713100  0.06603200  0.82411700  1
  H  H7  1  0.93396800  0.49286900  0.67588300  1
  H  H8  1  0.49286900  0.93396800  0.17588300  1
  H  H9  1  0.06603200  0.50713100  0.32411700  1
  C  C10  1  0.09731500  0.02643500  0.47238000  1
  C  C11  1  0.97356500  0.90268500  0.02762000  1
  C  C12  1  0.90268500  0.97356500  0.52762000  1
  C  C13  1  0.02643500  0.09731500  0.97238000  1
  C  C14  1  0.59614600  0.50630800  0.53825300  1
  C  C15  1  0.49369200  0.40385400  0.96174700  1
  C  C16  1  0.40385400  0.49369200  0.46174700  1
  C  C17  1  0.50630800  0.59614600  0.03825300  1
  O  O18  1  0.50726500  0.96019100  0.75696400  1
  O  O19  1  0.03980900  0.49273500  0.74303600  1
  O  O20  1  0.49273500  0.03980900  0.24303600  1
  O  O21  1  0.96019100  0.50726500  0.25696400  1
  O  O22  1  0.57476900  0.60467500  0.65015500  1
  O  O23  1  0.39532500  0.42523100  0.84984500  1
  O  O24  1  0.42523100  0.39532500  0.34984500  1
  O  O25  1  0.60467500  0.57476900  0.15015500  1
  O  O26  1  0.23875300  0.58150800  0.51513800  1
  O  O27  1  0.41849200  0.76124700  0.98486200  1
  O  O28  1  0.76124700  0.41849200  0.48486200  1
  O  O29  1  0.58150800  0.23875300  0.01513800  1
  O  O30  1  0.91178600  0.88636100  0.64548800  1
  O  O31  1  0.11363900  0.08821400  0.85451200  1
  O  O32  1  0.08821400  0.11363900  0.35451200  1
  O  O33  1  0.88636100  0.91178600  0.14548800  1
  O  O34  1  0.25010800  0.97895900  0.54797600  1
  O  O35  1  0.02104100  0.74989200  0.95202400  1
  O  O36  1  0.74989200  0.02104100  0.45202400  1
  O  O37  1  0.97895900  0.25010800  0.04797600  1
