# generated using pymatgen
data_ZrU2S5
_symmetry_space_group_name_H-M   'P 1'
_cell_length_a   7.25009000
_cell_length_b   7.77357600
_cell_length_c   11.44948900
_cell_angle_alpha   90.00000000
_cell_angle_beta   90.00000000
_cell_angle_gamma   90.00000000
_symmetry_Int_Tables_number   1
_chemical_formula_structural   ZrU2S5
_chemical_formula_sum   'Zr4 U8 S20'
_cell_volume   645.28318886
_cell_formula_units_Z   4
loop_
 _symmetry_equiv_pos_site_id
 _symmetry_equiv_pos_as_xyz
  1  'x, y, z'
loop_
 _atom_site_type_symbol
 _atom_site_label
 _atom_site_symmetry_multiplicity
 _atom_site_fract_x
 _atom_site_fract_y
 _atom_site_fract_z
 _atom_site_occupancy
  Zr  Zr0  1  0.08107000  0.75000000  0.49390300  1
  Zr  Zr1  1  0.41893000  0.75000000  0.99390300  1
  Zr  Zr2  1  0.91893000  0.25000000  0.50609700  1
  Zr  Zr3  1  0.58107000  0.25000000  0.00609700  1
  U  U4  1  0.52952200  0.49943600  0.32101300  1
  U  U5  1  0.97047800  0.00056400  0.82101300  1
  U  U6  1  0.47047800  0.99943600  0.67898700  1
  U  U7  1  0.02952200  0.50056400  0.17898700  1
  U  U8  1  0.47047800  0.50056400  0.67898700  1
  U  U9  1  0.02952200  0.99943600  0.17898700  1
  U  U10  1  0.52952200  0.00056400  0.32101300  1
  U  U11  1  0.97047800  0.49943600  0.82101300  1
  S  S12  1  0.83391000  0.95909500  0.59166300  1
  S  S13  1  0.66609000  0.54090500  0.09166300  1
  S  S14  1  0.16609000  0.45909500  0.40833700  1
  S  S15  1  0.33391000  0.04090500  0.90833700  1
  S  S16  1  0.16609000  0.04090500  0.40833700  1
  S  S17  1  0.33391000  0.45909500  0.90833700  1
  S  S18  1  0.83391000  0.54090500  0.59166300  1
  S  S19  1  0.66609000  0.95909500  0.09166300  1
  S  S20  1  0.83585300  0.75000000  0.31548600  1
  S  S21  1  0.66414700  0.75000000  0.81548600  1
  S  S22  1  0.16414700  0.25000000  0.68451400  1
  S  S23  1  0.33585300  0.25000000  0.18451400  1
  S  S24  1  0.45508500  0.75000000  0.49822300  1
  S  S25  1  0.04491500  0.75000000  0.99822300  1
  S  S26  1  0.54491500  0.25000000  0.50177700  1
  S  S27  1  0.95508500  0.25000000  0.00177700  1
  S  S28  1  0.18880300  0.75000000  0.71194300  1
  S  S29  1  0.31119700  0.75000000  0.21194300  1
  S  S30  1  0.81119700  0.25000000  0.28805700  1
  S  S31  1  0.68880300  0.25000000  0.78805700  1
