# generated using pymatgen
data_Mo4H14N2O17
_symmetry_space_group_name_H-M   'P 1'
_cell_length_a   10.65312400
_cell_length_b   8.05270600
_cell_length_c   20.09716720
_cell_angle_alpha   90.00000000
_cell_angle_beta   114.73519985
_cell_angle_gamma   90.00000000
_symmetry_Int_Tables_number   1
_chemical_formula_structural   Mo4H14N2O17
_chemical_formula_sum   'Mo16 H56 N8 O68'
_cell_volume   1565.88438692
_cell_formula_units_Z   4
loop_
 _symmetry_equiv_pos_site_id
 _symmetry_equiv_pos_as_xyz
  1  'x, y, z'
loop_
 _atom_site_type_symbol
 _atom_site_label
 _atom_site_symmetry_multiplicity
 _atom_site_fract_x
 _atom_site_fract_y
 _atom_site_fract_z
 _atom_site_occupancy
  Mo  Mo0  1  0.92397600  0.45902900  0.84643100  1
  Mo  Mo1  1  0.92397600  0.04097100  0.34643100  1
  Mo  Mo2  1  0.07602400  0.54097100  0.15356900  1
  Mo  Mo3  1  0.07602400  0.95902900  0.65356900  1
  Mo  Mo4  1  0.65586300  0.41740900  0.88860600  1
  Mo  Mo5  1  0.65586300  0.08259100  0.38860600  1
  Mo  Mo6  1  0.34413700  0.58259100  0.11139400  1
  Mo  Mo7  1  0.34413700  0.91740900  0.61139400  1
  Mo  Mo8  1  0.71491600  0.32807800  0.05936600  1
  Mo  Mo9  1  0.71491600  0.17192200  0.55936600  1
  Mo  Mo10  1  0.28508400  0.67192200  0.94063400  1
  Mo  Mo11  1  0.28508400  0.82807800  0.44063400  1
  Mo  Mo12  1  0.98947500  0.28239500  0.01428300  1
  Mo  Mo13  1  0.98947500  0.21760500  0.51428300  1
  Mo  Mo14  1  0.01052500  0.71760500  0.98571700  1
  Mo  Mo15  1  0.01052500  0.78239500  0.48571700  1
  H  H16  1  0.87633800  0.15727700  0.18379800  1
  H  H17  1  0.87633800  0.34272300  0.68379800  1
  H  H18  1  0.12366200  0.84272300  0.81620200  1
  H  H19  1  0.12366200  0.65727700  0.31620200  1
  H  H20  1  0.78063000  0.01888500  0.12523200  1
  H  H21  1  0.78063000  0.48111500  0.62523200  1
  H  H22  1  0.21937000  0.98111500  0.87476800  1
  H  H23  1  0.21937000  0.51888500  0.37476800  1
  H  H24  1  0.39777100  0.89822200  0.76838200  1
  H  H25  1  0.39777100  0.60177800  0.26838200  1
  H  H26  1  0.60222900  0.10177800  0.23161800  1
  H  H27  1  0.60222900  0.39822200  0.73161800  1
  H  H28  1  0.45614200  0.06449600  0.81101900  1
  H  H29  1  0.45614200  0.43550400  0.31101900  1
  H  H30  1  0.54385800  0.93550400  0.18898100  1
  H  H31  1  0.54385800  0.56449600  0.68898100  1
  H  H32  1  0.20224900  0.24592700  0.85706900  1
  H  H33  1  0.20224900  0.25407300  0.35706900  1
  H  H34  1  0.79775100  0.75407300  0.14293100  1
  H  H35  1  0.79775100  0.74592700  0.64293100  1
  H  H36  1  0.36149900  0.20670200  0.88431400  1
  H  H37  1  0.36149900  0.29329800  0.38431400  1
  H  H38  1  0.63850100  0.79329800  0.11568600  1
  H  H39  1  0.63850100  0.70670200  0.61568600  1
  H  H40  1  0.41244900  0.05239000  0.02885100  1
  H  H41  1  0.41244900  0.44761000  0.52885100  1
  H  H42  1  0.58755100  0.94761000  0.97114900  1
  H  H43  1  0.58755100  0.55239000  0.47114900  1
  H  H44  1  0.26398800  0.02806800  0.03749000  1
  H  H45  1  0.26398800  0.47193200  0.53749000  1
  H  H46  1  0.73601200  0.97193200  0.96251000  1
  H  H47  1  0.73601200  0.52806800  0.46251000  1
  H  H48  1  0.38888500  0.15630400  0.09484000  1
  H  H49  1  0.38888500  0.34369600  0.59484000  1
  H  H50  1  0.61111500  0.84369600  0.90516000  1
  H  H51  1  0.61111500  0.65630400  0.40516000  1
  H  H52  1  0.29929200  0.20672900  0.00407300  1
  H  H53  1  0.29929200  0.29327100  0.50407300  1
  H  H54  1  0.70070800  0.79327100  0.99592700  1
  H  H55  1  0.70070800  0.70672900  0.49592700  1
  H  H56  1  0.63033000  0.95629700  0.78421500  1
  H  H57  1  0.63033000  0.54370300  0.28421500  1
  H  H58  1  0.36967000  0.04370300  0.21578500  1
  H  H59  1  0.36967000  0.45629700  0.71578500  1
  H  H60  1  0.74975200  0.10736600  0.80251000  1
  H  H61  1  0.74975200  0.39263400  0.30251000  1
  H  H62  1  0.25024800  0.89263400  0.19749000  1
  H  H63  1  0.25024800  0.60736600  0.69749000  1
  H  H64  1  0.69895200  0.99968300  0.72314200  1
  H  H65  1  0.69895200  0.50031700  0.22314200  1
  H  H66  1  0.30104800  0.00031700  0.27685800  1
  H  H67  1  0.30104800  0.49968300  0.77685800  1
  H  H68  1  0.79754800  0.90621500  0.80418400  1
  H  H69  1  0.79754800  0.59378500  0.30418400  1
  H  H70  1  0.20245200  0.09378500  0.19581600  1
  H  H71  1  0.20245200  0.40621500  0.69581600  1
  N  N72  1  0.34005600  0.11242900  0.04166500  1
  N  N73  1  0.34005600  0.38757100  0.54166500  1
  N  N74  1  0.65994400  0.88757100  0.95833500  1
  N  N75  1  0.65994400  0.61242900  0.45833500  1
  N  N76  1  0.71991600  0.99100600  0.77830800  1
  N  N77  1  0.71991600  0.50899400  0.27830800  1
  N  N78  1  0.28008400  0.00899400  0.22169200  1
  N  N79  1  0.28008400  0.49100600  0.72169200  1
  O  O80  1  0.06128400  0.38794000  0.80907400  1
  O  O81  1  0.06128400  0.11206000  0.30907400  1
  O  O82  1  0.93871600  0.61206000  0.19092600  1
  O  O83  1  0.93871600  0.88794000  0.69092600  1
  O  O84  1  0.93357700  0.29265700  0.77446700  1
  O  O85  1  0.93357700  0.20734300  0.27446700  1
  O  O86  1  0.06642300  0.70734300  0.22553300  1
  O  O87  1  0.06642300  0.79265700  0.72553300  1
  O  O88  1  0.83938100  0.62158600  0.78989600  1
  O  O89  1  0.83938100  0.87841400  0.28989600  1
  O  O90  1  0.16061900  0.37841400  0.21010400  1
  O  O91  1  0.16061900  0.12158600  0.71010400  1
  O  O92  1  0.75079200  0.33013400  0.83032000  1
  O  O93  1  0.75079200  0.16986600  0.33032000  1
  O  O94  1  0.24920800  0.66986600  0.16968000  1
  O  O95  1  0.24920800  0.83013400  0.66968000  1
  O  O96  1  0.02978900  0.27019900  0.93583000  1
  O  O97  1  0.02978900  0.22980100  0.43583000  1
  O  O98  1  0.97021100  0.72980100  0.06417000  1
  O  O99  1  0.97021100  0.77019900  0.56417000  1
  O  O100  1  0.59556800  0.60458500  0.84420500  1
  O  O101  1  0.59556800  0.89541500  0.34420500  1
  O  O102  1  0.40443200  0.39541500  0.15579500  1
  O  O103  1  0.40443200  0.10458500  0.65579500  1
  O  O104  1  0.51316800  0.28206500  0.85553200  1
  O  O105  1  0.51316800  0.21793500  0.35553200  1
  O  O106  1  0.48683200  0.71793500  0.14446800  1
  O  O107  1  0.48683200  0.78206500  0.64446800  1
  O  O108  1  0.65641600  0.48892000  0.98266800  1
  O  O109  1  0.65641600  0.01108000  0.48266800  1
  O  O110  1  0.34358400  0.51108000  0.01733200  1
  O  O111  1  0.34358400  0.98892000  0.51733200  1
  O  O112  1  0.79904500  0.22630600  0.97330500  1
  O  O113  1  0.79904500  0.27369400  0.47330500  1
  O  O114  1  0.20095500  0.77369400  0.02669500  1
  O  O115  1  0.20095500  0.72630600  0.52669500  1
  O  O116  1  0.58534500  0.17730700  0.02121500  1
  O  O117  1  0.58534500  0.32269300  0.52121500  1
  O  O118  1  0.41465500  0.82269300  0.97878500  1
  O  O119  1  0.41465500  0.67730700  0.47878500  1
  O  O120  1  0.68567100  0.42992300  0.12759500  1
  O  O121  1  0.68567100  0.07007700  0.62759500  1
  O  O122  1  0.31432900  0.57007700  0.87240500  1
  O  O123  1  0.31432900  0.92992300  0.37240500  1
  O  O124  1  0.83224800  0.12788900  0.13046100  1
  O  O125  1  0.83224800  0.37211100  0.63046100  1
  O  O126  1  0.16775200  0.87211100  0.86953900  1
  O  O127  1  0.16775200  0.62788900  0.36953900  1
  O  O128  1  0.91856900  0.39914900  0.08675000  1
  O  O129  1  0.91856900  0.10085100  0.58675000  1
  O  O130  1  0.08143100  0.60085100  0.91325000  1
  O  O131  1  0.08143100  0.89914900  0.41325000  1
  O  O132  1  0.07928400  0.11937000  0.07002900  1
  O  O133  1  0.07928400  0.38063000  0.57002900  1
  O  O134  1  0.92071600  0.88063000  0.92997100  1
  O  O135  1  0.92071600  0.61937000  0.42997100  1
  O  O136  1  0.12140800  0.47205900  0.06430100  1
  O  O137  1  0.12140800  0.02794100  0.56430100  1
  O  O138  1  0.87859200  0.52794100  0.93569900  1
  O  O139  1  0.87859200  0.97205900  0.43569900  1
  O  O140  1  0.47939800  0.94739700  0.80794100  1
  O  O141  1  0.47939800  0.55260300  0.30794100  1
  O  O142  1  0.52060200  0.05260300  0.19205900  1
  O  O143  1  0.52060200  0.44739700  0.69205900  1
  O  O144  1  0.27611500  0.16642400  0.88600600  1
  O  O145  1  0.27611500  0.33357600  0.38600600  1
  O  O146  1  0.72388500  0.83357600  0.11399400  1
  O  O147  1  0.72388500  0.66642400  0.61399400  1
