# generated using pymatgen
data_Fe7(SiO4)4
_symmetry_space_group_name_H-M   'P 1'
_cell_length_a   4.90031900
_cell_length_b   10.40467300
_cell_length_c   12.04363103
_cell_angle_alpha   89.12107348
_cell_angle_beta   90.00000000
_cell_angle_gamma   90.00000000
_symmetry_Int_Tables_number   1
_chemical_formula_structural   Fe7(SiO4)4
_chemical_formula_sum   'Fe14 Si8 O32'
_cell_volume   613.98693364
_cell_formula_units_Z   2
loop_
 _symmetry_equiv_pos_site_id
 _symmetry_equiv_pos_as_xyz
  1  'x, y, z'
loop_
 _atom_site_type_symbol
 _atom_site_label
 _atom_site_symmetry_multiplicity
 _atom_site_fract_x
 _atom_site_fract_y
 _atom_site_fract_z
 _atom_site_occupancy
  Fe  Fe0  1  0.50000000  0.50000000  0.50000000  1
  Fe  Fe1  1  0.00000000  0.00000000  0.50000000  1
  Fe  Fe2  1  0.00260300  0.00643400  0.23374400  1
  Fe  Fe3  1  0.99739700  0.99356600  0.76625600  1
  Fe  Fe4  1  0.50260300  0.49356600  0.76625600  1
  Fe  Fe5  1  0.49739700  0.50643400  0.23374400  1
  Fe  Fe6  1  0.51426400  0.77894200  0.37239100  1
  Fe  Fe7  1  0.48573600  0.22105800  0.62760900  1
  Fe  Fe8  1  0.01426400  0.72105800  0.62760900  1
  Fe  Fe9  1  0.98573600  0.27894200  0.37239100  1
  Fe  Fe10  1  0.00522900  0.72903600  0.11883300  1
  Fe  Fe11  1  0.99477100  0.27096400  0.88116700  1
  Fe  Fe12  1  0.50522900  0.77096400  0.88116700  1
  Fe  Fe13  1  0.49477100  0.22903600  0.11883300  1
  Si  Si14  1  0.07129300  0.59708000  0.37012700  1
  Si  Si15  1  0.92870700  0.40292000  0.62987300  1
  Si  Si16  1  0.57129300  0.90292000  0.62987300  1
  Si  Si17  1  0.42870700  0.09708000  0.37012700  1
  Si  Si18  1  0.56449900  0.90482000  0.11916600  1
  Si  Si19  1  0.43550100  0.09518000  0.88083400  1
  Si  Si20  1  0.06449900  0.59518000  0.88083400  1
  Si  Si21  1  0.93550100  0.40482000  0.11916600  1
  O  O22  1  0.73657100  0.59391700  0.37074200  1
  O  O23  1  0.26342900  0.40608300  0.62925800  1
  O  O24  1  0.23657100  0.90608300  0.62925800  1
  O  O25  1  0.76342900  0.09391700  0.37074200  1
  O  O26  1  0.26537200  0.39331600  0.12774900  1
  O  O27  1  0.73462800  0.60668400  0.87225100  1
  O  O28  1  0.76537200  0.10668400  0.87225100  1
  O  O29  1  0.23462800  0.89331600  0.12774900  1
  O  O30  1  0.67267600  0.05448200  0.12547800  1
  O  O31  1  0.32732400  0.94551800  0.87452200  1
  O  O32  1  0.17267600  0.44551800  0.87452200  1
  O  O33  1  0.82732400  0.55448200  0.12547800  1
  O  O34  1  0.28743300  0.95207800  0.37045000  1
  O  O35  1  0.71256700  0.04792200  0.62955000  1
  O  O36  1  0.78743300  0.54792200  0.62955000  1
  O  O37  1  0.21256700  0.45207800  0.37045000  1
  O  O38  1  0.79623200  0.32232500  0.01741200  1
  O  O39  1  0.20376800  0.67767500  0.98258800  1
  O  O40  1  0.29623200  0.17767500  0.98258800  1
  O  O41  1  0.70376800  0.82232500  0.01741200  1
  O  O42  1  0.21178900  0.66710300  0.47853600  1
  O  O43  1  0.78821100  0.33289700  0.52146400  1
  O  O44  1  0.71178900  0.83289700  0.52146400  1
  O  O45  1  0.28821100  0.16710300  0.47853600  1
  O  O46  1  0.73149100  0.83218400  0.22474300  1
  O  O47  1  0.26850900  0.16781600  0.77525700  1
  O  O48  1  0.23149100  0.66781600  0.77525700  1
  O  O49  1  0.76850900  0.33218400  0.22474300  1
  O  O50  1  0.28981600  0.16968800  0.25952600  1
  O  O51  1  0.71018400  0.83031200  0.74047400  1
  O  O52  1  0.78981600  0.33031200  0.74047400  1
  O  O53  1  0.21018400  0.66968800  0.25952600  1
