# generated using pymatgen
data_BiSO6
_symmetry_space_group_name_H-M   'P 1'
_cell_length_a   6.27005538
_cell_length_b   6.35128998
_cell_length_c   16.41655200
_cell_angle_alpha   90.00000000
_cell_angle_beta   90.00000000
_cell_angle_gamma   106.07200262
_symmetry_Int_Tables_number   1
_chemical_formula_structural   BiSO6
_chemical_formula_sum   'Bi4 S4 O24'
_cell_volume   628.20303967
_cell_formula_units_Z   4
loop_
 _symmetry_equiv_pos_site_id
 _symmetry_equiv_pos_as_xyz
  1  'x, y, z'
loop_
 _atom_site_type_symbol
 _atom_site_label
 _atom_site_symmetry_multiplicity
 _atom_site_fract_x
 _atom_site_fract_y
 _atom_site_fract_z
 _atom_site_occupancy
  Bi  Bi0  1  0.74035100  0.84329800  0.17921100  1
  Bi  Bi1  1  0.24035100  0.34329800  0.32078900  1
  Bi  Bi2  1  0.25964900  0.15670200  0.82078900  1
  Bi  Bi3  1  0.75964900  0.65670200  0.67921100  1
  S  S4  1  0.30699500  0.88453000  0.32748100  1
  S  S5  1  0.80699500  0.38453000  0.17251900  1
  S  S6  1  0.69300500  0.11547000  0.67251900  1
  S  S7  1  0.19300500  0.61547000  0.82748100  1
  O  O8  1  0.18030200  0.97265300  0.26401300  1
  O  O9  1  0.68030200  0.47265300  0.23598700  1
  O  O10  1  0.81969800  0.02734700  0.73598700  1
  O  O11  1  0.31969800  0.52734700  0.76401300  1
  O  O12  1  0.16447900  0.68060800  0.36501700  1
  O  O13  1  0.66447900  0.18060800  0.13498300  1
  O  O14  1  0.83552100  0.31939200  0.63498300  1
  O  O15  1  0.33552100  0.81939200  0.86501700  1
  O  O16  1  0.49948200  0.82300200  0.28916100  1
  O  O17  1  0.99948200  0.32300200  0.21083900  1
  O  O18  1  0.50051800  0.17699800  0.71083900  1
  O  O19  1  0.00051800  0.67699800  0.78916100  1
  O  O20  1  0.38513500  0.06269400  0.38827000  1
  O  O21  1  0.88513500  0.56269400  0.11173000  1
  O  O22  1  0.61486500  0.93730600  0.61173000  1
  O  O23  1  0.11486500  0.43730600  0.88827000  1
  O  O24  1  0.92704500  0.96386800  0.97433200  1
  O  O25  1  0.42704500  0.46386800  0.52566800  1
  O  O26  1  0.07295500  0.03613200  0.02566800  1
  O  O27  1  0.57295500  0.53613200  0.47433200  1
  O  O28  1  0.47644200  0.70816200  0.09820100  1
  O  O29  1  0.97644200  0.20816200  0.40179900  1
  O  O30  1  0.52355800  0.29183800  0.90179900  1
  O  O31  1  0.02355800  0.79183800  0.59820100  1
