# generated using pymatgen
data_Na2Mn3P2H2(C4O9)2
_symmetry_space_group_name_H-M   'P 1'
_cell_length_a   10.72445400
_cell_length_b   5.92915100
_cell_length_c   15.61734060
_cell_angle_alpha   75.26424635
_cell_angle_beta   90.00000000
_cell_angle_gamma   90.00000000
_symmetry_Int_Tables_number   1
_chemical_formula_structural   Na2Mn3P2H2(C4O9)2
_chemical_formula_sum   'Na4 Mn6 P4 H4 C16 O36'
_cell_volume   960.39591639
_cell_formula_units_Z   2
loop_
 _symmetry_equiv_pos_site_id
 _symmetry_equiv_pos_as_xyz
  1  'x, y, z'
loop_
 _atom_site_type_symbol
 _atom_site_label
 _atom_site_symmetry_multiplicity
 _atom_site_fract_x
 _atom_site_fract_y
 _atom_site_fract_z
 _atom_site_occupancy
  Na  Na0  1  0.24754500  0.69821200  0.67868700  1
  Na  Na1  1  0.25245500  0.69821200  0.17868700  1
  Na  Na2  1  0.75245500  0.30178800  0.32131300  1
  Na  Na3  1  0.74754500  0.30178800  0.82131300  1
  Mn  Mn4  1  0.05486500  0.16614100  0.74234200  1
  Mn  Mn5  1  0.44513500  0.16614100  0.24234200  1
  Mn  Mn6  1  0.94513500  0.83385900  0.25765800  1
  Mn  Mn7  1  0.55486500  0.83385900  0.75765800  1
  Mn  Mn8  1  0.50000000  0.00000000  0.00000000  1
  Mn  Mn9  1  0.00000000  0.00000000  0.50000000  1
  P  P10  1  0.18635600  0.11285500  0.95476000  1
  P  P11  1  0.31364400  0.11285500  0.45476000  1
  P  P12  1  0.81364400  0.88714500  0.04524000  1
  P  P13  1  0.68635600  0.88714500  0.54524000  1
  H  H14  1  0.06674200  0.95588800  0.07123700  1
  H  H15  1  0.43325800  0.95588800  0.57123700  1
  H  H16  1  0.93325800  0.04411200  0.92876300  1
  H  H17  1  0.56674200  0.04411200  0.42876300  1
  C  C18  1  0.84555400  0.82001200  0.76405000  1
  C  C19  1  0.65444600  0.82001200  0.26405000  1
  C  C20  1  0.15444600  0.17998800  0.23595000  1
  C  C21  1  0.34555400  0.17998800  0.73595000  1
  C  C22  1  0.96582700  0.68051200  0.75579900  1
  C  C23  1  0.53417300  0.68051200  0.25579900  1
  C  C24  1  0.03417300  0.31948800  0.24420100  1
  C  C25  1  0.46582700  0.31948800  0.74420100  1
  C  C26  1  0.03052700  0.47266700  0.54688600  1
  C  C27  1  0.46947300  0.47266700  0.04688600  1
  C  C28  1  0.96947300  0.52733300  0.45311400  1
  C  C29  1  0.53052700  0.52733300  0.95311400  1
  C  C30  1  0.16677000  0.41570600  0.95217300  1
  C  C31  1  0.33323000  0.41570600  0.45217300  1
  C  C32  1  0.83323000  0.58429400  0.04782700  1
  C  C33  1  0.66677000  0.58429400  0.54782700  1
  O  O34  1  0.32289700  0.07759000  0.93643600  1
  O  O35  1  0.17710300  0.07759000  0.43643600  1
  O  O36  1  0.67710300  0.92241000  0.06356400  1
  O  O37  1  0.82289700  0.92241000  0.56356400  1
  O  O38  1  0.08574500  0.06782600  0.89117400  1
  O  O39  1  0.41425500  0.06782600  0.39117400  1
  O  O40  1  0.91425500  0.93217400  0.10882600  1
  O  O41  1  0.58574500  0.93217400  0.60882600  1
  O  O42  1  0.15665000  0.95450400  0.05268400  1
  O  O43  1  0.34335000  0.95450400  0.55268400  1
  O  O44  1  0.84335000  0.04549600  0.94731600  1
  O  O45  1  0.65665000  0.04549600  0.44731600  1
  O  O46  1  0.85912400  0.03564500  0.75743700  1
  O  O47  1  0.64087600  0.03564500  0.25743700  1
  O  O48  1  0.14087600  0.96435500  0.24256300  1
  O  O49  1  0.35912400  0.96435500  0.74256300  1
  O  O50  1  0.74361100  0.70818700  0.77676900  1
  O  O51  1  0.75638900  0.70818700  0.27676900  1
  O  O52  1  0.25638900  0.29181300  0.22323100  1
  O  O53  1  0.24361100  0.29181300  0.72323100  1
  O  O54  1  0.95369400  0.46398500  0.76409200  1
  O  O55  1  0.54630600  0.46398500  0.26409200  1
  O  O56  1  0.04630600  0.53601500  0.23590800  1
  O  O57  1  0.45369400  0.53601500  0.73590800  1
  O  O58  1  0.06587000  0.79763900  0.74053900  1
  O  O59  1  0.43413000  0.79763900  0.24053900  1
  O  O60  1  0.93413000  0.20236100  0.25946100  1
  O  O61  1  0.56587000  0.20236100  0.75946100  1
  O  O62  1  0.06643800  0.64323500  0.57522500  1
  O  O63  1  0.43356200  0.64323500  0.07522500  1
  O  O64  1  0.93356200  0.35676500  0.42477500  1
  O  O65  1  0.56643800  0.35676500  0.92477500  1
  O  O66  1  0.03912600  0.25737600  0.58844000  1
  O  O67  1  0.46087400  0.25737600  0.08844000  1
  O  O68  1  0.96087400  0.74262400  0.41156000  1
  O  O69  1  0.53912600  0.74262400  0.91156000  1
