# generated using pymatgen
data_YC3O8
_symmetry_space_group_name_H-M   'P 1'
_cell_length_a   7.28704200
_cell_length_b   8.51269300
_cell_length_c   12.94914700
_cell_angle_alpha   90.00000000
_cell_angle_beta   90.00000000
_cell_angle_gamma   90.00000000
_symmetry_Int_Tables_number   1
_chemical_formula_structural   YC3O8
_chemical_formula_sum   'Y4 C12 O32'
_cell_volume   803.26603735
_cell_formula_units_Z   4
loop_
 _symmetry_equiv_pos_site_id
 _symmetry_equiv_pos_as_xyz
  1  'x, y, z'
loop_
 _atom_site_type_symbol
 _atom_site_label
 _atom_site_symmetry_multiplicity
 _atom_site_fract_x
 _atom_site_fract_y
 _atom_site_fract_z
 _atom_site_occupancy
  Y  Y0  1  0.26042600  0.03242400  0.70272300  1
  Y  Y1  1  0.76042600  0.46757600  0.29727700  1
  Y  Y2  1  0.73957400  0.53242400  0.79727700  1
  Y  Y3  1  0.23957400  0.96757600  0.20272300  1
  C  C4  1  0.97386700  0.86000900  0.76204700  1
  C  C5  1  0.47386700  0.63999100  0.23795300  1
  C  C6  1  0.02613300  0.36000900  0.73795300  1
  C  C7  1  0.52613300  0.13999100  0.26204700  1
  C  C8  1  0.40633100  0.78689200  0.95538700  1
  C  C9  1  0.90633100  0.71310800  0.04461300  1
  C  C10  1  0.59366900  0.28689200  0.54461300  1
  C  C11  1  0.09366900  0.21310800  0.45538700  1
  C  C12  1  0.04018700  0.76805600  0.39639900  1
  C  C13  1  0.54018700  0.73194400  0.60360100  1
  C  C14  1  0.95981300  0.26805600  0.10360100  1
  C  C15  1  0.45981300  0.23194400  0.89639900  1
  O  O16  1  0.96491900  0.95792200  0.68548900  1
  O  O17  1  0.46491900  0.54207800  0.31451100  1
  O  O18  1  0.03508100  0.45792200  0.81451100  1
  O  O19  1  0.53508100  0.04207800  0.18548900  1
  O  O20  1  0.83611500  0.77388800  0.78657500  1
  O  O21  1  0.33611500  0.72611200  0.21342500  1
  O  O22  1  0.16388500  0.27388800  0.71342500  1
  O  O23  1  0.66388500  0.22611200  0.28657500  1
  O  O24  1  0.47988400  0.70034500  0.89824800  1
  O  O25  1  0.97988400  0.79965500  0.10175200  1
  O  O26  1  0.52011600  0.20034500  0.60175200  1
  O  O27  1  0.02011600  0.29965500  0.39824800  1
  O  O28  1  0.33470600  0.87294000  0.01315300  1
  O  O29  1  0.83470600  0.62706000  0.98684700  1
  O  O30  1  0.66529400  0.37294000  0.48684700  1
  O  O31  1  0.16529400  0.12706000  0.51315300  1
  O  O32  1  0.10761000  0.76570600  0.48669200  1
  O  O33  1  0.60761000  0.73429400  0.51330800  1
  O  O34  1  0.89239000  0.26570600  0.01330800  1
  O  O35  1  0.39239000  0.23429400  0.98669200  1
  O  O36  1  0.44915200  0.85012100  0.63710600  1
  O  O37  1  0.94915200  0.64987900  0.36289400  1
  O  O38  1  0.55084800  0.35012100  0.86289400  1
  O  O39  1  0.05084800  0.14987900  0.13710600  1
  O  O40  1  0.12874600  0.85433900  0.81293300  1
  O  O41  1  0.62874600  0.64566100  0.18706700  1
  O  O42  1  0.87125400  0.35433900  0.68706700  1
  O  O43  1  0.37125400  0.14566100  0.31293300  1
  O  O44  1  0.56465300  0.60735400  0.65924900  1
  O  O45  1  0.06465300  0.89264600  0.34075100  1
  O  O46  1  0.43534700  0.10735400  0.84075100  1
  O  O47  1  0.93534700  0.39264600  0.15924900  1
