# generated using pymatgen
data_K3UC5O17
_symmetry_space_group_name_H-M   'P 1'
_cell_length_a   10.01034800
_cell_length_b   10.15400762
_cell_length_c   10.38499674
_cell_angle_alpha   96.54231603
_cell_angle_beta   105.02475670
_cell_angle_gamma   115.33486283
_symmetry_Int_Tables_number   1
_chemical_formula_structural   K3UC5O17
_chemical_formula_sum   'K6 U2 C10 O34'
_cell_volume   890.34773924
_cell_formula_units_Z   2
loop_
 _symmetry_equiv_pos_site_id
 _symmetry_equiv_pos_as_xyz
  1  'x, y, z'
loop_
 _atom_site_type_symbol
 _atom_site_label
 _atom_site_symmetry_multiplicity
 _atom_site_fract_x
 _atom_site_fract_y
 _atom_site_fract_z
 _atom_site_occupancy
  K  K0  1  0.74352000  0.32910600  0.47385800  1
  K  K1  1  0.25648000  0.67089400  0.52614200  1
  K  K2  1  0.07403600  0.04889500  0.85651600  1
  K  K3  1  0.92596400  0.95110500  0.14348400  1
  K  K4  1  0.18113500  0.45568300  0.10084300  1
  K  K5  1  0.81886500  0.54431700  0.89915700  1
  U  U6  1  0.47247700  0.13760400  0.75856900  1
  U  U7  1  0.52752300  0.86239600  0.24143100  1
  C  C8  1  0.17397800  0.11069700  0.50050600  1
  C  C9  1  0.82602200  0.88930300  0.49949400  1
  C  C10  1  0.18471000  0.95447000  0.45223200  1
  C  C11  1  0.81529000  0.04553000  0.54776800  1
  C  C12  1  0.69469900  0.97886300  0.83988900  1
  C  C13  1  0.30530100  0.02113700  0.16011100  1
  C  C14  1  0.79225600  0.14028800  0.94102600  1
  C  C15  1  0.20774400  0.85971200  0.05897400  1
  C  C16  1  0.44814600  0.41635300  0.95461400  1
  C  C17  1  0.55185400  0.58364700  0.04538600  1
  O  O18  1  0.35140000  0.03922800  0.85532500  1
  O  O19  1  0.64860000  0.96077200  0.14467500  1
  O  O20  1  0.59396000  0.24558800  0.66398900  1
  O  O21  1  0.40604000  0.75441200  0.33601100  1
  O  O22  1  0.26579400  0.18463800  0.62244600  1
  O  O23  1  0.73420600  0.81536200  0.37755400  1
  O  O24  1  0.29027800  0.94796900  0.54750100  1
  O  O25  1  0.70972200  0.05203100  0.45249900  1
  O  O26  1  0.08088000  0.13359300  0.41390100  1
  O  O27  1  0.91912000  0.86640700  0.58609900  1
  O  O28  1  0.09874500  0.86685700  0.33870000  1
  O  O29  1  0.90125500  0.13314300  0.66130000  1
  O  O30  1  0.56197300  0.95643900  0.75467300  1
  O  O31  1  0.43802700  0.04356100  0.24532700  1
  O  O32  1  0.72004000  0.21976200  0.93228300  1
  O  O33  1  0.27996000  0.78023800  0.06771700  1
  O  O34  1  0.74907000  0.88998800  0.84535600  1
  O  O35  1  0.25093000  0.11001200  0.15464400  1
  O  O36  1  0.92942400  0.18309200  0.01767400  1
  O  O37  1  0.07057600  0.81690800  0.98232600  1
  O  O38  1  0.52098100  0.36731700  0.89271700  1
  O  O39  1  0.47901900  0.63268300  0.10728300  1
  O  O40  1  0.30900900  0.34502800  0.94712100  1
  O  O41  1  0.69099100  0.65497200  0.05287900  1
  O  O42  1  0.82578100  0.44319700  0.23361700  1
  O  O43  1  0.17421900  0.55680300  0.76638300  1
  O  O44  1  0.04962200  0.47849400  0.78423400  1
  O  O45  1  0.95037800  0.52150600  0.21576600  1
  O  O46  1  0.41110600  0.41639700  0.33648500  1
  O  O47  1  0.58889400  0.58360300  0.66351500  1
  O  O48  1  0.44871800  0.53063100  0.65073300  1
  O  O49  1  0.55128200  0.46936900  0.34926700  1
  O  O50  1  0.02763200  0.36692500  0.40967600  1
  O  O51  1  0.97236800  0.63307500  0.59032400  1
