# generated using pymatgen
data_Gd2Fe14C
_symmetry_space_group_name_H-M   'P 1'
_cell_length_a   8.63720900
_cell_length_b   8.63720900
_cell_length_c   11.60581200
_cell_angle_alpha   90.00000000
_cell_angle_beta   90.00000000
_cell_angle_gamma   90.00000000
_symmetry_Int_Tables_number   1
_chemical_formula_structural   Gd2Fe14C
_chemical_formula_sum   'Gd8 Fe56 C4'
_cell_volume   865.80958321
_cell_formula_units_Z   4
loop_
 _symmetry_equiv_pos_site_id
 _symmetry_equiv_pos_as_xyz
  1  'x, y, z'
loop_
 _atom_site_type_symbol
 _atom_site_label
 _atom_site_symmetry_multiplicity
 _atom_site_fract_x
 _atom_site_fract_y
 _atom_site_fract_z
 _atom_site_occupancy
  Gd  Gd0  1  0.23863700  0.76136300  0.50000000  1
  Gd  Gd1  1  0.76136300  0.23863700  0.50000000  1
  Gd  Gd2  1  0.26136300  0.26136300  0.00000000  1
  Gd  Gd3  1  0.73863700  0.73863700  0.00000000  1
  Gd  Gd4  1  0.64232300  0.64232300  0.50000000  1
  Gd  Gd5  1  0.35767700  0.35767700  0.50000000  1
  Gd  Gd6  1  0.85767700  0.14232300  0.00000000  1
  Gd  Gd7  1  0.14232300  0.85767700  0.00000000  1
  Fe  Fe8  1  0.00000000  0.50000000  0.50000000  1
  Fe  Fe9  1  0.50000000  0.00000000  0.00000000  1
  Fe  Fe10  1  0.50000000  0.00000000  0.50000000  1
  Fe  Fe11  1  0.00000000  0.50000000  0.00000000  1
  Fe  Fe12  1  0.50000000  0.50000000  0.10821300  1
  Fe  Fe13  1  0.00000000  0.00000000  0.60821300  1
  Fe  Fe14  1  0.50000000  0.50000000  0.89178700  1
  Fe  Fe15  1  0.00000000  0.00000000  0.39178700  1
  Fe  Fe16  1  0.18462800  0.81537200  0.25494400  1
  Fe  Fe17  1  0.81537200  0.18462800  0.25494400  1
  Fe  Fe18  1  0.31537200  0.31537200  0.75494400  1
  Fe  Fe19  1  0.68462800  0.68462800  0.75494400  1
  Fe  Fe20  1  0.81537200  0.18462800  0.74505600  1
  Fe  Fe21  1  0.18462800  0.81537200  0.74505600  1
  Fe  Fe22  1  0.68462800  0.68462800  0.24505600  1
  Fe  Fe23  1  0.31537200  0.31537200  0.24505600  1
  Fe  Fe24  1  0.40476900  0.59523100  0.29326100  1
  Fe  Fe25  1  0.59523100  0.40476900  0.29326100  1
  Fe  Fe26  1  0.09523100  0.09523100  0.79326100  1
  Fe  Fe27  1  0.90476900  0.90476900  0.79326100  1
  Fe  Fe28  1  0.59523100  0.40476900  0.70673900  1
  Fe  Fe29  1  0.40476900  0.59523100  0.70673900  1
  Fe  Fe30  1  0.90476900  0.90476900  0.20673900  1
  Fe  Fe31  1  0.09523100  0.09523100  0.20673900  1
  Fe  Fe32  1  0.14545100  0.53328100  0.31936000  1
  Fe  Fe33  1  0.85454900  0.46671900  0.31936000  1
  Fe  Fe34  1  0.35454900  0.03328100  0.81936000  1
  Fe  Fe35  1  0.64545100  0.96671900  0.81936000  1
  Fe  Fe36  1  0.85454900  0.46671900  0.68064000  1
  Fe  Fe37  1  0.14545100  0.53328100  0.68064000  1
  Fe  Fe38  1  0.64545100  0.96671900  0.18064000  1
  Fe  Fe39  1  0.35454900  0.03328100  0.18064000  1
  Fe  Fe40  1  0.53328100  0.14545100  0.31936000  1
  Fe  Fe41  1  0.46671900  0.85454900  0.31936000  1
  Fe  Fe42  1  0.03328100  0.35454900  0.81936000  1
  Fe  Fe43  1  0.96671900  0.64545100  0.81936000  1
  Fe  Fe44  1  0.46671900  0.85454900  0.68064000  1
  Fe  Fe45  1  0.53328100  0.14545100  0.68064000  1
  Fe  Fe46  1  0.96671900  0.64545100  0.18064000  1
  Fe  Fe47  1  0.03328100  0.35454900  0.18064000  1
  Fe  Fe48  1  0.93410300  0.72687000  0.37637200  1
  Fe  Fe49  1  0.06589700  0.27313000  0.37637200  1
  Fe  Fe50  1  0.56589700  0.22687000  0.87637200  1
  Fe  Fe51  1  0.43410300  0.77313000  0.87637200  1
  Fe  Fe52  1  0.06589700  0.27313000  0.62362800  1
  Fe  Fe53  1  0.93410300  0.72687000  0.62362800  1
  Fe  Fe54  1  0.43410300  0.77313000  0.12362800  1
  Fe  Fe55  1  0.56589700  0.22687000  0.12362800  1
  Fe  Fe56  1  0.72687000  0.93410300  0.37637200  1
  Fe  Fe57  1  0.27313000  0.06589700  0.37637200  1
  Fe  Fe58  1  0.22687000  0.56589700  0.87637200  1
  Fe  Fe59  1  0.77313000  0.43410300  0.87637200  1
  Fe  Fe60  1  0.27313000  0.06589700  0.62362800  1
  Fe  Fe61  1  0.72687000  0.93410300  0.62362800  1
  Fe  Fe62  1  0.77313000  0.43410300  0.12362800  1
  Fe  Fe63  1  0.22687000  0.56589700  0.12362800  1
  C  C64  1  0.87240600  0.87240600  0.50000000  1
  C  C65  1  0.12759400  0.12759400  0.50000000  1
  C  C66  1  0.62759400  0.37240600  0.00000000  1
  C  C67  1  0.37240600  0.62759400  0.00000000  1
