# generated using pymatgen
data_FeI(NO)2
_symmetry_space_group_name_H-M   'P 1'
_cell_length_a   7.49585600
_cell_length_b   13.22566000
_cell_length_c   15.43123708
_cell_angle_alpha   56.28683729
_cell_angle_beta   90.00000000
_cell_angle_gamma   90.00000000
_symmetry_Int_Tables_number   1
_chemical_formula_structural   FeI(NO)2
_chemical_formula_sum   'Fe8 I8 N16 O16'
_cell_volume   1272.54208551
_cell_formula_units_Z   8
loop_
 _symmetry_equiv_pos_site_id
 _symmetry_equiv_pos_as_xyz
  1  'x, y, z'
loop_
 _atom_site_type_symbol
 _atom_site_label
 _atom_site_symmetry_multiplicity
 _atom_site_fract_x
 _atom_site_fract_y
 _atom_site_fract_z
 _atom_site_occupancy
  Fe  Fe0  1  0.43235800  0.05946500  0.37937300  1
  Fe  Fe1  1  0.93235800  0.94053500  0.12062700  1
  Fe  Fe2  1  0.56764200  0.94053500  0.62062700  1
  Fe  Fe3  1  0.06764200  0.05946500  0.87937300  1
  Fe  Fe4  1  0.92416700  0.56974200  0.05623900  1
  Fe  Fe5  1  0.42416700  0.43025800  0.44376100  1
  Fe  Fe6  1  0.07583300  0.43025800  0.94376100  1
  Fe  Fe7  1  0.57583300  0.56974200  0.55623900  1
  I  I8  1  0.73161200  0.11674600  0.44165100  1
  I  I9  1  0.23161200  0.88325400  0.05834900  1
  I  I10  1  0.26838800  0.88325400  0.55834900  1
  I  I11  1  0.76838800  0.11674600  0.94165100  1
  I  I12  1  0.77389900  0.38104300  0.05818500  1
  I  I13  1  0.27389900  0.61895700  0.44181500  1
  I  I14  1  0.22610100  0.61895700  0.94181500  1
  I  I15  1  0.72610100  0.38104300  0.55818500  1
  N  N16  1  0.29143900  0.19081600  0.31524300  1
  N  N17  1  0.79143900  0.80918400  0.18475700  1
  N  N18  1  0.70856100  0.80918400  0.68475700  1
  N  N19  1  0.20856100  0.19081600  0.81524300  1
  N  N20  1  0.49460800  0.99716100  0.30634900  1
  N  N21  1  0.99460800  0.00283900  0.19365100  1
  N  N22  1  0.50539200  0.00283900  0.69365100  1
  N  N23  1  0.00539200  0.99716100  0.80634900  1
  N  N24  1  0.77552700  0.69662300  0.99125700  1
  N  N25  1  0.27552700  0.30337700  0.50874300  1
  N  N26  1  0.22447300  0.30337700  0.00874300  1
  N  N27  1  0.72447300  0.69662300  0.49125700  1
  N  N28  1  0.97990300  0.52006900  0.18695700  1
  N  N29  1  0.47990300  0.47993100  0.31304300  1
  N  N30  1  0.02009700  0.47993100  0.81304300  1
  N  N31  1  0.52009700  0.52006900  0.68695700  1
  O  O32  1  0.21511800  0.27808500  0.24802200  1
  O  O33  1  0.71511800  0.72191500  0.25197800  1
  O  O34  1  0.78488200  0.72191500  0.75197800  1
  O  O35  1  0.28488200  0.27808500  0.74802200  1
  O  O36  1  0.52422400  0.97630700  0.24224200  1
  O  O37  1  0.02422400  0.02369300  0.25775800  1
  O  O38  1  0.47577600  0.02369300  0.75775800  1
  O  O39  1  0.97577600  0.97630700  0.74224200  1
  O  O40  1  0.67551800  0.77611500  0.97190800  1
  O  O41  1  0.17551800  0.22388500  0.52809200  1
  O  O42  1  0.32448200  0.22388500  0.02809200  1
  O  O43  1  0.82448200  0.77611500  0.47190800  1
  O  O44  1  0.98290100  0.50726600  0.26935300  1
  O  O45  1  0.48290100  0.49273400  0.23064700  1
  O  O46  1  0.01709900  0.49273400  0.73064700  1
  O  O47  1  0.51709900  0.50726600  0.76935300  1
