# generated using pymatgen
data_SrZnRu5O11
_symmetry_space_group_name_H-M   'P 1'
_cell_length_a   11.87183688
_cell_length_b   11.87183688
_cell_length_c   13.54247200
_cell_angle_alpha   90.00000000
_cell_angle_beta   90.00000000
_cell_angle_gamma   119.99999374
_symmetry_Int_Tables_number   1
_chemical_formula_structural   SrZnRu5O11
_chemical_formula_sum   'Sr8 Zn8 Ru40 O88'
_cell_volume   1652.96800200
_cell_formula_units_Z   8
loop_
 _symmetry_equiv_pos_site_id
 _symmetry_equiv_pos_as_xyz
  1  'x, y, z'
loop_
 _atom_site_type_symbol
 _atom_site_label
 _atom_site_symmetry_multiplicity
 _atom_site_fract_x
 _atom_site_fract_y
 _atom_site_fract_z
 _atom_site_occupancy
  Sr  Sr0  1  0.33333300  0.66666700  0.75000000  1
  Sr  Sr1  1  0.66666700  0.33333300  0.25000000  1
  Sr  Sr2  1  0.82265900  0.67666800  0.75000000  1
  Sr  Sr3  1  0.32333200  0.14599100  0.75000000  1
  Sr  Sr4  1  0.85400900  0.17734100  0.75000000  1
  Sr  Sr5  1  0.17734100  0.32333200  0.25000000  1
  Sr  Sr6  1  0.67666800  0.85400900  0.25000000  1
  Sr  Sr7  1  0.14599100  0.82265900  0.25000000  1
  Zn  Zn8  1  0.66666700  0.33333300  0.75000000  1
  Zn  Zn9  1  0.33333300  0.66666700  0.25000000  1
  Zn  Zn10  1  0.15060200  0.82259400  0.75000000  1
  Zn  Zn11  1  0.17740600  0.32800800  0.75000000  1
  Zn  Zn12  1  0.67199200  0.84939800  0.75000000  1
  Zn  Zn13  1  0.84939800  0.17740600  0.25000000  1
  Zn  Zn14  1  0.82259400  0.67199200  0.25000000  1
  Zn  Zn15  1  0.32800800  0.15060200  0.25000000  1
  Ru  Ru16  1  0.00000000  0.00000000  0.64784800  1
  Ru  Ru17  1  0.00000000  0.00000000  0.14784800  1
  Ru  Ru18  1  0.00000000  0.00000000  0.35215200  1
  Ru  Ru19  1  0.00000000  0.00000000  0.85215200  1
  Ru  Ru20  1  0.96949900  0.72965200  0.50464200  1
  Ru  Ru21  1  0.27034800  0.23984700  0.50464200  1
  Ru  Ru22  1  0.76015300  0.03050100  0.50464200  1
  Ru  Ru23  1  0.03050100  0.27034800  0.00464200  1
  Ru  Ru24  1  0.72965200  0.76015300  0.00464200  1
  Ru  Ru25  1  0.23984700  0.96949900  0.00464200  1
  Ru  Ru26  1  0.03050100  0.27034800  0.49535800  1
  Ru  Ru27  1  0.72965200  0.76015300  0.49535800  1
  Ru  Ru28  1  0.23984700  0.96949900  0.49535800  1
  Ru  Ru29  1  0.96949900  0.72965200  0.99535800  1
  Ru  Ru30  1  0.27034800  0.23984700  0.99535800  1
  Ru  Ru31  1  0.76015300  0.03050100  0.99535800  1
  Ru  Ru32  1  0.50806000  0.50976800  0.65591100  1
  Ru  Ru33  1  0.49023200  0.99829200  0.65591100  1
  Ru  Ru34  1  0.00170800  0.49194000  0.65591100  1
  Ru  Ru35  1  0.49194000  0.49023200  0.15591100  1
  Ru  Ru36  1  0.50976800  0.00170800  0.15591100  1
  Ru  Ru37  1  0.99829200  0.50806000  0.15591100  1
  Ru  Ru38  1  0.49194000  0.49023200  0.34408900  1
  Ru  Ru39  1  0.50976800  0.00170800  0.34408900  1
  Ru  Ru40  1  0.99829200  0.50806000  0.34408900  1
  Ru  Ru41  1  0.50806000  0.50976800  0.84408900  1
  Ru  Ru42  1  0.49023200  0.99829200  0.84408900  1
  Ru  Ru43  1  0.00170800  0.49194000  0.84408900  1
  Ru  Ru44  1  0.75431600  0.51006700  0.50121500  1
  Ru  Ru45  1  0.48993300  0.24424900  0.50121500  1
  Ru  Ru46  1  0.75575100  0.24568400  0.50121500  1
  Ru  Ru47  1  0.24568400  0.48993300  0.00121500  1
  Ru  Ru48  1  0.51006700  0.75575100  0.00121500  1
  Ru  Ru49  1  0.24424900  0.75431600  0.00121500  1
  Ru  Ru50  1  0.24568400  0.48993300  0.49878500  1
  Ru  Ru51  1  0.51006700  0.75575100  0.49878500  1
  Ru  Ru52  1  0.24424900  0.75431600  0.49878500  1
  Ru  Ru53  1  0.75431600  0.51006700  0.99878500  1
  Ru  Ru54  1  0.48993300  0.24424900  0.99878500  1
  Ru  Ru55  1  0.75575100  0.24568400  0.99878500  1
  O  O56  1  0.89190100  0.82641800  0.57866600  1
  O  O57  1  0.17358200  0.06548300  0.57866600  1
  O  O58  1  0.93451700  0.10809900  0.57866600  1
  O  O59  1  0.10809900  0.17358200  0.07866600  1
  O  O60  1  0.82641800  0.93451700  0.07866600  1
  O  O61  1  0.06548300  0.89190100  0.07866600  1
  O  O62  1  0.10809900  0.17358200  0.42133400  1
  O  O63  1  0.82641800  0.93451700  0.42133400  1
  O  O64  1  0.06548300  0.89190100  0.42133400  1
  O  O65  1  0.89190100  0.82641800  0.92133400  1
  O  O66  1  0.17358200  0.06548300  0.92133400  1
  O  O67  1  0.93451700  0.10809900  0.92133400  1
  O  O68  1  0.41597600  0.83059400  0.57620300  1
  O  O69  1  0.16940600  0.58538200  0.57620300  1
  O  O70  1  0.41461800  0.58402400  0.57620300  1
  O  O71  1  0.58402400  0.16940600  0.07620300  1
  O  O72  1  0.83059400  0.41461800  0.07620300  1
  O  O73  1  0.58538200  0.41597600  0.07620300  1
  O  O74  1  0.58402400  0.16940600  0.42379700  1
  O  O75  1  0.83059400  0.41461800  0.42379700  1
  O  O76  1  0.58538200  0.41597600  0.42379700  1
  O  O77  1  0.41597600  0.83059400  0.92379700  1
  O  O78  1  0.16940600  0.58538200  0.92379700  1
  O  O79  1  0.41461800  0.58402400  0.92379700  1
  O  O80  1  0.42182500  0.32538900  0.60001600  1
  O  O81  1  0.67461100  0.09643600  0.60001600  1
  O  O82  1  0.90356400  0.57817500  0.60001600  1
  O  O83  1  0.57817500  0.67461100  0.10001600  1
  O  O84  1  0.32538900  0.90356400  0.10001600  1
  O  O85  1  0.09643600  0.42182500  0.10001600  1
  O  O86  1  0.57817500  0.67461100  0.39998400  1
  O  O87  1  0.32538900  0.90356400  0.39998400  1
  O  O88  1  0.09643600  0.42182500  0.39998400  1
  O  O89  1  0.42182500  0.32538900  0.89998400  1
  O  O90  1  0.67461100  0.09643600  0.89998400  1
  O  O91  1  0.90356400  0.57817500  0.89998400  1
  O  O92  1  0.93007400  0.33785400  0.57016000  1
  O  O93  1  0.66214600  0.59222100  0.57016000  1
  O  O94  1  0.40777900  0.06992600  0.57016000  1
  O  O95  1  0.06992600  0.66214600  0.07016000  1
  O  O96  1  0.33785400  0.40777900  0.07016000  1
  O  O97  1  0.59222100  0.93007400  0.07016000  1
  O  O98  1  0.06992600  0.66214600  0.42984000  1
  O  O99  1  0.33785400  0.40777900  0.42984000  1
  O  O100  1  0.59222100  0.93007400  0.42984000  1
  O  O101  1  0.93007400  0.33785400  0.92984000  1
  O  O102  1  0.66214600  0.59222100  0.92984000  1
  O  O103  1  0.40777900  0.06992600  0.92984000  1
  O  O104  1  0.04649300  0.90310000  0.75000000  1
  O  O105  1  0.09690000  0.14339300  0.75000000  1
  O  O106  1  0.85660700  0.95350700  0.75000000  1
  O  O107  1  0.95350700  0.09690000  0.25000000  1
  O  O108  1  0.90310000  0.85660700  0.25000000  1
  O  O109  1  0.14339300  0.04649300  0.25000000  1
  O  O110  1  0.61398100  0.46213100  0.75000000  1
  O  O111  1  0.53786900  0.15185000  0.75000000  1
  O  O112  1  0.84815000  0.38601900  0.75000000  1
  O  O113  1  0.38601900  0.53786900  0.25000000  1
  O  O114  1  0.46213100  0.84815000  0.25000000  1
  O  O115  1  0.15185000  0.61398100  0.25000000  1
  O  O116  1  0.54882400  0.90579000  0.75000000  1
  O  O117  1  0.09421000  0.64303300  0.75000000  1
  O  O118  1  0.35696700  0.45117600  0.75000000  1
  O  O119  1  0.45117600  0.09421000  0.25000000  1
  O  O120  1  0.90579000  0.35696700  0.25000000  1
  O  O121  1  0.64303300  0.54882400  0.25000000  1
  O  O122  1  0.33572500  0.91854900  0.75000000  1
  O  O123  1  0.08145100  0.41717600  0.75000000  1
  O  O124  1  0.58282400  0.66427500  0.75000000  1
  O  O125  1  0.66427500  0.08145100  0.25000000  1
  O  O126  1  0.91854900  0.58282400  0.25000000  1
  O  O127  1  0.41717600  0.33572500  0.25000000  1
  O  O128  1  0.66666700  0.33333300  0.92650000  1
  O  O129  1  0.33333300  0.66666700  0.42650000  1
  O  O130  1  0.33333300  0.66666700  0.07350000  1
  O  O131  1  0.66666700  0.33333300  0.57350000  1
  O  O132  1  0.13994200  0.81160200  0.91640600  1
  O  O133  1  0.18839800  0.32834000  0.91640600  1
  O  O134  1  0.67166000  0.86005800  0.91640600  1
  O  O135  1  0.86005800  0.18839800  0.41640600  1
  O  O136  1  0.81160200  0.67166000  0.41640600  1
  O  O137  1  0.32834000  0.13994200  0.41640600  1
  O  O138  1  0.86005800  0.18839800  0.08359400  1
  O  O139  1  0.81160200  0.67166000  0.08359400  1
  O  O140  1  0.32834000  0.13994200  0.08359400  1
  O  O141  1  0.13994200  0.81160200  0.58359400  1
  O  O142  1  0.18839800  0.32834000  0.58359400  1
  O  O143  1  0.67166000  0.86005800  0.58359400  1
