# generated using pymatgen
data_NaBeSi3O8
_symmetry_space_group_name_H-M   'P 1'
_cell_length_a   7.32404608
_cell_length_b   7.32404608
_cell_length_c   15.51460183
_cell_angle_alpha   76.16481613
_cell_angle_beta   76.16481613
_cell_angle_gamma   54.92005503
_symmetry_Int_Tables_number   1
_chemical_formula_structural   NaBeSi3O8
_chemical_formula_sum   'Na4 Be4 Si12 O32'
_cell_volume   655.85786107
_cell_formula_units_Z   4
loop_
 _symmetry_equiv_pos_site_id
 _symmetry_equiv_pos_as_xyz
  1  'x, y, z'
loop_
 _atom_site_type_symbol
 _atom_site_label
 _atom_site_symmetry_multiplicity
 _atom_site_fract_x
 _atom_site_fract_y
 _atom_site_fract_z
 _atom_site_occupancy
  Na  Na0  1  0.94554200  0.87490900  0.60943700  1
  Na  Na1  1  0.12509100  0.05445800  0.89056300  1
  Na  Na2  1  0.05445800  0.12509100  0.39056300  1
  Na  Na3  1  0.87490900  0.94554200  0.10943700  1
  Be  Be4  1  0.80367900  0.64661900  0.74278200  1
  Be  Be5  1  0.35338100  0.19632100  0.75721800  1
  Be  Be6  1  0.19632100  0.35338100  0.25721800  1
  Be  Be7  1  0.64661900  0.80367900  0.24278200  1
  Si  Si8  1  0.00601800  0.33626900  0.59202400  1
  Si  Si9  1  0.66373100  0.99398200  0.90797600  1
  Si  Si10  1  0.99398200  0.66373100  0.40797600  1
  Si  Si11  1  0.33626900  0.00601800  0.09202400  1
  Si  Si12  1  0.39344000  0.90634900  0.65743600  1
  Si  Si13  1  0.09365100  0.60656000  0.84256400  1
  Si  Si14  1  0.60656000  0.09365100  0.34256400  1
  Si  Si15  1  0.90634900  0.39344000  0.15743600  1
  Si  Si16  1  0.52922300  0.44084200  0.60647100  1
  Si  Si17  1  0.55915800  0.47077700  0.89352900  1
  Si  Si18  1  0.47077700  0.55915800  0.39352900  1
  Si  Si19  1  0.44084200  0.52922300  0.10647100  1
  O  O20  1  0.96503900  0.45350700  0.67641900  1
  O  O21  1  0.54649300  0.03496100  0.82358100  1
  O  O22  1  0.03496100  0.54649300  0.32358100  1
  O  O23  1  0.45350700  0.96503900  0.17641900  1
  O  O24  1  0.65310700  0.82677900  0.65920700  1
  O  O25  1  0.17322100  0.34689300  0.84079300  1
  O  O26  1  0.34689300  0.17322100  0.34079300  1
  O  O27  1  0.82677900  0.65310700  0.15920700  1
  O  O28  1  0.00000000  0.50000000  0.50000000  1
  O  O29  1  0.50000000  0.00000000  0.00000000  1
  O  O30  1  0.42681700  0.30358500  0.66596800  1
  O  O31  1  0.69641500  0.57318300  0.83403200  1
  O  O32  1  0.57318300  0.69641500  0.33403200  1
  O  O33  1  0.30358500  0.42681700  0.16596800  1
  O  O34  1  0.24514400  0.09324900  0.57640000  1
  O  O35  1  0.90675100  0.75485600  0.92360000  1
  O  O36  1  0.75485600  0.90675100  0.42360000  1
  O  O37  1  0.09324900  0.24514400  0.07640000  1
  O  O38  1  0.80954000  0.28361900  0.60195200  1
  O  O39  1  0.71638100  0.19046000  0.89804800  1
  O  O40  1  0.19046000  0.71638100  0.39804800  1
  O  O41  1  0.28361900  0.80954000  0.10195200  1
  O  O42  1  0.50000000  0.50000000  0.50000000  1
  O  O43  1  0.50000000  0.50000000  0.00000000  1
  O  O44  1  0.40610100  0.68179500  0.64605100  1
  O  O45  1  0.31820500  0.59389900  0.85394900  1
  O  O46  1  0.59389900  0.31820500  0.35394900  1
  O  O47  1  0.68179500  0.40610100  0.14605100  1
  O  O48  1  0.96067100  0.73860700  0.75477800  1
  O  O49  1  0.26139300  0.03932900  0.74522200  1
  O  O50  1  0.03932900  0.26139300  0.24522200  1
  O  O51  1  0.73860700  0.96067100  0.25477800  1
