# generated using pymatgen
data_CaMgB2O5
_symmetry_space_group_name_H-M   'P 1'
_cell_length_a   5.53248321
_cell_length_b   11.19832759
_cell_length_c   36.53479257
_cell_angle_alpha   90.00000000
_cell_angle_beta   90.00000000
_cell_angle_gamma   90.00000000
_symmetry_Int_Tables_number   1
_chemical_formula_structural   CaMgB2O5
_chemical_formula_sum   'Ca24 Mg24 B48 O120'
_cell_volume   2263.49697541
_cell_formula_units_Z   24
loop_
 _symmetry_equiv_pos_site_id
 _symmetry_equiv_pos_as_xyz
  1  'x, y, z'
loop_
 _atom_site_type_symbol
 _atom_site_label
 _atom_site_symmetry_multiplicity
 _atom_site_fract_x
 _atom_site_fract_y
 _atom_site_fract_z
 _atom_site_occupancy
  Ca  Ca0  1  0.61497482  0.12699601  0.47036798  1
  Ca  Ca1  1  0.38502518  0.37300399  0.97036798  1
  Ca  Ca2  1  0.88502518  0.62699601  0.52963202  1
  Ca  Ca3  1  0.11497482  0.87300399  0.02963202  1
  Ca  Ca4  1  0.38502518  0.87300399  0.52963202  1
  Ca  Ca5  1  0.61497482  0.62699601  0.02963202  1
  Ca  Ca6  1  0.11497482  0.37300399  0.47036798  1
  Ca  Ca7  1  0.88502518  0.12699601  0.97036798  1
  Ca  Ca8  1  0.18533059  0.88186014  0.36407739  1
  Ca  Ca9  1  0.81466941  0.61813986  0.86407739  1
  Ca  Ca10  1  0.31466941  0.38186014  0.63592261  1
  Ca  Ca11  1  0.68533059  0.11813986  0.13592261  1
  Ca  Ca12  1  0.81466941  0.11813986  0.63592261  1
  Ca  Ca13  1  0.18533059  0.38186014  0.13592261  1
  Ca  Ca14  1  0.68533059  0.61813986  0.36407739  1
  Ca  Ca15  1  0.31466941  0.88186014  0.86407739  1
  Ca  Ca16  1  0.37187126  0.11937885  0.30249327  1
  Ca  Ca17  1  0.62812874  0.38062115  0.80249327  1
  Ca  Ca18  1  0.12812874  0.61937885  0.69750673  1
  Ca  Ca19  1  0.87187126  0.88062115  0.19750673  1
  Ca  Ca20  1  0.62812874  0.88062115  0.69750673  1
  Ca  Ca21  1  0.37187126  0.61937885  0.19750673  1
  Ca  Ca22  1  0.87187126  0.38062115  0.30249327  1
  Ca  Ca23  1  0.12812874  0.11937885  0.80249327  1
  Mg  Mg24  1  0.63941743  0.87186485  0.42079879  1
  Mg  Mg25  1  0.36058257  0.62813515  0.92079879  1
  Mg  Mg26  1  0.86058257  0.37186485  0.57920121  1
  Mg  Mg27  1  0.13941743  0.12813515  0.07920121  1
  Mg  Mg28  1  0.36058257  0.12813515  0.57920121  1
  Mg  Mg29  1  0.63941743  0.37186485  0.07920121  1
  Mg  Mg30  1  0.13941743  0.62813515  0.42079879  1
  Mg  Mg31  1  0.86058257  0.87186485  0.92079879  1
  Mg  Mg32  1  0.13525296  0.12821720  0.41209429  1
  Mg  Mg33  1  0.86474704  0.37178280  0.91209429  1
  Mg  Mg34  1  0.36474704  0.62821720  0.58790571  1
  Mg  Mg35  1  0.63525296  0.87178280  0.08790571  1
  Mg  Mg36  1  0.86474704  0.87178280  0.58790571  1
  Mg  Mg37  1  0.13525296  0.62821720  0.08790571  1
  Mg  Mg38  1  0.63525296  0.37178280  0.41209429  1
  Mg  Mg39  1  0.36474704  0.12821720  0.91209429  1
  Mg  Mg40  1  0.40667309  0.86910126  0.25435761  1
  Mg  Mg41  1  0.59332691  0.63089874  0.75435761  1
  Mg  Mg42  1  0.09332691  0.36910126  0.74564239  1
  Mg  Mg43  1  0.90667309  0.13089874  0.24564239  1
  Mg  Mg44  1  0.59332691  0.13089874  0.74564239  1
  Mg  Mg45  1  0.40667309  0.36910126  0.24564239  1
  Mg  Mg46  1  0.90667309  0.63089874  0.25435761  1
  Mg  Mg47  1  0.09332691  0.86910126  0.75435761  1
  B  B48  1  0.12256077  0.87567685  0.44175930  1
  B  B49  1  0.87743923  0.62432315  0.94175930  1
  B  B50  1  0.37743923  0.37567685  0.55824070  1
  B  B51  1  0.62256077  0.12432315  0.05824070  1
  B  B52  1  0.87743923  0.12432315  0.55824070  1
  B  B53  1  0.12256077  0.37567685  0.05824070  1
  B  B54  1  0.62256077  0.62432315  0.44175930  1
  B  B55  1  0.37743923  0.87567685  0.94175930  1
  B  B56  1  0.64198433  0.11576666  0.39154207  1
  B  B57  1  0.35801567  0.38423334  0.89154207  1
  B  B58  1  0.85801567  0.61576666  0.60845793  1
  B  B59  1  0.14198433  0.88423334  0.10845793  1
  B  B60  1  0.35801567  0.88423334  0.60845793  1
  B  B61  1  0.64198433  0.61576666  0.10845793  1
  B  B62  1  0.14198433  0.38423334  0.39154207  1
  B  B63  1  0.85801567  0.11576666  0.89154207  1
  B  B64  1  0.90593795  0.88346082  0.27628536  1
  B  B65  1  0.09406205  0.61653918  0.77628536  1
  B  B66  1  0.59406205  0.38346082  0.72371464  1
  B  B67  1  0.40593795  0.11653918  0.22371464  1
  B  B68  1  0.09406205  0.11653918  0.72371464  1
  B  B69  1  0.90593795  0.38346082  0.22371464  1
  B  B70  1  0.40593795  0.61653918  0.27628536  1
  B  B71  1  0.59406205  0.88346082  0.77628536  1
  B  B72  1  0.84848230  0.88040692  0.49622629  1
  B  B73  1  0.15151770  0.61959308  0.99622629  1
  B  B74  1  0.65151770  0.38040692  0.50377371  1
  B  B75  1  0.34848230  0.11959308  0.00377371  1
  B  B76  1  0.15151770  0.11959308  0.50377371  1
  B  B77  1  0.84848230  0.38040692  0.00377371  1
  B  B78  1  0.34848230  0.61959308  0.49622629  1
  B  B79  1  0.65151770  0.88040692  0.99622629  1
  B  B80  1  0.90413964  0.12315742  0.33658102  1
  B  B81  1  0.09586036  0.37684258  0.83658102  1
  B  B82  1  0.59586036  0.62315742  0.66341898  1
  B  B83  1  0.40413964  0.87684258  0.16341898  1
  B  B84  1  0.09586036  0.87684258  0.66341898  1
  B  B85  1  0.90413964  0.62315742  0.16341898  1
  B  B86  1  0.40413964  0.37684258  0.33658102  1
  B  B87  1  0.59586036  0.12315742  0.83658102  1
  B  B88  1  0.64287176  0.87705643  0.33039958  1
  B  B89  1  0.35712824  0.62294357  0.83039958  1
  B  B90  1  0.85712824  0.37705643  0.66960042  1
  B  B91  1  0.14287176  0.12294357  0.16960042  1
  B  B92  1  0.35712824  0.12294357  0.66960042  1
  B  B93  1  0.64287176  0.37705643  0.16960042  1
  B  B94  1  0.14287176  0.62294357  0.33039958  1
  B  B95  1  0.85712824  0.87705643  0.83039958  1
  O  O96  1  0.29363491  0.80183760  0.42699016  1
  O  O97  1  0.70636509  0.69816240  0.92699016  1
  O  O98  1  0.20636509  0.30183760  0.57300984  1
  O  O99  1  0.79363491  0.19816240  0.07300984  1
  O  O100  1  0.70636509  0.19816240  0.57300984  1
  O  O101  1  0.29363491  0.30183760  0.07300984  1
  O  O102  1  0.79363491  0.69816240  0.42699016  1
  O  O103  1  0.20636509  0.80183760  0.92699016  1
  O  O104  1  0.78162037  0.19540953  0.41072625  1
  O  O105  1  0.21837963  0.30459047  0.91072625  1
  O  O106  1  0.71837963  0.69540953  0.58927375  1
  O  O107  1  0.28162037  0.80459047  0.08927375  1
  O  O108  1  0.21837963  0.80459047  0.58927375  1
  O  O109  1  0.78162037  0.69540953  0.08927375  1
  O  O110  1  0.28162037  0.30459047  0.41072625  1
  O  O111  1  0.71837963  0.19540953  0.91072625  1
  O  O112  1  0.76210486  0.80406300  0.25770571  1
  O  O113  1  0.23789514  0.69593700  0.75770571  1
  O  O114  1  0.73789514  0.30406300  0.74229429  1
  O  O115  1  0.26210486  0.19593700  0.24229429  1
  O  O116  1  0.23789514  0.19593700  0.74229429  1
  O  O117  1  0.76210486  0.30406300  0.24229429  1
  O  O118  1  0.26210486  0.69593700  0.25770571  1
  O  O119  1  0.73789514  0.80406300  0.75770571  1
  O  O120  1  0.98811059  0.95013796  0.41985470  1
  O  O121  1  0.01188941  0.54986204  0.91985470  1
  O  O122  1  0.51188941  0.45013796  0.58014530  1
  O  O123  1  0.48811059  0.04986204  0.08014530  1
  O  O124  1  0.01188941  0.04986204  0.58014530  1
  O  O125  1  0.98811059  0.45013796  0.08014530  1
  O  O126  1  0.48811059  0.54986204  0.41985470  1
  O  O127  1  0.51188941  0.95013796  0.91985470  1
  O  O128  1  0.47698288  0.04416627  0.40918273  1
  O  O129  1  0.52301712  0.45583373  0.90918273  1
  O  O130  1  0.02301712  0.54416627  0.59081727  1
  O  O131  1  0.97698288  0.95583373  0.09081727  1
  O  O132  1  0.52301712  0.95583373  0.59081727  1
  O  O133  1  0.47698288  0.54416627  0.09081727  1
  O  O134  1  0.97698288  0.45583373  0.40918273  1
  O  O135  1  0.02301712  0.04416627  0.90918273  1
  O  O136  1  0.06806816  0.95481764  0.25801323  1
  O  O137  1  0.93193184  0.54518236  0.75801323  1
  O  O138  1  0.43193184  0.45481764  0.74198677  1
  O  O139  1  0.56806816  0.04518236  0.24198677  1
  O  O140  1  0.93193184  0.04518236  0.74198677  1
  O  O141  1  0.06806816  0.45481764  0.24198677  1
  O  O142  1  0.56806816  0.54518236  0.25801323  1
  O  O143  1  0.43193184  0.95481764  0.75801323  1
  O  O144  1  0.08375586  0.87250369  0.48030057  1
  O  O145  1  0.91624414  0.62749631  0.98030057  1
  O  O146  1  0.41624414  0.37250369  0.51969943  1
  O  O147  1  0.58375586  0.12749631  0.01969943  1
  O  O148  1  0.91624414  0.12749631  0.51969943  1
  O  O149  1  0.08375586  0.37250369  0.01969943  1
  O  O150  1  0.58375586  0.62749631  0.48030057  1
  O  O151  1  0.41624414  0.87250369  0.98030057  1
  O  O152  1  0.67172363  0.10754191  0.35323644  1
  O  O153  1  0.32827637  0.39245809  0.85323644  1
  O  O154  1  0.82827637  0.60754191  0.64676356  1
  O  O155  1  0.17172363  0.89245809  0.14676356  1
  O  O156  1  0.32827637  0.89245809  0.64676356  1
  O  O157  1  0.67172363  0.60754191  0.14676356  1
  O  O158  1  0.17172363  0.39245809  0.35323644  1
  O  O159  1  0.82827637  0.10754191  0.85323644  1
  O  O160  1  0.87886330  0.89089736  0.31475331  1
  O  O161  1  0.12113670  0.60910264  0.81475331  1
  O  O162  1  0.62113670  0.39089736  0.68524669  1
  O  O163  1  0.37886330  0.10910264  0.18524669  1
  O  O164  1  0.12113670  0.10910264  0.68524669  1
  O  O165  1  0.87886330  0.39089736  0.18524669  1
  O  O166  1  0.37886330  0.60910264  0.31475331  1
  O  O167  1  0.62113670  0.89089736  0.81475331  1
  O  O168  1  0.65257227  0.91755439  0.47679769  1
  O  O169  1  0.34742773  0.58244561  0.97679769  1
  O  O170  1  0.84742773  0.41755439  0.52320231  1
  O  O171  1  0.15257227  0.08244561  0.02320231  1
  O  O172  1  0.34742773  0.08244561  0.52320231  1
  O  O173  1  0.65257227  0.41755439  0.02320231  1
  O  O174  1  0.15257227  0.58244561  0.47679769  1
  O  O175  1  0.84742773  0.91755439  0.97679769  1
  O  O176  1  0.11018179  0.09578321  0.35529606  1
  O  O177  1  0.88981821  0.40421679  0.85529606  1
  O  O178  1  0.38981821  0.59578321  0.64470394  1
  O  O179  1  0.61018179  0.90421679  0.14470394  1
  O  O180  1  0.88981821  0.90421679  0.64470394  1
  O  O181  1  0.11018179  0.59578321  0.14470394  1
  O  O182  1  0.61018179  0.40421679  0.35529606  1
  O  O183  1  0.38981821  0.09578321  0.85529606  1
  O  O184  1  0.44216613  0.90916219  0.31085304  1
  O  O185  1  0.55783387  0.59083781  0.81085304  1
  O  O186  1  0.05783387  0.40916219  0.68914696  1
  O  O187  1  0.94216613  0.09083781  0.18914696  1
  O  O188  1  0.55783387  0.09083781  0.68914696  1
  O  O189  1  0.44216613  0.40916219  0.18914696  1
  O  O190  1  0.94216613  0.59083781  0.31085304  1
  O  O191  1  0.05783387  0.90916219  0.81085304  1
  O  O192  1  0.16884258  0.15847223  0.46837134  1
  O  O193  1  0.83115742  0.34152777  0.96837134  1
  O  O194  1  0.33115742  0.65847223  0.53162866  1
  O  O195  1  0.66884258  0.84152777  0.03162866  1
  O  O196  1  0.83115742  0.84152777  0.53162866  1
  O  O197  1  0.16884258  0.65847223  0.03162866  1
  O  O198  1  0.66884258  0.34152777  0.46837134  1
  O  O199  1  0.33115742  0.15847223  0.96837134  1
  O  O200  1  0.62984271  0.83078408  0.36489445  1
  O  O201  1  0.37015729  0.66921592  0.86489445  1
  O  O202  1  0.87015729  0.33078408  0.63510555  1
  O  O203  1  0.12984271  0.16921592  0.13510555  1
  O  O204  1  0.37015729  0.16921592  0.63510555  1
  O  O205  1  0.62984271  0.33078408  0.13510555  1
  O  O206  1  0.12984271  0.66921592  0.36489445  1
  O  O207  1  0.87015729  0.83078408  0.86489445  1
  O  O208  1  0.90421429  0.16694563  0.30171038  1
  O  O209  1  0.09578571  0.33305437  0.80171038  1
  O  O210  1  0.59578571  0.66694563  0.69828962  1
  O  O211  1  0.40421429  0.83305437  0.19828962  1
  O  O212  1  0.09578571  0.83305437  0.69828962  1
  O  O213  1  0.90421429  0.66694563  0.19828962  1
  O  O214  1  0.40421429  0.33305437  0.30171038  1
  O  O215  1  0.59578571  0.16694563  0.80171038  1
