# generated using pymatgen
data_UC4S2(NO5)2
_symmetry_space_group_name_H-M   'P 1'
_cell_length_a   6.01671400
_cell_length_b   9.36460472
_cell_length_c   16.28987229
_cell_angle_alpha   84.23101549
_cell_angle_beta   79.35772633
_cell_angle_gamma   71.26160742
_symmetry_Int_Tables_number   1
_chemical_formula_structural   UC4S2(NO5)2
_chemical_formula_sum   'U2 C8 S4 N4 O20'
_cell_volume   853.40150237
_cell_formula_units_Z   2
loop_
 _symmetry_equiv_pos_site_id
 _symmetry_equiv_pos_as_xyz
  1  'x, y, z'
loop_
 _atom_site_type_symbol
 _atom_site_label
 _atom_site_symmetry_multiplicity
 _atom_site_fract_x
 _atom_site_fract_y
 _atom_site_fract_z
 _atom_site_occupancy
  U  U0  1  0.50000000  0.00000000  0.50000000  1
  U  U1  1  0.00000000  0.50000000  0.00000000  1
  C  C2  1  0.91060000  0.98768700  0.16140900  1
  C  C3  1  0.05969700  0.51231300  0.33859100  1
  C  C4  1  0.08940000  0.01231300  0.83859100  1
  C  C5  1  0.94030300  0.48768700  0.66140900  1
  C  C6  1  0.06200300  0.04990600  0.21298600  1
  C  C7  1  0.32489500  0.45009400  0.28701400  1
  C  C8  1  0.93799700  0.95009400  0.78701400  1
  C  C9  1  0.67510500  0.54990600  0.71298600  1
  S  S10  1  0.81015100  0.02752800  0.26216600  1
  S  S11  1  0.09984400  0.47247200  0.23783400  1
  S  S12  1  0.18984900  0.97247200  0.73783400  1
  S  S13  1  0.90015600  0.52752800  0.76216600  1
  N  N14  1  0.63717800  0.25611800  0.53880400  1
  N  N15  1  0.43209900  0.24388200  0.96119600  1
  N  N16  1  0.36282200  0.74388200  0.46119600  1
  N  N17  1  0.56790100  0.75611800  0.03880400  1
  O  O18  1  0.21185100  0.12473000  0.48598000  1
  O  O19  1  0.82256100  0.37527000  0.01402000  1
  O  O20  1  0.78814900  0.87527000  0.51402000  1
  O  O21  1  0.17743900  0.62473000  0.98598000  1
  O  O22  1  0.55528500  0.17038100  0.59597900  1
  O  O23  1  0.32164500  0.32961900  0.90402100  1
  O  O24  1  0.44471500  0.82961900  0.40402100  1
  O  O25  1  0.67835500  0.67038100  0.09597900  1
  O  O26  1  0.65246500  0.21759200  0.46338100  1
  O  O27  1  0.33343800  0.28240800  0.03661900  1
  O  O28  1  0.34753500  0.78240800  0.53661900  1
  O  O29  1  0.66656200  0.71759200  0.96338100  1
  O  O30  1  0.64553400  0.03566300  0.34133600  1
  O  O31  1  0.02253400  0.46433700  0.15866400  1
  O  O32  1  0.35446600  0.96433700  0.65866400  1
  O  O33  1  0.97746600  0.53566300  0.84133600  1
  O  O34  1  0.69470500  0.36226700  0.55481100  1
  O  O35  1  0.61178300  0.13773300  0.94518900  1
  O  O36  1  0.30529500  0.63773300  0.44518900  1
  O  O37  1  0.38821700  0.86226700  0.05481100  1
