# generated using pymatgen
data_KSm2N7
_symmetry_space_group_name_H-M   'P 1'
_cell_length_a   6.46077300
_cell_length_b   12.32851800
_cell_length_c   15.00443100
_cell_angle_alpha   90.00000000
_cell_angle_beta   90.00000000
_cell_angle_gamma   90.00000000
_symmetry_Int_Tables_number   1
_chemical_formula_structural   KSm2N7
_chemical_formula_sum   'K4 Sm8 N28'
_cell_volume   1195.12928030
_cell_formula_units_Z   4
loop_
 _symmetry_equiv_pos_site_id
 _symmetry_equiv_pos_as_xyz
  1  'x, y, z'
loop_
 _atom_site_type_symbol
 _atom_site_label
 _atom_site_symmetry_multiplicity
 _atom_site_fract_x
 _atom_site_fract_y
 _atom_site_fract_z
 _atom_site_occupancy
  K  K0  1  0.67103900  0.81280000  0.50000000  1
  K  K1  1  0.32896100  0.18720000  0.50000000  1
  K  K2  1  0.17103900  0.68720000  0.00000000  1
  K  K3  1  0.82896100  0.31280000  0.00000000  1
  Sm  Sm4  1  0.61994100  0.33252400  0.72878300  1
  Sm  Sm5  1  0.38005900  0.66747600  0.72878300  1
  Sm  Sm6  1  0.11994100  0.16747600  0.77121700  1
  Sm  Sm7  1  0.88005900  0.83252400  0.77121700  1
  Sm  Sm8  1  0.38005900  0.66747600  0.27121700  1
  Sm  Sm9  1  0.61994100  0.33252400  0.27121700  1
  Sm  Sm10  1  0.88005900  0.83252400  0.22878300  1
  Sm  Sm11  1  0.11994100  0.16747600  0.22878300  1
  N  N12  1  0.50000000  0.50000000  0.75414400  1
  N  N13  1  0.00000000  0.00000000  0.74585600  1
  N  N14  1  0.50000000  0.50000000  0.24585600  1
  N  N15  1  0.00000000  0.00000000  0.25414400  1
  N  N16  1  0.84277900  0.21213000  0.61602300  1
  N  N17  1  0.15722100  0.78787000  0.61602300  1
  N  N18  1  0.34277900  0.28787000  0.88397700  1
  N  N19  1  0.65722100  0.71213000  0.88397700  1
  N  N20  1  0.15722100  0.78787000  0.38397700  1
  N  N21  1  0.84277900  0.21213000  0.38397700  1
  N  N22  1  0.65722100  0.71213000  0.11602300  1
  N  N23  1  0.34277900  0.28787000  0.11602300  1
  N  N24  1  0.36415300  0.23325500  0.67839900  1
  N  N25  1  0.63584700  0.76674500  0.67839900  1
  N  N26  1  0.86415300  0.26674500  0.82160100  1
  N  N27  1  0.13584700  0.73325500  0.82160100  1
  N  N28  1  0.63584700  0.76674500  0.32160100  1
  N  N29  1  0.36415300  0.23325500  0.32160100  1
  N  N30  1  0.13584700  0.73325500  0.17839900  1
  N  N31  1  0.86415300  0.26674500  0.17839900  1
  N  N32  1  0.40040900  0.37193700  0.90158600  1
  N  N33  1  0.59959100  0.62806300  0.90158600  1
  N  N34  1  0.90040900  0.12806300  0.59841400  1
  N  N35  1  0.09959100  0.87193700  0.59841400  1
  N  N36  1  0.59959100  0.62806300  0.09841400  1
  N  N37  1  0.40040900  0.37193700  0.09841400  1
  N  N38  1  0.09959100  0.87193700  0.40158600  1
  N  N39  1  0.90040900  0.12806300  0.40158600  1
