# generated using pymatgen
data_Bi2W2O9
_symmetry_space_group_name_H-M   'P 1'
_cell_length_a   5.45266100
_cell_length_b   5.45315000
_cell_length_c   24.55871800
_cell_angle_alpha   90.00000000
_cell_angle_beta   90.00000000
_cell_angle_gamma   90.00000000
_symmetry_Int_Tables_number   1
_chemical_formula_structural   Bi2W2O9
_chemical_formula_sum   'Bi8 W8 O36'
_cell_volume   730.23330062
_cell_formula_units_Z   4
loop_
 _symmetry_equiv_pos_site_id
 _symmetry_equiv_pos_as_xyz
  1  'x, y, z'
loop_
 _atom_site_type_symbol
 _atom_site_label
 _atom_site_symmetry_multiplicity
 _atom_site_fract_x
 _atom_site_fract_y
 _atom_site_fract_z
 _atom_site_occupancy
  Bi  Bi0  1  0.64419300  0.02180200  0.28989500  1
  Bi  Bi1  1  0.35580700  0.97819800  0.78989500  1
  Bi  Bi2  1  0.85580700  0.52180200  0.78989500  1
  Bi  Bi3  1  0.14419300  0.47819800  0.28989500  1
  Bi  Bi4  1  0.64209300  0.52177400  0.39570400  1
  Bi  Bi5  1  0.35790700  0.47822600  0.89570400  1
  Bi  Bi6  1  0.85790700  0.02177400  0.89570400  1
  Bi  Bi7  1  0.14209300  0.97822600  0.39570400  1
  W  W8  1  0.68007200  0.50145200  0.17067700  1
  W  W9  1  0.31992800  0.49854800  0.67067700  1
  W  W10  1  0.81992800  0.00145200  0.67067700  1
  W  W11  1  0.18007200  0.99854800  0.17067700  1
  W  W12  1  0.30706400  0.99848200  0.01679300  1
  W  W13  1  0.69293600  0.00151800  0.51679300  1
  W  W14  1  0.19293600  0.49848200  0.51679300  1
  W  W15  1  0.80706400  0.50151800  0.01679300  1
  O  O16  1  0.41387000  0.75855300  0.34247600  1
  O  O17  1  0.58613000  0.24144700  0.84247600  1
  O  O18  1  0.08613000  0.25855300  0.84247600  1
  O  O19  1  0.91387000  0.74144700  0.34247600  1
  O  O20  1  0.41358800  0.25881800  0.34357600  1
  O  O21  1  0.58641200  0.74118200  0.84357600  1
  O  O22  1  0.08641200  0.75881800  0.84357600  1
  O  O23  1  0.91358800  0.24118200  0.34357600  1
  O  O24  1  0.24289200  0.94495700  0.09391700  1
  O  O25  1  0.75710800  0.05504300  0.59391700  1
  O  O26  1  0.25710800  0.44495700  0.59391700  1
  O  O27  1  0.74289200  0.55504300  0.09391700  1
  O  O28  1  0.41404500  0.29569100  0.16121000  1
  O  O29  1  0.58595500  0.70430900  0.66121000  1
  O  O30  1  0.08595500  0.79569100  0.66121000  1
  O  O31  1  0.91404500  0.20430900  0.16121000  1
  O  O32  1  0.57002500  0.20818500  0.02709500  1
  O  O33  1  0.42997500  0.79181500  0.52709500  1
  O  O34  1  0.92997500  0.70818500  0.52709500  1
  O  O35  1  0.07002500  0.29181500  0.02709500  1
  O  O36  1  0.27320600  0.06757200  0.94111700  1
  O  O37  1  0.72679400  0.93242800  0.44111700  1
  O  O38  1  0.22679400  0.56757200  0.44111700  1
  O  O39  1  0.77320600  0.43242800  0.94111700  1
  O  O40  1  0.49249000  0.78719300  0.18179400  1
  O  O41  1  0.50751000  0.21280700  0.68179400  1
  O  O42  1  0.00751000  0.28719300  0.68179400  1
  O  O43  1  0.99249000  0.71280700  0.18179400  1
  O  O44  1  0.49886700  0.71594100  0.00636700  1
  O  O45  1  0.50113300  0.28405900  0.50636700  1
  O  O46  1  0.00113300  0.21594100  0.50636700  1
  O  O47  1  0.99886700  0.78405900  0.00636700  1
  O  O48  1  0.71712900  0.43165300  0.24637900  1
  O  O49  1  0.28287100  0.56834700  0.74637900  1
  O  O50  1  0.78287100  0.93165300  0.74637900  1
  O  O51  1  0.21712900  0.06834700  0.24637900  1
