# generated using pymatgen
data_Fe7Sb3P3(BrO6)3
_symmetry_space_group_name_H-M   'P 1'
_cell_length_a   5.25691000
_cell_length_b   15.23995300
_cell_length_c   26.22030200
_cell_angle_alpha   90.00000000
_cell_angle_beta   90.00000000
_cell_angle_gamma   90.00000000
_symmetry_Int_Tables_number   1
_chemical_formula_structural   Fe7Sb3P3(BrO6)3
_chemical_formula_sum   'Fe28 Sb12 P12 Br12 O72'
_cell_volume   2100.64110270
_cell_formula_units_Z   4
loop_
 _symmetry_equiv_pos_site_id
 _symmetry_equiv_pos_as_xyz
  1  'x, y, z'
loop_
 _atom_site_type_symbol
 _atom_site_label
 _atom_site_symmetry_multiplicity
 _atom_site_fract_x
 _atom_site_fract_y
 _atom_site_fract_z
 _atom_site_occupancy
  Fe  Fe0  1  0.19125400  0.35547000  0.07196900  1
  Fe  Fe1  1  0.69125400  0.14453000  0.42803100  1
  Fe  Fe2  1  0.80874600  0.85547000  0.92803100  1
  Fe  Fe3  1  0.30874600  0.64453000  0.57196900  1
  Fe  Fe4  1  0.80874600  0.64453000  0.92803100  1
  Fe  Fe5  1  0.30874600  0.85547000  0.57196900  1
  Fe  Fe6  1  0.19125400  0.14453000  0.07196900  1
  Fe  Fe7  1  0.69125400  0.35547000  0.42803100  1
  Fe  Fe8  1  0.19814300  0.93215600  0.28497300  1
  Fe  Fe9  1  0.69814300  0.56784400  0.21502700  1
  Fe  Fe10  1  0.80185700  0.43215600  0.71502700  1
  Fe  Fe11  1  0.30185700  0.06784400  0.78497300  1
  Fe  Fe12  1  0.80185700  0.06784400  0.71502700  1
  Fe  Fe13  1  0.30185700  0.43215600  0.78497300  1
  Fe  Fe14  1  0.19814300  0.56784400  0.28497300  1
  Fe  Fe15  1  0.69814300  0.93215600  0.21502700  1
  Fe  Fe16  1  0.30729300  0.96270700  0.89205100  1
  Fe  Fe17  1  0.80729300  0.53729300  0.60794900  1
  Fe  Fe18  1  0.69270700  0.46270700  0.10794900  1
  Fe  Fe19  1  0.19270700  0.03729300  0.39205100  1
  Fe  Fe20  1  0.69270700  0.03729300  0.10794900  1
  Fe  Fe21  1  0.19270700  0.46270700  0.39205100  1
  Fe  Fe22  1  0.30729300  0.53729300  0.89205100  1
  Fe  Fe23  1  0.80729300  0.96270700  0.60794900  1
  Fe  Fe24  1  0.58610100  0.75000000  0.75005200  1
  Fe  Fe25  1  0.08610100  0.75000000  0.74994800  1
  Fe  Fe26  1  0.41389900  0.25000000  0.24994800  1
  Fe  Fe27  1  0.91389900  0.25000000  0.25005200  1
  Sb  Sb28  1  0.74951600  0.44164600  0.97957600  1
  Sb  Sb29  1  0.24951600  0.05835400  0.52042400  1
  Sb  Sb30  1  0.25048400  0.94164600  0.02042400  1
  Sb  Sb31  1  0.75048400  0.55835400  0.47957600  1
  Sb  Sb32  1  0.25048400  0.55835400  0.02042400  1
  Sb  Sb33  1  0.75048400  0.94164600  0.47957600  1
  Sb  Sb34  1  0.74951600  0.05835400  0.97957600  1
  Sb  Sb35  1  0.24951600  0.44164600  0.52042400  1
  Sb  Sb36  1  0.72228000  0.75000000  0.29027400  1
  Sb  Sb37  1  0.22228000  0.75000000  0.20972600  1
  Sb  Sb38  1  0.27772000  0.25000000  0.70972600  1
  Sb  Sb39  1  0.77772000  0.25000000  0.79027400  1
  P  P40  1  0.81450300  0.75000000  0.62667300  1
  P  P41  1  0.31450300  0.75000000  0.87332700  1
  P  P42  1  0.18549700  0.25000000  0.37332700  1
  P  P43  1  0.68549700  0.25000000  0.12667300  1
  P  P44  1  0.68686000  0.06555200  0.31174600  1
  P  P45  1  0.18686000  0.43444800  0.18825400  1
  P  P46  1  0.31314000  0.56555200  0.68825400  1
  P  P47  1  0.81314000  0.93444800  0.81174600  1
  P  P48  1  0.31314000  0.93444800  0.68825400  1
  P  P49  1  0.81314000  0.56555200  0.81174600  1
  P  P50  1  0.68686000  0.43444800  0.31174600  1
  P  P51  1  0.18686000  0.06555200  0.18825400  1
  Br  Br52  1  0.36391500  0.13112600  0.87790900  1
  Br  Br53  1  0.86391500  0.36887400  0.62209100  1
  Br  Br54  1  0.63608500  0.63112600  0.12209100  1
  Br  Br55  1  0.13608500  0.86887400  0.37790900  1
  Br  Br56  1  0.63608500  0.86887400  0.12209100  1
  Br  Br57  1  0.13608500  0.63112600  0.37790900  1
  Br  Br58  1  0.36391500  0.36887400  0.87790900  1
  Br  Br59  1  0.86391500  0.13112600  0.62209100  1
  Br  Br60  1  0.37769200  0.75000000  0.49420200  1
  Br  Br61  1  0.87769200  0.75000000  0.00579800  1
  Br  Br62  1  0.62230800  0.25000000  0.50579800  1
  Br  Br63  1  0.12230800  0.25000000  0.99420200  1
  O  O64  1  0.05049500  0.52911200  0.95451300  1
  O  O65  1  0.55049500  0.97088800  0.54548700  1
  O  O66  1  0.94950500  0.02911200  0.04548700  1
  O  O67  1  0.44950500  0.47088800  0.45451300  1
  O  O68  1  0.94950500  0.47088800  0.04548700  1
  O  O69  1  0.44950500  0.02911200  0.45451300  1
  O  O70  1  0.05049500  0.97088800  0.95451300  1
  O  O71  1  0.55049500  0.52911200  0.54548700  1
  O  O72  1  0.46934900  0.83451500  0.25309300  1
  O  O73  1  0.96934900  0.66548500  0.24690700  1
  O  O74  1  0.53065100  0.33451500  0.74690700  1
  O  O75  1  0.03065100  0.16548500  0.75309300  1
  O  O76  1  0.53065100  0.16548500  0.74690700  1
  O  O77  1  0.03065100  0.33451500  0.75309300  1
  O  O78  1  0.46934900  0.66548500  0.25309300  1
  O  O79  1  0.96934900  0.83451500  0.24690700  1
  O  O80  1  0.54912700  0.55547900  0.96353200  1
  O  O81  1  0.04912700  0.94452100  0.53646800  1
  O  O82  1  0.45087300  0.05547900  0.03646800  1
  O  O83  1  0.95087300  0.44452100  0.46353200  1
  O  O84  1  0.45087300  0.44452100  0.03646800  1
  O  O85  1  0.95087300  0.05547900  0.46353200  1
  O  O86  1  0.54912700  0.94452100  0.96353200  1
  O  O87  1  0.04912700  0.55547900  0.53646800  1
  O  O88  1  0.83579400  0.75000000  0.68665100  1
  O  O89  1  0.33579400  0.75000000  0.81334900  1
  O  O90  1  0.16420600  0.25000000  0.31334900  1
  O  O91  1  0.66420600  0.25000000  0.18665100  1
  O  O92  1  0.66356800  0.83170200  0.60832400  1
  O  O93  1  0.16356800  0.66829800  0.89167600  1
  O  O94  1  0.33643200  0.33170200  0.39167600  1
  O  O95  1  0.83643200  0.16829800  0.10832400  1
  O  O96  1  0.33643200  0.16829800  0.39167600  1
  O  O97  1  0.83643200  0.33170200  0.10832400  1
  O  O98  1  0.66356800  0.66829800  0.60832400  1
  O  O99  1  0.16356800  0.83170200  0.89167600  1
  O  O100  1  0.08242500  0.75000000  0.60172600  1
  O  O101  1  0.58242500  0.75000000  0.89827400  1
  O  O102  1  0.91757500  0.25000000  0.39827400  1
  O  O103  1  0.41757500  0.25000000  0.10172600  1
  O  O104  1  0.41776700  0.02761700  0.32381300  1
  O  O105  1  0.91776700  0.47238300  0.17618700  1
  O  O106  1  0.58223300  0.52761700  0.67618700  1
  O  O107  1  0.08223300  0.97238300  0.82381300  1
  O  O108  1  0.58223300  0.97238300  0.67618700  1
  O  O109  1  0.08223300  0.52761700  0.82381300  1
  O  O110  1  0.41776700  0.47238300  0.32381300  1
  O  O111  1  0.91776700  0.02761700  0.17618700  1
  O  O112  1  0.83694700  0.99739100  0.27998600  1
  O  O113  1  0.33694700  0.50260900  0.22001400  1
  O  O114  1  0.16305300  0.49739100  0.72001400  1
  O  O115  1  0.66305300  0.00260900  0.77998600  1
  O  O116  1  0.16305300  0.00260900  0.72001400  1
  O  O117  1  0.66305300  0.49739100  0.77998600  1
  O  O118  1  0.83694700  0.50260900  0.27998600  1
  O  O119  1  0.33694700  0.99739100  0.22001400  1
  O  O120  1  0.83644400  0.07841000  0.36220500  1
  O  O121  1  0.33644400  0.42159000  0.13779500  1
  O  O122  1  0.16355600  0.57841000  0.63779500  1
  O  O123  1  0.66355600  0.92159000  0.86220500  1
  O  O124  1  0.16355600  0.92159000  0.63779500  1
  O  O125  1  0.66355600  0.57841000  0.86220500  1
  O  O126  1  0.83644400  0.42159000  0.36220500  1
  O  O127  1  0.33644400  0.07841000  0.13779500  1
  O  O128  1  0.66397800  0.15505900  0.28211800  1
  O  O129  1  0.16397800  0.34494100  0.21788200  1
  O  O130  1  0.33602200  0.65505900  0.71788200  1
  O  O131  1  0.83602200  0.84494100  0.78211800  1
  O  O132  1  0.33602200  0.84494100  0.71788200  1
  O  O133  1  0.83602200  0.65505900  0.78211800  1
  O  O134  1  0.66397800  0.34494100  0.28211800  1
  O  O135  1  0.16397800  0.15505900  0.21788200  1
