# generated using pymatgen
data_KFe3H(CO)11
_symmetry_space_group_name_H-M   'P 1'
_cell_length_a   12.47483600
_cell_length_b   9.19819100
_cell_length_c   15.67669107
_cell_angle_alpha   90.00000000
_cell_angle_beta   96.58200819
_cell_angle_gamma   90.00000000
_symmetry_Int_Tables_number   1
_chemical_formula_structural   KFe3H(CO)11
_chemical_formula_sum   'K4 Fe12 H4 C44 O44'
_cell_volume   1786.97993067
_cell_formula_units_Z   4
loop_
 _symmetry_equiv_pos_site_id
 _symmetry_equiv_pos_as_xyz
  1  'x, y, z'
loop_
 _atom_site_type_symbol
 _atom_site_label
 _atom_site_symmetry_multiplicity
 _atom_site_fract_x
 _atom_site_fract_y
 _atom_site_fract_z
 _atom_site_occupancy
  K  K0  1  0.70951100  0.68808000  0.02279700  1
  K  K1  1  0.29048900  0.18808000  0.47720300  1
  K  K2  1  0.29048900  0.31192000  0.97720300  1
  K  K3  1  0.70951100  0.81192000  0.52279700  1
  Fe  Fe4  1  0.86927400  0.19555700  0.28196700  1
  Fe  Fe5  1  0.13072600  0.69555700  0.21803300  1
  Fe  Fe6  1  0.13072600  0.80444300  0.71803300  1
  Fe  Fe7  1  0.86927400  0.30444300  0.78196700  1
  Fe  Fe8  1  0.71121400  0.27102800  0.39819200  1
  Fe  Fe9  1  0.28878600  0.77102800  0.10180800  1
  Fe  Fe10  1  0.28878600  0.72897200  0.60180800  1
  Fe  Fe11  1  0.71121400  0.22897200  0.89819200  1
  Fe  Fe12  1  0.63640800  0.19819300  0.24143500  1
  Fe  Fe13  1  0.36359200  0.69819300  0.25856500  1
  Fe  Fe14  1  0.36359200  0.80180700  0.75856500  1
  Fe  Fe15  1  0.63640800  0.30180700  0.74143500  1
  H  H16  1  0.65140100  0.34150600  0.30664300  1
  H  H17  1  0.34859900  0.84150600  0.19335700  1
  H  H18  1  0.34859900  0.65849400  0.69335700  1
  H  H19  1  0.65140100  0.15849400  0.80664300  1
  C  C20  1  0.84523300  0.38492400  0.25313400  1
  C  C21  1  0.15476700  0.88492400  0.24686600  1
  C  C22  1  0.15476700  0.61507600  0.74686600  1
  C  C23  1  0.84523300  0.11507600  0.75313400  1
  C  C24  1  0.91690700  0.14681600  0.17949800  1
  C  C25  1  0.08309300  0.64681600  0.32050200  1
  C  C26  1  0.08309300  0.85318400  0.82050200  1
  C  C27  1  0.91690700  0.35318400  0.67949800  1
  C  C28  1  0.99340900  0.23189600  0.35085700  1
  C  C29  1  0.00659100  0.73189600  0.14914300  1
  C  C30  1  0.00659100  0.76810400  0.64914300  1
  C  C31  1  0.99340900  0.26810400  0.85085700  1
  C  C32  1  0.86394900  0.00810800  0.31707300  1
  C  C33  1  0.13605100  0.50810800  0.18292700  1
  C  C34  1  0.13605100  0.99189200  0.68292700  1
  C  C35  1  0.86394900  0.49189200  0.81707300  1
  C  C36  1  0.76645000  0.45009500  0.41753900  1
  C  C37  1  0.23355000  0.95009500  0.08246100  1
  C  C38  1  0.23355000  0.54990500  0.58246100  1
  C  C39  1  0.76645000  0.04990500  0.91753900  1
  C  C40  1  0.80053200  0.16790700  0.47411700  1
  C  C41  1  0.19946800  0.66790700  0.02588300  1
  C  C42  1  0.19946800  0.83209300  0.52588300  1
  C  C43  1  0.80053200  0.33209300  0.97411700  1
  C  C44  1  0.64860300  0.08952800  0.34885200  1
  C  C45  1  0.35139700  0.58952800  0.15114800  1
  C  C46  1  0.35139700  0.91047200  0.65114800  1
  C  C47  1  0.64860300  0.41047200  0.84885200  1
  C  C48  1  0.59481600  0.29241900  0.45480300  1
  C  C49  1  0.40518400  0.79241900  0.04519700  1
  C  C50  1  0.40518400  0.70758100  0.54519700  1
  C  C51  1  0.59481600  0.20758100  0.95480300  1
  C  C52  1  0.49232200  0.17972400  0.23381700  1
  C  C53  1  0.50767800  0.67972400  0.26618300  1
  C  C54  1  0.50767800  0.82027600  0.76618300  1
  C  C55  1  0.49232200  0.32027600  0.73381700  1
  C  C56  1  0.66629200  0.04361700  0.17702100  1
  C  C57  1  0.33370800  0.54361700  0.32297900  1
  C  C58  1  0.33370800  0.95638300  0.82297900  1
  C  C59  1  0.66629200  0.45638300  0.67702100  1
  C  C60  1  0.63655200  0.34172800  0.16418300  1
  C  C61  1  0.36344800  0.84172800  0.33581700  1
  C  C62  1  0.36344800  0.65827200  0.83581700  1
  C  C63  1  0.63655200  0.15827200  0.66418300  1
  O  O64  1  0.84159900  0.50629100  0.23215000  1
  O  O65  1  0.15840100  0.00629100  0.26785000  1
  O  O66  1  0.15840100  0.49370900  0.76785000  1
  O  O67  1  0.84159900  0.99370900  0.73215000  1
  O  O68  1  0.94819200  0.11392600  0.11552800  1
  O  O69  1  0.05180800  0.61392600  0.38447200  1
  O  O70  1  0.05180800  0.88607400  0.88447200  1
  O  O71  1  0.94819200  0.38607400  0.61552800  1
  O  O72  1  0.07418500  0.25314600  0.39377900  1
  O  O73  1  0.92581500  0.75314600  0.10622100  1
  O  O74  1  0.92581500  0.74685400  0.60622100  1
  O  O75  1  0.07418500  0.24685400  0.89377900  1
  O  O76  1  0.86682400  0.88755500  0.33931100  1
  O  O77  1  0.13317600  0.38755500  0.16068900  1
  O  O78  1  0.13317600  0.11244500  0.66068900  1
  O  O79  1  0.86682400  0.61244500  0.83931100  1
  O  O80  1  0.79442300  0.56814300  0.43700000  1
  O  O81  1  0.20557700  0.06814300  0.06300000  1
  O  O82  1  0.20557700  0.43185700  0.56300000  1
  O  O83  1  0.79442300  0.93185700  0.93700000  1
  O  O84  1  0.85103900  0.09356900  0.52437800  1
  O  O85  1  0.14896100  0.59356900  0.97562200  1
  O  O86  1  0.14896100  0.90643100  0.47562200  1
  O  O87  1  0.85103900  0.40643100  0.02437800  1
  O  O88  1  0.63104800  0.96976000  0.37504600  1
  O  O89  1  0.36895200  0.46976000  0.12495400  1
  O  O90  1  0.36895200  0.03024000  0.62495400  1
  O  O91  1  0.63104800  0.53024000  0.87504600  1
  O  O92  1  0.51572900  0.30265900  0.48792000  1
  O  O93  1  0.48427100  0.80265900  0.01208000  1
  O  O94  1  0.48427100  0.69734100  0.51208000  1
  O  O95  1  0.51572900  0.19734100  0.98792000  1
  O  O96  1  0.39915700  0.16541300  0.22904900  1
  O  O97  1  0.60084300  0.66541300  0.27095100  1
  O  O98  1  0.60084300  0.83458700  0.77095100  1
  O  O99  1  0.39915700  0.33458700  0.72904900  1
  O  O100  1  0.68083400  0.94309900  0.13404100  1
  O  O101  1  0.31916600  0.44309900  0.36595900  1
  O  O102  1  0.31916600  0.05690100  0.86595900  1
  O  O103  1  0.68083400  0.55690100  0.63404100  1
  O  O104  1  0.62837500  0.43752000  0.11473300  1
  O  O105  1  0.37162500  0.93752000  0.38526700  1
  O  O106  1  0.37162500  0.56248000  0.88526700  1
  O  O107  1  0.62837500  0.06248000  0.61473300  1
