# generated using pymatgen
data_Na3Th10BeF45
_symmetry_space_group_name_H-M   'P 1'
_cell_length_a   11.95133169
_cell_length_b   11.95133169
_cell_length_c   23.66826598
_cell_angle_alpha   90.00000000
_cell_angle_beta   90.00000000
_cell_angle_gamma   90.00000000
_symmetry_Int_Tables_number   1
_chemical_formula_structural   Na3Th10BeF45
_chemical_formula_sum   'Na12 Th40 Be4 F180'
_cell_volume   3380.64089374
_cell_formula_units_Z   4
loop_
 _symmetry_equiv_pos_site_id
 _symmetry_equiv_pos_as_xyz
  1  'x, y, z'
loop_
 _atom_site_type_symbol
 _atom_site_label
 _atom_site_symmetry_multiplicity
 _atom_site_fract_x
 _atom_site_fract_y
 _atom_site_fract_z
 _atom_site_occupancy
  Na  Na0  1  0.75000000  0.75000000  0.55371900  1
  Na  Na1  1  0.75000000  0.75000000  0.05371900  1
  Na  Na2  1  0.25000000  0.25000000  0.44628100  1
  Na  Na3  1  0.25000000  0.25000000  0.94628100  1
  Na  Na4  1  0.58503658  0.58503658  0.30129100  1
  Na  Na5  1  0.58503658  0.91496342  0.80129100  1
  Na  Na6  1  0.91496342  0.58503658  0.80129100  1
  Na  Na7  1  0.91496342  0.91496342  0.30129100  1
  Na  Na8  1  0.41496342  0.41496342  0.69870900  1
  Na  Na9  1  0.41496342  0.08503658  0.19870900  1
  Na  Na10  1  0.08503658  0.41496342  0.19870900  1
  Na  Na11  1  0.08503658  0.08503658  0.69870900  1
  Th  Th12  1  0.01566184  0.75793063  0.95194460  1
  Th  Th13  1  0.01566184  0.74206937  0.45194460  1
  Th  Th14  1  0.48433816  0.75793063  0.45194460  1
  Th  Th15  1  0.48433816  0.74206937  0.95194460  1
  Th  Th16  1  0.75793063  0.01566184  0.95194460  1
  Th  Th17  1  0.74206937  0.01566184  0.45194460  1
  Th  Th18  1  0.75793063  0.48433816  0.45194460  1
  Th  Th19  1  0.74206937  0.48433816  0.95194460  1
  Th  Th20  1  0.98433816  0.24206937  0.04805540  1
  Th  Th21  1  0.98433816  0.25793063  0.54805540  1
  Th  Th22  1  0.51566184  0.24206937  0.54805540  1
  Th  Th23  1  0.51566184  0.25793063  0.04805540  1
  Th  Th24  1  0.24206937  0.98433816  0.04805540  1
  Th  Th25  1  0.25793063  0.98433816  0.54805540  1
  Th  Th26  1  0.24206937  0.51566184  0.54805540  1
  Th  Th27  1  0.25793063  0.51566184  0.04805540  1
  Th  Th28  1  0.48063826  0.74471375  0.64688864  1
  Th  Th29  1  0.48063826  0.75528625  0.14688864  1
  Th  Th30  1  0.01936174  0.74471375  0.14688864  1
  Th  Th31  1  0.01936174  0.75528625  0.64688864  1
  Th  Th32  1  0.74471375  0.48063826  0.64688864  1
  Th  Th33  1  0.75528625  0.48063826  0.14688864  1
  Th  Th34  1  0.74471375  0.01936174  0.14688864  1
  Th  Th35  1  0.75528625  0.01936174  0.64688864  1
  Th  Th36  1  0.51936174  0.25528625  0.35311136  1
  Th  Th37  1  0.51936174  0.24471375  0.85311136  1
  Th  Th38  1  0.98063826  0.25528625  0.85311136  1
  Th  Th39  1  0.98063826  0.24471375  0.35311136  1
  Th  Th40  1  0.25528625  0.51936174  0.35311136  1
  Th  Th41  1  0.24471375  0.51936174  0.85311136  1
  Th  Th42  1  0.25528625  0.98063826  0.85311136  1
  Th  Th43  1  0.24471375  0.98063826  0.35311136  1
  Th  Th44  1  0.60588155  0.60588155  0.80037475  1
  Th  Th45  1  0.60588155  0.89411845  0.30037475  1
  Th  Th46  1  0.89411845  0.60588155  0.30037475  1
  Th  Th47  1  0.89411845  0.89411845  0.80037475  1
  Th  Th48  1  0.39411845  0.39411845  0.19962525  1
  Th  Th49  1  0.39411845  0.10588155  0.69962525  1
  Th  Th50  1  0.10588155  0.39411845  0.69962525  1
  Th  Th51  1  0.10588155  0.10588155  0.19962525  1
  Be  Be52  1  0.75000000  0.25000000  0.25000000  1
  Be  Be53  1  0.75000000  0.25000000  0.75000000  1
  Be  Be54  1  0.25000000  0.75000000  0.25000000  1
  Be  Be55  1  0.25000000  0.75000000  0.75000000  1
  F  F56  1  0.65762449  0.65762449  0.63308104  1
  F  F57  1  0.65762449  0.84237551  0.13308104  1
  F  F58  1  0.84237551  0.65762449  0.13308104  1
  F  F59  1  0.84237551  0.84237551  0.63308104  1
  F  F60  1  0.34237551  0.34237551  0.36691896  1
  F  F61  1  0.34237551  0.15762449  0.86691896  1
  F  F62  1  0.15762449  0.34237551  0.86691896  1
  F  F63  1  0.15762449  0.15762449  0.36691896  1
  F  F64  1  0.66626502  0.66626502  0.97190941  1
  F  F65  1  0.66626502  0.83373498  0.47190941  1
  F  F66  1  0.83373498  0.66626502  0.47190941  1
  F  F67  1  0.83373498  0.83373498  0.97190941  1
  F  F68  1  0.33373498  0.33373498  0.02809059  1
  F  F69  1  0.33373498  0.16626502  0.52809059  1
  F  F70  1  0.16626502  0.33373498  0.52809059  1
  F  F71  1  0.16626502  0.16626502  0.02809059  1
  F  F72  1  0.54657692  0.54657692  0.70618780  1
  F  F73  1  0.54657692  0.95342308  0.20618780  1
  F  F74  1  0.95342308  0.54657692  0.20618780  1
  F  F75  1  0.95342308  0.95342308  0.70618780  1
  F  F76  1  0.45342308  0.45342308  0.29381220  1
  F  F77  1  0.45342308  0.04657692  0.79381220  1
  F  F78  1  0.04657692  0.45342308  0.79381220  1
  F  F79  1  0.04657692  0.04657692  0.29381220  1
  F  F80  1  0.55875579  0.55875579  0.90089989  1
  F  F81  1  0.55875579  0.94124421  0.40089989  1
  F  F82  1  0.94124421  0.55875579  0.40089989  1
  F  F83  1  0.94124421  0.94124421  0.90089989  1
  F  F84  1  0.44124421  0.44124421  0.09910011  1
  F  F85  1  0.44124421  0.05875579  0.59910011  1
  F  F86  1  0.05875579  0.44124421  0.59910011  1
  F  F87  1  0.05875579  0.05875579  0.09910011  1
  F  F88  1  0.60181761  0.60181761  0.46083090  1
  F  F89  1  0.60181761  0.89818239  0.96083090  1
  F  F90  1  0.89818239  0.60181761  0.96083090  1
  F  F91  1  0.89818239  0.89818239  0.46083090  1
  F  F92  1  0.39818239  0.39818239  0.53916910  1
  F  F93  1  0.39818239  0.10181761  0.03916910  1
  F  F94  1  0.10181761  0.39818239  0.03916910  1
  F  F95  1  0.10181761  0.10181761  0.53916910  1
  F  F96  1  0.61642443  0.61642443  0.13400985  1
  F  F97  1  0.61642443  0.88357557  0.63400985  1
  F  F98  1  0.88357557  0.61642443  0.63400985  1
  F  F99  1  0.88357557  0.88357557  0.13400985  1
  F  F100  1  0.38357557  0.38357557  0.86599015  1
  F  F101  1  0.38357557  0.11642443  0.36599015  1
  F  F102  1  0.11642443  0.38357557  0.36599015  1
  F  F103  1  0.11642443  0.11642443  0.86599015  1
  F  F104  1  0.41129812  0.58870188  -0.00000000  1
  F  F105  1  0.41129812  0.91129812  0.50000000  1
  F  F106  1  0.08870188  0.58870188  0.50000000  1
  F  F107  1  0.08870188  0.91129812  -0.00000000  1
  F  F108  1  0.58870188  0.41129812  -0.00000000  1
  F  F109  1  0.91129812  0.41129812  0.50000000  1
  F  F110  1  0.58870188  0.08870188  0.50000000  1
  F  F111  1  0.91129812  0.08870188  -0.00000000  1
  F  F112  1  0.33989144  0.66010856  0.50000000  1
  F  F113  1  0.33989144  0.83989144  -0.00000000  1
  F  F114  1  0.16010856  0.66010856  -0.00000000  1
  F  F115  1  0.16010856  0.83989144  0.50000000  1
  F  F116  1  0.66010856  0.33989144  0.50000000  1
  F  F117  1  0.83989144  0.33989144  -0.00000000  1
  F  F118  1  0.66010856  0.16010856  -0.00000000  1
  F  F119  1  0.83989144  0.16010856  0.50000000  1
  F  F120  1  0.75000000  0.75000000  0.79873745  1
  F  F121  1  0.75000000  0.75000000  0.29873745  1
  F  F122  1  0.25000000  0.25000000  0.20126255  1
  F  F123  1  0.25000000  0.25000000  0.70126255  1
  F  F124  1  0.08587254  0.91973509  0.80720531  1
  F  F125  1  0.08587254  0.58026491  0.30720531  1
  F  F126  1  0.41412746  0.91973509  0.30720531  1
  F  F127  1  0.41412746  0.58026491  0.80720531  1
  F  F128  1  0.91973509  0.08587254  0.80720531  1
  F  F129  1  0.58026491  0.08587254  0.30720531  1
  F  F130  1  0.91973509  0.41412746  0.30720531  1
  F  F131  1  0.58026491  0.41412746  0.80720531  1
  F  F132  1  0.91412746  0.08026491  0.19279469  1
  F  F133  1  0.91412746  0.41973509  0.69279469  1
  F  F134  1  0.58587254  0.08026491  0.69279469  1
  F  F135  1  0.58587254  0.41973509  0.19279469  1
  F  F136  1  0.08026491  0.91412746  0.19279469  1
  F  F137  1  0.41973509  0.91412746  0.69279469  1
  F  F138  1  0.08026491  0.58587254  0.69279469  1
  F  F139  1  0.41973509  0.58587254  0.19279469  1
  F  F140  1  0.75826647  0.55951528  0.85965701  1
  F  F141  1  0.75826647  0.94048472  0.35965701  1
  F  F142  1  0.74173353  0.55951528  0.35965701  1
  F  F143  1  0.74173353  0.94048472  0.85965701  1
  F  F144  1  0.55951528  0.75826647  0.85965701  1
  F  F145  1  0.94048472  0.75826647  0.35965701  1
  F  F146  1  0.55951528  0.74173353  0.35965701  1
  F  F147  1  0.94048472  0.74173353  0.85965701  1
  F  F148  1  0.24173353  0.44048472  0.14034299  1
  F  F149  1  0.24173353  0.05951528  0.64034299  1
  F  F150  1  0.25826647  0.44048472  0.64034299  1
  F  F151  1  0.25826647  0.05951528  0.14034299  1
  F  F152  1  0.44048472  0.24173353  0.14034299  1
  F  F153  1  0.05951528  0.24173353  0.64034299  1
  F  F154  1  0.44048472  0.25826647  0.64034299  1
  F  F155  1  0.05951528  0.25826647  0.14034299  1
  F  F156  1  0.75709209  0.55682916  0.73959046  1
  F  F157  1  0.75709209  0.94317084  0.23959046  1
  F  F158  1  0.74290791  0.55682916  0.23959046  1
  F  F159  1  0.74290791  0.94317084  0.73959046  1
  F  F160  1  0.55682916  0.75709209  0.73959046  1
  F  F161  1  0.94317084  0.75709209  0.23959046  1
  F  F162  1  0.55682916  0.74290791  0.23959046  1
  F  F163  1  0.94317084  0.74290791  0.73959046  1
  F  F164  1  0.24290791  0.44317084  0.26040954  1
  F  F165  1  0.24290791  0.05682916  0.76040954  1
  F  F166  1  0.25709209  0.44317084  0.76040954  1
  F  F167  1  0.25709209  0.05682916  0.26040954  1
  F  F168  1  0.44317084  0.24290791  0.26040954  1
  F  F169  1  0.05682916  0.24290791  0.76040954  1
  F  F170  1  0.44317084  0.25709209  0.76040954  1
  F  F171  1  0.05682916  0.25709209  0.26040954  1
  F  F172  1  0.09333746  0.60534309  0.89419473  1
  F  F173  1  0.09333746  0.89465691  0.39419473  1
  F  F174  1  0.40666254  0.60534309  0.39419473  1
  F  F175  1  0.40666254  0.89465691  0.89419473  1
  F  F176  1  0.60534309  0.09333746  0.89419473  1
  F  F177  1  0.89465691  0.09333746  0.39419473  1
  F  F178  1  0.60534309  0.40666254  0.39419473  1
  F  F179  1  0.89465691  0.40666254  0.89419473  1
  F  F180  1  0.90666254  0.39465691  0.10580527  1
  F  F181  1  0.90666254  0.10534309  0.60580527  1
  F  F182  1  0.59333746  0.39465691  0.60580527  1
  F  F183  1  0.59333746  0.10534309  0.10580527  1
  F  F184  1  0.39465691  0.90666254  0.10580527  1
  F  F185  1  0.10534309  0.90666254  0.60580527  1
  F  F186  1  0.39465691  0.59333746  0.60580527  1
  F  F187  1  0.10534309  0.59333746  0.10580527  1
  F  F188  1  0.33512624  0.66462015  0.90150872  1
  F  F189  1  0.33512624  0.83537985  0.40150872  1
  F  F190  1  0.16487376  0.66462015  0.40150872  1
  F  F191  1  0.16487376  0.83537985  0.90150872  1
  F  F192  1  0.66462015  0.33512624  0.90150872  1
  F  F193  1  0.83537985  0.33512624  0.40150872  1
  F  F194  1  0.66462015  0.16487376  0.40150872  1
  F  F195  1  0.83537985  0.16487376  0.90150872  1
  F  F196  1  0.66487376  0.33537985  0.09849128  1
  F  F197  1  0.66487376  0.16462015  0.59849128  1
  F  F198  1  0.83512624  0.33537985  0.59849128  1
  F  F199  1  0.83512624  0.16462015  0.09849128  1
  F  F200  1  0.33537985  0.66487376  0.09849128  1
  F  F201  1  0.16462015  0.66487376  0.59849128  1
  F  F202  1  0.33537985  0.83512624  0.59849128  1
  F  F203  1  0.16462015  0.83512624  0.09849128  1
  F  F204  1  0.33744502  0.69325063  0.70960645  1
  F  F205  1  0.33744502  0.80674937  0.20960645  1
  F  F206  1  0.16255498  0.69325063  0.20960645  1
  F  F207  1  0.16255498  0.80674937  0.70960645  1
  F  F208  1  0.69325063  0.33744502  0.70960645  1
  F  F209  1  0.80674937  0.33744502  0.20960645  1
  F  F210  1  0.69325063  0.16255498  0.20960645  1
  F  F211  1  0.80674937  0.16255498  0.70960645  1
  F  F212  1  0.66255498  0.30674937  0.29039355  1
  F  F213  1  0.66255498  0.19325063  0.79039355  1
  F  F214  1  0.83744502  0.30674937  0.79039355  1
  F  F215  1  0.83744502  0.19325063  0.29039355  1
  F  F216  1  0.30674937  0.66255498  0.29039355  1
  F  F217  1  0.19325063  0.66255498  0.79039355  1
  F  F218  1  0.30674937  0.83744502  0.79039355  1
  F  F219  1  0.19325063  0.83744502  0.29039355  1
  F  F220  1  0.53265389  0.74486677  0.54951351  1
  F  F221  1  0.53265389  0.75513323  0.04951351  1
  F  F222  1  0.96734611  0.74486677  0.04951351  1
  F  F223  1  0.96734611  0.75513323  0.54951351  1
  F  F224  1  0.74486677  0.53265389  0.54951351  1
  F  F225  1  0.75513323  0.53265389  0.04951351  1
  F  F226  1  0.74486677  0.96734611  0.04951351  1
  F  F227  1  0.75513323  0.96734611  0.54951351  1
  F  F228  1  0.46734611  0.25513323  0.45048649  1
  F  F229  1  0.46734611  0.24486677  0.95048649  1
  F  F230  1  0.03265389  0.25513323  0.95048649  1
  F  F231  1  0.03265389  0.24486677  0.45048649  1
  F  F232  1  0.25513323  0.46734611  0.45048649  1
  F  F233  1  0.24486677  0.46734611  0.95048649  1
  F  F234  1  0.25513323  0.03265389  0.95048649  1
  F  F235  1  0.24486677  0.03265389  0.45048649  1
