# generated using pymatgen
data_CaAl2(Si2O7)2
_symmetry_space_group_name_H-M   'P 1'
_cell_length_a   10.03255162
_cell_length_b   10.03255162
_cell_length_c   7.58251406
_cell_angle_alpha   74.39628326
_cell_angle_beta   74.39628326
_cell_angle_gamma   83.13670420
_symmetry_Int_Tables_number   1
_chemical_formula_structural   CaAl2(Si2O7)2
_chemical_formula_sum   'Ca2 Al4 Si8 O28'
_cell_volume   707.06247971
_cell_formula_units_Z   2
loop_
 _symmetry_equiv_pos_site_id
 _symmetry_equiv_pos_as_xyz
  1  'x, y, z'
loop_
 _atom_site_type_symbol
 _atom_site_label
 _atom_site_symmetry_multiplicity
 _atom_site_fract_x
 _atom_site_fract_y
 _atom_site_fract_z
 _atom_site_occupancy
  Ca  Ca0  1  0.25934700  0.25934700  0.75290200  1
  Ca  Ca1  1  0.75190700  0.75190700  0.23062300  1
  Al  Al2  1  0.94077400  0.32631000  0.75064900  1
  Al  Al3  1  0.32631000  0.94077400  0.75064900  1
  Al  Al4  1  0.68328000  0.06861600  0.22054700  1
  Al  Al5  1  0.06861600  0.68328000  0.22054700  1
  Si  Si6  1  0.12643100  0.36034600  0.33045900  1
  Si  Si7  1  0.36034600  0.12643100  0.33045900  1
  Si  Si8  1  0.96779700  0.20257800  0.16169900  1
  Si  Si9  1  0.20257800  0.96779700  0.16169900  1
  Si  Si10  1  0.80452200  0.03930300  0.81053900  1
  Si  Si11  1  0.03930300  0.80452200  0.81053900  1
  Si  Si12  1  0.64715500  0.88201400  0.64490600  1
  Si  Si13  1  0.88201400  0.64715500  0.64490600  1
  O  O14  1  0.26778200  0.26778200  0.25895700  1
  O  O15  1  0.09526000  0.33859400  0.56017100  1
  O  O16  1  0.33859400  0.09526000  0.56017100  1
  O  O17  1  0.03135900  0.27243800  0.93491100  1
  O  O18  1  0.27243800  0.03135900  0.93491100  1
  O  O19  1  0.99557300  0.30402300  0.28421700  1
  O  O20  1  0.30402300  0.99557300  0.28421700  1
  O  O21  1  0.85461100  0.48742000  0.74758500  1
  O  O22  1  0.48742000  0.85461100  0.74758500  1
  O  O23  1  0.05367700  0.05367700  0.21790700  1
  O  O24  1  0.83289400  0.20022500  0.76269500  1
  O  O25  1  0.20022500  0.83289400  0.76269500  1
  O  O26  1  0.80599900  0.18061000  0.20542200  1
  O  O27  1  0.18061000  0.80599900  0.20542200  1
  O  O28  1  0.94868900  0.94868900  0.74743500  1
  O  O29  1  0.74039900  0.97670900  0.03909600  1
  O  O30  1  0.97670900  0.74039900  0.03909600  1
  O  O31  1  0.69393200  0.01435100  0.69935700  1
  O  O32  1  0.01435100  0.69393200  0.69935700  1
  O  O33  1  0.52009300  0.14857000  0.21963100  1
  O  O34  1  0.14857000  0.52009300  0.21963100  1
  O  O35  1  0.67580900  0.91666200  0.41356400  1
  O  O36  1  0.91666200  0.67580900  0.41356400  1
  O  O37  1  0.74277900  0.74277900  0.71572100  1
  O  O38  1  0.73723300  0.50673500  0.22095600  1
  O  O39  1  0.50673500  0.73723300  0.22095600  1
  O  O40  1  0.47982400  0.27936800  0.83182300  1
  O  O41  1  0.27936800  0.47982400  0.83182300  1
