# generated using pymatgen
data_Cd2Se3N2O15
_symmetry_space_group_name_H-M   'P 1'
_cell_length_a   19.00007400
_cell_length_b   5.49395100
_cell_length_c   7.05788878
_cell_angle_alpha   87.53802603
_cell_angle_beta   90.00000000
_cell_angle_gamma   90.00000000
_symmetry_Int_Tables_number   1
_chemical_formula_structural   Cd2Se3N2O15
_chemical_formula_sum   'Cd4 Se6 N4 O30'
_cell_volume   736.06102829
_cell_formula_units_Z   2
loop_
 _symmetry_equiv_pos_site_id
 _symmetry_equiv_pos_as_xyz
  1  'x, y, z'
loop_
 _atom_site_type_symbol
 _atom_site_label
 _atom_site_symmetry_multiplicity
 _atom_site_fract_x
 _atom_site_fract_y
 _atom_site_fract_z
 _atom_site_occupancy
  Cd  Cd0  1  0.57361700  0.78451700  0.26201800  1
  Cd  Cd1  1  0.07361700  0.21548300  0.73798200  1
  Cd  Cd2  1  0.42638300  0.21548300  0.73798200  1
  Cd  Cd3  1  0.92638300  0.78451700  0.26201800  1
  Se  Se4  1  0.25000000  0.07353500  0.61121700  1
  Se  Se5  1  0.75000000  0.92646500  0.38878300  1
  Se  Se6  1  0.54224600  0.71248900  0.76500300  1
  Se  Se7  1  0.04224600  0.28751100  0.23499700  1
  Se  Se8  1  0.45775400  0.28751100  0.23499700  1
  Se  Se9  1  0.95775400  0.71248900  0.76500300  1
  N  N10  1  0.68655600  0.34705700  0.86532300  1
  N  N11  1  0.18655600  0.65294300  0.13467700  1
  N  N12  1  0.31344400  0.65294300  0.13467700  1
  N  N13  1  0.81344400  0.34705700  0.86532300  1
  O  O14  1  0.25000000  0.37857200  0.53353000  1
  O  O15  1  0.75000000  0.62142800  0.46647000  1
  O  O16  1  0.25000000  0.91279300  0.42042800  1
  O  O17  1  0.75000000  0.08720700  0.57957200  1
  O  O18  1  0.31913400  0.02077200  0.75560500  1
  O  O19  1  0.81913400  0.97922800  0.24439500  1
  O  O20  1  0.68086600  0.97922800  0.24439500  1
  O  O21  1  0.18086600  0.02077200  0.75560500  1
  O  O22  1  0.46466600  0.83390300  0.82635700  1
  O  O23  1  0.96466600  0.16609700  0.17364300  1
  O  O24  1  0.53533400  0.16609700  0.17364300  1
  O  O25  1  0.03533400  0.83390300  0.82635700  1
  O  O26  1  0.47069200  0.57937000  0.28797200  1
  O  O27  1  0.97069200  0.42063000  0.71202800  1
  O  O28  1  0.52930800  0.42063000  0.71202800  1
  O  O29  1  0.02930800  0.57937000  0.28797200  1
  O  O30  1  0.57788100  0.86690900  0.57970300  1
  O  O31  1  0.07788100  0.13309100  0.42029700  1
  O  O32  1  0.42211900  0.13309100  0.42029700  1
  O  O33  1  0.92211900  0.86690900  0.57970300  1
  O  O34  1  0.59867200  0.72443600  0.94795000  1
  O  O35  1  0.09867200  0.27556400  0.05205000  1
  O  O36  1  0.40132800  0.27556400  0.05205000  1
  O  O37  1  0.90132800  0.72443600  0.94795000  1
  O  O38  1  0.64990000  0.46225900  0.37264400  1
  O  O39  1  0.14990000  0.53774100  0.62735600  1
  O  O40  1  0.35010000  0.53774100  0.62735600  1
  O  O41  1  0.85010000  0.46225900  0.37264400  1
  O  O42  1  0.25000000  0.64849300  0.13049000  1
  O  O43  1  0.75000000  0.35150700  0.86951000  1
