# generated using pymatgen
data_B10H13Br
_symmetry_space_group_name_H-M   'P 1'
_cell_length_a   7.81242300
_cell_length_b   11.50939800
_cell_length_c   12.76349826
_cell_angle_alpha   64.78757773
_cell_angle_beta   90.00000000
_cell_angle_gamma   90.00000000
_symmetry_Int_Tables_number   1
_chemical_formula_structural   B10H13Br
_chemical_formula_sum   'B40 H52 Br4'
_cell_volume   1038.31550186
_cell_formula_units_Z   4
loop_
 _symmetry_equiv_pos_site_id
 _symmetry_equiv_pos_as_xyz
  1  'x, y, z'
loop_
 _atom_site_type_symbol
 _atom_site_label
 _atom_site_symmetry_multiplicity
 _atom_site_fract_x
 _atom_site_fract_y
 _atom_site_fract_z
 _atom_site_occupancy
  B  B0  1  0.84703200  0.18409400  0.14247700  1
  B  B1  1  0.34703200  0.31590600  0.85752300  1
  B  B2  1  0.15296800  0.81590600  0.85752300  1
  B  B3  1  0.65296800  0.68409400  0.14247700  1
  B  B4  1  0.97250600  0.10583800  0.26956600  1
  B  B5  1  0.47250600  0.39416200  0.73043400  1
  B  B6  1  0.02749400  0.89416200  0.73043400  1
  B  B7  1  0.52749400  0.60583800  0.26956600  1
  B  B8  1  0.76065200  0.15410700  0.28033600  1
  B  B9  1  0.26065200  0.34589300  0.71966400  1
  B  B10  1  0.23934800  0.84589300  0.71966400  1
  B  B11  1  0.73934800  0.65410700  0.28033600  1
  B  B12  1  0.62269400  0.16438500  0.16634200  1
  B  B13  1  0.12269400  0.33561500  0.83365800  1
  B  B14  1  0.37730600  0.83561500  0.83365800  1
  B  B15  1  0.87730600  0.66438500  0.16634200  1
  B  B16  1  0.96875400  0.05043000  0.15787200  1
  B  B17  1  0.46875400  0.44957000  0.84212800  1
  B  B18  1  0.03124600  0.94957000  0.84212800  1
  B  B19  1  0.53124600  0.55043000  0.15787200  1
  B  B20  1  0.98000100  0.94332600  0.30819700  1
  B  B21  1  0.48000100  0.55667400  0.69180300  1
  B  B22  1  0.01999900  0.05667400  0.69180300  1
  B  B23  1  0.51999900  0.44332600  0.30819700  1
  B  B24  1  0.82767700  0.00129400  0.37854900  1
  B  B25  1  0.32767700  0.49870600  0.62145100  1
  B  B26  1  0.17232300  0.99870600  0.62145100  1
  B  B27  1  0.67232300  0.50129400  0.37854900  1
  B  B28  1  0.59595800  0.04139100  0.31036300  1
  B  B29  1  0.09595800  0.45860900  0.68963700  1
  B  B30  1  0.40404200  0.95860900  0.68963700  1
  B  B31  1  0.90404200  0.54139100  0.31036300  1
  B  B32  1  0.55849800  0.01343400  0.18548300  1
  B  B33  1  0.05849800  0.48656600  0.81451700  1
  B  B34  1  0.44150200  0.98656600  0.81451700  1
  B  B35  1  0.94150200  0.51343400  0.18548300  1
  B  B36  1  0.73543700  0.08678700  0.09126800  1
  B  B37  1  0.23543700  0.41321300  0.90873200  1
  B  B38  1  0.26456300  0.91321300  0.90873200  1
  B  B39  1  0.76456300  0.58678700  0.09126800  1
  H  H40  1  0.90069300  0.28301800  0.07009400  1
  H  H41  1  0.40069300  0.21698200  0.92990600  1
  H  H42  1  0.09930700  0.71698200  0.92990600  1
  H  H43  1  0.59930700  0.78301800  0.07009400  1
  H  H44  1  0.09131900  0.15896600  0.28857600  1
  H  H45  1  0.59131900  0.34103400  0.71142400  1
  H  H46  1  0.90868100  0.84103400  0.71142400  1
  H  H47  1  0.40868100  0.65896600  0.28857600  1
  H  H48  1  0.74353800  0.22767100  0.32336300  1
  H  H49  1  0.24353800  0.27232900  0.67663700  1
  H  H50  1  0.25646200  0.77232900  0.67663700  1
  H  H51  1  0.75646200  0.72767100  0.32336300  1
  H  H52  1  0.52896500  0.25420400  0.12274800  1
  H  H53  1  0.02896500  0.24579600  0.87725100  1
  H  H54  1  0.47103500  0.74579600  0.87725100  1
  H  H55  1  0.97103500  0.75420400  0.12274800  1
  H  H56  1  0.08655500  0.05677400  0.09604100  1
  H  H57  1  0.58655500  0.44322600  0.90395900  1
  H  H58  1  0.91344500  0.94322600  0.90395900  1
  H  H59  1  0.41344500  0.55677400  0.09604100  1
  H  H60  1  0.84032900  0.96861300  0.47991500  1
  H  H61  1  0.34032900  0.53138700  0.52008500  1
  H  H62  1  0.15967100  0.03138700  0.52008500  1
  H  H63  1  0.65967100  0.46861300  0.47991500  1
  H  H64  1  0.48076000  0.03306900  0.37426500  1
  H  H65  1  0.98076000  0.46693100  0.62573500  1
  H  H66  1  0.51924000  0.96693100  0.62573500  1
  H  H67  1  0.01924000  0.53306900  0.37426500  1
  H  H68  1  0.42842700  0.97748300  0.16039100  1
  H  H69  1  0.92842700  0.52251700  0.83960900  1
  H  H70  1  0.57157300  0.02251700  0.83960900  1
  H  H71  1  0.07157300  0.47748300  0.16039100  1
  H  H72  1  0.72278100  0.10813900  0.99140000  1
  H  H73  1  0.22278100  0.39186100  0.00860000  1
  H  H74  1  0.27721900  0.89186100  0.00860000  1
  H  H75  1  0.77721900  0.60813900  0.99140000  1
  H  H76  1  0.92923400  0.92791400  0.21239200  1
  H  H77  1  0.42923400  0.57208600  0.78760800  1
  H  H78  1  0.07076600  0.07208600  0.78760800  1
  H  H79  1  0.57076600  0.42791400  0.21239200  1
  H  H80  1  0.82973300  0.89465700  0.36365200  1
  H  H81  1  0.32973300  0.60534300  0.63634800  1
  H  H82  1  0.17026700  0.10534300  0.63634800  1
  H  H83  1  0.67026700  0.39465700  0.36365200  1
  H  H84  1  0.58746200  0.93331500  0.29697900  1
  H  H85  1  0.08746200  0.56668500  0.70302100  1
  H  H86  1  0.41253800  0.06668500  0.70302100  1
  H  H87  1  0.91253800  0.43331500  0.29697900  1
  H  H88  1  0.68622500  0.96502500  0.14618000  1
  H  H89  1  0.18622500  0.53497500  0.85382000  1
  H  H90  1  0.31377500  0.03497500  0.85382000  1
  H  H91  1  0.81377500  0.46502500  0.14618000  1
  Br  Br92  1  0.15561600  0.81682200  0.38509200  1
  Br  Br93  1  0.65561600  0.68317800  0.61490800  1
  Br  Br94  1  0.84438400  0.18317800  0.61490800  1
  Br  Br95  1  0.34438400  0.31682200  0.38509200  1
