# generated using pymatgen
data_Pr6Fe13Sb
_symmetry_space_group_name_H-M   'P 1'
_cell_length_a   13.12234681
_cell_length_b   13.12234681
_cell_length_c   13.12234681
_cell_angle_alpha   143.97370350
_cell_angle_beta   143.97370350
_cell_angle_gamma   51.86661663
_symmetry_Int_Tables_number   1
_chemical_formula_structural   Pr6Fe13Sb
_chemical_formula_sum   'Pr12 Fe26 Sb2'
_cell_volume   777.28242853
_cell_formula_units_Z   2
loop_
 _symmetry_equiv_pos_site_id
 _symmetry_equiv_pos_as_xyz
  1  'x, y, z'
loop_
 _atom_site_type_symbol
 _atom_site_label
 _atom_site_symmetry_multiplicity
 _atom_site_fract_x
 _atom_site_fract_y
 _atom_site_fract_z
 _atom_site_occupancy
  Pr  Pr0  1  0.60437400  0.60437400  0.00000000  1
  Pr  Pr1  1  0.10437400  0.10437400  0.00000000  1
  Pr  Pr2  1  0.39562600  0.39562600  0.00000000  1
  Pr  Pr3  1  0.89562600  0.89562600  0.00000000  1
  Pr  Pr4  1  0.47631000  0.97631000  0.82435900  1
  Pr  Pr5  1  0.15195000  0.65195000  0.17564100  1
  Pr  Pr6  1  0.97631000  0.15195000  0.50000000  1
  Pr  Pr7  1  0.65195000  0.47631000  0.50000000  1
  Pr  Pr8  1  0.52369000  0.02369000  0.17564100  1
  Pr  Pr9  1  0.84805000  0.34805000  0.82435900  1
  Pr  Pr10  1  0.02369000  0.84805000  0.50000000  1
  Pr  Pr11  1  0.34805000  0.52369000  0.50000000  1
  Fe  Fe12  1  0.50000000  0.00000000  0.50000000  1
  Fe  Fe13  1  0.00000000  0.50000000  0.50000000  1
  Fe  Fe14  1  0.56709000  0.71037000  0.27745900  1
  Fe  Fe15  1  0.43291000  0.28963000  0.72254100  1
  Fe  Fe16  1  0.06709000  0.78963000  0.85672000  1
  Fe  Fe17  1  0.93291000  0.21037000  0.14328000  1
  Fe  Fe18  1  0.28963000  0.56709000  0.85672000  1
  Fe  Fe19  1  0.71037000  0.43291000  0.14328000  1
  Fe  Fe20  1  0.21037000  0.06709000  0.27745900  1
  Fe  Fe21  1  0.78963000  0.93291000  0.72254100  1
  Fe  Fe22  1  0.61973300  0.11973300  0.85600700  1
  Fe  Fe23  1  0.26372600  0.76372600  0.14399300  1
  Fe  Fe24  1  0.11973300  0.26372600  0.50000000  1
  Fe  Fe25  1  0.76372600  0.61973300  0.50000000  1
  Fe  Fe26  1  0.38026700  0.88026700  0.14399300  1
  Fe  Fe27  1  0.73627400  0.23627400  0.85600700  1
  Fe  Fe28  1  0.88026700  0.73627400  0.50000000  1
  Fe  Fe29  1  0.23627400  0.38026700  0.50000000  1
  Fe  Fe30  1  0.79330800  0.29330800  0.27321500  1
  Fe  Fe31  1  0.02009300  0.52009300  0.72678500  1
  Fe  Fe32  1  0.29330800  0.02009300  0.50000000  1
  Fe  Fe33  1  0.52009300  0.79330800  0.50000000  1
  Fe  Fe34  1  0.20669200  0.70669200  0.72678500  1
  Fe  Fe35  1  0.97990700  0.47990700  0.27321500  1
  Fe  Fe36  1  0.70669200  0.97990700  0.50000000  1
  Fe  Fe37  1  0.47990700  0.20669200  0.50000000  1
  Sb  Sb38  1  0.25000000  0.25000000  0.00000000  1
  Sb  Sb39  1  0.75000000  0.75000000  0.00000000  1
