# generated using pymatgen
data_SnCl3O4
_symmetry_space_group_name_H-M   'P 1'
_cell_length_a   6.65323300
_cell_length_b   10.08482500
_cell_length_c   15.76749784
_cell_angle_alpha   54.46438066
_cell_angle_beta   90.00000000
_cell_angle_gamma   90.00000000
_symmetry_Int_Tables_number   1
_chemical_formula_structural   SnCl3O4
_chemical_formula_sum   'Sn4 Cl12 O16'
_cell_volume   860.90891310
_cell_formula_units_Z   4
loop_
 _symmetry_equiv_pos_site_id
 _symmetry_equiv_pos_as_xyz
  1  'x, y, z'
loop_
 _atom_site_type_symbol
 _atom_site_label
 _atom_site_symmetry_multiplicity
 _atom_site_fract_x
 _atom_site_fract_y
 _atom_site_fract_z
 _atom_site_occupancy
  Sn  Sn0  1  0.53835500  0.83571500  0.49515100  1
  Sn  Sn1  1  0.96164500  0.83571500  0.99515100  1
  Sn  Sn2  1  0.46164500  0.16428500  0.50484900  1
  Sn  Sn3  1  0.03835500  0.16428500  0.00484900  1
  Cl  Cl4  1  0.38350600  0.94161600  0.33436700  1
  Cl  Cl5  1  0.11649400  0.94161600  0.83436700  1
  Cl  Cl6  1  0.61649400  0.05838400  0.66563300  1
  Cl  Cl7  1  0.88350600  0.05838400  0.16563300  1
  Cl  Cl8  1  0.85817100  0.72869100  0.48366700  1
  Cl  Cl9  1  0.64182900  0.72869100  0.98366700  1
  Cl  Cl10  1  0.14182900  0.27130900  0.51633300  1
  Cl  Cl11  1  0.35817100  0.27130900  0.01633300  1
  Cl  Cl12  1  0.38629500  0.56274000  0.60639800  1
  Cl  Cl13  1  0.11370500  0.56274000  0.10639800  1
  Cl  Cl14  1  0.61370500  0.43726000  0.39360200  1
  Cl  Cl15  1  0.88629500  0.43726000  0.89360200  1
  O  O16  1  0.67060000  0.05547800  0.45864100  1
  O  O17  1  0.82940000  0.05547800  0.95864100  1
  O  O18  1  0.32940000  0.94452200  0.54135900  1
  O  O19  1  0.17060000  0.94452200  0.04135900  1
  O  O20  1  0.67036400  0.68543000  0.64356100  1
  O  O21  1  0.82963600  0.68543000  0.14356100  1
  O  O22  1  0.32963600  0.31457000  0.35643900  1
  O  O23  1  0.17036400  0.31457000  0.85643900  1
  O  O24  1  0.80316400  0.17061000  0.33702800  1
  O  O25  1  0.69683600  0.17061000  0.83702800  1
  O  O26  1  0.19683600  0.82939000  0.66297200  1
  O  O27  1  0.30316400  0.82939000  0.16297200  1
  O  O28  1  0.70674700  0.27694100  0.26212300  1
  O  O29  1  0.79325300  0.27694100  0.76212300  1
  O  O30  1  0.29325300  0.72305900  0.73787700  1
  O  O31  1  0.20674700  0.72305900  0.23787700  1
