# generated using pymatgen
data_Fe(W3Cl7)2
_symmetry_space_group_name_H-M   'P 1'
_cell_length_a   12.65626500
_cell_length_b   12.65626500
_cell_length_c   12.65626500
_cell_angle_alpha   90.00000000
_cell_angle_beta   90.00000000
_cell_angle_gamma   90.00000000
_symmetry_Int_Tables_number   1
_chemical_formula_structural   Fe(W3Cl7)2
_chemical_formula_sum   'Fe4 W24 Cl56'
_cell_volume   2027.29373768
_cell_formula_units_Z   4
loop_
 _symmetry_equiv_pos_site_id
 _symmetry_equiv_pos_as_xyz
  1  'x, y, z'
loop_
 _atom_site_type_symbol
 _atom_site_label
 _atom_site_symmetry_multiplicity
 _atom_site_fract_x
 _atom_site_fract_y
 _atom_site_fract_z
 _atom_site_occupancy
  Fe  Fe0  1  0.75000000  0.25000000  0.25000000  1
  Fe  Fe1  1  0.25000000  0.25000000  0.75000000  1
  Fe  Fe2  1  0.25000000  0.75000000  0.25000000  1
  Fe  Fe3  1  0.75000000  0.75000000  0.75000000  1
  W  W4  1  0.10690800  0.22309200  0.27227100  1
  W  W5  1  0.89309200  0.22309200  0.72772900  1
  W  W6  1  0.89309200  0.77690800  0.27227100  1
  W  W7  1  0.10690800  0.77690800  0.72772900  1
  W  W8  1  0.27227100  0.10690800  0.22309200  1
  W  W9  1  0.72772900  0.89309200  0.22309200  1
  W  W10  1  0.27227100  0.89309200  0.77690800  1
  W  W11  1  0.72772900  0.10690800  0.77690800  1
  W  W12  1  0.22309200  0.27227100  0.10690800  1
  W  W13  1  0.22309200  0.72772900  0.89309200  1
  W  W14  1  0.77690800  0.27227100  0.89309200  1
  W  W15  1  0.77690800  0.72772900  0.10690800  1
  W  W16  1  0.39309200  0.27690800  0.22772900  1
  W  W17  1  0.60690800  0.27690800  0.77227100  1
  W  W18  1  0.60690800  0.72309200  0.22772900  1
  W  W19  1  0.39309200  0.72309200  0.77227100  1
  W  W20  1  0.22772900  0.39309200  0.27690800  1
  W  W21  1  0.77227100  0.60690800  0.27690800  1
  W  W22  1  0.22772900  0.60690800  0.72309200  1
  W  W23  1  0.77227100  0.39309200  0.72309200  1
  W  W24  1  0.27690800  0.22772900  0.39309200  1
  W  W25  1  0.27690800  0.77227100  0.60690800  1
  W  W26  1  0.72309200  0.22772900  0.60690800  1
  W  W27  1  0.72309200  0.77227100  0.39309200  1
  Cl  Cl28  1  0.91722100  0.17986100  0.30476400  1
  Cl  Cl29  1  0.08277900  0.17986100  0.69523600  1
  Cl  Cl30  1  0.08277900  0.82013900  0.30476400  1
  Cl  Cl31  1  0.91722100  0.82013900  0.69523600  1
  Cl  Cl32  1  0.30476400  0.91722100  0.17986100  1
  Cl  Cl33  1  0.69523600  0.08277900  0.17986100  1
  Cl  Cl34  1  0.30476400  0.08277900  0.82013900  1
  Cl  Cl35  1  0.69523600  0.91722100  0.82013900  1
  Cl  Cl36  1  0.17986100  0.30476400  0.91722100  1
  Cl  Cl37  1  0.17986100  0.69523600  0.08277900  1
  Cl  Cl38  1  0.82013900  0.30476400  0.08277900  1
  Cl  Cl39  1  0.82013900  0.69523600  0.91722100  1
  Cl  Cl40  1  0.58277900  0.32013900  0.19523600  1
  Cl  Cl41  1  0.41722100  0.32013900  0.80476400  1
  Cl  Cl42  1  0.41722100  0.67986100  0.19523600  1
  Cl  Cl43  1  0.58277900  0.67986100  0.80476400  1
  Cl  Cl44  1  0.19523600  0.58277900  0.32013900  1
  Cl  Cl45  1  0.80476400  0.41722100  0.32013900  1
  Cl  Cl46  1  0.19523600  0.41722100  0.67986100  1
  Cl  Cl47  1  0.80476400  0.58277900  0.67986100  1
  Cl  Cl48  1  0.32013900  0.19523600  0.58277900  1
  Cl  Cl49  1  0.32013900  0.80476400  0.41722100  1
  Cl  Cl50  1  0.67986100  0.19523600  0.41722100  1
  Cl  Cl51  1  0.67986100  0.80476400  0.58277900  1
  Cl  Cl52  1  0.39058800  0.60941200  0.60941200  1
  Cl  Cl53  1  0.60941200  0.60941200  0.39058800  1
  Cl  Cl54  1  0.60941200  0.39058800  0.60941200  1
  Cl  Cl55  1  0.39058800  0.39058800  0.39058800  1
  Cl  Cl56  1  0.10941200  0.89058800  0.89058800  1
  Cl  Cl57  1  0.89058800  0.89058800  0.10941200  1
  Cl  Cl58  1  0.89058800  0.10941200  0.89058800  1
  Cl  Cl59  1  0.10941200  0.10941200  0.10941200  1
  Cl  Cl60  1  0.06736600  0.38206900  0.16275800  1
  Cl  Cl61  1  0.93263400  0.38206900  0.83724200  1
  Cl  Cl62  1  0.93263400  0.61793100  0.16275800  1
  Cl  Cl63  1  0.06736600  0.61793100  0.83724200  1
  Cl  Cl64  1  0.16275800  0.06736600  0.38206900  1
  Cl  Cl65  1  0.83724200  0.93263400  0.38206900  1
  Cl  Cl66  1  0.16275800  0.93263400  0.61793100  1
  Cl  Cl67  1  0.83724200  0.06736600  0.61793100  1
  Cl  Cl68  1  0.38206900  0.16275800  0.06736600  1
  Cl  Cl69  1  0.38206900  0.83724200  0.93263400  1
  Cl  Cl70  1  0.61793100  0.16275800  0.93263400  1
  Cl  Cl71  1  0.61793100  0.83724200  0.06736600  1
  Cl  Cl72  1  0.43263400  0.11793100  0.33724200  1
  Cl  Cl73  1  0.56736600  0.11793100  0.66275800  1
  Cl  Cl74  1  0.56736600  0.88206900  0.33724200  1
  Cl  Cl75  1  0.43263400  0.88206900  0.66275800  1
  Cl  Cl76  1  0.33724200  0.43263400  0.11793100  1
  Cl  Cl77  1  0.66275800  0.56736600  0.11793100  1
  Cl  Cl78  1  0.33724200  0.56736600  0.88206900  1
  Cl  Cl79  1  0.66275800  0.43263400  0.88206900  1
  Cl  Cl80  1  0.11793100  0.33724200  0.43263400  1
  Cl  Cl81  1  0.11793100  0.66275800  0.56736600  1
  Cl  Cl82  1  0.88206900  0.33724200  0.56736600  1
  Cl  Cl83  1  0.88206900  0.66275800  0.43263400  1
