# generated using pymatgen
data_NdS3(NO4)3
_symmetry_space_group_name_H-M   'P 1'
_cell_length_a   9.55401820
_cell_length_b   9.55401820
_cell_length_c   9.55401758
_cell_angle_alpha   66.28520899
_cell_angle_beta   66.28520899
_cell_angle_gamma   66.28520897
_symmetry_Int_Tables_number   1
_chemical_formula_structural   NdS3(NO4)3
_chemical_formula_sum   'Nd2 S6 N6 O24'
_cell_volume   700.30654841
_cell_formula_units_Z   2
loop_
 _symmetry_equiv_pos_site_id
 _symmetry_equiv_pos_as_xyz
  1  'x, y, z'
loop_
 _atom_site_type_symbol
 _atom_site_label
 _atom_site_symmetry_multiplicity
 _atom_site_fract_x
 _atom_site_fract_y
 _atom_site_fract_z
 _atom_site_occupancy
  Nd  Nd0  1  0.70635600  0.70635600  0.70635600  1
  Nd  Nd1  1  0.29364400  0.29364400  0.29364400  1
  S  S2  1  0.03740700  0.76976600  0.76582400  1
  S  S3  1  0.76976600  0.76582400  0.03740700  1
  S  S4  1  0.76582400  0.03740700  0.76976600  1
  S  S5  1  0.96259300  0.23417600  0.23023400  1
  S  S6  1  0.23023400  0.96259300  0.23417600  1
  S  S7  1  0.23417600  0.23023400  0.96259300  1
  N  N8  1  0.96211100  0.70508100  0.95851800  1
  N  N9  1  0.70508100  0.95851800  0.96211100  1
  N  N10  1  0.95851800  0.96211100  0.70508100  1
  N  N11  1  0.03788900  0.04148200  0.29491900  1
  N  N12  1  0.29491900  0.03788900  0.04148200  1
  N  N13  1  0.04148200  0.29491900  0.03788900  1
  O  O14  1  0.98387800  0.69624900  0.69451200  1
  O  O15  1  0.69624900  0.69451200  0.98387800  1
  O  O16  1  0.69451200  0.98387800  0.69624900  1
  O  O17  1  0.01612200  0.30548800  0.30375100  1
  O  O18  1  0.30375100  0.01612200  0.30548800  1
  O  O19  1  0.30548800  0.30375100  0.01612200  1
  O  O20  1  0.20476100  0.73814300  0.73310300  1
  O  O21  1  0.73814300  0.73310300  0.20476100  1
  O  O22  1  0.73310300  0.20476100  0.73814300  1
  O  O23  1  0.79523900  0.26689700  0.26185700  1
  O  O24  1  0.26185700  0.79523900  0.26689700  1
  O  O25  1  0.26689700  0.26185700  0.79523900  1
  O  O26  1  0.52992400  0.76218000  0.54228300  1
  O  O27  1  0.76218000  0.54228300  0.52992400  1
  O  O28  1  0.54228300  0.52992400  0.76218000  1
  O  O29  1  0.47007600  0.45771700  0.23782000  1
  O  O30  1  0.23782000  0.47007600  0.45771700  1
  O  O31  1  0.45771700  0.23782000  0.47007600  1
  O  O32  1  0.43510800  0.84665200  0.74772100  1
  O  O33  1  0.84665200  0.74772100  0.43510800  1
  O  O34  1  0.74772100  0.43510800  0.84665200  1
  O  O35  1  0.56489200  0.25227900  0.15334800  1
  O  O36  1  0.15334800  0.56489200  0.25227900  1
  O  O37  1  0.25227900  0.15334800  0.56489200  1
