# generated using pymatgen
data_La16(Mo3O8)7
_symmetry_space_group_name_H-M   'P 1'
_cell_length_a   13.73438635
_cell_length_b   13.73116987
_cell_length_c   13.77346391
_cell_angle_alpha   90.00000000
_cell_angle_beta   100.14674827
_cell_angle_gamma   90.00000000
_symmetry_Int_Tables_number   1
_chemical_formula_structural   La16(Mo3O8)7
_chemical_formula_sum   'La32 Mo42 O112'
_cell_volume   2556.90051666
_cell_formula_units_Z   2
loop_
 _symmetry_equiv_pos_site_id
 _symmetry_equiv_pos_as_xyz
  1  'x, y, z'
loop_
 _atom_site_type_symbol
 _atom_site_label
 _atom_site_symmetry_multiplicity
 _atom_site_fract_x
 _atom_site_fract_y
 _atom_site_fract_z
 _atom_site_occupancy
  La  La0  1  0.21891086  0.61663961  0.63451571  1
  La  La1  1  0.28108914  0.11663961  0.36548429  1
  La  La2  1  0.78108914  0.38336039  0.36548429  1
  La  La3  1  0.71891086  0.88336039  0.63451571  1
  La  La4  1  0.22655386  0.80627876  0.86101000  1
  La  La5  1  0.27344614  0.30627876  0.13899000  1
  La  La6  1  0.77344614  0.19372124  0.13899000  1
  La  La7  1  0.72655386  0.69372124  0.86101000  1
  La  La8  1  0.42576919  0.81292190  0.67131014  1
  La  La9  1  0.07423081  0.31292190  0.32868986  1
  La  La10  1  0.57423081  0.18707810  0.32868986  1
  La  La11  1  0.92576919  0.68707810  0.67131014  1
  La  La12  1  0.45006243  0.60855659  0.88815390  1
  La  La13  1  0.04993757  0.10855659  0.11184610  1
  La  La14  1  0.54993757  0.39144341  0.11184610  1
  La  La15  1  0.95006243  0.89144341  0.88815390  1
  La  La16  1  0.85821492  0.66761241  0.35802448  1
  La  La17  1  0.64178508  0.16761241  0.64197552  1
  La  La18  1  0.14178508  0.33238759  0.64197552  1
  La  La19  1  0.35821492  0.83238759  0.35802448  1
  La  La20  1  0.36757502  0.59327312  0.15199798  1
  La  La21  1  0.13242498  0.09327312  0.84800202  1
  La  La22  1  0.63242498  0.40672688  0.84800202  1
  La  La23  1  0.86757502  0.90672688  0.15199798  1
  La  La24  1  0.36253801  0.32819880  0.87365831  1
  La  La25  1  0.13746199  0.82819880  0.12634169  1
  La  La26  1  0.63746199  0.67180120  0.12634169  1
  La  La27  1  0.86253801  0.17180120  0.87365831  1
  La  La28  1  0.14540608  0.62372146  0.32166381  1
  La  La29  1  0.35459392  0.12372146  0.67833619  1
  La  La30  1  0.85459392  0.37627854  0.67833619  1
  La  La31  1  0.64540608  0.87627854  0.32166381  1
  Mo  Mo32  1  0.28216271  0.42427753  0.47708521  1
  Mo  Mo33  1  0.21783729  0.92427753  0.52291479  1
  Mo  Mo34  1  0.71783729  0.57572247  0.52291479  1
  Mo  Mo35  1  0.78216271  0.07572247  0.47708521  1
  Mo  Mo36  1  0.07443730  0.78578655  0.48602706  1
  Mo  Mo37  1  0.42556270  0.28578655  0.51397294  1
  Mo  Mo38  1  0.92556270  0.21421345  0.51397294  1
  Mo  Mo39  1  0.57443730  0.71421345  0.48602706  1
  Mo  Mo40  1  0.43055546  0.43547408  0.64886348  1
  Mo  Mo41  1  0.06944454  0.93547408  0.35113652  1
  Mo  Mo42  1  0.56944454  0.56452592  0.35113652  1
  Mo  Mo43  1  0.93055546  0.06452592  0.64886348  1
  Mo  Mo44  1  0.58623221  0.59029905  0.64764406  1
  Mo  Mo45  1  0.91376779  0.09029905  0.35235594  1
  Mo  Mo46  1  0.41376779  0.40970095  0.35235594  1
  Mo  Mo47  1  0.08623221  0.90970095  0.64764406  1
  Mo  Mo48  1  0.57400571  0.43054564  0.51341061  1
  Mo  Mo49  1  0.92599429  0.93054564  0.48658939  1
  Mo  Mo50  1  0.42599429  0.56945436  0.48658939  1
  Mo  Mo51  1  0.07400571  0.06945436  0.51341061  1
  Mo  Mo52  1  0.21730699  0.49703505  0.95912380  1
  Mo  Mo53  1  0.28269301  0.99703505  0.04087620  1
  Mo  Mo54  1  0.78269301  0.50296495  0.04087620  1
  Mo  Mo55  1  0.71730699  0.00296495  0.95912380  1
  Mo  Mo56  1  0.07469039  0.50602468  0.79961972  1
  Mo  Mo57  1  0.42530961  0.00602468  0.20038028  1
  Mo  Mo58  1  0.92530961  0.49397532  0.20038028  1
  Mo  Mo59  1  0.57469039  0.99397532  0.79961972  1
  Mo  Mo60  1  0.93474678  0.64885200  0.07147620  1
  Mo  Mo61  1  0.56525322  0.14885200  0.92852380  1
  Mo  Mo62  1  0.06525322  0.35114800  0.92852380  1
  Mo  Mo63  1  0.43474678  0.85114800  0.07147620  1
  Mo  Mo64  1  0.08169493  0.64327506  0.94778173  1
  Mo  Mo65  1  0.41830507  0.14327506  0.05221827  1
  Mo  Mo66  1  0.91830507  0.35672494  0.05221827  1
  Mo  Mo67  1  0.58169493  0.85672494  0.94778173  1
  Mo  Mo68  1  0.07450174  0.48998123  0.08464051  1
  Mo  Mo69  1  0.42549826  0.98998123  0.91535949  1
  Mo  Mo70  1  0.92549826  0.51001877  0.91535949  1
  Mo  Mo71  1  0.57450174  0.01001877  0.08464051  1
  Mo  Mo72  1  -0.00000000  0.50000000  0.50000000  1
  Mo  Mo73  1  0.50000000  0.00000000  0.50000000  1
  O  O74  1  0.73486933  0.58924291  0.67007793  1
  O  O75  1  0.76513067  0.08924291  0.32992207  1
  O  O76  1  0.26513067  0.41075709  0.32992207  1
  O  O77  1  0.23486933  0.91075709  0.67007793  1
  O  O78  1  0.27678475  0.44102953  0.62532088  1
  O  O79  1  0.22321525  0.94102953  0.37467912  1
  O  O80  1  0.72321525  0.55897047  0.37467912  1
  O  O81  1  0.77678475  0.05897047  0.62532088  1
  O  O82  1  0.22790269  0.07330911  0.52990821  1
  O  O83  1  0.27209731  0.57330911  0.47009179  1
  O  O84  1  0.77209731  0.92669089  0.47009179  1
  O  O85  1  0.72790269  0.42669089  0.52990821  1
  O  O86  1  0.22431418  0.77588149  0.51153090  1
  O  O87  1  0.27568582  0.27588149  0.48846910  1
  O  O88  1  0.77568582  0.22411851  0.48846910  1
  O  O89  1  0.72431418  0.72411851  0.51153090  1
  O  O90  1  0.87667031  0.58186708  0.53847755  1
  O  O91  1  0.62332969  0.08186708  0.46152245  1
  O  O92  1  0.12332969  0.41813292  0.46152245  1
  O  O93  1  0.37667031  0.91813292  0.53847755  1
  O  O94  1  0.08651703  0.76203029  0.63629350  1
  O  O95  1  0.41348297  0.26203029  0.36370650  1
  O  O96  1  0.91348297  0.23796971  0.36370650  1
  O  O97  1  0.58651703  0.73796971  0.63629350  1
  O  O98  1  0.93411237  0.21619702  0.66092806  1
  O  O99  1  0.56588763  0.71619702  0.33907194  1
  O  O100  1  0.06588763  0.78380298  0.33907194  1
  O  O101  1  0.43411237  0.28380298  0.66092806  1
  O  O102  1  0.07264014  0.22106759  0.51560504  1
  O  O103  1  0.42735986  0.72106759  0.48439496  1
  O  O104  1  0.92735986  0.77893241  0.48439496  1
  O  O105  1  0.57264014  0.27893241  0.51560504  1
  O  O106  1  0.93199408  0.36656515  0.53505639  1
  O  O107  1  0.56800592  0.86656515  0.46494361  1
  O  O108  1  0.06800592  0.63343485  0.46494361  1
  O  O109  1  0.43199408  0.13343485  0.53505639  1
  O  O110  1  0.93055008  0.90676645  0.63767005  1
  O  O111  1  0.56944992  0.40676645  0.36232995  1
  O  O112  1  0.06944992  0.09323355  0.36232995  1
  O  O113  1  0.43055008  0.59323355  0.63767005  1
  O  O114  1  0.09035540  0.06258406  0.66740029  1
  O  O115  1  0.40964460  0.56258406  0.33259971  1
  O  O116  1  0.90964460  0.93741594  0.33259971  1
  O  O117  1  0.59035540  0.43741594  0.66740029  1
  O  O118  1  0.95131113  0.05163238  0.80152347  1
  O  O119  1  0.54868887  0.55163238  0.19847653  1
  O  O120  1  0.04868887  0.94836762  0.19847653  1
  O  O121  1  0.45131113  0.44836762  0.80152347  1
  O  O122  1  0.08934345  0.90510210  0.79676415  1
  O  O123  1  0.41065655  0.40510210  0.20323585  1
  O  O124  1  0.91065655  0.09489790  0.20323585  1
  O  O125  1  0.58934345  0.59489790  0.79676415  1
  O  O126  1  0.23787675  0.64026098  0.97123272  1
  O  O127  1  0.26212325  0.14026098  0.02876728  1
  O  O128  1  0.76212325  0.35973902  0.02876728  1
  O  O129  1  0.73787675  0.85973902  0.97123272  1
  O  O130  1  0.21858455  0.34564609  0.95757184  1
  O  O131  1  0.28141545  0.84564609  0.04242816  1
  O  O132  1  0.78141545  0.65435391  0.04242816  1
  O  O133  1  0.71858455  0.15435391  0.95757184  1
  O  O134  1  0.27223576  0.98174473  0.89057114  1
  O  O135  1  0.22776424  0.48174473  0.10942886  1
  O  O136  1  0.72776424  0.01825527  0.10942886  1
  O  O137  1  0.77223576  0.51825527  0.89057114  1
  O  O138  1  0.22351362  0.49104502  0.81410434  1
  O  O139  1  0.27648638  0.99104502  0.18589566  1
  O  O140  1  0.77648638  0.50895498  0.18589566  1
  O  O141  1  0.72351362  0.00895498  0.81410434  1
  O  O142  1  0.87925402  0.00419396  0.98812752  1
  O  O143  1  0.62074598  0.50419396  0.01187248  1
  O  O144  1  0.12074598  0.99580604  0.01187248  1
  O  O145  1  0.37925402  0.49580604  0.98812752  1
  O  O146  1  0.08162467  0.65473647  0.79743382  1
  O  O147  1  0.41837533  0.15473647  0.20256618  1
  O  O148  1  0.91837533  0.34526353  0.20256618  1
  O  O149  1  0.58162467  0.84526353  0.79743382  1
  O  O150  1  0.05197131  0.36191368  0.77343054  1
  O  O151  1  0.44802869  0.86191368  0.22656946  1
  O  O152  1  0.94802869  0.63808632  0.22656946  1
  O  O153  1  0.55197131  0.13808632  0.77343054  1
  O  O154  1  0.92423254  0.52355320  0.76153610  1
  O  O155  1  0.57576746  0.02355320  0.23846390  1
  O  O156  1  0.07576746  0.47644680  0.23846390  1
  O  O157  1  0.42423254  0.97644680  0.76153610  1
  O  O158  1  0.08247029  0.51437495  0.64627777  1
  O  O159  1  0.41752971  0.01437495  0.35372223  1
  O  O160  1  0.91752971  0.48562505  0.35372223  1
  O  O161  1  0.58247029  0.98562505  0.64627777  1
  O  O162  1  0.92237015  0.66286672  0.91424511  1
  O  O163  1  0.57762985  0.16286672  0.08575489  1
  O  O164  1  0.07762985  0.33713328  0.08575489  1
  O  O165  1  0.42237015  0.83713328  0.91424511  1
  O  O166  1  0.90663181  0.35684286  0.89287104  1
  O  O167  1  0.59336819  0.85684286  0.10712896  1
  O  O168  1  0.09336819  0.64315714  0.10712896  1
  O  O169  1  0.40663181  0.14315714  0.89287104  1
  O  O170  1  0.04704362  0.20304085  0.92553250  1
  O  O171  1  0.45295638  0.70304085  0.07446750  1
  O  O172  1  0.95295638  0.79695915  0.07446750  1
  O  O173  1  0.54704362  0.29695915  0.92553250  1
  O  O174  1  0.09187020  0.78899971  0.95461831  1
  O  O175  1  0.40812980  0.28899971  0.04538169  1
  O  O176  1  0.90812980  0.21100029  0.04538169  1
  O  O177  1  0.59187020  0.71100029  0.95461831  1
  O  O178  1  0.74543106  0.27424993  0.74679659  1
  O  O179  1  0.75456894  0.77424993  0.25320341  1
  O  O180  1  0.25456894  0.72575007  0.25320341  1
  O  O181  1  0.24543106  0.22575007  0.74679659  1
  O  O182  1  0.82362013  0.79125058  0.75634004  1
  O  O183  1  0.67637987  0.29125058  0.24365996  1
  O  O184  1  0.17637987  0.20874942  0.24365996  1
  O  O185  1  0.32362013  0.70874942  0.75634004  1
