# generated using pymatgen
data_Ga(W3O10)4
_symmetry_space_group_name_H-M   'P 1'
_cell_length_a   15.80321944
_cell_length_b   15.80321944
_cell_length_c   15.80321944
_cell_angle_alpha   109.47122063
_cell_angle_beta   109.47122063
_cell_angle_gamma   109.47122063
_symmetry_Int_Tables_number   1
_chemical_formula_structural   Ga(W3O10)4
_chemical_formula_sum   'Ga1 W12 O40'
_cell_volume   3038.18924172
_cell_formula_units_Z   1
loop_
 _symmetry_equiv_pos_site_id
 _symmetry_equiv_pos_as_xyz
  1  'x, y, z'
loop_
 _atom_site_type_symbol
 _atom_site_label
 _atom_site_symmetry_multiplicity
 _atom_site_fract_x
 _atom_site_fract_y
 _atom_site_fract_z
 _atom_site_occupancy
  Ga  Ga0  1  0.00000000  0.00000000  0.00000000  1
  W  W1  1  0.28040700  0.13329200  0.13329200  1
  W  W2  1  0.14711500  0.00000000  0.86670800  1
  W  W3  1  0.14711500  0.86670800  0.00000000  1
  W  W4  1  0.00000000  0.14711500  0.86670800  1
  W  W5  1  0.13329200  0.28040700  0.13329200  1
  W  W6  1  0.86670800  0.14711500  0.00000000  1
  W  W7  1  0.00000000  0.86670800  0.14711500  1
  W  W8  1  0.86670800  0.00000000  0.14711500  1
  W  W9  1  0.13329200  0.13329200  0.28040700  1
  W  W10  1  0.71959300  0.85288500  0.85288500  1
  W  W11  1  0.85288500  0.71959300  0.85288500  1
  W  W12  1  0.85288500  0.85288500  0.71959300  1
  O  O13  1  0.11567400  0.00000000  0.00000000  1
  O  O14  1  0.00000000  0.11567400  0.00000000  1
  O  O15  1  0.00000000  0.00000000  0.11567400  1
  O  O16  1  0.88432600  0.88432600  0.88432600  1
  O  O17  1  0.27408200  0.10800400  0.00000000  1
  O  O18  1  0.16607700  0.89199600  0.89199600  1
  O  O19  1  0.27408200  0.00000000  0.10800400  1
  O  O20  1  0.10800400  0.27408200  0.00000000  1
  O  O21  1  0.00000000  0.27408200  0.10800400  1
  O  O22  1  0.89199600  0.16607700  0.89199600  1
  O  O23  1  0.89199600  0.89199600  0.16607700  1
  O  O24  1  0.00000000  0.10800400  0.27408200  1
  O  O25  1  0.10800400  0.00000000  0.27408200  1
  O  O26  1  0.72591800  0.72591800  0.83392300  1
  O  O27  1  0.83392300  0.72591800  0.72591800  1
  O  O28  1  0.72591800  0.83392300  0.72591800  1
  O  O29  1  0.22819100  0.12630200  0.22819100  1
  O  O30  1  0.10188900  0.10188900  0.87369800  1
  O  O31  1  0.00000000  0.77180900  0.89811100  1
  O  O32  1  0.00000000  0.89811100  0.77180900  1
  O  O33  1  0.22819100  0.22819100  0.12630200  1
  O  O34  1  0.10188900  0.87369800  0.10188900  1
  O  O35  1  0.89811100  0.00000000  0.77180900  1
  O  O36  1  0.87369800  0.10188900  0.10188900  1
  O  O37  1  0.12630200  0.22819100  0.22819100  1
  O  O38  1  0.77180900  0.00000000  0.89811100  1
  O  O39  1  0.77180900  0.89811100  0.00000000  1
  O  O40  1  0.89811100  0.77180900  0.00000000  1
  O  O41  1  0.41313200  0.21423600  0.21423600  1
  O  O42  1  0.19889700  0.00000000  0.78576400  1
  O  O43  1  0.19889700  0.78576400  0.00000000  1
  O  O44  1  0.00000000  0.19889700  0.78576400  1
  O  O45  1  0.21423600  0.41313200  0.21423600  1
  O  O46  1  0.78576400  0.19889700  0.00000000  1
  O  O47  1  0.00000000  0.78576400  0.19889700  1
  O  O48  1  0.78576400  0.00000000  0.19889700  1
  O  O49  1  0.21423600  0.21423600  0.41313200  1
  O  O50  1  0.58686800  0.80110300  0.80110300  1
  O  O51  1  0.80110300  0.58686800  0.80110300  1
  O  O52  1  0.80110300  0.80110300  0.58686800  1
