# generated using pymatgen
data_Si2BPH29C9N
_symmetry_space_group_name_H-M   'P 1'
_cell_length_a   9.38810824
_cell_length_b   9.38810824
_cell_length_c   11.59802700
_cell_angle_alpha   90.00000000
_cell_angle_beta   90.00000000
_cell_angle_gamma   109.60100046
_symmetry_Int_Tables_number   1
_chemical_formula_structural   Si2BPH29C9N
_chemical_formula_sum   'Si4 B2 P2 H58 C18 N2'
_cell_volume   962.97493031
_cell_formula_units_Z   2
loop_
 _symmetry_equiv_pos_site_id
 _symmetry_equiv_pos_as_xyz
  1  'x, y, z'
loop_
 _atom_site_type_symbol
 _atom_site_label
 _atom_site_symmetry_multiplicity
 _atom_site_fract_x
 _atom_site_fract_y
 _atom_site_fract_z
 _atom_site_occupancy
  Si  Si0  1  0.21550900  0.97821100  0.83872800  1
  Si  Si1  1  0.97821100  0.21550900  0.83872800  1
  Si  Si2  1  0.78449100  0.02178900  0.33872800  1
  Si  Si3  1  0.02178900  0.78449100  0.33872800  1
  B  B4  1  0.34747800  0.34747800  0.91670400  1
  B  B5  1  0.65252200  0.65252200  0.41670400  1
  P  P6  1  0.16291400  0.16291400  0.93696000  1
  P  P7  1  0.83708600  0.83708600  0.43696000  1
  H  H8  1  0.37958500  0.82776100  0.88451200  1
  H  H9  1  0.82776100  0.37958500  0.88451200  1
  H  H10  1  0.62041500  0.17223900  0.38451200  1
  H  H11  1  0.17223900  0.62041500  0.38451200  1
  H  H12  1  0.30003600  0.87311400  0.01352300  1
  H  H13  1  0.87311400  0.30003600  0.01352300  1
  H  H14  1  0.69996400  0.12688600  0.51352300  1
  H  H15  1  0.12688600  0.69996400  0.51352300  1
  H  H16  1  0.45715000  0.01116100  0.94626500  1
  H  H17  1  0.01116100  0.45715000  0.94626500  1
  H  H18  1  0.54285000  0.98883900  0.44626500  1
  H  H19  1  0.98883900  0.54285000  0.44626500  1
  H  H20  1  0.96833500  0.82421400  0.75050600  1
  H  H21  1  0.82421400  0.96833500  0.75050600  1
  H  H22  1  0.03166500  0.17578600  0.25050600  1
  H  H23  1  0.17578600  0.03166500  0.25050600  1
  H  H24  1  0.97924900  0.76705800  0.89645400  1
  H  H25  1  0.76705800  0.97924900  0.89645400  1
  H  H26  1  0.02075100  0.23294200  0.39645400  1
  H  H27  1  0.23294200  0.02075100  0.39645400  1
  H  H28  1  0.08171600  0.71231200  0.78563400  1
  H  H29  1  0.71231200  0.08171600  0.78563400  1
  H  H30  1  0.91828400  0.28768800  0.28563400  1
  H  H31  1  0.28768800  0.91828400  0.28563400  1
  H  H32  1  0.33306700  0.93618200  0.65405300  1
  H  H33  1  0.93618200  0.33306700  0.65405300  1
  H  H34  1  0.66693300  0.06381800  0.15405300  1
  H  H35  1  0.06381800  0.66693300  0.15405300  1
  H  H36  1  0.40791600  0.12921500  0.69669000  1
  H  H37  1  0.12921500  0.40791600  0.69669000  1
  H  H38  1  0.59208400  0.87078500  0.19669000  1
  H  H39  1  0.87078500  0.59208400  0.19669000  1
  H  H40  1  0.22452700  0.05680400  0.63268000  1
  H  H41  1  0.05680400  0.22452700  0.63268000  1
  H  H42  1  0.77547300  0.94319600  0.13268000  1
  H  H43  1  0.94319600  0.77547300  0.13268000  1
  H  H44  1  0.52311100  0.63993000  0.96582500  1
  H  H45  1  0.63993000  0.52311100  0.96582500  1
  H  H46  1  0.47688900  0.36007000  0.46582500  1
  H  H47  1  0.36007000  0.47688900  0.46582500  1
  H  H48  1  0.60948600  0.60948600  0.09740600  1
  H  H49  1  0.39051400  0.39051400  0.59740600  1
  H  H50  1  0.21656700  0.37922900  0.13218000  1
  H  H51  1  0.37922900  0.21656700  0.13218000  1
  H  H52  1  0.78343300  0.62077100  0.63218000  1
  H  H53  1  0.62077100  0.78343300  0.63218000  1
  H  H54  1  0.28655100  0.55977800  0.06208900  1
  H  H55  1  0.55977800  0.28655100  0.06208900  1
  H  H56  1  0.71344900  0.44022200  0.56208900  1
  H  H57  1  0.44022200  0.71344900  0.56208900  1
  H  H58  1  0.37606100  0.52711300  0.19141900  1
  H  H59  1  0.52711300  0.37606100  0.19141900  1
  H  H60  1  0.62393900  0.47288700  0.69141900  1
  H  H61  1  0.47288700  0.62393900  0.69141900  1
  H  H62  1  0.44943300  0.31661100  0.86926100  1
  H  H63  1  0.31661100  0.44943300  0.86926100  1
  H  H64  1  0.55056700  0.68338900  0.36926100  1
  H  H65  1  0.68338900  0.55056700  0.36926100  1
  C  C66  1  0.35139200  0.91774200  0.93012500  1
  C  C67  1  0.91774200  0.35139200  0.93012500  1
  C  C68  1  0.64860800  0.08225800  0.43012500  1
  C  C69  1  0.08225800  0.64860800  0.43012500  1
  C  C70  1  0.04351000  0.80458100  0.81650900  1
  C  C71  1  0.80458100  0.04351000  0.81650900  1
  C  C72  1  0.95649000  0.19541900  0.31650900  1
  C  C73  1  0.19541900  0.95649000  0.31650900  1
  C  C74  1  0.30395700  0.03075700  0.69166800  1
  C  C75  1  0.03075700  0.30395700  0.69166800  1
  C  C76  1  0.69604300  0.96924300  0.19166800  1
  C  C77  1  0.96924300  0.69604300  0.19166800  1
  C  C78  1  0.55835800  0.55835800  0.01553500  1
  C  C79  1  0.44164200  0.44164200  0.51553500  1
  C  C80  1  0.31780500  0.47574600  0.11151300  1
  C  C81  1  0.47574600  0.31780500  0.11151300  1
  C  C82  1  0.68219500  0.52425400  0.61151300  1
  C  C83  1  0.52425400  0.68219500  0.61151300  1
  N  N84  1  0.42301400  0.42301400  0.04085400  1
  N  N85  1  0.57698600  0.57698600  0.54085400  1
