# generated using pymatgen
data_K5U4VS4O33
_symmetry_space_group_name_H-M   'P 1'
_cell_length_a   15.16765600
_cell_length_b   15.16765600
_cell_length_c   7.10300400
_cell_angle_alpha   90.00000000
_cell_angle_beta   90.00000000
_cell_angle_gamma   90.00000000
_symmetry_Int_Tables_number   1
_chemical_formula_structural   K5U4VS4O33
_chemical_formula_sum   'K10 U8 V2 S8 O66'
_cell_volume   1634.10139219
_cell_formula_units_Z   2
loop_
 _symmetry_equiv_pos_site_id
 _symmetry_equiv_pos_as_xyz
  1  'x, y, z'
loop_
 _atom_site_type_symbol
 _atom_site_label
 _atom_site_symmetry_multiplicity
 _atom_site_fract_x
 _atom_site_fract_y
 _atom_site_fract_z
 _atom_site_occupancy
  K  K0  1  0.37865400  0.80288300  0.37718600  1
  K  K1  1  0.62134600  0.19711700  0.37718600  1
  K  K2  1  0.87865400  0.30288300  0.62281400  1
  K  K3  1  0.12134600  0.69711700  0.62281400  1
  K  K4  1  0.19711700  0.37865400  0.62281400  1
  K  K5  1  0.80288300  0.62134600  0.62281400  1
  K  K6  1  0.69711700  0.87865400  0.37718600  1
  K  K7  1  0.30288300  0.12134600  0.37718600  1
  K  K8  1  0.50000000  0.50000000  0.00000000  1
  K  K9  1  0.00000000  0.00000000  0.00000000  1
  U  U10  1  0.19059500  0.56719600  0.12571800  1
  U  U11  1  0.80940500  0.43280400  0.12571800  1
  U  U12  1  0.69059500  0.06719600  0.87428200  1
  U  U13  1  0.30940500  0.93280400  0.87428200  1
  U  U14  1  0.43280400  0.19059500  0.87428200  1
  U  U15  1  0.56719600  0.80940500  0.87428200  1
  U  U16  1  0.93280400  0.69059500  0.12571800  1
  U  U17  1  0.06719600  0.30940500  0.12571800  1
  V  V18  1  0.00000000  0.50000000  0.31196000  1
  V  V19  1  0.50000000  0.00000000  0.68804000  1
  S  S20  1  0.70018100  0.64254300  0.12411300  1
  S  S21  1  0.29981900  0.35745700  0.12411300  1
  S  S22  1  0.20018100  0.14254300  0.87588700  1
  S  S23  1  0.79981900  0.85745700  0.87588700  1
  S  S24  1  0.35745700  0.70018100  0.87588700  1
  S  S25  1  0.64254300  0.29981900  0.87588700  1
  S  S26  1  0.85745700  0.20018100  0.12411300  1
  S  S27  1  0.14254300  0.79981900  0.12411300  1
  O  O28  1  0.69441000  0.54442600  0.15101600  1
  O  O29  1  0.30559000  0.45557400  0.15101600  1
  O  O30  1  0.19441000  0.04442600  0.84898400  1
  O  O31  1  0.80559000  0.95557400  0.84898400  1
  O  O32  1  0.45557400  0.69441000  0.84898400  1
  O  O33  1  0.54442600  0.30559000  0.84898400  1
  O  O34  1  0.95557400  0.19441000  0.15101600  1
  O  O35  1  0.04442600  0.80559000  0.15101600  1
  O  O36  1  0.16208200  0.53977800  0.88410900  1
  O  O37  1  0.83791800  0.46022200  0.88410900  1
  O  O38  1  0.66208200  0.03977800  0.11589100  1
  O  O39  1  0.33791800  0.96022200  0.11589100  1
  O  O40  1  0.46022200  0.16208200  0.11589100  1
  O  O41  1  0.53977800  0.83791800  0.11589100  1
  O  O42  1  0.96022200  0.66208200  0.88410900  1
  O  O43  1  0.03977800  0.33791800  0.88410900  1
  O  O44  1  0.49718000  0.63819300  0.38520100  1
  O  O45  1  0.50282000  0.36180700  0.38520100  1
  O  O46  1  0.99718000  0.13819300  0.61479900  1
  O  O47  1  0.00282000  0.86180700  0.61479900  1
  O  O48  1  0.36180700  0.49718000  0.61479900  1
  O  O49  1  0.63819300  0.50282000  0.61479900  1
  O  O50  1  0.86180700  0.99718000  0.38520100  1
  O  O51  1  0.13819300  0.00282000  0.38520100  1
  O  O52  1  0.22330400  0.59704600  0.36399600  1
  O  O53  1  0.77669600  0.40295400  0.36399600  1
  O  O54  1  0.72330400  0.09704600  0.63600400  1
  O  O55  1  0.27669600  0.90295400  0.63600400  1
  O  O56  1  0.40295400  0.22330400  0.63600400  1
  O  O57  1  0.59704600  0.77669600  0.63600400  1
  O  O58  1  0.90295400  0.72330400  0.36399600  1
  O  O59  1  0.09704600  0.27669600  0.36399600  1
  O  O60  1  0.62647800  0.66736900  0.99409700  1
  O  O61  1  0.37352200  0.33263100  0.99409700  1
  O  O62  1  0.12647800  0.16736900  0.00590300  1
  O  O63  1  0.87352200  0.83263100  0.00590300  1
  O  O64  1  0.33263100  0.62647800  0.00590300  1
  O  O65  1  0.66736900  0.37352200  0.00590300  1
  O  O66  1  0.83263100  0.12647800  0.99409700  1
  O  O67  1  0.16736900  0.87352200  0.99409700  1
  O  O68  1  0.78565300  0.66127900  0.02259000  1
  O  O69  1  0.21434700  0.33872100  0.02259000  1
  O  O70  1  0.28565300  0.16127900  0.97741000  1
  O  O71  1  0.71434700  0.83872100  0.97741000  1
  O  O72  1  0.33872100  0.78565300  0.97741000  1
  O  O73  1  0.66127900  0.21434700  0.97741000  1
  O  O74  1  0.83872100  0.28565300  0.02259000  1
  O  O75  1  0.16127900  0.71434700  0.02259000  1
  O  O76  1  0.10834900  0.45132400  0.23007400  1
  O  O77  1  0.89165100  0.54867600  0.23007400  1
  O  O78  1  0.60834900  0.95132400  0.76992600  1
  O  O79  1  0.39165100  0.04867600  0.76992600  1
  O  O80  1  0.54867600  0.10834900  0.76992600  1
  O  O81  1  0.45132400  0.89165100  0.76992600  1
  O  O82  1  0.04867600  0.60834900  0.23007400  1
  O  O83  1  0.95132400  0.39165100  0.23007400  1
  O  O84  1  0.69621600  0.68899900  0.30396700  1
  O  O85  1  0.30378400  0.31100100  0.30396700  1
  O  O86  1  0.19621600  0.18899900  0.69603300  1
  O  O87  1  0.80378400  0.81100100  0.69603300  1
  O  O88  1  0.31100100  0.69621600  0.69603300  1
  O  O89  1  0.68899900  0.30378400  0.69603300  1
  O  O90  1  0.81100100  0.19621600  0.30396700  1
  O  O91  1  0.18899900  0.80378400  0.30396700  1
  O  O92  1  0.00000000  0.50000000  0.54202200  1
  O  O93  1  0.50000000  0.00000000  0.45797800  1
