# generated using pymatgen
data_H6PdC2(SO3)2
_symmetry_space_group_name_H-M   'P 1'
_cell_length_a   4.93543100
_cell_length_b   11.41759400
_cell_length_c   8.07145567
_cell_angle_alpha   90.00000000
_cell_angle_beta   112.75119786
_cell_angle_gamma   90.00000000
_symmetry_Int_Tables_number   1
_chemical_formula_structural   H6PdC2(SO3)2
_chemical_formula_sum   'H12 Pd2 C4 S4 O12'
_cell_volume   419.44335068
_cell_formula_units_Z   2
loop_
 _symmetry_equiv_pos_site_id
 _symmetry_equiv_pos_as_xyz
  1  'x, y, z'
loop_
 _atom_site_type_symbol
 _atom_site_label
 _atom_site_symmetry_multiplicity
 _atom_site_fract_x
 _atom_site_fract_y
 _atom_site_fract_z
 _atom_site_occupancy
  H  H0  1  0.48557200  0.16373300  0.54479700  1
  H  H1  1  0.48557200  0.33626700  0.04479700  1
  H  H2  1  0.51442800  0.83626700  0.45520300  1
  H  H3  1  0.51442800  0.66373300  0.95520300  1
  H  H4  1  0.33259800  0.26350000  0.65853000  1
  H  H5  1  0.33259800  0.23650000  0.15853000  1
  H  H6  1  0.66740200  0.73650000  0.34147000  1
  H  H7  1  0.66740200  0.76350000  0.84147000  1
  H  H8  1  0.09313600  0.16748900  0.48471300  1
  H  H9  1  0.09313600  0.33251100  0.98471300  1
  H  H10  1  0.90686400  0.83251100  0.51528700  1
  H  H11  1  0.90686400  0.66748900  0.01528700  1
  Pd  Pd12  1  0.00000000  0.00000000  0.00000000  1
  Pd  Pd13  1  0.00000000  0.50000000  0.50000000  1
  C  C14  1  0.30949900  0.17798100  0.59341500  1
  C  C15  1  0.30949900  0.32201900  0.09341500  1
  C  C16  1  0.69050100  0.82201900  0.40658500  1
  C  C17  1  0.69050100  0.67798100  0.90658500  1
  S  S18  1  0.35088300  0.06608700  0.75337600  1
  S  S19  1  0.35088300  0.43391300  0.25337600  1
  S  S20  1  0.64911700  0.93391300  0.24662400  1
  S  S21  1  0.64911700  0.56608700  0.74662400  1
  O  O22  1  0.62470500  0.09710500  0.91551500  1
  O  O23  1  0.62470500  0.40289500  0.41551500  1
  O  O24  1  0.37529500  0.90289500  0.08448500  1
  O  O25  1  0.37529500  0.59710500  0.58448500  1
  O  O26  1  0.09076700  0.08609900  0.80425500  1
  O  O27  1  0.09076700  0.41390100  0.30425500  1
  O  O28  1  0.90923300  0.91390100  0.19574500  1
  O  O29  1  0.90923300  0.58609900  0.69574500  1
  O  O30  1  0.36237800  0.95240300  0.67690000  1
  O  O31  1  0.36237800  0.54759700  0.17690000  1
  O  O32  1  0.63762200  0.04759700  0.32310000  1
  O  O33  1  0.63762200  0.45240300  0.82310000  1
