# generated using pymatgen
data_Na5Al(HO)8
_symmetry_space_group_name_H-M   'P 1'
_cell_length_a   9.46385400
_cell_length_b   9.46385400
_cell_length_c   9.66096000
_cell_angle_alpha   90.00000000
_cell_angle_beta   90.00000000
_cell_angle_gamma   90.00000000
_symmetry_Int_Tables_number   1
_chemical_formula_structural   Na5Al(HO)8
_chemical_formula_sum   'Na20 Al4 H32 O32'
_cell_volume   865.27936622
_cell_formula_units_Z   4
loop_
 _symmetry_equiv_pos_site_id
 _symmetry_equiv_pos_as_xyz
  1  'x, y, z'
loop_
 _atom_site_type_symbol
 _atom_site_label
 _atom_site_symmetry_multiplicity
 _atom_site_fract_x
 _atom_site_fract_y
 _atom_site_fract_z
 _atom_site_occupancy
  Na  Na0  1  0.37758200  0.86935100  0.48323800  1
  Na  Na1  1  0.62241800  0.13064900  0.98323800  1
  Na  Na2  1  0.36935100  0.12241800  0.73323800  1
  Na  Na3  1  0.63064900  0.87758200  0.23323800  1
  Na  Na4  1  0.13064900  0.62241800  0.01676200  1
  Na  Na5  1  0.86935100  0.37758200  0.51676200  1
  Na  Na6  1  0.12241800  0.36935100  0.26676200  1
  Na  Na7  1  0.87758200  0.63064900  0.76676200  1
  Na  Na8  1  0.11446000  0.62820900  0.52782400  1
  Na  Na9  1  0.88554000  0.37179100  0.02782400  1
  Na  Na10  1  0.12820900  0.38554000  0.77782400  1
  Na  Na11  1  0.87179100  0.61446000  0.27782400  1
  Na  Na12  1  0.37179100  0.88554000  0.97217600  1
  Na  Na13  1  0.62820900  0.11446000  0.47217600  1
  Na  Na14  1  0.38554000  0.12820900  0.22217600  1
  Na  Na15  1  0.61446000  0.87179100  0.72217600  1
  Na  Na16  1  0.87608500  0.87608500  0.50000000  1
  Na  Na17  1  0.12391500  0.12391500  0.00000000  1
  Na  Na18  1  0.37608500  0.62391500  0.75000000  1
  Na  Na19  1  0.62391500  0.37608500  0.25000000  1
  Al  Al20  1  0.13085400  0.86914600  0.25000000  1
  Al  Al21  1  0.86914600  0.13085400  0.75000000  1
  Al  Al22  1  0.36914600  0.36914600  0.50000000  1
  Al  Al23  1  0.63085400  0.63085400  0.00000000  1
  H  H24  1  0.89278600  0.95290200  0.20363200  1
  H  H25  1  0.10721400  0.04709800  0.70363200  1
  H  H26  1  0.45290200  0.60721400  0.45363200  1
  H  H27  1  0.54709800  0.39278600  0.95363200  1
  H  H28  1  0.04709800  0.10721400  0.29636800  1
  H  H29  1  0.95290200  0.89278600  0.79636800  1
  H  H30  1  0.60721400  0.45290200  0.54636800  1
  H  H31  1  0.39278600  0.54709800  0.04636800  1
  H  H32  1  0.36265700  0.78278300  0.19380500  1
  H  H33  1  0.63734300  0.21721700  0.69380500  1
  H  H34  1  0.28278300  0.13734300  0.44380500  1
  H  H35  1  0.71721700  0.86265700  0.94380500  1
  H  H36  1  0.21721700  0.63734300  0.30619500  1
  H  H37  1  0.78278300  0.36265700  0.80619500  1
  H  H38  1  0.13734300  0.28278300  0.55619500  1
  H  H39  1  0.86265700  0.71721700  0.05619500  1
  H  H40  1  0.13194200  0.96899300  0.48107400  1
  H  H41  1  0.86805800  0.03100700  0.98107400  1
  H  H42  1  0.46899300  0.36805800  0.73107400  1
  H  H43  1  0.53100700  0.63194200  0.23107400  1
  H  H44  1  0.03100700  0.86805800  0.01892600  1
  H  H45  1  0.96899300  0.13194200  0.51892600  1
  H  H46  1  0.36805800  0.46899300  0.26892600  1
  H  H47  1  0.63194200  0.53100700  0.76892600  1
  H  H48  1  0.63559300  0.76253200  0.46093100  1
  H  H49  1  0.36440700  0.23746800  0.96093100  1
  H  H50  1  0.26253200  0.86440700  0.71093100  1
  H  H51  1  0.73746800  0.13559300  0.21093100  1
  H  H52  1  0.23746800  0.36440700  0.03906900  1
  H  H53  1  0.76253200  0.63559300  0.53906900  1
  H  H54  1  0.86440700  0.26253200  0.28906900  1
  H  H55  1  0.13559300  0.73746800  0.78906900  1
  O  O56  1  0.92438200  0.86352300  0.24236000  1
  O  O57  1  0.07561800  0.13647700  0.74236000  1
  O  O58  1  0.36352300  0.57561800  0.49236000  1
  O  O59  1  0.63647700  0.42438200  0.99236000  1
  O  O60  1  0.13647700  0.07561800  0.25764000  1
  O  O61  1  0.86352300  0.92438200  0.75764000  1
  O  O62  1  0.57561800  0.36352300  0.50764000  1
  O  O63  1  0.42438200  0.63647700  0.00764000  1
  O  O64  1  0.33616300  0.87111500  0.23981300  1
  O  O65  1  0.66383700  0.12888500  0.73981300  1
  O  O66  1  0.37111500  0.16383700  0.48981300  1
  O  O67  1  0.62888500  0.83616300  0.98981300  1
  O  O68  1  0.12888500  0.66383700  0.26018700  1
  O  O69  1  0.87111500  0.33616300  0.76018700  1
  O  O70  1  0.16383700  0.37111500  0.51018700  1
  O  O71  1  0.83616300  0.62888500  0.01018700  1
  O  O72  1  0.12940500  0.86980800  0.45430800  1
  O  O73  1  0.87059500  0.13019200  0.95430800  1
  O  O74  1  0.36980800  0.37059500  0.70430800  1
  O  O75  1  0.63019200  0.62940500  0.20430800  1
  O  O76  1  0.13019200  0.87059500  0.04569200  1
  O  O77  1  0.86980800  0.12940500  0.54569200  1
  O  O78  1  0.37059500  0.36980800  0.29569200  1
  O  O79  1  0.62940500  0.63019200  0.79569200  1
  O  O80  1  0.62070200  0.86326000  0.47758200  1
  O  O81  1  0.37929800  0.13674000  0.97758200  1
  O  O82  1  0.36326000  0.87929800  0.72758200  1
  O  O83  1  0.63674000  0.12070200  0.22758200  1
  O  O84  1  0.13674000  0.37929800  0.02241800  1
  O  O85  1  0.86326000  0.62070200  0.52241800  1
  O  O86  1  0.87929800  0.36326000  0.27241800  1
  O  O87  1  0.12070200  0.63674000  0.77241800  1
