# generated using pymatgen
data_K5Pt4(N3O8)3
_symmetry_space_group_name_H-M   'P 1'
_cell_length_a   10.12491800
_cell_length_b   10.37785963
_cell_length_c   15.52760818
_cell_angle_alpha   71.04010930
_cell_angle_beta   75.19145702
_cell_angle_gamma   72.03324253
_symmetry_Int_Tables_number   1
_chemical_formula_structural   K5Pt4(N3O8)3
_chemical_formula_sum   'K10 Pt8 N18 O48'
_cell_volume   1445.74406811
_cell_formula_units_Z   2
loop_
 _symmetry_equiv_pos_site_id
 _symmetry_equiv_pos_as_xyz
  1  'x, y, z'
loop_
 _atom_site_type_symbol
 _atom_site_label
 _atom_site_symmetry_multiplicity
 _atom_site_fract_x
 _atom_site_fract_y
 _atom_site_fract_z
 _atom_site_occupancy
  K  K0  1  0.90350900  0.36716000  0.44303600  1
  K  K1  1  0.09649100  0.63284000  0.55696400  1
  K  K2  1  0.72279300  0.36480900  0.71599700  1
  K  K3  1  0.27720700  0.63519100  0.28400300  1
  K  K4  1  0.90573400  0.83719000  0.96678700  1
  K  K5  1  0.09426600  0.16281000  0.03321300  1
  K  K6  1  0.63872500  0.62519400  0.86994300  1
  K  K7  1  0.36127500  0.37480600  0.13005700  1
  K  K8  1  0.63916500  0.04125300  0.37846300  1
  K  K9  1  0.36083500  0.95874700  0.62153700  1
  Pt  Pt10  1  0.56479800  0.70116300  0.37874600  1
  Pt  Pt11  1  0.43520200  0.29883700  0.62125400  1
  Pt  Pt12  1  0.84679500  0.76334300  0.26261300  1
  Pt  Pt13  1  0.15320500  0.23665700  0.73738700  1
  Pt  Pt14  1  0.55887300  0.89006000  0.16765300  1
  Pt  Pt15  1  0.44112700  0.10994000  0.83234700  1
  Pt  Pt16  1  0.71497400  0.56910300  0.20987200  1
  Pt  Pt17  1  0.28502600  0.43089700  0.79012800  1
  N  N18  1  0.62610800  0.18340500  0.58203900  1
  N  N19  1  0.37389200  0.81659500  0.41796100  1
  N  N20  1  0.62335900  0.68238500  0.49701800  1
  N  N21  1  0.37664100  0.31761500  0.50298200  1
  N  N22  1  0.92666900  0.74169700  0.37222700  1
  N  N23  1  0.07333100  0.25830300  0.62777300  1
  N  N24  1  0.91535500  0.93364800  0.18917600  1
  N  N25  1  0.08464500  0.06635200  0.81082400  1
  N  N26  1  0.61580500  0.06654900  0.09104800  1
  N  N27  1  0.38419500  0.93345100  0.90895200  1
  N  N28  1  0.64672700  0.01216700  0.82342100  1
  N  N29  1  0.35327300  0.98783300  0.17657900  1
  N  N30  1  0.65721600  0.38349900  0.27992400  1
  N  N31  1  0.34278400  0.61650100  0.72007600  1
  N  N32  1  0.66151700  0.57982600  0.08829000  1
  N  N33  1  0.33848300  0.42017400  0.91171000  1
  N  N34  1  0.91643100  0.45469300  0.16819600  1
  N  N35  1  0.08356900  0.54530700  0.83180400  1
  O  O36  1  0.76284900  0.76405900  0.15486000  1
  O  O37  1  0.23715100  0.23594100  0.84514000  1
  O  O38  1  0.52379300  0.69934900  0.25464500  1
  O  O39  1  0.47620700  0.30065100  0.74535500  1
  O  O40  1  0.76111200  0.58980900  0.32661000  1
  O  O41  1  0.23888800  0.41019100  0.67339000  1
  O  O42  1  0.73304000  0.22317400  0.57834400  1
  O  O43  1  0.26696000  0.77682600  0.42165600  1
  O  O44  1  0.63866100  0.07130200  0.56326800  1
  O  O45  1  0.36133900  0.92869800  0.43673200  1
  O  O46  1  0.60104000  0.78509700  0.52870600  1
  O  O47  1  0.39896000  0.21490300  0.47129400  1
  O  O48  1  0.68859800  0.56253300  0.53767100  1
  O  O49  1  0.31140200  0.43746700  0.46232900  1
  O  O50  1  0.98828400  0.37553500  0.59871200  1
  O  O51  1  0.01171600  0.62446500  0.40128800  1
  O  O52  1  0.89421500  0.83314500  0.41500300  1
  O  O53  1  0.10578500  0.16685500  0.58499700  1
  O  O54  1  0.97920300  0.93482500  0.10819800  1
  O  O55  1  0.02079700  0.06517500  0.89180200  1
  O  O56  1  0.89141700  0.03760300  0.21966200  1
  O  O57  1  0.10858300  0.96239700  0.78033800  1
  O  O58  1  0.67338600  0.07374600  0.00860600  1
  O  O59  1  0.32661400  0.92625400  0.99139400  1
  O  O60  1  0.59809300  0.16396000  0.12657100  1
  O  O61  1  0.40190700  0.83604000  0.87342900  1
  O  O62  1  0.68971900  0.88127800  0.85446000  1
  O  O63  1  0.31028100  0.11872200  0.14554000  1
  O  O64  1  0.73310900  0.08655500  0.79079100  1
  O  O65  1  0.26689100  0.91344500  0.20920900  1
  O  O66  1  0.54697700  0.36383500  0.27108700  1
  O  O67  1  0.45302300  0.63616500  0.72891300  1
  O  O68  1  0.73481600  0.29492500  0.33395600  1
  O  O69  1  0.26518400  0.70507500  0.66604400  1
  O  O70  1  0.55104200  0.55376700  0.08609800  1
  O  O71  1  0.44895800  0.44623300  0.91390200  1
  O  O72  1  0.74388200  0.62060300  0.01664500  1
  O  O73  1  0.25611800  0.37939700  0.98335500  1
  O  O74  1  0.98344600  0.52015100  0.81344500  1
  O  O75  1  0.01655400  0.47984900  0.18655500  1
  O  O76  1  0.93001100  0.36656400  0.12665300  1
  O  O77  1  0.06998900  0.63343600  0.87334700  1
  O  O78  1  0.85920000  0.84099900  0.65631900  1
  O  O79  1  0.14080000  0.15900100  0.34368100  1
  O  O80  1  0.81102600  0.73671100  0.67779800  1
  O  O81  1  0.18897400  0.26328900  0.32220200  1
  O  O82  1  0.76152400  0.31878500  0.90134100  1
  O  O83  1  0.23847600  0.68121500  0.09865900  1
