# generated using pymatgen
data_Os2C3
_symmetry_space_group_name_H-M   'P 1'
_cell_length_a   5.12109900
_cell_length_b   7.62544500
_cell_length_c   10.07975000
_cell_angle_alpha   90.00000000
_cell_angle_beta   90.00000000
_cell_angle_gamma   90.00000000
_symmetry_Int_Tables_number   1
_chemical_formula_structural   Os2C3
_chemical_formula_sum   'Os16 C24'
_cell_volume   393.62087768
_cell_formula_units_Z   8
loop_
 _symmetry_equiv_pos_site_id
 _symmetry_equiv_pos_as_xyz
  1  'x, y, z'
loop_
 _atom_site_type_symbol
 _atom_site_label
 _atom_site_symmetry_multiplicity
 _atom_site_fract_x
 _atom_site_fract_y
 _atom_site_fract_z
 _atom_site_occupancy
  Os  Os0  1  0.74878800  0.31386000  0.76650000  1
  Os  Os1  1  0.24878800  0.18614000  0.73350000  1
  Os  Os2  1  0.25121200  0.18614000  0.26650000  1
  Os  Os3  1  0.75121200  0.31386000  0.23350000  1
  Os  Os4  1  0.25121200  0.68614000  0.23350000  1
  Os  Os5  1  0.75121200  0.81386000  0.26650000  1
  Os  Os6  1  0.74878800  0.81386000  0.73350000  1
  Os  Os7  1  0.24878800  0.68614000  0.76650000  1
  Os  Os8  1  0.75000000  0.42459700  0.50000000  1
  Os  Os9  1  0.25000000  0.07540300  0.00000000  1
  Os  Os10  1  0.25000000  0.57540300  0.50000000  1
  Os  Os11  1  0.75000000  0.92459700  0.00000000  1
  Os  Os12  1  0.25000000  0.01711000  0.50000000  1
  Os  Os13  1  0.75000000  0.48289000  0.00000000  1
  Os  Os14  1  0.75000000  0.98289000  0.50000000  1
  Os  Os15  1  0.25000000  0.51711000  0.00000000  1
  C  C16  1  0.53980000  0.20099000  0.57515100  1
  C  C17  1  0.03980000  0.29901000  0.92484900  1
  C  C18  1  0.46020000  0.29901000  0.07515100  1
  C  C19  1  0.96020000  0.20099000  0.42484900  1
  C  C20  1  0.46020000  0.79901000  0.42484900  1
  C  C21  1  0.96020000  0.70099000  0.07515100  1
  C  C22  1  0.53980000  0.70099000  0.92484900  1
  C  C23  1  0.03980000  0.79901000  0.57515100  1
  C  C24  1  0.91518500  0.11900500  0.11793000  1
  C  C25  1  0.41518500  0.38099500  0.38207000  1
  C  C26  1  0.08481500  0.38099500  0.61793000  1
  C  C27  1  0.58481500  0.11900500  0.88207000  1
  C  C28  1  0.08481500  0.88099500  0.88207000  1
  C  C29  1  0.58481500  0.61900500  0.61793000  1
  C  C30  1  0.91518500  0.61900500  0.38207000  1
  C  C31  1  0.41518500  0.88099500  0.11793000  1
  C  C32  1  0.61281300  0.57129900  0.18822200  1
  C  C33  1  0.11281300  0.92870100  0.31177800  1
  C  C34  1  0.38718700  0.92870100  0.68822200  1
  C  C35  1  0.88718700  0.57129900  0.81177800  1
  C  C36  1  0.38718700  0.42870100  0.81177800  1
  C  C37  1  0.88718700  0.07129900  0.68822200  1
  C  C38  1  0.61281300  0.07129900  0.31177800  1
  C  C39  1  0.11281300  0.42870100  0.18822200  1
