# generated using pymatgen
data_MgPO4
_symmetry_space_group_name_H-M   'P 1'
_cell_length_a   10.24148194
_cell_length_b   10.24148194
_cell_length_c   8.92309696
_cell_angle_alpha   74.37759141
_cell_angle_beta   74.37759141
_cell_angle_gamma   45.95879933
_symmetry_Int_Tables_number   1
_chemical_formula_structural   MgPO4
_chemical_formula_sum   'Mg8 P8 O32'
_cell_volume   643.35523672
_cell_formula_units_Z   8
loop_
 _symmetry_equiv_pos_site_id
 _symmetry_equiv_pos_as_xyz
  1  'x, y, z'
loop_
 _atom_site_type_symbol
 _atom_site_label
 _atom_site_symmetry_multiplicity
 _atom_site_fract_x
 _atom_site_fract_y
 _atom_site_fract_z
 _atom_site_occupancy
  Mg  Mg0  1  0.54629300  0.45370700  0.25000000  1
  Mg  Mg1  1  0.45370700  0.54629300  0.75000000  1
  Mg  Mg2  1  0.00000000  0.50000000  0.00000000  1
  Mg  Mg3  1  0.50000000  0.00000000  0.50000000  1
  Mg  Mg4  1  0.57876400  0.79510000  0.05980600  1
  Mg  Mg5  1  0.20490000  0.42123600  0.44019400  1
  Mg  Mg6  1  0.42123600  0.20490000  0.94019400  1
  Mg  Mg7  1  0.79510000  0.57876400  0.55980600  1
  P  P8  1  0.23568900  0.14360000  0.26538300  1
  P  P9  1  0.85640000  0.76431100  0.23461700  1
  P  P10  1  0.76431100  0.85640000  0.73461700  1
  P  P11  1  0.14360000  0.23568900  0.76538300  1
  P  P12  1  0.41860200  0.77487000  0.41500100  1
  P  P13  1  0.22513000  0.58139800  0.08499900  1
  P  P14  1  0.58139800  0.22513000  0.58499900  1
  P  P15  1  0.77487000  0.41860200  0.91500100  1
  O  O16  1  0.23749700  0.98524900  0.37009700  1
  O  O17  1  0.01475100  0.76250300  0.12990300  1
  O  O18  1  0.76250300  0.01475100  0.62990300  1
  O  O19  1  0.98524900  0.23749700  0.87009700  1
  O  O20  1  0.28699500  0.19492100  0.37053600  1
  O  O21  1  0.80507900  0.71300500  0.12946400  1
  O  O22  1  0.71300500  0.80507900  0.62946400  1
  O  O23  1  0.19492100  0.28699500  0.87053600  1
  O  O24  1  0.04940800  0.30142300  0.20769300  1
  O  O25  1  0.69857700  0.95059200  0.29230700  1
  O  O26  1  0.95059200  0.69857700  0.79230700  1
  O  O27  1  0.30142300  0.04940800  0.70769300  1
  O  O28  1  0.38967800  0.04928200  0.12935400  1
  O  O29  1  0.95071800  0.61032200  0.37064600  1
  O  O30  1  0.61032200  0.95071800  0.87064600  1
  O  O31  1  0.04928200  0.38967800  0.62935400  1
  O  O32  1  0.50037000  0.67969500  0.26410000  1
  O  O33  1  0.32030500  0.49963000  0.23590000  1
  O  O34  1  0.49963000  0.32030500  0.73590000  1
  O  O35  1  0.67969500  0.50037000  0.76410000  1
  O  O36  1  0.55167200  0.77857200  0.45848100  1
  O  O37  1  0.22142800  0.44832800  0.04151900  1
  O  O38  1  0.44832800  0.22142800  0.54151900  1
  O  O39  1  0.77857200  0.55167200  0.95848100  1
  O  O40  1  0.36049500  0.69322100  0.55103400  1
  O  O41  1  0.30677900  0.63950500  0.94896600  1
  O  O42  1  0.63950500  0.30677900  0.44896600  1
  O  O43  1  0.69322100  0.36049500  0.05103400  1
  O  O44  1  0.36397400  0.86318000  0.96291200  1
  O  O45  1  0.13682000  0.63602600  0.53708800  1
  O  O46  1  0.63602600  0.13682000  0.03708800  1
  O  O47  1  0.86318000  0.36397400  0.46291200  1
