# generated using pymatgen
data_CeI4O13
_symmetry_space_group_name_H-M   'P 1'
_cell_length_a   15.06090600
_cell_length_b   8.12119800
_cell_length_c   9.77585953
_cell_angle_alpha   82.31530070
_cell_angle_beta   90.00000000
_cell_angle_gamma   90.00000000
_symmetry_Int_Tables_number   1
_chemical_formula_structural   CeI4O13
_chemical_formula_sum   'Ce4 I16 O52'
_cell_volume   1184.97204913
_cell_formula_units_Z   4
loop_
 _symmetry_equiv_pos_site_id
 _symmetry_equiv_pos_as_xyz
  1  'x, y, z'
loop_
 _atom_site_type_symbol
 _atom_site_label
 _atom_site_symmetry_multiplicity
 _atom_site_fract_x
 _atom_site_fract_y
 _atom_site_fract_z
 _atom_site_occupancy
  Ce  Ce0  1  0.26281900  0.46660200  0.12077000  1
  Ce  Ce1  1  0.23718100  0.96660200  0.62077000  1
  Ce  Ce2  1  0.73718100  0.53339800  0.87923000  1
  Ce  Ce3  1  0.76281900  0.03339800  0.37923000  1
  I  I4  1  0.38300900  0.23078300  0.87089600  1
  I  I5  1  0.11699100  0.73078300  0.37089600  1
  I  I6  1  0.61699100  0.76921700  0.12910400  1
  I  I7  1  0.88300900  0.26921700  0.62910400  1
  I  I8  1  0.07575400  0.23533100  0.33270500  1
  I  I9  1  0.42424600  0.73533100  0.83270500  1
  I  I10  1  0.92424600  0.76466900  0.66729500  1
  I  I11  1  0.57575400  0.26466900  0.16729500  1
  I  I12  1  0.41556800  0.28398700  0.43175900  1
  I  I13  1  0.08443200  0.78398700  0.93175900  1
  I  I14  1  0.58443200  0.71601300  0.56824100  1
  I  I15  1  0.91556800  0.21601300  0.06824100  1
  I  I16  1  0.12062900  0.34925100  0.78883600  1
  I  I17  1  0.37937100  0.84925100  0.28883600  1
  I  I18  1  0.87937100  0.65074900  0.21116400  1
  I  I19  1  0.62062900  0.15074900  0.71116400  1
  O  O20  1  0.49933600  0.17036700  0.89486200  1
  O  O21  1  0.00066400  0.67036700  0.39486200  1
  O  O22  1  0.50066400  0.82963300  0.10513800  1
  O  O23  1  0.99933600  0.32963300  0.60513800  1
  O  O24  1  0.36315300  0.26209200  0.05203700  1
  O  O25  1  0.13684700  0.76209200  0.55203700  1
  O  O26  1  0.63684700  0.73790800  0.94796300  1
  O  O27  1  0.86315300  0.23790800  0.44796300  1
  O  O28  1  0.33287300  0.02374600  0.86947700  1
  O  O29  1  0.16712700  0.52374600  0.36947700  1
  O  O30  1  0.66712700  0.97625400  0.13052300  1
  O  O31  1  0.83287300  0.47625400  0.63052300  1
  O  O32  1  0.01641100  0.05840200  0.27891500  1
  O  O33  1  0.48358900  0.55840200  0.77891500  1
  O  O34  1  0.98358900  0.94159800  0.72108500  1
  O  O35  1  0.51641100  0.44159800  0.22108500  1
  O  O36  1  0.15083100  0.11177900  0.45554100  1
  O  O37  1  0.34916900  0.61177900  0.95554100  1
  O  O38  1  0.84916900  0.88822100  0.54445900  1
  O  O39  1  0.65083100  0.38822100  0.04445900  1
  O  O40  1  0.15447500  0.27334800  0.18659600  1
  O  O41  1  0.34552500  0.77334800  0.68659600  1
  O  O42  1  0.84552500  0.72665200  0.81340400  1
  O  O43  1  0.65447500  0.22665200  0.31340400  1
  O  O44  1  0.46583400  0.11549500  0.34969000  1
  O  O45  1  0.03416600  0.61549500  0.84969000  1
  O  O46  1  0.53416600  0.88450500  0.65031000  1
  O  O47  1  0.96583400  0.38450500  0.15031000  1
  O  O48  1  0.35826000  0.15709900  0.57773200  1
  O  O49  1  0.14174000  0.65709900  0.07773200  1
  O  O50  1  0.64174000  0.84290100  0.42226800  1
  O  O51  1  0.85826000  0.34290100  0.92226800  1
  O  O52  1  0.31905000  0.31674800  0.31558900  1
  O  O53  1  0.18095000  0.81674800  0.81558900  1
  O  O54  1  0.68095000  0.68325200  0.68441100  1
  O  O55  1  0.81905000  0.18325200  0.18441100  1
  O  O56  1  0.04487300  0.22444600  0.90542400  1
  O  O57  1  0.45512700  0.72444600  0.40542400  1
  O  O58  1  0.95512700  0.77555400  0.09457600  1
  O  O59  1  0.54487300  0.27555400  0.59457600  1
  O  O60  1  0.17990400  0.17591500  0.72402700  1
  O  O61  1  0.32009600  0.67591500  0.22402700  1
  O  O62  1  0.82009600  0.82408500  0.27597300  1
  O  O63  1  0.67990400  0.32408500  0.77597300  1
  O  O64  1  0.21041600  0.39141900  0.90951500  1
  O  O65  1  0.28958400  0.89141900  0.40951500  1
  O  O66  1  0.78958400  0.60858100  0.09048500  1
  O  O67  1  0.71041600  0.10858100  0.59048500  1
  O  O68  1  0.26859200  0.47253400  0.57785300  1
  O  O69  1  0.23140800  0.97253400  0.07785300  1
  O  O70  1  0.73140800  0.52746600  0.42214700  1
  O  O71  1  0.76859200  0.02746600  0.92214700  1
