# generated using pymatgen
data_RbU(SeO4)2
_symmetry_space_group_name_H-M   'P 1'
_cell_length_a   10.40619800
_cell_length_b   9.06746200
_cell_length_c   13.16069381
_cell_angle_alpha   49.53645975
_cell_angle_beta   90.00000000
_cell_angle_gamma   90.00000000
_symmetry_Int_Tables_number   1
_chemical_formula_structural   RbU(SeO4)2
_chemical_formula_sum   'Rb4 U4 Se8 O32'
_cell_volume   944.79592548
_cell_formula_units_Z   4
loop_
 _symmetry_equiv_pos_site_id
 _symmetry_equiv_pos_as_xyz
  1  'x, y, z'
loop_
 _atom_site_type_symbol
 _atom_site_label
 _atom_site_symmetry_multiplicity
 _atom_site_fract_x
 _atom_site_fract_y
 _atom_site_fract_z
 _atom_site_occupancy
  Rb  Rb0  1  0.56025200  0.27351200  0.44182000  1
  Rb  Rb1  1  0.93974800  0.27351200  0.94182000  1
  Rb  Rb2  1  0.43974800  0.72648800  0.55818000  1
  Rb  Rb3  1  0.06025200  0.72648800  0.05818000  1
  U  U4  1  0.79641500  0.81067100  0.31400800  1
  U  U5  1  0.70358500  0.81067100  0.81400800  1
  U  U6  1  0.20358500  0.18932900  0.68599200  1
  U  U7  1  0.29641500  0.18932900  0.18599200  1
  Se  Se8  1  0.96634400  0.20241700  0.30342200  1
  Se  Se9  1  0.53365600  0.20241700  0.80342200  1
  Se  Se10  1  0.03365600  0.79758300  0.69657800  1
  Se  Se11  1  0.46634400  0.79758300  0.19657800  1
  Se  Se12  1  0.12632700  0.71266000  0.40162400  1
  Se  Se13  1  0.37367300  0.71266000  0.90162400  1
  Se  Se14  1  0.87367300  0.28734000  0.59837600  1
  Se  Se15  1  0.62632700  0.28734000  0.09837600  1
  O  O16  1  0.87143800  0.38087900  0.26431900  1
  O  O17  1  0.62856200  0.38087900  0.76431900  1
  O  O18  1  0.12856200  0.61912100  0.73568100  1
  O  O19  1  0.37143800  0.61912100  0.23568100  1
  O  O20  1  0.90377800  0.10834200  0.23567600  1
  O  O21  1  0.59622200  0.10834200  0.73567600  1
  O  O22  1  0.09622200  0.89165800  0.76432400  1
  O  O23  1  0.40377800  0.89165800  0.26432400  1
  O  O24  1  0.97298900  0.70792700  0.45608400  1
  O  O25  1  0.52701100  0.70792700  0.95608400  1
  O  O26  1  0.02701100  0.29207300  0.54391600  1
  O  O27  1  0.47298900  0.29207300  0.04391600  1
  O  O28  1  0.18955900  0.91165100  0.37610000  1
  O  O29  1  0.31044100  0.91165100  0.87610000  1
  O  O30  1  0.81044100  0.08834900  0.62390000  1
  O  O31  1  0.68955900  0.08834900  0.12390000  1
  O  O32  1  0.79293100  0.47231400  0.45532600  1
  O  O33  1  0.70706900  0.47231400  0.95532600  1
  O  O34  1  0.20706900  0.52768600  0.54467400  1
  O  O35  1  0.29293100  0.52768600  0.04467400  1
  O  O36  1  0.60929200  0.69192300  0.27631500  1
  O  O37  1  0.89070800  0.69192300  0.77631500  1
  O  O38  1  0.39070800  0.30807700  0.72368500  1
  O  O39  1  0.10929200  0.30807700  0.22368500  1
  O  O40  1  0.90022700  0.82666400  0.19458800  1
  O  O41  1  0.59977300  0.82666400  0.69458800  1
  O  O42  1  0.09977300  0.17333600  0.80541200  1
  O  O43  1  0.40022700  0.17333600  0.30541200  1
  O  O44  1  0.69834400  0.81807100  0.42537700  1
  O  O45  1  0.80165600  0.81807100  0.92537700  1
  O  O46  1  0.30165600  0.18192900  0.57462300  1
  O  O47  1  0.19834400  0.18192900  0.07462300  1
