# generated using pymatgen
data_CaMgB2O5
_symmetry_space_group_name_H-M   'P 1'
_cell_length_a   5.54663413
_cell_length_b   11.21442789
_cell_length_c   36.50167844
_cell_angle_alpha   90.00000000
_cell_angle_beta   90.00000000
_cell_angle_gamma   90.00000000
_symmetry_Int_Tables_number   1
_chemical_formula_structural   CaMgB2O5
_chemical_formula_sum   'Ca24 Mg24 B48 O120'
_cell_volume   2270.48939251
_cell_formula_units_Z   24
loop_
 _symmetry_equiv_pos_site_id
 _symmetry_equiv_pos_as_xyz
  1  'x, y, z'
loop_
 _atom_site_type_symbol
 _atom_site_label
 _atom_site_symmetry_multiplicity
 _atom_site_fract_x
 _atom_site_fract_y
 _atom_site_fract_z
 _atom_site_occupancy
  Ca  Ca0  1  0.97315388  0.12027649  0.94786118  1
  Ca  Ca1  1  0.47315388  0.87972351  0.05213882  1
  Ca  Ca2  1  0.47315388  0.37972351  0.94786118  1
  Ca  Ca3  1  0.97315388  0.62027649  0.05213882  1
  Ca  Ca4  1  0.28093406  0.61814539  0.88706251  1
  Ca  Ca5  1  0.78093406  0.38185461  0.11293749  1
  Ca  Ca6  1  0.78093406  0.88185461  0.88706251  1
  Ca  Ca7  1  0.28093406  0.11814539  0.11293749  1
  Ca  Ca8  1  0.20944418  0.12714561  0.78088056  1
  Ca  Ca9  1  0.70944418  0.87285439  0.21911944  1
  Ca  Ca10  1  0.70944418  0.37285439  0.78088056  1
  Ca  Ca11  1  0.20944418  0.62714561  0.21911944  1
  Ca  Ca12  1  0.98287236  0.87294094  0.72216909  1
  Ca  Ca13  1  0.48287236  0.12705906  0.27783091  1
  Ca  Ca14  1  0.48287236  0.62705906  0.72216909  1
  Ca  Ca15  1  0.98287236  0.37294094  0.27783091  1
  Ca  Ca16  1  0.90757569  0.38132604  0.61495596  1
  Ca  Ca17  1  0.40757569  0.61867396  0.38504404  1
  Ca  Ca18  1  0.40757569  0.11867396  0.61495596  1
  Ca  Ca19  1  0.90757569  0.88132604  0.38504404  1
  Ca  Ca20  1  0.22587759  0.88042509  0.55335553  1
  Ca  Ca21  1  0.72587759  0.11957491  0.44664447  1
  Ca  Ca22  1  0.72587759  0.61957491  0.55335553  1
  Ca  Ca23  1  0.22587759  0.38042509  0.44664447  1
  Mg  Mg24  1  0.00063798  0.86965087  0.99561333  1
  Mg  Mg25  1  0.50063798  0.13034913  0.00438667  1
  Mg  Mg26  1  0.50063798  0.63034913  0.99561333  1
  Mg  Mg27  1  0.00063798  0.36965087  0.00438667  1
  Mg  Mg28  1  0.23433996  0.87180369  0.83052147  1
  Mg  Mg29  1  0.73433996  0.12819631  0.16947853  1
  Mg  Mg30  1  0.73433996  0.62819631  0.83052147  1
  Mg  Mg31  1  0.23433996  0.37180369  0.16947853  1
  Mg  Mg32  1  0.23107315  0.37120590  0.83907281  1
  Mg  Mg33  1  0.73107315  0.62879410  0.16092719  1
  Mg  Mg34  1  0.73107315  0.12879410  0.83907281  1
  Mg  Mg35  1  0.23107315  0.87120590  0.16092719  1
  Mg  Mg36  1  0.95619275  0.62775031  0.66401140  1
  Mg  Mg37  1  0.45619275  0.37224969  0.33598860  1
  Mg  Mg38  1  0.45619275  0.87224969  0.66401140  1
  Mg  Mg39  1  0.95619275  0.12775031  0.33598860  1
  Mg  Mg40  1  0.95511658  0.12779563  0.67207840  1
  Mg  Mg41  1  0.45511658  0.87220437  0.32792160  1
  Mg  Mg42  1  0.45511658  0.37220437  0.67207840  1
  Mg  Mg43  1  0.95511658  0.62779563  0.32792160  1
  Mg  Mg44  1  0.18556619  0.63146042  0.49586432  1
  Mg  Mg45  1  0.68556619  0.36853958  0.50413568  1
  Mg  Mg46  1  0.68556619  0.86853958  0.49586432  1
  Mg  Mg47  1  0.18556619  0.13146042  0.50413568  1
  B  B48  1  0.18729228  0.38476743  0.52665183  1
  B  B49  1  0.68729228  0.61523257  0.47334817  1
  B  B50  1  0.68729228  0.11523257  0.52665183  1
  B  B51  1  0.18729228  0.88476743  0.47334817  1
  B  B52  1  0.21788338  0.62290394  0.80984365  1
  B  B53  1  0.71788338  0.37709606  0.19015635  1
  B  B54  1  0.71788338  0.87709606  0.80984365  1
  B  B55  1  0.21788338  0.12290394  0.19015635  1
  B  B56  1  0.99971184  0.61820871  0.97437692  1
  B  B57  1  0.49971184  0.38179129  0.02562308  1
  B  B58  1  0.49971184  0.88179129  0.97437692  1
  B  B59  1  0.99971184  0.11820871  0.02562308  1
  B  B60  1  0.47280609  0.12635807  0.69299097  1
  B  B61  1  0.97280609  0.87364193  0.30700903  1
  B  B62  1  0.97280609  0.37364193  0.69299097  1
  B  B63  1  0.47280609  0.62635807  0.30700903  1
  B  B64  1  0.44668588  0.61562732  0.64350733  1
  B  B65  1  0.94668588  0.38437268  0.35649267  1
  B  B66  1  0.94668588  0.88437268  0.64350733  1
  B  B67  1  0.44668588  0.11562732  0.35649267  1
  B  B68  1  0.23729436  0.11639260  0.85925936  1
  B  B69  1  0.73729436  0.88360740  0.14074064  1
  B  B70  1  0.73729436  0.38360740  0.85925936  1
  B  B71  1  0.23729436  0.61639260  0.14074064  1
  B  B72  1  0.18416794  0.62380750  0.58819291  1
  B  B73  1  0.68416794  0.37619250  0.41180709  1
  B  B74  1  0.68416794  0.87619250  0.58819291  1
  B  B75  1  0.18416794  0.12380750  0.41180709  1
  B  B76  1  0.23938076  0.87626827  0.92020656  1
  B  B77  1  0.73938076  0.12373173  0.07979344  1
  B  B78  1  0.73938076  0.62373173  0.92020656  1
  B  B79  1  0.23938076  0.37626827  0.07979344  1
  B  B80  1  0.45342310  0.37831114  0.58090229  1
  B  B81  1  0.95342310  0.62168886  0.41909771  1
  B  B82  1  0.95342310  0.12168886  0.58090229  1
  B  B83  1  0.45342310  0.87831114  0.41909771  1
  B  B84  1  0.44466560  0.88166661  0.75540905  1
  B  B85  1  0.94466560  0.11833339  0.24459095  1
  B  B86  1  0.94466560  0.61833339  0.75540905  1
  B  B87  1  0.44466560  0.38166661  0.24459095  1
  B  B88  1  0.49868212  0.12449728  0.91435142  1
  B  B89  1  0.99868212  0.87550272  0.08564858  1
  B  B90  1  0.99868212  0.37550272  0.91435142  1
  B  B91  1  0.49868212  0.62449728  0.08564858  1
  B  B92  1  0.24916746  0.37904800  0.74748947  1
  B  B93  1  0.74916746  0.62095200  0.25251053  1
  B  B94  1  0.74916746  0.12095200  0.74748947  1
  B  B95  1  0.24916746  0.87904800  0.25251053  1
  O  O96  1  0.46896044  0.33135080  0.61540078  1
  O  O97  1  0.96896044  0.66864920  0.38459922  1
  O  O98  1  0.96896044  0.16864920  0.61540078  1
  O  O99  1  0.46896044  0.83135080  0.38459922  1
  O  O100  1  0.01463997  0.36863099  0.73157180  1
  O  O101  1  0.51463997  0.63136901  0.26842820  1
  O  O102  1  0.51463997  0.13136901  0.73157180  1
  O  O103  1  0.01463997  0.86863099  0.26842820  1
  O  O104  1  0.15303929  0.08951789  0.56115581  1
  O  O105  1  0.65303929  0.91048211  0.43884419  1
  O  O106  1  0.65303929  0.41048211  0.56115581  1
  O  O107  1  0.15303929  0.58951789  0.43884419  1
  O  O108  1  0.18204793  0.66758727  0.55322739  1
  O  O109  1  0.68204793  0.33241273  0.44677261  1
  O  O110  1  0.68204793  0.83241273  0.55322739  1
  O  O111  1  0.18204793  0.16758727  0.44677261  1
  O  O112  1  0.24927737  0.91850616  0.77502001  1
  O  O113  1  0.74927737  0.08149384  0.22497999  1
  O  O114  1  0.74927737  0.58149384  0.77502001  1
  O  O115  1  0.24927737  0.41850616  0.22497999  1
  O  O116  1  0.22504416  0.83017987  0.88575453  1
  O  O117  1  0.72504416  0.16982013  0.11424547  1
  O  O118  1  0.72504416  0.66982013  0.88575453  1
  O  O119  1  0.22504416  0.33017987  0.11424547  1
  O  O120  1  0.44332393  0.41763304  0.72810476  1
  O  O121  1  0.94332393  0.58236696  0.27189524  1
  O  O122  1  0.94332393  0.08236696  0.72810476  1
  O  O123  1  0.44332393  0.91763304  0.27189524  1
  O  O124  1  0.17966352  0.62495702  0.77124907  1
  O  O125  1  0.67966352  0.37504298  0.22875093  1
  O  O126  1  0.67966352  0.87504298  0.77124907  1
  O  O127  1  0.17966352  0.12495702  0.22875093  1
  O  O128  1  0.97505910  0.61130487  0.93576027  1
  O  O129  1  0.47505910  0.38869513  0.06423973  1
  O  O130  1  0.47505910  0.88869513  0.93576027  1
  O  O131  1  0.97505910  0.11130487  0.06423973  1
  O  O132  1  0.21793662  0.39244682  0.56524351  1
  O  O133  1  0.71793662  0.60755318  0.43475649  1
  O  O134  1  0.71793662  0.10755318  0.56524351  1
  O  O135  1  0.21793662  0.89244682  0.43475649  1
  O  O136  1  0.32854319  0.30499412  0.50764909  1
  O  O137  1  0.82854319  0.69500588  0.49235091  1
  O  O138  1  0.82854319  0.19500588  0.50764909  1
  O  O139  1  0.32854319  0.80499412  0.49235091  1
  O  O140  1  0.26732130  0.10925987  0.89755419  1
  O  O141  1  0.76732130  0.89074013  0.10244581  1
  O  O142  1  0.76732130  0.39074013  0.89755419  1
  O  O143  1  0.26732130  0.60925987  0.10244581  1
  O  O144  1  0.47777610  0.90349659  0.60699078  1
  O  O145  1  0.97777610  0.09650341  0.39300922  1
  O  O146  1  0.97777610  0.59650341  0.60699078  1
  O  O147  1  0.47777610  0.40349659  0.39300922  1
  O  O148  1  0.03944762  0.90937756  0.93963825  1
  O  O149  1  0.53944762  0.09062244  0.06036175  1
  O  O150  1  0.53944762  0.59062244  0.93963825  1
  O  O151  1  0.03944762  0.40937756  0.06036175  1
  O  O152  1  0.26816382  0.34108882  0.78302023  1
  O  O153  1  0.76816382  0.65891118  0.21697977  1
  O  O154  1  0.76816382  0.15891118  0.78302023  1
  O  O155  1  0.26816382  0.84108882  0.21697977  1
  O  O156  1  0.20555134  0.40247055  0.89585734  1
  O  O157  1  0.70555134  0.59752945  0.10414266  1
  O  O158  1  0.70555134  0.09752945  0.89585734  1
  O  O159  1  0.20555134  0.90247055  0.10414266  1
  O  O160  1  0.41441824  0.60660499  0.60513256  1
  O  O161  1  0.91441824  0.39339501  0.39486744  1
  O  O162  1  0.91441824  0.89339501  0.60513256  1
  O  O163  1  0.41441824  0.10660499  0.39486744  1
  O  O164  1  0.42531182  0.84215421  0.72021188  1
  O  O165  1  0.92531182  0.15784579  0.27978812  1
  O  O166  1  0.92531182  0.65784579  0.72021188  1
  O  O167  1  0.42531182  0.34215421  0.27978812  1
  O  O168  1  0.10493272  0.44889763  0.67108080  1
  O  O169  1  0.60493272  0.55110237  0.32891920  1
  O  O170  1  0.60493272  0.05110237  0.67108080  1
  O  O171  1  0.10493272  0.94889763  0.32891920  1
  O  O172  1  0.16117025  0.54722570  0.99272816  1
  O  O173  1  0.66117025  0.45277430  0.00727184  1
  O  O174  1  0.66117025  0.95277430  0.99272816  1
  O  O175  1  0.16117025  0.04722570  0.00727184  1
  O  O176  1  0.11318795  0.95517547  0.66100930  1
  O  O177  1  0.61318795  0.04482453  0.33899070  1
  O  O178  1  0.61318795  0.54482453  0.66100930  1
  O  O179  1  0.11318795  0.45517547  0.33899070  1
  O  O180  1  0.38841181  0.69711549  0.82433792  1
  O  O181  1  0.88841181  0.30288451  0.17566208  1
  O  O182  1  0.88841181  0.80288451  0.82433792  1
  O  O183  1  0.38841181  0.19711549  0.17566208  1
  O  O184  1  0.35370004  0.80353323  0.99270273  1
  O  O185  1  0.85370004  0.19646677  0.00729727  1
  O  O186  1  0.85370004  0.69646677  0.99270273  1
  O  O187  1  0.35370004  0.30353323  0.00729727  1
  O  O188  1  0.30924873  0.69540278  0.66307329  1
  O  O189  1  0.80924873  0.30459722  0.33692671  1
  O  O190  1  0.80924873  0.80459722  0.66307329  1
  O  O191  1  0.30924873  0.19540278  0.33692671  1
  O  O192  1  0.49514907  0.16693469  0.94921444  1
  O  O193  1  0.99514907  0.83306531  0.05078556  1
  O  O194  1  0.99514907  0.33306531  0.94921444  1
  O  O195  1  0.49514907  0.66693469  0.05078556  1
  O  O196  1  0.30012342  0.19889854  0.67817445  1
  O  O197  1  0.80012342  0.80110146  0.32182555  1
  O  O198  1  0.80012342  0.30110146  0.67817445  1
  O  O199  1  0.30012342  0.69889854  0.32182555  1
  O  O200  1  0.37771933  0.19508509  0.83995199  1
  O  O201  1  0.87771933  0.80491491  0.16004801  1
  O  O202  1  0.87771933  0.30491491  0.83995199  1
  O  O203  1  0.37771933  0.69508509  0.16004801  1
  O  O204  1  0.07141955  0.04497423  0.84191739  1
  O  O205  1  0.57141955  0.95502577  0.15808261  1
  O  O206  1  0.57141955  0.45502577  0.84191739  1
  O  O207  1  0.07141955  0.54497423  0.15808261  1
  O  O208  1  0.52346406  0.04435640  0.50867570  1
  O  O209  1  0.02346406  0.95564360  0.49132430  1
  O  O210  1  0.02346406  0.45564360  0.50867570  1
  O  O211  1  0.52346406  0.54435640  0.49132430  1
  O  O212  1  0.08300212  0.54948377  0.83195938  1
  O  O213  1  0.58300212  0.45051623  0.16804062  1
  O  O214  1  0.58300212  0.95051623  0.83195938  1
  O  O215  1  0.08300212  0.04948377  0.16804062  1
