# generated using pymatgen
data_MgH2(CO2)2
_symmetry_space_group_name_H-M   'P 1'
_cell_length_a   14.23765900
_cell_length_b   7.65533900
_cell_length_c   25.46635000
_cell_angle_alpha   90.00000000
_cell_angle_beta   90.00000000
_cell_angle_gamma   90.00000000
_symmetry_Int_Tables_number   1
_chemical_formula_structural   MgH2(CO2)2
_chemical_formula_sum   'Mg24 H48 C48 O96'
_cell_volume   2775.68205672
_cell_formula_units_Z   24
loop_
 _symmetry_equiv_pos_site_id
 _symmetry_equiv_pos_as_xyz
  1  'x, y, z'
loop_
 _atom_site_type_symbol
 _atom_site_label
 _atom_site_symmetry_multiplicity
 _atom_site_fract_x
 _atom_site_fract_y
 _atom_site_fract_z
 _atom_site_occupancy
  Mg  Mg0  1  0.95954100  0.84747000  0.67016800  1
  Mg  Mg1  1  0.04045900  0.15253000  0.17016800  1
  Mg  Mg2  1  0.54045900  0.84747000  0.17016800  1
  Mg  Mg3  1  0.45954100  0.15253000  0.67016800  1
  Mg  Mg4  1  0.84088400  0.17656800  0.62467300  1
  Mg  Mg5  1  0.15911600  0.82343200  0.12467300  1
  Mg  Mg6  1  0.65911600  0.17656800  0.12467300  1
  Mg  Mg7  1  0.34088400  0.82343200  0.62467300  1
  Mg  Mg8  1  0.83471500  0.50939800  0.70485500  1
  Mg  Mg9  1  0.16528500  0.49060200  0.20485500  1
  Mg  Mg10  1  0.66528500  0.50939800  0.20485500  1
  Mg  Mg11  1  0.33471500  0.49060200  0.70485500  1
  Mg  Mg12  1  0.58130500  0.48702700  0.38692800  1
  Mg  Mg13  1  0.41869500  0.51297300  0.88692800  1
  Mg  Mg14  1  0.91869500  0.48702700  0.88692800  1
  Mg  Mg15  1  0.08130500  0.51297300  0.38692800  1
  Mg  Mg16  1  0.58921700  0.82114400  0.46366400  1
  Mg  Mg17  1  0.41078300  0.17885600  0.96366400  1
  Mg  Mg18  1  0.91078300  0.82114400  0.96366400  1
  Mg  Mg19  1  0.08921700  0.17885600  0.46366400  1
  Mg  Mg20  1  0.70812400  0.15460800  0.42284300  1
  Mg  Mg21  1  0.29187600  0.84539200  0.92284300  1
  Mg  Mg22  1  0.79187600  0.15460800  0.92284300  1
  Mg  Mg23  1  0.20812400  0.84539200  0.42284300  1
  H  H24  1  0.00031600  0.28225100  0.75642000  1
  H  H25  1  0.99968400  0.71774900  0.25642000  1
  H  H26  1  0.49968400  0.28225100  0.25642000  1
  H  H27  1  0.50031600  0.71774900  0.75642000  1
  H  H28  1  0.67842700  0.94489300  0.68528600  1
  H  H29  1  0.32157300  0.05510700  0.18528600  1
  H  H30  1  0.82157300  0.94489300  0.18528600  1
  H  H31  1  0.17842700  0.05510700  0.68528600  1
  H  H32  1  0.07372200  0.92638900  0.56836100  1
  H  H33  1  0.92627800  0.07361100  0.06836100  1
  H  H34  1  0.42627800  0.92638900  0.06836100  1
  H  H35  1  0.57372200  0.07361100  0.56836100  1
  H  H36  1  0.61992800  0.46168000  0.68441300  1
  H  H37  1  0.38007200  0.53832000  0.18441300  1
  H  H38  1  0.88007200  0.46168000  0.18441300  1
  H  H39  1  0.11992800  0.53832000  0.68441300  1
  H  H40  1  0.94656100  0.62058600  0.56119200  1
  H  H41  1  0.05343900  0.37941400  0.06119200  1
  H  H42  1  0.55343900  0.62058600  0.06119200  1
  H  H43  1  0.44656100  0.37941400  0.56119200  1
  H  H44  1  0.01876800  0.80048600  0.79200900  1
  H  H45  1  0.98123200  0.19951400  0.29200900  1
  H  H46  1  0.48123200  0.80048600  0.29200900  1
  H  H47  1  0.51876800  0.19951400  0.79200900  1
  H  H48  1  0.77297300  0.85187400  0.54597400  1
  H  H49  1  0.22702700  0.14812600  0.04597400  1
  H  H50  1  0.72702700  0.85187400  0.04597400  1
  H  H51  1  0.27297300  0.14812600  0.54597400  1
  H  H52  1  0.75342500  0.71873300  0.33542900  1
  H  H53  1  0.24657500  0.28126700  0.83542900  1
  H  H54  1  0.74657500  0.71873300  0.83542900  1
  H  H55  1  0.25342500  0.28126700  0.33542900  1
  H  H56  1  0.70418300  0.38680600  0.52866500  1
  H  H57  1  0.29581700  0.61319400  0.02866500  1
  H  H58  1  0.79581700  0.38680600  0.02866500  1
  H  H59  1  0.20418300  0.61319400  0.52866500  1
  H  H60  1  0.42856600  0.04657100  0.40506500  1
  H  H61  1  0.57143400  0.95342900  0.90506500  1
  H  H62  1  0.07143400  0.04657100  0.90506500  1
  H  H63  1  0.92856600  0.95342900  0.40506500  1
  H  H64  1  0.36443300  0.52582300  0.41920900  1
  H  H65  1  0.63556700  0.47417700  0.91920900  1
  H  H66  1  0.13556700  0.52582300  0.91920900  1
  H  H67  1  0.86443300  0.47417700  0.41920900  1
  H  H68  1  0.77227800  0.19919500  0.30260300  1
  H  H69  1  0.22772200  0.80080500  0.80260300  1
  H  H70  1  0.72772200  0.19919500  0.80260300  1
  H  H71  1  0.27227800  0.80080500  0.30260300  1
  C  C72  1  0.97277900  0.20411300  0.72334300  1
  C  C73  1  0.02722100  0.79588700  0.22334300  1
  C  C74  1  0.52722100  0.20411300  0.22334300  1
  C  C75  1  0.47277900  0.79588700  0.72334300  1
  C  C76  1  0.74445500  0.86935500  0.68668200  1
  C  C77  1  0.25554500  0.13064500  0.18668200  1
  C  C78  1  0.75554500  0.86935500  0.18668200  1
  C  C79  1  0.24445500  0.13064500  0.68668200  1
  C  C80  1  0.01317900  0.01653000  0.56503200  1
  C  C81  1  0.98682100  0.98347000  0.06503200  1
  C  C82  1  0.48682100  0.01653000  0.06503200  1
  C  C83  1  0.51317900  0.98347000  0.56503200  1
  C  C84  1  0.65079100  0.34211100  0.66726700  1
  C  C85  1  0.34920900  0.65788900  0.16726700  1
  C  C86  1  0.84920900  0.34211100  0.16726700  1
  C  C87  1  0.15079100  0.65788900  0.66726700  1
  C  C88  1  0.91255900  0.54350900  0.59280500  1
  C  C89  1  0.08744100  0.45649100  0.09280500  1
  C  C90  1  0.58744100  0.54350900  0.09280500  1
  C  C91  1  0.41255900  0.45649100  0.59280500  1
  C  C92  1  0.97739800  0.68204100  0.78222800  1
  C  C93  1  0.02260200  0.31795900  0.28222800  1
  C  C94  1  0.52260200  0.68204100  0.28222800  1
  C  C95  1  0.47739800  0.31795900  0.78222800  1
  C  C96  1  0.74797000  0.98134100  0.53225800  1
  C  C97  1  0.25203000  0.01865900  0.03225800  1
  C  C98  1  0.75203000  0.98134100  0.03225800  1
  C  C99  1  0.24797000  0.01865900  0.53225800  1
  C  C100  1  0.72267200  0.79512900  0.36806900  1
  C  C101  1  0.27732800  0.20487100  0.86806900  1
  C  C102  1  0.77732800  0.79512900  0.86806900  1
  C  C103  1  0.22267200  0.20487100  0.36806900  1
  C  C104  1  0.66729900  0.46374400  0.49826800  1
  C  C105  1  0.33270100  0.53625600  0.99826800  1
  C  C106  1  0.83270100  0.46374400  0.99826800  1
  C  C107  1  0.16729900  0.53625600  0.49826800  1
  C  C108  1  0.49318800  0.12620800  0.40429800  1
  C  C109  1  0.50681200  0.87379200  0.90429800  1
  C  C110  1  0.00681200  0.12620800  0.90429800  1
  C  C111  1  0.99318800  0.87379200  0.40429800  1
  C  C112  1  0.39808200  0.65318000  0.42772000  1
  C  C113  1  0.60191800  0.34682000  0.92772000  1
  C  C114  1  0.10191800  0.65318000  0.92772000  1
  C  C115  1  0.89808200  0.34682000  0.42772000  1
  C  C116  1  0.72659900  0.31358800  0.31028400  1
  C  C117  1  0.27340100  0.68641200  0.81028400  1
  C  C118  1  0.77340100  0.31358800  0.81028400  1
  C  C119  1  0.22659900  0.68641200  0.31028400  1
  O  O120  1  0.00016100  0.04889500  0.71872100  1
  O  O121  1  0.99983900  0.95110500  0.21872100  1
  O  O122  1  0.49983900  0.04889500  0.21872100  1
  O  O123  1  0.50016100  0.95110500  0.71872100  1
  O  O124  1  0.91434900  0.28110700  0.69263200  1
  O  O125  1  0.08565100  0.71889300  0.19263200  1
  O  O126  1  0.58565100  0.28110700  0.19263200  1
  O  O127  1  0.41434900  0.71889300  0.69263200  1
  O  O128  1  0.81872700  0.94843900  0.67060400  1
  O  O129  1  0.18127300  0.05156100  0.17060400  1
  O  O130  1  0.68127300  0.94843900  0.17060400  1
  O  O131  1  0.31872700  0.05156100  0.67060400  1
  O  O132  1  0.74167800  0.71530000  0.70360900  1
  O  O133  1  0.25832200  0.28470000  0.20360900  1
  O  O134  1  0.75832200  0.71530000  0.20360900  1
  O  O135  1  0.24167800  0.28470000  0.70360900  1
  O  O136  1  0.95583100  0.01362200  0.60409800  1
  O  O137  1  0.04416900  0.98637800  0.10409800  1
  O  O138  1  0.54416900  0.01362200  0.10409800  1
  O  O139  1  0.45583100  0.98637800  0.60409800  1
  O  O140  1  0.00477200  0.11068700  0.52532800  1
  O  O141  1  0.99522800  0.88931300  0.02532800  1
  O  O142  1  0.49522800  0.11068700  0.02532800  1
  O  O143  1  0.50477200  0.88931300  0.52532800  1
  O  O144  1  0.74011500  0.34366200  0.66086900  1
  O  O145  1  0.25988500  0.65633800  0.16086900  1
  O  O146  1  0.75988500  0.34366200  0.16086900  1
  O  O147  1  0.24011500  0.65633800  0.66086900  1
  O  O148  1  0.59805000  0.21611700  0.65562500  1
  O  O149  1  0.40195000  0.78388300  0.15562500  1
  O  O150  1  0.90195000  0.21611700  0.15562500  1
  O  O151  1  0.09805000  0.78388300  0.65562500  1
  O  O152  1  0.90257800  0.62089300  0.63712700  1
  O  O153  1  0.09742200  0.37910700  0.13712700  1
  O  O154  1  0.59742200  0.62089300  0.13712700  1
  O  O155  1  0.40257800  0.37910700  0.63712700  1
  O  O156  1  0.88720900  0.39121200  0.58263000  1
  O  O157  1  0.11279100  0.60878800  0.08263000  1
  O  O158  1  0.61279100  0.39121200  0.08263000  1
  O  O159  1  0.38720900  0.60878800  0.58263000  1
  O  O160  1  0.94181400  0.67766300  0.73595700  1
  O  O161  1  0.05818600  0.32233700  0.23595700  1
  O  O162  1  0.55818600  0.67766300  0.23595700  1
  O  O163  1  0.44181400  0.32233700  0.73595700  1
  O  O164  1  0.96930100  0.56361700  0.81566400  1
  O  O165  1  0.03069900  0.43638300  0.31566400  1
  O  O166  1  0.53069900  0.56361700  0.31566400  1
  O  O167  1  0.46930100  0.43638300  0.81566400  1
  O  O168  1  0.76247900  0.11283300  0.56017900  1
  O  O169  1  0.23752100  0.88716700  0.06017900  1
  O  O170  1  0.73752100  0.11283300  0.06017900  1
  O  O171  1  0.26247900  0.88716700  0.56017900  1
  O  O172  1  0.70412200  0.98336600  0.48829000  1
  O  O173  1  0.29587800  0.01663400  0.98829000  1
  O  O174  1  0.79587800  0.98336600  0.98829000  1
  O  O175  1  0.20412200  0.01663400  0.48829000  1
  O  O176  1  0.66178300  0.71600800  0.39667200  1
  O  O177  1  0.33821700  0.28399200  0.89667200  1
  O  O178  1  0.83821700  0.71600800  0.89667200  1
  O  O179  1  0.16178300  0.28399200  0.39667200  1
  O  O180  1  0.74925000  0.94997000  0.37425200  1
  O  O181  1  0.25075000  0.05003000  0.87425200  1
  O  O182  1  0.75075000  0.94997000  0.87425200  1
  O  O183  1  0.24925000  0.05003000  0.37425200  1
  O  O184  1  0.65076300  0.38381400  0.45478600  1
  O  O185  1  0.34923700  0.61618600  0.95478600  1
  O  O186  1  0.84923700  0.38381400  0.95478600  1
  O  O187  1  0.15076300  0.61618600  0.45478600  1
  O  O188  1  0.64486300  0.61873900  0.50798000  1
  O  O189  1  0.35513700  0.38126100  0.00798000  1
  O  O190  1  0.85513700  0.61873900  0.00798000  1
  O  O191  1  0.14486300  0.38126100  0.50798000  1
  O  O192  1  0.56889900  0.05007000  0.41963100  1
  O  O193  1  0.43110100  0.94993000  0.91963100  1
  O  O194  1  0.93110100  0.05007000  0.91963100  1
  O  O195  1  0.06889900  0.94993000  0.41963100  1
  O  O196  1  0.48806400  0.28177700  0.38888700  1
  O  O197  1  0.51193600  0.71822300  0.88888700  1
  O  O198  1  0.01193600  0.28177700  0.88888700  1
  O  O199  1  0.98806400  0.71822300  0.38888700  1
  O  O200  1  0.48810700  0.65228400  0.43013800  1
  O  O201  1  0.51189300  0.34771600  0.93013800  1
  O  O202  1  0.01189300  0.65228400  0.93013800  1
  O  O203  1  0.98810700  0.34771600  0.43013800  1
  O  O204  1  0.34757800  0.78580400  0.43371500  1
  O  O205  1  0.65242200  0.21419600  0.93371500  1
  O  O206  1  0.15242200  0.78580400  0.93371500  1
  O  O207  1  0.84757800  0.21419600  0.43371500  1
  O  O208  1  0.68857300  0.31956500  0.35589700  1
  O  O209  1  0.31142700  0.68043500  0.85589700  1
  O  O210  1  0.81142700  0.31956500  0.85589700  1
  O  O211  1  0.18857300  0.68043500  0.35589700  1
  O  O212  1  0.71647900  0.42639500  0.27515600  1
  O  O213  1  0.28352100  0.57360500  0.77515600  1
  O  O214  1  0.78352100  0.42639500  0.77515600  1
  O  O215  1  0.21647900  0.57360500  0.27515600  1
