# generated using pymatgen
data_Rb3TeH6(ClO2)3
_symmetry_space_group_name_H-M   'P 1'
_cell_length_a   9.26184565
_cell_length_b   9.26184565
_cell_length_c   9.26184554
_cell_angle_alpha   106.20555339
_cell_angle_beta   106.20555339
_cell_angle_gamma   106.20554577
_symmetry_Int_Tables_number   1
_chemical_formula_structural   Rb3TeH6(ClO2)3
_chemical_formula_sum   'Rb6 Te2 H12 Cl6 O12'
_cell_volume   675.49194297
_cell_formula_units_Z   2
loop_
 _symmetry_equiv_pos_site_id
 _symmetry_equiv_pos_as_xyz
  1  'x, y, z'
loop_
 _atom_site_type_symbol
 _atom_site_label
 _atom_site_symmetry_multiplicity
 _atom_site_fract_x
 _atom_site_fract_y
 _atom_site_fract_z
 _atom_site_occupancy
  Rb  Rb0  1  0.25000000  0.79569200  0.70430800  1
  Rb  Rb1  1  0.70430800  0.25000000  0.79569200  1
  Rb  Rb2  1  0.79569200  0.70430800  0.25000000  1
  Rb  Rb3  1  0.20430800  0.29569200  0.75000000  1
  Rb  Rb4  1  0.75000000  0.20430800  0.29569200  1
  Rb  Rb5  1  0.29569200  0.75000000  0.20430800  1
  Te  Te6  1  0.50000000  0.50000000  0.50000000  1
  Te  Te7  1  0.00000000  0.00000000  0.00000000  1
  H  H8  1  0.20136900  0.42701400  0.40268600  1
  H  H9  1  0.40268600  0.20136900  0.42701400  1
  H  H10  1  0.42701400  0.40268600  0.20136900  1
  H  H11  1  0.90268600  0.92701400  0.70136900  1
  H  H12  1  0.70136900  0.90268600  0.92701400  1
  H  H13  1  0.92701400  0.70136900  0.90268600  1
  H  H14  1  0.79863100  0.57298600  0.59731400  1
  H  H15  1  0.59731400  0.79863100  0.57298600  1
  H  H16  1  0.57298600  0.59731400  0.79863100  1
  H  H17  1  0.09731400  0.07298600  0.29863100  1
  H  H18  1  0.29863100  0.09731400  0.07298600  1
  H  H19  1  0.07298600  0.29863100  0.09731400  1
  Cl  Cl20  1  0.25000000  0.01744400  0.48255600  1
  Cl  Cl21  1  0.48255600  0.25000000  0.01744400  1
  Cl  Cl22  1  0.01744400  0.48255600  0.25000000  1
  Cl  Cl23  1  0.98255600  0.51744400  0.75000000  1
  Cl  Cl24  1  0.75000000  0.98255600  0.51744400  1
  Cl  Cl25  1  0.51744400  0.75000000  0.98255600  1
  O  O26  1  0.27975900  0.42017300  0.49734800  1
  O  O27  1  0.49734800  0.27975900  0.42017300  1
  O  O28  1  0.42017300  0.49734800  0.27975900  1
  O  O29  1  0.99734800  0.92017300  0.77975900  1
  O  O30  1  0.77975900  0.99734800  0.92017300  1
  O  O31  1  0.92017300  0.77975900  0.99734800  1
  O  O32  1  0.72024100  0.57982700  0.50265200  1
  O  O33  1  0.50265200  0.72024100  0.57982700  1
  O  O34  1  0.57982700  0.50265200  0.72024100  1
  O  O35  1  0.00265200  0.07982700  0.22024100  1
  O  O36  1  0.22024100  0.00265200  0.07982700  1
  O  O37  1  0.07982700  0.22024100  0.00265200  1
