# generated using pymatgen
data_BaCu(SiO3)2
_symmetry_space_group_name_H-M   'P 1'
_cell_length_a   13.44587733
_cell_length_b   13.44587733
_cell_length_c   13.44587733
_cell_angle_alpha   135.94699827
_cell_angle_beta   135.94699827
_cell_angle_gamma   64.06228736
_symmetry_Int_Tables_number   1
_chemical_formula_structural   BaCu(SiO3)2
_chemical_formula_sum   'Ba8 Cu8 Si16 O48'
_cell_volume   1159.43081707
_cell_formula_units_Z   8
loop_
 _symmetry_equiv_pos_site_id
 _symmetry_equiv_pos_as_xyz
  1  'x, y, z'
loop_
 _atom_site_type_symbol
 _atom_site_label
 _atom_site_symmetry_multiplicity
 _atom_site_fract_x
 _atom_site_fract_y
 _atom_site_fract_z
 _atom_site_occupancy
  Ba  Ba0  1  0.99897800  0.01158200  0.51032100  1
  Ba  Ba1  1  0.00126100  0.51158200  0.01260400  1
  Ba  Ba2  1  0.76158200  0.75126100  0.51260400  1
  Ba  Ba3  1  0.26158200  0.74897800  0.01032100  1
  Ba  Ba4  1  0.50126100  0.48865700  0.48967900  1
  Ba  Ba5  1  0.49897800  0.98865700  0.98739600  1
  Ba  Ba6  1  0.23865700  0.24897800  0.48739600  1
  Ba  Ba7  1  0.73865700  0.25126100  0.98967900  1
  Cu  Cu8  1  0.31805300  0.81805300  0.50000000  1
  Cu  Cu9  1  0.81805300  0.31805300  0.50000000  1
  Cu  Cu10  1  0.56805300  0.56805300  0.00000000  1
  Cu  Cu11  1  0.06805300  0.06805300  0.00000000  1
  Cu  Cu12  1  0.43498900  0.93498900  0.50000000  1
  Cu  Cu13  1  0.93498900  0.43498900  0.50000000  1
  Cu  Cu14  1  0.68498900  0.68498900  0.00000000  1
  Cu  Cu15  1  0.18498900  0.18498900  0.00000000  1
  Si  Si16  1  0.65184800  0.87590600  0.77543100  1
  Si  Si17  1  0.60047600  0.37590600  0.22405800  1
  Si  Si18  1  0.62590600  0.35047600  0.72405800  1
  Si  Si19  1  0.12590600  0.40184800  0.27543100  1
  Si  Si20  1  0.10047600  0.87641800  0.22456900  1
  Si  Si21  1  0.15184800  0.37641800  0.77594200  1
  Si  Si22  1  0.62641800  0.90184800  0.27594200  1
  Si  Si23  1  0.12641800  0.85047600  0.72456900  1
  Si  Si24  1  0.35137100  0.62552400  0.72286800  1
  Si  Si25  1  0.40265600  0.12552400  0.27415300  1
  Si  Si26  1  0.37552400  0.15265600  0.77415300  1
  Si  Si27  1  0.87552400  0.10137100  0.22286800  1
  Si  Si28  1  0.90265600  0.62850300  0.27713200  1
  Si  Si29  1  0.85137100  0.12850300  0.72584700  1
  Si  Si30  1  0.37850300  0.60137100  0.22584700  1
  Si  Si31  1  0.87850300  0.65265600  0.77713200  1
  O  O32  1  0.76878000  0.76816100  0.75183300  1
  O  O33  1  0.51632900  0.26816100  0.99938100  1
  O  O34  1  0.51816100  0.26632900  0.49938100  1
  O  O35  1  0.01816100  0.51878000  0.25183300  1
  O  O36  1  0.01632900  0.01694800  0.24816700  1
  O  O37  1  0.26878000  0.51694800  0.00061900  1
  O  O38  1  0.76694800  0.01878000  0.50061900  1
  O  O39  1  0.26694800  0.76632900  0.74816700  1
  O  O40  1  0.37667000  0.60044500  0.84086900  1
  O  O41  1  0.25957700  0.10044500  0.22377600  1
  O  O42  1  0.35044500  0.00957700  0.72377600  1
  O  O43  1  0.85044500  0.12667000  0.34086900  1
  O  O44  1  0.75957700  0.53580100  0.15913100  1
  O  O45  1  0.87667000  0.03580100  0.77622400  1
  O  O46  1  0.28580100  0.62667000  0.27622400  1
  O  O47  1  0.78580100  0.50957700  0.65913100  1
  O  O48  1  0.49416400  0.65927700  0.77906700  1
  O  O49  1  0.38021000  0.15927700  0.16511300  1
  O  O50  1  0.40927700  0.13021000  0.66511300  1
  O  O51  1  0.90927700  0.24416400  0.27906700  1
  O  O52  1  0.88021000  0.71509700  0.22093300  1
  O  O53  1  0.99416400  0.21509700  0.83488700  1
  O  O54  1  0.46509700  0.74416400  0.33488700  1
  O  O55  1  0.96509700  0.63021000  0.72093300  1
  O  O56  1  0.62796600  0.96268900  0.71867900  1
  O  O57  1  0.74400900  0.46268900  0.33472300  1
  O  O58  1  0.71268900  0.49400900  0.83472300  1
  O  O59  1  0.21268900  0.37796600  0.21867900  1
  O  O60  1  0.24400900  0.90928700  0.28132100  1
  O  O61  1  0.12796600  0.40928700  0.66527700  1
  O  O62  1  0.65928700  0.87796600  0.16527700  1
  O  O63  1  0.15928700  0.99400900  0.78132100  1
  O  O64  1  0.51008300  0.78281200  0.65951900  1
  O  O65  1  0.62329300  0.28281200  0.27273000  1
  O  O66  1  0.53281200  0.37329300  0.77273000  1
  O  O67  1  0.03281200  0.26008300  0.15951900  1
  O  O68  1  0.12329300  0.85056400  0.34048100  1
  O  O69  1  0.01008300  0.35056400  0.72727000  1
  O  O70  1  0.60056400  0.76008300  0.22727000  1
  O  O71  1  0.10056400  0.87329300  0.84048100  1
  O  O72  1  0.24363000  0.47816500  0.49940700  1
  O  O73  1  0.47875800  0.97816500  0.23453600  1
  O  O74  1  0.22816500  0.22875800  0.73453600  1
  O  O75  1  0.72816500  0.99363000  0.99940700  1
  O  O76  1  0.97875800  0.74422300  0.50059300  1
  O  O77  1  0.74363000  0.24422300  0.76546400  1
  O  O78  1  0.49422300  0.49363000  0.26546400  1
  O  O79  1  0.99422300  0.72875800  0.00059300  1
