# generated using pymatgen
data_CeN3O13
_symmetry_space_group_name_H-M   'P 1'
_cell_length_a   11.76675200
_cell_length_b   12.95501500
_cell_length_c   13.48263500
_cell_angle_alpha   90.00000000
_cell_angle_beta   90.00000000
_cell_angle_gamma   90.00000000
_symmetry_Int_Tables_number   1
_chemical_formula_structural   CeN3O13
_chemical_formula_sum   'Ce8 N24 O104'
_cell_volume   2055.27196327
_cell_formula_units_Z   8
loop_
 _symmetry_equiv_pos_site_id
 _symmetry_equiv_pos_as_xyz
  1  'x, y, z'
loop_
 _atom_site_type_symbol
 _atom_site_label
 _atom_site_symmetry_multiplicity
 _atom_site_fract_x
 _atom_site_fract_y
 _atom_site_fract_z
 _atom_site_occupancy
  Ce  Ce0  1  0.66412800  0.21562700  0.38102400  1
  Ce  Ce1  1  0.16412800  0.28437300  0.61897600  1
  Ce  Ce2  1  0.33587200  0.71562700  0.11897600  1
  Ce  Ce3  1  0.83587200  0.78437300  0.88102400  1
  Ce  Ce4  1  0.33587200  0.78437300  0.61897600  1
  Ce  Ce5  1  0.83587200  0.71562700  0.38102400  1
  Ce  Ce6  1  0.66412800  0.28437300  0.88102400  1
  Ce  Ce7  1  0.16412800  0.21562700  0.11897600  1
  N  N8  1  0.53246000  0.01515600  0.36256200  1
  N  N9  1  0.03246000  0.48484400  0.63743800  1
  N  N10  1  0.46754000  0.51515600  0.13743800  1
  N  N11  1  0.96754000  0.98484400  0.86256200  1
  N  N12  1  0.46754000  0.98484400  0.63743800  1
  N  N13  1  0.96754000  0.51515600  0.36256200  1
  N  N14  1  0.53246000  0.48484400  0.86256200  1
  N  N15  1  0.03246000  0.01515600  0.13743800  1
  N  N16  1  0.63081900  0.20333100  0.13602500  1
  N  N17  1  0.13081900  0.29666900  0.86397500  1
  N  N18  1  0.36918100  0.70333100  0.36397500  1
  N  N19  1  0.86918100  0.79666900  0.63602500  1
  N  N20  1  0.36918100  0.79666900  0.86397500  1
  N  N21  1  0.86918100  0.70333100  0.13602500  1
  N  N22  1  0.63081900  0.29666900  0.63602500  1
  N  N23  1  0.13081900  0.20333100  0.36397500  1
  N  N24  1  0.50497600  0.40720500  0.38305300  1
  N  N25  1  0.00497600  0.09279500  0.61694700  1
  N  N26  1  0.49502400  0.90720500  0.11694700  1
  N  N27  1  0.99502400  0.59279500  0.88305300  1
  N  N28  1  0.49502400  0.59279500  0.61694700  1
  N  N29  1  0.99502400  0.90720500  0.38305300  1
  N  N30  1  0.50497600  0.09279500  0.88305300  1
  N  N31  1  0.00497600  0.40720500  0.11694700  1
  O  O32  1  0.47068500  0.94152700  0.34387300  1
  O  O33  1  0.97068500  0.55847300  0.65612700  1
  O  O34  1  0.52931500  0.44152700  0.15612700  1
  O  O35  1  0.02931500  0.05847300  0.84387300  1
  O  O36  1  0.52931500  0.05847300  0.65612700  1
  O  O37  1  0.02931500  0.44152700  0.34387300  1
  O  O38  1  0.47068500  0.55847300  0.84387300  1
  O  O39  1  0.97068500  0.94152700  0.15612700  1
  O  O40  1  0.63613900  0.02038300  0.33371800  1
  O  O41  1  0.13613900  0.47961700  0.66628200  1
  O  O42  1  0.36386100  0.52038300  0.16628200  1
  O  O43  1  0.86386100  0.97961700  0.83371800  1
  O  O44  1  0.36386100  0.97961700  0.66628200  1
  O  O45  1  0.86386100  0.52038300  0.33371800  1
  O  O46  1  0.63613900  0.47961700  0.83371800  1
  O  O47  1  0.13613900  0.02038300  0.16628200  1
  O  O48  1  0.49641800  0.09364900  0.41203200  1
  O  O49  1  0.99641800  0.40635100  0.58796800  1
  O  O50  1  0.50358200  0.59364900  0.08796800  1
  O  O51  1  0.00358200  0.90635100  0.91203200  1
  O  O52  1  0.50358200  0.90635100  0.58796800  1
  O  O53  1  0.00358200  0.59364900  0.41203200  1
  O  O54  1  0.49641800  0.40635100  0.91203200  1
  O  O55  1  0.99641800  0.09364900  0.08796800  1
  O  O56  1  0.73150500  0.17586600  0.14798800  1
  O  O57  1  0.23150500  0.32413400  0.85201200  1
  O  O58  1  0.26849500  0.67586600  0.35201200  1
  O  O59  1  0.76849500  0.82413400  0.64798800  1
  O  O60  1  0.26849500  0.82413400  0.85201200  1
  O  O61  1  0.76849500  0.67586600  0.14798800  1
  O  O62  1  0.73150500  0.32413400  0.64798800  1
  O  O63  1  0.23150500  0.17586600  0.35201200  1
  O  O64  1  0.59081000  0.22441900  0.05180300  1
  O  O65  1  0.09081000  0.27558100  0.94819700  1
  O  O66  1  0.40919000  0.72441900  0.44819700  1
  O  O67  1  0.90919000  0.77558100  0.55180300  1
  O  O68  1  0.40919000  0.77558100  0.94819700  1
  O  O69  1  0.90919000  0.72441900  0.05180300  1
  O  O70  1  0.59081000  0.27558100  0.55180300  1
  O  O71  1  0.09081000  0.22441900  0.44819700  1
  O  O72  1  0.56556600  0.21059900  0.21103100  1
  O  O73  1  0.06556600  0.28940100  0.78896900  1
  O  O74  1  0.43443400  0.71059900  0.28896900  1
  O  O75  1  0.93443400  0.78940100  0.71103100  1
  O  O76  1  0.43443400  0.78940100  0.78896900  1
  O  O77  1  0.93443400  0.71059900  0.21103100  1
  O  O78  1  0.56556600  0.28940100  0.71103100  1
  O  O79  1  0.06556600  0.21059900  0.28896900  1
  O  O80  1  0.47078500  0.31402000  0.37387400  1
  O  O81  1  0.97078500  0.18598000  0.62612600  1
  O  O82  1  0.52921500  0.81402000  0.12612600  1
  O  O83  1  0.02921500  0.68598000  0.87387400  1
  O  O84  1  0.52921500  0.68598000  0.62612600  1
  O  O85  1  0.02921500  0.81402000  0.37387400  1
  O  O86  1  0.47078500  0.18598000  0.87387400  1
  O  O87  1  0.97078500  0.31402000  0.12612600  1
  O  O88  1  0.61156700  0.42232200  0.37841500  1
  O  O89  1  0.11156700  0.07767800  0.62158500  1
  O  O90  1  0.38843300  0.92232200  0.12158500  1
  O  O91  1  0.88843300  0.57767800  0.87841500  1
  O  O92  1  0.38843300  0.57767800  0.62158500  1
  O  O93  1  0.88843300  0.92232200  0.37841500  1
  O  O94  1  0.61156700  0.07767800  0.87841500  1
  O  O95  1  0.11156700  0.42232200  0.12158500  1
  O  O96  1  0.43681700  0.47796200  0.39669300  1
  O  O97  1  0.93681700  0.02203800  0.60330700  1
  O  O98  1  0.56318300  0.97796200  0.10330700  1
  O  O99  1  0.06318300  0.52203800  0.89669300  1
  O  O100  1  0.56318300  0.52203800  0.60330700  1
  O  O101  1  0.06318300  0.97796200  0.39669300  1
  O  O102  1  0.43681700  0.02203800  0.89669300  1
  O  O103  1  0.93681700  0.47796200  0.10330700  1
  O  O104  1  0.74331900  0.10244600  0.48778600  1
  O  O105  1  0.24331900  0.39755400  0.51221400  1
  O  O106  1  0.25668100  0.60244600  0.01221400  1
  O  O107  1  0.75668100  0.89755400  0.98778600  1
  O  O108  1  0.25668100  0.89755400  0.51221400  1
  O  O109  1  0.75668100  0.60244600  0.48778600  1
  O  O110  1  0.74331900  0.39755400  0.98778600  1
  O  O111  1  0.24331900  0.10244600  0.01221400  1
  O  O112  1  0.83622100  0.14230600  0.35491700  1
  O  O113  1  0.33622100  0.35769400  0.64508300  1
  O  O114  1  0.16377900  0.64230600  0.14508300  1
  O  O115  1  0.66377900  0.85769400  0.85491700  1
  O  O116  1  0.16377900  0.85769400  0.64508300  1
  O  O117  1  0.66377900  0.64230600  0.35491700  1
  O  O118  1  0.83622100  0.35769400  0.85491700  1
  O  O119  1  0.33622100  0.14230600  0.14508300  1
  O  O120  1  0.81743700  0.28899700  0.44227000  1
  O  O121  1  0.31743700  0.21100300  0.55773000  1
  O  O122  1  0.18256300  0.78899700  0.05773000  1
  O  O123  1  0.68256300  0.71100300  0.94227000  1
  O  O124  1  0.18256300  0.71100300  0.55773000  1
  O  O125  1  0.68256300  0.78899700  0.44227000  1
  O  O126  1  0.81743700  0.21100300  0.94227000  1
  O  O127  1  0.31743700  0.28899700  0.05773000  1
  O  O128  1  0.77676500  0.31771500  0.28709800  1
  O  O129  1  0.27676500  0.18228500  0.71290200  1
  O  O130  1  0.22323500  0.81771500  0.21290200  1
  O  O131  1  0.72323500  0.68228500  0.78709800  1
  O  O132  1  0.22323500  0.68228500  0.71290200  1
  O  O133  1  0.72323500  0.81771500  0.28709800  1
  O  O134  1  0.77676500  0.18228500  0.78709800  1
  O  O135  1  0.27676500  0.31771500  0.21290200  1
