# generated using pymatgen
data_H12OsSN4O7
_symmetry_space_group_name_H-M   'P 1'
_cell_length_a   6.15203200
_cell_length_b   12.00174200
_cell_length_c   13.39757830
_cell_angle_alpha   80.70686359
_cell_angle_beta   90.00000000
_cell_angle_gamma   90.00000000
_symmetry_Int_Tables_number   1
_chemical_formula_structural   H12OsSN4O7
_chemical_formula_sum   'H48 Os4 S4 N16 O28'
_cell_volume   976.22821084
_cell_formula_units_Z   4
loop_
 _symmetry_equiv_pos_site_id
 _symmetry_equiv_pos_as_xyz
  1  'x, y, z'
loop_
 _atom_site_type_symbol
 _atom_site_label
 _atom_site_symmetry_multiplicity
 _atom_site_fract_x
 _atom_site_fract_y
 _atom_site_fract_z
 _atom_site_occupancy
  H  H0  1  0.53206900  0.28099200  0.49699400  1
  H  H1  1  0.03206900  0.21900800  0.50300600  1
  H  H2  1  0.46793100  0.71900800  0.50300600  1
  H  H3  1  0.96793100  0.78099200  0.49699400  1
  H  H4  1  0.37679900  0.33546100  0.39751000  1
  H  H5  1  0.87679900  0.16453900  0.60249000  1
  H  H6  1  0.62320100  0.66453900  0.60249000  1
  H  H7  1  0.12320100  0.83546100  0.39751000  1
  H  H8  1  0.64486800  0.34571200  0.38941400  1
  H  H9  1  0.14486800  0.15428800  0.61058600  1
  H  H10  1  0.35513200  0.65428800  0.61058600  1
  H  H11  1  0.85513200  0.84571200  0.38941400  1
  H  H12  1  0.27544500  0.36368100  0.64275400  1
  H  H13  1  0.77544500  0.13631900  0.35724600  1
  H  H14  1  0.72455500  0.63631900  0.35724600  1
  H  H15  1  0.22455500  0.86368100  0.64275400  1
  H  H16  1  0.14103100  0.48661700  0.62135400  1
  H  H17  1  0.64103100  0.01338300  0.37864600  1
  H  H18  1  0.85896900  0.51338300  0.37864600  1
  H  H19  1  0.35896900  0.98661700  0.62135400  1
  H  H20  1  0.11906500  0.39856500  0.53888900  1
  H  H21  1  0.61906500  0.10143500  0.46111100  1
  H  H22  1  0.88093500  0.60143500  0.46111100  1
  H  H23  1  0.38093500  0.89856500  0.53888900  1
  H  H24  1  0.63453700  0.28557800  0.07393300  1
  H  H25  1  0.13453700  0.21442200  0.92606700  1
  H  H26  1  0.36546300  0.71442200  0.92606700  1
  H  H27  1  0.86546300  0.78557800  0.07393300  1
  H  H28  1  0.80470700  0.34488600  0.98328300  1
  H  H29  1  0.30470700  0.15511400  0.01671700  1
  H  H30  1  0.19529300  0.65511400  0.01671700  1
  H  H31  1  0.69529300  0.84488600  0.98328300  1
  H  H32  1  0.82087700  0.37543200  0.10059700  1
  H  H33  1  0.32087700  0.12456800  0.89940300  1
  H  H34  1  0.17912300  0.62456800  0.89940300  1
  H  H35  1  0.67912300  0.87543200  0.10059700  1
  H  H36  1  0.38690000  0.43229800  0.82686000  1
  H  H37  1  0.88690000  0.06770200  0.17314000  1
  H  H38  1  0.61310000  0.56770200  0.17314000  1
  H  H39  1  0.11310000  0.93229800  0.82686000  1
  H  H40  1  0.54794400  0.54711400  0.80058400  1
  H  H41  1  0.04794400  0.95288600  0.19941600  1
  H  H42  1  0.45205600  0.45288600  0.19941600  1
  H  H43  1  0.95205600  0.04711400  0.80058400  1
  H  H44  1  0.66048800  0.42345600  0.83645000  1
  H  H45  1  0.16048800  0.07654400  0.16355000  1
  H  H46  1  0.33951200  0.57654400  0.16355000  1
  H  H47  1  0.83951200  0.92345600  0.83645000  1
  Os  Os48  1  0.50000000  0.50000000  0.50000000  1
  Os  Os49  1  0.00000000  0.00000000  0.50000000  1
  Os  Os50  1  0.50000000  0.50000000  0.00000000  1
  Os  Os51  1  0.00000000  0.00000000  0.00000000  1
  S  S52  1  0.52958800  0.16219200  0.71394900  1
  S  S53  1  0.02958800  0.33780800  0.28605100  1
  S  S54  1  0.47041200  0.83780800  0.28605100  1
  S  S55  1  0.97041200  0.66219200  0.71394900  1
  N  N56  1  0.51572400  0.34745900  0.43752600  1
  N  N57  1  0.01572400  0.15254100  0.56247400  1
  N  N58  1  0.48427600  0.65254100  0.56247400  1
  N  N59  1  0.98427600  0.84745900  0.43752600  1
  N  N60  1  0.22556700  0.42938800  0.58673600  1
  N  N61  1  0.72556700  0.07061200  0.41326400  1
  N  N62  1  0.77443300  0.57061200  0.41326400  1
  N  N63  1  0.27443300  0.92938800  0.58673600  1
  N  N64  1  0.71470200  0.35910400  0.04499200  1
  N  N65  1  0.21470200  0.14089600  0.95500800  1
  N  N66  1  0.28529800  0.64089600  0.95500800  1
  N  N67  1  0.78529800  0.85910400  0.04499200  1
  N  N68  1  0.52481600  0.47108900  0.84733600  1
  N  N69  1  0.02481600  0.02891100  0.15266400  1
  N  N70  1  0.47518400  0.52891100  0.15266400  1
  N  N71  1  0.97518400  0.97108900  0.84733600  1
  O  O72  1  0.67857500  0.44067800  0.59602200  1
  O  O73  1  0.17857500  0.05932200  0.40397800  1
  O  O74  1  0.32142500  0.55932200  0.40397800  1
  O  O75  1  0.82142500  0.94067800  0.59602200  1
  O  O76  1  0.72658500  0.58960300  0.98169500  1
  O  O77  1  0.22658500  0.91039700  0.01830500  1
  O  O78  1  0.27341500  0.41039700  0.01830500  1
  O  O79  1  0.77341500  0.08960300  0.98169500  1
  O  O80  1  0.75852900  0.16905300  0.74516000  1
  O  O81  1  0.25852900  0.33094700  0.25484000  1
  O  O82  1  0.24147100  0.83094700  0.25484000  1
  O  O83  1  0.74147100  0.66905300  0.74516000  1
  O  O84  1  0.51764600  0.15812900  0.60212100  1
  O  O85  1  0.01764600  0.34187100  0.39787900  1
  O  O86  1  0.48235400  0.84187100  0.39787900  1
  O  O87  1  0.98235400  0.65812900  0.60212100  1
  O  O88  1  0.41831500  0.05675300  0.76954600  1
  O  O89  1  0.91831500  0.44324700  0.23045400  1
  O  O90  1  0.58168500  0.94324700  0.23045400  1
  O  O91  1  0.08168500  0.55675300  0.76954600  1
  O  O92  1  0.39724100  0.25769900  0.73811900  1
  O  O93  1  0.89724100  0.24230100  0.26188100  1
  O  O94  1  0.60275900  0.74230100  0.26188100  1
  O  O95  1  0.10275900  0.75769900  0.73811900  1
  O  O96  1  0.02720200  0.62174500  0.15138500  1
  O  O97  1  0.52720200  0.87825500  0.84861500  1
  O  O98  1  0.97279800  0.37825500  0.84861500  1
  O  O99  1  0.47279800  0.12174500  0.15138500  1
