# generated using pymatgen
data_Pu2Zn17
_symmetry_space_group_name_H-M   'P 1'
_cell_length_a   8.91673473
_cell_length_b   8.91673473
_cell_length_c   8.90814700
_cell_angle_alpha   90.00000000
_cell_angle_beta   90.00000000
_cell_angle_gamma   120.00000538
_symmetry_Int_Tables_number   1
_chemical_formula_structural   Pu2Zn17
_chemical_formula_sum   'Pu4 Zn34'
_cell_volume   613.38009174
_cell_formula_units_Z   2
loop_
 _symmetry_equiv_pos_site_id
 _symmetry_equiv_pos_as_xyz
  1  'x, y, z'
loop_
 _atom_site_type_symbol
 _atom_site_label
 _atom_site_symmetry_multiplicity
 _atom_site_fract_x
 _atom_site_fract_y
 _atom_site_fract_z
 _atom_site_occupancy
  Pu  Pu0  1  0.00000000  0.00000000  0.75000000  1
  Pu  Pu1  1  0.00000000  0.00000000  0.25000000  1
  Pu  Pu2  1  0.33333300  0.66666700  0.25000000  1
  Pu  Pu3  1  0.66666700  0.33333300  0.75000000  1
  Zn  Zn4  1  0.33333300  0.66666700  0.90292100  1
  Zn  Zn5  1  0.66666700  0.33333300  0.09707900  1
  Zn  Zn6  1  0.66666700  0.33333300  0.40292100  1
  Zn  Zn7  1  0.33333300  0.66666700  0.59707900  1
  Zn  Zn8  1  0.50000000  0.50000000  0.00000000  1
  Zn  Zn9  1  0.50000000  0.00000000  0.00000000  1
  Zn  Zn10  1  0.00000000  0.50000000  0.00000000  1
  Zn  Zn11  1  0.50000000  0.50000000  0.50000000  1
  Zn  Zn12  1  0.50000000  0.00000000  0.50000000  1
  Zn  Zn13  1  0.00000000  0.50000000  0.50000000  1
  Zn  Zn14  1  0.32936300  0.36123000  0.75000000  1
  Zn  Zn15  1  0.63877000  0.96813400  0.75000000  1
  Zn  Zn16  1  0.03186600  0.67063700  0.75000000  1
  Zn  Zn17  1  0.63877000  0.67063700  0.75000000  1
  Zn  Zn18  1  0.03186600  0.36123000  0.75000000  1
  Zn  Zn19  1  0.32936300  0.96813400  0.75000000  1
  Zn  Zn20  1  0.67063700  0.63877000  0.25000000  1
  Zn  Zn21  1  0.36123000  0.03186600  0.25000000  1
  Zn  Zn22  1  0.96813400  0.32936300  0.25000000  1
  Zn  Zn23  1  0.36123000  0.32936300  0.25000000  1
  Zn  Zn24  1  0.96813400  0.63877000  0.25000000  1
  Zn  Zn25  1  0.67063700  0.03186600  0.25000000  1
  Zn  Zn26  1  0.16153800  0.83846200  0.01807000  1
  Zn  Zn27  1  0.16153800  0.32307600  0.01807000  1
  Zn  Zn28  1  0.67692400  0.83846200  0.01807000  1
  Zn  Zn29  1  0.83846200  0.16153800  0.98193000  1
  Zn  Zn30  1  0.83846200  0.67692400  0.98193000  1
  Zn  Zn31  1  0.32307600  0.16153800  0.98193000  1
  Zn  Zn32  1  0.83846200  0.16153800  0.51807000  1
  Zn  Zn33  1  0.83846200  0.67692400  0.51807000  1
  Zn  Zn34  1  0.32307600  0.16153800  0.51807000  1
  Zn  Zn35  1  0.16153800  0.83846200  0.48193000  1
  Zn  Zn36  1  0.16153800  0.32307600  0.48193000  1
  Zn  Zn37  1  0.67692400  0.83846200  0.48193000  1
