# generated using pymatgen
data_Nd2Mo6PtO38
_symmetry_space_group_name_H-M   'P 1'
_cell_length_a   11.56232117
_cell_length_b   11.56232117
_cell_length_c   15.54073985
_cell_angle_alpha   75.38043831
_cell_angle_beta   75.38043831
_cell_angle_gamma   54.30075970
_symmetry_Int_Tables_number   1
_chemical_formula_structural   Nd2Mo6PtO38
_chemical_formula_sum   'Nd4 Mo12 Pt2 O76'
_cell_volume   1617.90061918
_cell_formula_units_Z   2
loop_
 _symmetry_equiv_pos_site_id
 _symmetry_equiv_pos_as_xyz
  1  'x, y, z'
loop_
 _atom_site_type_symbol
 _atom_site_label
 _atom_site_symmetry_multiplicity
 _atom_site_fract_x
 _atom_site_fract_y
 _atom_site_fract_z
 _atom_site_occupancy
  Nd  Nd0  1  0.10760600  0.68179600  0.14901500  1
  Nd  Nd1  1  0.31820400  0.89239400  0.35098500  1
  Nd  Nd2  1  0.89239400  0.31820400  0.85098500  1
  Nd  Nd3  1  0.68179600  0.10760600  0.64901500  1
  Mo  Mo4  1  0.13492600  0.25273000  0.02982600  1
  Mo  Mo5  1  0.74727000  0.86507400  0.47017400  1
  Mo  Mo6  1  0.86507400  0.74727000  0.97017400  1
  Mo  Mo7  1  0.25273000  0.13492600  0.52982600  1
  Mo  Mo8  1  0.62804500  0.65883600  0.13158900  1
  Mo  Mo9  1  0.34116400  0.37195500  0.36841100  1
  Mo  Mo10  1  0.37195500  0.34116400  0.86841100  1
  Mo  Mo11  1  0.65883600  0.62804500  0.63158900  1
  Mo  Mo12  1  0.27793000  0.91501200  0.13119100  1
  Mo  Mo13  1  0.08498800  0.72207000  0.36880900  1
  Mo  Mo14  1  0.72207000  0.08498800  0.86880900  1
  Mo  Mo15  1  0.91501200  0.27793000  0.63119100  1
  Pt  Pt16  1  0.50000000  0.00000000  0.00000000  1
  Pt  Pt17  1  0.00000000  0.50000000  0.50000000  1
  O  O18  1  0.62940000  0.91253300  0.10933100  1
  O  O19  1  0.08746700  0.37060000  0.39066900  1
  O  O20  1  0.37060000  0.08746700  0.89066900  1
  O  O21  1  0.91253300  0.62940000  0.60933100  1
  O  O22  1  0.47178800  0.83647600  0.04171700  1
  O  O23  1  0.16352400  0.52821200  0.45828300  1
  O  O24  1  0.52821200  0.16352400  0.95828300  1
  O  O25  1  0.83647600  0.47178800  0.54171700  1
  O  O26  1  0.32339700  0.08803200  0.09132300  1
  O  O27  1  0.91196800  0.67660300  0.40867700  1
  O  O28  1  0.67660300  0.91196800  0.90867700  1
  O  O29  1  0.08803200  0.32339700  0.59132300  1
  O  O30  1  0.44491000  0.78885200  0.20637000  1
  O  O31  1  0.21114800  0.55509000  0.29363000  1
  O  O32  1  0.55509000  0.21114800  0.79363000  1
  O  O33  1  0.78885200  0.44491000  0.70637000  1
  O  O34  1  0.75895500  0.66443000  0.02395800  1
  O  O35  1  0.33557000  0.24104500  0.47604200  1
  O  O36  1  0.24104500  0.33557000  0.97604200  1
  O  O37  1  0.66443000  0.75895500  0.52395800  1
  O  O38  1  0.15702800  0.06242000  0.04367200  1
  O  O39  1  0.93758000  0.84297200  0.45632800  1
  O  O40  1  0.84297200  0.93758000  0.95632800  1
  O  O41  1  0.06242000  0.15702800  0.54367200  1
  O  O42  1  0.24840300  0.78227300  0.12818900  1
  O  O43  1  0.21772700  0.75159700  0.37181100  1
  O  O44  1  0.75159700  0.21772700  0.87181100  1
  O  O45  1  0.78227300  0.24840300  0.62818900  1
  O  O46  1  0.17360000  0.99326100  0.23142100  1
  O  O47  1  0.00673900  0.82640000  0.26857900  1
  O  O48  1  0.82640000  0.00673900  0.76857900  1
  O  O49  1  0.99326100  0.17360000  0.73142100  1
  O  O50  1  0.73930000  0.60708100  0.20940000  1
  O  O51  1  0.39291900  0.26070000  0.29060000  1
  O  O52  1  0.26070000  0.39291900  0.79060000  1
  O  O53  1  0.60708100  0.73930000  0.70940000  1
  O  O54  1  0.62170300  0.51534700  0.12828900  1
  O  O55  1  0.48465300  0.37829700  0.37171100  1
  O  O56  1  0.37829700  0.48465300  0.87171100  1
  O  O57  1  0.51534700  0.62170300  0.62828900  1
  O  O58  1  0.02013300  0.34162800  0.11819100  1
  O  O59  1  0.65837200  0.97986700  0.38180900  1
  O  O60  1  0.97986700  0.65837200  0.88180900  1
  O  O61  1  0.34162800  0.02013300  0.61819100  1
  O  O62  1  0.02780600  0.31787700  0.94141400  1
  O  O63  1  0.68212300  0.97219400  0.55858600  1
  O  O64  1  0.97219400  0.68212300  0.05858600  1
  O  O65  1  0.31787700  0.02780600  0.44141400  1
  O  O66  1  0.29486200  0.42290400  0.12505300  1
  O  O67  1  0.57709600  0.70513800  0.37494700  1
  O  O68  1  0.70513800  0.57709600  0.87494700  1
  O  O69  1  0.42290400  0.29486200  0.62505300  1
  O  O70  1  0.88580100  0.71036200  0.25059000  1
  O  O71  1  0.28963800  0.11419900  0.24941000  1
  O  O72  1  0.11419900  0.28963800  0.74941000  1
  O  O73  1  0.71036200  0.88580100  0.75059000  1
  O  O74  1  0.18639500  0.73806700  0.99601200  1
  O  O75  1  0.26193300  0.81360500  0.50398800  1
  O  O76  1  0.81360500  0.26193300  0.00398800  1
  O  O77  1  0.73806700  0.18639500  0.49601200  1
  O  O78  1  0.42640200  0.39576000  0.09370500  1
  O  O79  1  0.60424000  0.57359800  0.40629500  1
  O  O80  1  0.57359800  0.60424000  0.90629500  1
  O  O81  1  0.39576000  0.42640200  0.59370500  1
  O  O82  1  0.98761500  0.92793300  0.04807900  1
  O  O83  1  0.07206700  0.01238500  0.45192100  1
  O  O84  1  0.01238500  0.07206700  0.95192100  1
  O  O85  1  0.92793300  0.98761500  0.54807900  1
  O  O86  1  0.47336800  0.73427200  0.90856600  1
  O  O87  1  0.26572800  0.52663200  0.59143400  1
  O  O88  1  0.52663200  0.26572800  0.09143400  1
  O  O89  1  0.73427200  0.47336800  0.40856600  1
  O  O90  1  0.62924000  0.98942800  0.15291000  1
  O  O91  1  0.01057200  0.37076000  0.34709000  1
  O  O92  1  0.37076000  0.01057200  0.84709000  1
  O  O93  1  0.98942800  0.62924000  0.65291000  1
