# generated using pymatgen
data_AlH18C6N2Cl3
_symmetry_space_group_name_H-M   'P 1'
_cell_length_a   10.28707600
_cell_length_b   10.91792800
_cell_length_c   13.96876000
_cell_angle_alpha   90.00000000
_cell_angle_beta   90.00000000
_cell_angle_gamma   90.00000000
_symmetry_Int_Tables_number   1
_chemical_formula_structural   AlH18C6N2Cl3
_chemical_formula_sum   'Al4 H72 C24 N8 Cl12'
_cell_volume   1568.88109592
_cell_formula_units_Z   4
loop_
 _symmetry_equiv_pos_site_id
 _symmetry_equiv_pos_as_xyz
  1  'x, y, z'
loop_
 _atom_site_type_symbol
 _atom_site_label
 _atom_site_symmetry_multiplicity
 _atom_site_fract_x
 _atom_site_fract_y
 _atom_site_fract_z
 _atom_site_occupancy
  Al  Al0  1  0.70305800  0.25000000  0.47603700  1
  Al  Al1  1  0.20305800  0.25000000  0.02396300  1
  Al  Al2  1  0.29694200  0.75000000  0.52396300  1
  Al  Al3  1  0.79694200  0.75000000  0.97603700  1
  H  H4  1  0.49259200  0.25000000  0.22325400  1
  H  H5  1  0.99259200  0.25000000  0.27674600  1
  H  H6  1  0.50740800  0.75000000  0.77674600  1
  H  H7  1  0.00740800  0.75000000  0.72325400  1
  H  H8  1  0.63620600  0.16809200  0.25746300  1
  H  H9  1  0.13620600  0.33190800  0.24253700  1
  H  H10  1  0.36379400  0.66809200  0.74253700  1
  H  H11  1  0.86379400  0.83190800  0.75746300  1
  H  H12  1  0.36379400  0.83190800  0.74253700  1
  H  H13  1  0.86379400  0.66809200  0.75746300  1
  H  H14  1  0.63620600  0.33190800  0.25746300  1
  H  H15  1  0.13620600  0.16809200  0.24253700  1
  H  H16  1  0.50725500  0.05650700  0.37451000  1
  H  H17  1  0.00725500  0.44349300  0.12549000  1
  H  H18  1  0.49274500  0.55650700  0.62549000  1
  H  H19  1  0.99274500  0.94349300  0.87451000  1
  H  H20  1  0.49274500  0.94349300  0.62549000  1
  H  H21  1  0.99274500  0.55650700  0.87451000  1
  H  H22  1  0.50725500  0.44349300  0.37451000  1
  H  H23  1  0.00725500  0.05650700  0.12549000  1
  H  H24  1  0.40932000  0.13802400  0.45827500  1
  H  H25  1  0.90932000  0.36197600  0.04172500  1
  H  H26  1  0.59068000  0.63802400  0.54172500  1
  H  H27  1  0.09068000  0.86197600  0.95827500  1
  H  H28  1  0.59068000  0.86197600  0.54172500  1
  H  H29  1  0.09068000  0.63802400  0.95827500  1
  H  H30  1  0.40932000  0.36197600  0.45827500  1
  H  H31  1  0.90932000  0.13802400  0.04172500  1
  H  H32  1  0.36964600  0.14141600  0.33357600  1
  H  H33  1  0.86964600  0.35858400  0.16642400  1
  H  H34  1  0.63035400  0.64141600  0.66642400  1
  H  H35  1  0.13035400  0.85858400  0.83357600  1
  H  H36  1  0.63035400  0.85858400  0.66642400  1
  H  H37  1  0.13035400  0.64141600  0.83357600  1
  H  H38  1  0.36964600  0.35858400  0.33357600  1
  H  H39  1  0.86964600  0.14141600  0.16642400  1
  H  H40  1  0.08064800  0.25000000  0.58827400  1
  H  H41  1  0.58064800  0.25000000  0.91172600  1
  H  H42  1  0.91935200  0.75000000  0.41172600  1
  H  H43  1  0.41935200  0.75000000  0.08827400  1
  H  H44  1  0.01006700  0.16788800  0.49036600  1
  H  H45  1  0.51006700  0.33211200  0.00963400  1
  H  H46  1  0.98993300  0.66788800  0.50963400  1
  H  H47  1  0.48993300  0.83211200  0.99036600  1
  H  H48  1  0.98993300  0.83211200  0.50963400  1
  H  H49  1  0.48993300  0.66788800  0.99036600  1
  H  H50  1  0.01006700  0.33211200  0.49036600  1
  H  H51  1  0.51006700  0.16788800  0.00963400  1
  H  H52  1  0.87520000  0.44309100  0.60272400  1
  H  H53  1  0.37520000  0.05690900  0.89727600  1
  H  H54  1  0.12480000  0.94309100  0.39727600  1
  H  H55  1  0.62480000  0.55690900  0.10272400  1
  H  H56  1  0.12480000  0.55690900  0.39727600  1
  H  H57  1  0.62480000  0.94309100  0.10272400  1
  H  H58  1  0.87520000  0.05690900  0.60272400  1
  H  H59  1  0.37520000  0.44309100  0.89727600  1
  H  H60  1  0.95249200  0.35895300  0.69697900  1
  H  H61  1  0.45249200  0.14104700  0.80302100  1
  H  H62  1  0.04750800  0.85895300  0.30302100  1
  H  H63  1  0.54750800  0.64104700  0.19697900  1
  H  H64  1  0.04750800  0.64104700  0.30302100  1
  H  H65  1  0.54750800  0.85895300  0.19697900  1
  H  H66  1  0.95249200  0.14104700  0.69697900  1
  H  H67  1  0.45249200  0.35895300  0.80302100  1
  H  H68  1  0.77904100  0.36180600  0.68825100  1
  H  H69  1  0.27904100  0.13819400  0.81174900  1
  H  H70  1  0.22095900  0.86180600  0.31174900  1
  H  H71  1  0.72095900  0.63819400  0.18825100  1
  H  H72  1  0.22095900  0.63819400  0.31174900  1
  H  H73  1  0.72095900  0.86180600  0.18825100  1
  H  H74  1  0.77904100  0.13819400  0.68825100  1
  H  H75  1  0.27904100  0.36180600  0.81174900  1
  C  C76  1  0.44970800  0.13952100  0.38585300  1
  C  C77  1  0.94970800  0.36047900  0.11414700  1
  C  C78  1  0.55029200  0.63952100  0.61414700  1
  C  C79  1  0.05029200  0.86047900  0.88585300  1
  C  C80  1  0.55029200  0.86047900  0.61414700  1
  C  C81  1  0.05029200  0.63952100  0.88585300  1
  C  C82  1  0.44970800  0.36047900  0.38585300  1
  C  C83  1  0.94970800  0.13952100  0.11414700  1
  C  C84  1  0.57769900  0.25000000  0.27138300  1
  C  C85  1  0.07769900  0.25000000  0.22861700  1
  C  C86  1  0.42230100  0.75000000  0.72861700  1
  C  C87  1  0.92230100  0.75000000  0.77138300  1
  C  C88  1  0.00121700  0.25000000  0.53523600  1
  C  C89  1  0.50121700  0.25000000  0.96476400  1
  C  C90  1  0.99878300  0.75000000  0.46476400  1
  C  C91  1  0.49878300  0.75000000  0.03523600  1
  C  C92  1  0.86965300  0.36011400  0.64698200  1
  C  C93  1  0.36965300  0.13988600  0.85301800  1
  C  C94  1  0.13034700  0.86011400  0.35301800  1
  C  C95  1  0.63034700  0.63988600  0.14698200  1
  C  C96  1  0.13034700  0.63988600  0.35301800  1
  C  C97  1  0.63034700  0.86011400  0.14698200  1
  C  C98  1  0.86965300  0.13988600  0.64698200  1
  C  C99  1  0.36965300  0.36011400  0.85301800  1
  N  N100  1  0.53303000  0.25000000  0.37256500  1
  N  N101  1  0.03303000  0.25000000  0.12743500  1
  N  N102  1  0.46697000  0.75000000  0.62743500  1
  N  N103  1  0.96697000  0.75000000  0.87256500  1
  N  N104  1  0.87371200  0.25000000  0.58453500  1
  N  N105  1  0.37371200  0.25000000  0.91546500  1
  N  N106  1  0.12628800  0.75000000  0.41546500  1
  N  N107  1  0.62628800  0.75000000  0.08453500  1
  Cl  Cl108  1  0.56917700  0.25000000  0.59598000  1
  Cl  Cl109  1  0.06917700  0.25000000  0.90402000  1
  Cl  Cl110  1  0.43082300  0.75000000  0.40402000  1
  Cl  Cl111  1  0.93082300  0.75000000  0.09598000  1
  Cl  Cl112  1  0.77307900  0.42172800  0.41660100  1
  Cl  Cl113  1  0.27307900  0.07827200  0.08339900  1
  Cl  Cl114  1  0.22692100  0.92172800  0.58339900  1
  Cl  Cl115  1  0.72692100  0.57827200  0.91660100  1
  Cl  Cl116  1  0.22692100  0.57827200  0.58339900  1
  Cl  Cl117  1  0.72692100  0.92172800  0.91660100  1
  Cl  Cl118  1  0.77307900  0.07827200  0.41660100  1
  Cl  Cl119  1  0.27307900  0.42172800  0.08339900  1
