# generated using pymatgen
data_CI
_symmetry_space_group_name_H-M   'P 1'
_cell_length_a   16.59546500
_cell_length_b   16.59546500
_cell_length_c   5.18502900
_cell_angle_alpha   90.00000000
_cell_angle_beta   90.00000000
_cell_angle_gamma   90.00000000
_symmetry_Int_Tables_number   1
_chemical_formula_structural   CI
_chemical_formula_sum   'C16 I16'
_cell_volume   1428.00602954
_cell_formula_units_Z   16
loop_
 _symmetry_equiv_pos_site_id
 _symmetry_equiv_pos_as_xyz
  1  'x, y, z'
loop_
 _atom_site_type_symbol
 _atom_site_label
 _atom_site_symmetry_multiplicity
 _atom_site_fract_x
 _atom_site_fract_y
 _atom_site_fract_z
 _atom_site_occupancy
  C  C0  1  0.96013600  0.22755500  0.20516200  1
  C  C1  1  0.03986400  0.77244500  0.20516200  1
  C  C2  1  0.27244500  0.46013600  0.70516200  1
  C  C3  1  0.72755500  0.53986400  0.70516200  1
  C  C4  1  0.53986400  0.27244500  0.29483800  1
  C  C5  1  0.46013600  0.72755500  0.29483800  1
  C  C6  1  0.22755500  0.03986400  0.79483800  1
  C  C7  1  0.77244500  0.96013600  0.79483800  1
  C  C8  1  0.00879500  0.27612200  0.29211200  1
  C  C9  1  0.99120500  0.72387800  0.29211200  1
  C  C10  1  0.22387800  0.50879500  0.79211200  1
  C  C11  1  0.77612200  0.49120500  0.79211200  1
  C  C12  1  0.49120500  0.22387800  0.20788800  1
  C  C13  1  0.50879500  0.77612200  0.20788800  1
  C  C14  1  0.27612200  0.99120500  0.70788800  1
  C  C15  1  0.72387800  0.00879500  0.70788800  1
  I  I16  1  0.88129100  0.14861300  0.06586600  1
  I  I17  1  0.11870900  0.85138700  0.06586600  1
  I  I18  1  0.35138700  0.38129100  0.56586600  1
  I  I19  1  0.64861300  0.61870900  0.56586600  1
  I  I20  1  0.61870900  0.35138700  0.43413400  1
  I  I21  1  0.38129100  0.64861300  0.43413400  1
  I  I22  1  0.14861300  0.11870900  0.93413400  1
  I  I23  1  0.85138700  0.88129100  0.93413400  1
  I  I24  1  0.08775500  0.35450200  0.43387600  1
  I  I25  1  0.91224500  0.64549800  0.43387600  1
  I  I26  1  0.14549800  0.58775500  0.93387600  1
  I  I27  1  0.85450200  0.41224500  0.93387600  1
  I  I28  1  0.41224500  0.14549800  0.06612400  1
  I  I29  1  0.58775500  0.85450200  0.06612400  1
  I  I30  1  0.35450200  0.91224500  0.56612400  1
  I  I31  1  0.64549800  0.08775500  0.56612400  1
