# generated using pymatgen
data_Ca5(SiO5)2
_symmetry_space_group_name_H-M   'P 1'
_cell_length_a   5.11462400
_cell_length_b   9.01878174
_cell_length_c   11.52956290
_cell_angle_alpha   109.21754052
_cell_angle_beta   90.00000000
_cell_angle_gamma   90.00000000
_symmetry_Int_Tables_number   1
_chemical_formula_structural   Ca5(SiO5)2
_chemical_formula_sum   'Ca10 Si4 O20'
_cell_volume   502.19596779
_cell_formula_units_Z   2
loop_
 _symmetry_equiv_pos_site_id
 _symmetry_equiv_pos_as_xyz
  1  'x, y, z'
loop_
 _atom_site_type_symbol
 _atom_site_label
 _atom_site_symmetry_multiplicity
 _atom_site_fract_x
 _atom_site_fract_y
 _atom_site_fract_z
 _atom_site_occupancy
  Ca  Ca0  1  0.50000000  0.00000000  0.50000000  1
  Ca  Ca1  1  0.00000000  0.00000000  0.00000000  1
  Ca  Ca2  1  0.49921500  0.18837500  0.83109800  1
  Ca  Ca3  1  0.99921500  0.81162500  0.66890200  1
  Ca  Ca4  1  0.50078500  0.81162500  0.16890200  1
  Ca  Ca5  1  0.00078500  0.18837500  0.33109800  1
  Ca  Ca6  1  0.49827900  0.41875600  0.61909700  1
  Ca  Ca7  1  0.99827900  0.58124400  0.88090300  1
  Ca  Ca8  1  0.50172100  0.58124400  0.38090300  1
  Ca  Ca9  1  0.00172100  0.41875600  0.11909700  1
  Si  Si10  1  0.06828500  0.20045900  0.64696700  1
  Si  Si11  1  0.56828500  0.79954100  0.85303300  1
  Si  Si12  1  0.93171500  0.79954100  0.35303300  1
  Si  Si13  1  0.43171500  0.20045900  0.14696700  1
  O  O14  1  0.20176500  0.20614100  0.51677000  1
  O  O15  1  0.70176500  0.79385900  0.98323000  1
  O  O16  1  0.79823500  0.79385900  0.48323000  1
  O  O17  1  0.29823500  0.20614100  0.01677000  1
  O  O18  1  0.20086800  0.04406600  0.66953400  1
  O  O19  1  0.70086800  0.95593400  0.83046600  1
  O  O20  1  0.79913200  0.95593400  0.33046600  1
  O  O21  1  0.29913200  0.04406600  0.16953400  1
  O  O22  1  0.19585100  0.35419700  0.75537900  1
  O  O23  1  0.69585100  0.64580300  0.74462100  1
  O  O24  1  0.80414900  0.64580300  0.24462100  1
  O  O25  1  0.30414900  0.35419700  0.25537900  1
  O  O26  1  0.74886400  0.20066300  0.64654500  1
  O  O27  1  0.24886400  0.79933700  0.85345500  1
  O  O28  1  0.25113600  0.79933700  0.35345500  1
  O  O29  1  0.75113600  0.20066300  0.14654500  1
  O  O30  1  0.77067600  0.39281700  0.93885600  1
  O  O31  1  0.27067600  0.60718300  0.56114400  1
  O  O32  1  0.22932400  0.60718300  0.06114400  1
  O  O33  1  0.72932400  0.39281700  0.43885600  1
