# generated using pymatgen
data_B2H8N
_symmetry_space_group_name_H-M   'P 1'
_cell_length_a   8.37991200
_cell_length_b   9.41505100
_cell_length_c   9.55950200
_cell_angle_alpha   90.00000000
_cell_angle_beta   90.00000000
_cell_angle_gamma   90.00000000
_symmetry_Int_Tables_number   1
_chemical_formula_structural   B2H8N
_chemical_formula_sum   'B16 H64 N8'
_cell_volume   754.21888620
_cell_formula_units_Z   8
loop_
 _symmetry_equiv_pos_site_id
 _symmetry_equiv_pos_as_xyz
  1  'x, y, z'
loop_
 _atom_site_type_symbol
 _atom_site_label
 _atom_site_symmetry_multiplicity
 _atom_site_fract_x
 _atom_site_fract_y
 _atom_site_fract_z
 _atom_site_occupancy
  B  B0  1  0.76666400  0.87189700  0.93346600  1
  B  B1  1  0.73333600  0.12810300  0.43346600  1
  B  B2  1  0.26666400  0.62810300  0.06653400  1
  B  B3  1  0.23333600  0.37189700  0.56653400  1
  B  B4  1  0.36046800  0.84182500  0.68534900  1
  B  B5  1  0.13953200  0.15817500  0.18534900  1
  B  B6  1  0.86046800  0.65817500  0.31465100  1
  B  B7  1  0.63953200  0.34182500  0.81465100  1
  B  B8  1  0.23509300  0.82245800  0.53613900  1
  B  B9  1  0.26490700  0.17754200  0.03613900  1
  B  B10  1  0.73509300  0.67754200  0.46386100  1
  B  B11  1  0.76490700  0.32245800  0.96386100  1
  B  B12  1  0.14688300  0.85081500  0.70401000  1
  B  B13  1  0.35311700  0.14918500  0.20401000  1
  B  B14  1  0.64688300  0.64918500  0.29599000  1
  B  B15  1  0.85311700  0.35081500  0.79599000  1
  H  H16  1  0.61136200  0.69320300  0.87190500  1
  H  H17  1  0.88863800  0.30679700  0.37190500  1
  H  H18  1  0.11136200  0.80679700  0.12809500  1
  H  H19  1  0.38863800  0.19320300  0.62809500  1
  H  H20  1  0.71638700  0.66343600  0.01395000  1
  H  H21  1  0.78361300  0.33656400  0.51395000  1
  H  H22  1  0.21638700  0.83656400  0.98605000  1
  H  H23  1  0.28361300  0.16343600  0.48605000  1
  H  H24  1  0.80011100  0.64585600  0.85917100  1
  H  H25  1  0.69988900  0.35414400  0.35917100  1
  H  H26  1  0.30011100  0.85414400  0.14082900  1
  H  H27  1  0.19988900  0.14585600  0.64082900  1
  H  H28  1  0.78211500  0.05585700  0.80055800  1
  H  H29  1  0.71788500  0.94414300  0.30055800  1
  H  H30  1  0.28211500  0.44414300  0.19944200  1
  H  H31  1  0.21788500  0.55585700  0.69944200  1
  H  H32  1  0.66765500  0.93514600  0.72736800  1
  H  H33  1  0.83234500  0.06485400  0.22736800  1
  H  H34  1  0.16765500  0.56485400  0.27263200  1
  H  H35  1  0.33234500  0.43514600  0.77263200  1
  H  H36  1  0.86656600  0.91907300  0.72429100  1
  H  H37  1  0.63343400  0.08092700  0.22429100  1
  H  H38  1  0.36656600  0.58092700  0.27570900  1
  H  H39  1  0.13343400  0.41907300  0.77570900  1
  H  H40  1  0.42093700  0.95440500  0.71722400  1
  H  H41  1  0.07906300  0.04559500  0.21722400  1
  H  H42  1  0.92093700  0.54559500  0.28277600  1
  H  H43  1  0.57906300  0.45440500  0.78277600  1
  H  H44  1  0.41583700  0.73881000  0.74476800  1
  H  H45  1  0.08416300  0.26119000  0.24476800  1
  H  H46  1  0.91583700  0.76119000  0.25523200  1
  H  H47  1  0.58416300  0.23881000  0.75523200  1
  H  H48  1  0.22157300  0.70519500  0.48585300  1
  H  H49  1  0.27842700  0.29480500  0.98585300  1
  H  H50  1  0.72157300  0.79480500  0.51414700  1
  H  H51  1  0.77842700  0.20519500  0.01414700  1
  H  H52  1  0.22708200  0.91721400  0.45129000  1
  H  H53  1  0.27291800  0.08278600  0.95129000  1
  H  H54  1  0.72708200  0.58278600  0.54871000  1
  H  H55  1  0.77291800  0.41721400  0.04871000  1
  H  H56  1  0.09771700  0.75364200  0.77590300  1
  H  H57  1  0.40228300  0.24635800  0.27590300  1
  H  H58  1  0.59771700  0.74635800  0.22409700  1
  H  H59  1  0.90228300  0.25364200  0.72409700  1
  H  H60  1  0.10447900  0.96761300  0.74415200  1
  H  H61  1  0.39552100  0.03238700  0.24415200  1
  H  H62  1  0.60447900  0.53238700  0.25584800  1
  H  H63  1  0.89552100  0.46761300  0.75584800  1
  H  H64  1  0.07029200  0.83541500  0.59103800  1
  H  H65  1  0.42970800  0.16458500  0.09103800  1
  H  H66  1  0.57029200  0.66458500  0.40896200  1
  H  H67  1  0.92970800  0.33541500  0.90896200  1
  H  H68  1  0.40587600  0.82211100  0.55992900  1
  H  H69  1  0.09412400  0.17788900  0.05992900  1
  H  H70  1  0.90587600  0.67788900  0.44007100  1
  H  H71  1  0.59412400  0.32211100  0.94007100  1
  H  H72  1  0.66213000  0.92560400  0.00240400  1
  H  H73  1  0.83787000  0.07439600  0.50240400  1
  H  H74  1  0.16213000  0.57439600  0.99759600  1
  H  H75  1  0.33787000  0.42560400  0.49759600  1
  H  H76  1  0.89707700  0.88217400  0.98634900  1
  H  H77  1  0.60292300  0.11782600  0.48634900  1
  H  H78  1  0.39707700  0.61782600  0.01365100  1
  H  H79  1  0.10292300  0.38217400  0.51365100  1
  N  N80  1  0.72236700  0.70813700  0.91558900  1
  N  N81  1  0.77763300  0.29186300  0.41558900  1
  N  N82  1  0.22236700  0.79186300  0.08441100  1
  N  N83  1  0.27763300  0.20813700  0.58441100  1
  N  N84  1  0.77055800  0.94785300  0.78513400  1
  N  N85  1  0.72944200  0.05214700  0.28513400  1
  N  N86  1  0.27055800  0.55214700  0.21486600  1
  N  N87  1  0.22944200  0.44785300  0.71486600  1
