# generated using pymatgen
data_Dy2Ni7
_symmetry_space_group_name_H-M   'P 1'
_cell_length_a   4.93733788
_cell_length_b   4.93733788
_cell_length_c   24.07658700
_cell_angle_alpha   90.00000000
_cell_angle_beta   90.00000000
_cell_angle_gamma   119.99999843
_symmetry_Int_Tables_number   1
_chemical_formula_structural   Dy2Ni7
_chemical_formula_sum   'Dy8 Ni28'
_cell_volume   508.28964165
_cell_formula_units_Z   4
loop_
 _symmetry_equiv_pos_site_id
 _symmetry_equiv_pos_as_xyz
  1  'x, y, z'
loop_
 _atom_site_type_symbol
 _atom_site_label
 _atom_site_symmetry_multiplicity
 _atom_site_fract_x
 _atom_site_fract_y
 _atom_site_fract_z
 _atom_site_occupancy
  Dy  Dy0  1  0.33333300  0.66666700  0.47079500  1
  Dy  Dy1  1  0.66666700  0.33333300  0.52920500  1
  Dy  Dy2  1  0.66666700  0.33333300  0.97079500  1
  Dy  Dy3  1  0.33333300  0.66666700  0.02920500  1
  Dy  Dy4  1  0.33333300  0.66666700  0.32653900  1
  Dy  Dy5  1  0.66666700  0.33333300  0.67346100  1
  Dy  Dy6  1  0.66666700  0.33333300  0.82653900  1
  Dy  Dy7  1  0.33333300  0.66666700  0.17346100  1
  Ni  Ni8  1  0.00000000  0.00000000  0.50000000  1
  Ni  Ni9  1  0.00000000  0.00000000  0.00000000  1
  Ni  Ni10  1  0.83324300  0.16675700  0.25000000  1
  Ni  Ni11  1  0.83324300  0.66648700  0.25000000  1
  Ni  Ni12  1  0.33351300  0.16675700  0.25000000  1
  Ni  Ni13  1  0.16675700  0.83324300  0.75000000  1
  Ni  Ni14  1  0.16675700  0.33351300  0.75000000  1
  Ni  Ni15  1  0.66648700  0.83324300  0.75000000  1
  Ni  Ni16  1  0.83275600  0.16724400  0.41477400  1
  Ni  Ni17  1  0.83275600  0.66551200  0.41477400  1
  Ni  Ni18  1  0.33448800  0.16724400  0.41477400  1
  Ni  Ni19  1  0.16724400  0.83275600  0.58522600  1
  Ni  Ni20  1  0.16724400  0.33448800  0.58522600  1
  Ni  Ni21  1  0.66551200  0.83275600  0.58522600  1
  Ni  Ni22  1  0.16724400  0.83275600  0.91477400  1
  Ni  Ni23  1  0.16724400  0.33448800  0.91477400  1
  Ni  Ni24  1  0.66551200  0.83275600  0.91477400  1
  Ni  Ni25  1  0.83275600  0.16724400  0.08522600  1
  Ni  Ni26  1  0.83275600  0.66551200  0.08522600  1
  Ni  Ni27  1  0.33448800  0.16724400  0.08522600  1
  Ni  Ni28  1  0.00000000  0.00000000  0.33245300  1
  Ni  Ni29  1  0.00000000  0.00000000  0.66754700  1
  Ni  Ni30  1  0.00000000  0.00000000  0.83245300  1
  Ni  Ni31  1  0.00000000  0.00000000  0.16754700  1
  Ni  Ni32  1  0.33333300  0.66666700  0.66716700  1
  Ni  Ni33  1  0.66666700  0.33333300  0.33283300  1
  Ni  Ni34  1  0.66666700  0.33333300  0.16716700  1
  Ni  Ni35  1  0.33333300  0.66666700  0.83283300  1
