# generated using pymatgen
data_K2U(SO6)2
_symmetry_space_group_name_H-M   'P 1'
_cell_length_a   7.30858900
_cell_length_b   11.73005300
_cell_length_c   14.04235700
_cell_angle_alpha   90.00000000
_cell_angle_beta   90.00000000
_cell_angle_gamma   90.00000000
_symmetry_Int_Tables_number   1
_chemical_formula_structural   K2U(SO6)2
_chemical_formula_sum   'K8 U4 S8 O48'
_cell_volume   1203.85317994
_cell_formula_units_Z   4
loop_
 _symmetry_equiv_pos_site_id
 _symmetry_equiv_pos_as_xyz
  1  'x, y, z'
loop_
 _atom_site_type_symbol
 _atom_site_label
 _atom_site_symmetry_multiplicity
 _atom_site_fract_x
 _atom_site_fract_y
 _atom_site_fract_z
 _atom_site_occupancy
  K  K0  1  0.74258200  0.53844400  0.42894400  1
  K  K1  1  0.25741800  0.03844400  0.57105600  1
  K  K2  1  0.24258200  0.03844400  0.07105600  1
  K  K3  1  0.75741800  0.53844400  0.92894400  1
  K  K4  1  0.74009900  0.97888400  0.42673800  1
  K  K5  1  0.25990100  0.47888400  0.57326200  1
  K  K6  1  0.24009900  0.47888400  0.07326200  1
  K  K7  1  0.75990100  0.97888400  0.92673800  1
  U  U8  1  0.41299400  0.75988100  0.24443700  1
  U  U9  1  0.58700600  0.25988100  0.75556300  1
  U  U10  1  0.91299400  0.25988100  0.25556300  1
  U  U11  1  0.08700600  0.75988100  0.74443700  1
  S  S12  1  0.24420700  0.47841900  0.32514600  1
  S  S13  1  0.75579300  0.97841900  0.67485400  1
  S  S14  1  0.74420700  0.97841900  0.17485400  1
  S  S15  1  0.25579300  0.47841900  0.82514600  1
  S  S16  1  0.24198300  0.03869700  0.32524400  1
  S  S17  1  0.75801700  0.53869700  0.67475600  1
  S  S18  1  0.74198300  0.53869700  0.17475600  1
  S  S19  1  0.25801700  0.03869700  0.82524400  1
  O  O20  1  0.09645200  0.76229100  0.24410300  1
  O  O21  1  0.90354800  0.26229100  0.75589700  1
  O  O22  1  0.59645200  0.26229100  0.25589700  1
  O  O23  1  0.40354800  0.76229100  0.74410300  1
  O  O24  1  0.29762900  0.94609300  0.25433000  1
  O  O25  1  0.70237100  0.44609300  0.74567000  1
  O  O26  1  0.79762900  0.44609300  0.24567000  1
  O  O27  1  0.20237100  0.94609300  0.75433000  1
  O  O28  1  0.16568200  0.13243500  0.26362200  1
  O  O29  1  0.83431800  0.63243500  0.73637800  1
  O  O30  1  0.66568200  0.63243500  0.23637800  1
  O  O31  1  0.33431800  0.13243500  0.76362200  1
  O  O32  1  0.28132800  0.57669300  0.25607800  1
  O  O33  1  0.71867200  0.07669300  0.74392200  1
  O  O34  1  0.78132800  0.07669300  0.24392200  1
  O  O35  1  0.21867200  0.57669300  0.75607800  1
  O  O36  1  0.17158200  0.38430400  0.26286900  1
  O  O37  1  0.82841800  0.88430400  0.73713100  1
  O  O38  1  0.67158200  0.88430400  0.23713100  1
  O  O39  1  0.32841800  0.38430400  0.76286900  1
  O  O40  1  0.39451400  0.75929600  0.11484000  1
  O  O41  1  0.60548600  0.25929600  0.88516000  1
  O  O42  1  0.89451400  0.25929600  0.38516000  1
  O  O43  1  0.10548600  0.75929600  0.61484000  1
  O  O44  1  0.41719800  0.44299200  0.36933200  1
  O  O45  1  0.58280200  0.94299200  0.63066800  1
  O  O46  1  0.91719800  0.94299200  0.13066800  1
  O  O47  1  0.08280200  0.44299200  0.86933200  1
  O  O48  1  0.40523600  0.07868500  0.37616800  1
  O  O49  1  0.59476400  0.57868500  0.62383200  1
  O  O50  1  0.90523600  0.57868500  0.12383200  1
  O  O51  1  0.09476400  0.07868500  0.87616800  1
  O  O52  1  0.43938500  0.75969000  0.37308900  1
  O  O53  1  0.56061500  0.25969000  0.62691100  1
  O  O54  1  0.93938500  0.25969000  0.12691100  1
  O  O55  1  0.06061500  0.75969000  0.87308900  1
  O  O56  1  0.10849600  0.51490200  0.39541400  1
  O  O57  1  0.89150400  0.01490200  0.60458600  1
  O  O58  1  0.60849600  0.01490200  0.10458600  1
  O  O59  1  0.39150400  0.51490200  0.89541400  1
  O  O60  1  0.10268700  0.99277400  0.38959400  1
  O  O61  1  0.89731300  0.49277400  0.61040600  1
  O  O62  1  0.60268700  0.49277400  0.11040600  1
  O  O63  1  0.39731300  0.99277400  0.88959400  1
  O  O64  1  0.89862300  0.75928100  0.42824000  1
  O  O65  1  0.10137700  0.25928100  0.57176000  1
  O  O66  1  0.39862300  0.25928100  0.07176000  1
  O  O67  1  0.60137700  0.75928100  0.92824000  1
