# generated using pymatgen
data_VH17C4S4(O5F3)4
_symmetry_space_group_name_H-M   'P 1'
_cell_length_a   8.93439000
_cell_length_b   9.06092246
_cell_length_c   9.17518540
_cell_angle_alpha   70.48614643
_cell_angle_beta   76.48675404
_cell_angle_gamma   84.84587862
_symmetry_Int_Tables_number   1
_chemical_formula_structural   VH17C4S4(O5F3)4
_chemical_formula_sum   'V1 H17 C4 S4 O20 F12'
_cell_volume   680.66439452
_cell_formula_units_Z   1
loop_
 _symmetry_equiv_pos_site_id
 _symmetry_equiv_pos_as_xyz
  1  'x, y, z'
loop_
 _atom_site_type_symbol
 _atom_site_label
 _atom_site_symmetry_multiplicity
 _atom_site_fract_x
 _atom_site_fract_y
 _atom_site_fract_z
 _atom_site_occupancy
  V  V0  1  0.00000000  0.00000000  0.00000000  1
  H  H1  1  0.17206600  0.25022900  0.81619500  1
  H  H2  1  0.82793400  0.74977100  0.18380500  1
  H  H3  1  0.99343100  0.31654800  0.84682400  1
  H  H4  1  0.00656900  0.68345200  0.15317600  1
  H  H5  1  0.82181900  0.90210900  0.85018400  1
  H  H6  1  0.17818100  0.09789100  0.14981600  1
  H  H7  1  0.76435900  0.08029300  0.84454600  1
  H  H8  1  0.23564100  0.91970700  0.15545400  1
  H  H9  1  0.14258500  0.82034500  0.82675200  1
  H  H10  1  0.85741500  0.17965500  0.17324800  1
  H  H11  1  0.27729600  0.93409100  0.83101300  1
  H  H12  1  0.72270400  0.06590900  0.16898700  1
  H  H13  1  0.50000000  0.50000000  0.00000000  1
  H  H14  1  0.41528900  0.31092300  0.09693700  1
  H  H15  1  0.58471100  0.68907700  0.90306300  1
  H  H16  1  0.56072400  0.31854500  0.95235900  1
  H  H17  1  0.43927600  0.68145500  0.04764100  1
  C  C18  1  0.42250100  0.78185800  0.47193100  1
  C  C19  1  0.57749900  0.21814200  0.52806900  1
  C  C20  1  0.93200100  0.70856800  0.55282800  1
  C  C21  1  0.06799900  0.29143200  0.44717200  1
  S  S22  1  0.50573300  0.82642500  0.25470100  1
  S  S23  1  0.49426700  0.17357500  0.74529900  1
  S  S24  1  0.90916700  0.63873100  0.77299300  1
  S  S25  1  0.09083300  0.36126900  0.22700700  1
  O  O26  1  0.06150700  0.22148500  0.86078600  1
  O  O27  1  0.93849300  0.77851500  0.13921400  1
  O  O28  1  0.84519000  0.99812400  0.87102700  1
  O  O29  1  0.15481000  0.00187600  0.12897300  1
  O  O30  1  0.16643000  0.90621700  0.86213200  1
  O  O31  1  0.83357000  0.09378300  0.13786800  1
  O  O32  1  0.63779200  0.72076700  0.24471900  1
  O  O33  1  0.36220800  0.27923300  0.75528100  1
  O  O34  1  0.54042400  0.99342500  0.19911600  1
  O  O35  1  0.45957600  0.00657500  0.80088400  1
  O  O36  1  0.37967300  0.78867500  0.19372000  1
  O  O37  1  0.62032700  0.21132500  0.80628000  1
  O  O38  1  0.05561100  0.67164700  0.79847100  1
  O  O39  1  0.94438900  0.32835300  0.20152900  1
  O  O40  1  0.87079200  0.47363600  0.82213200  1
  O  O41  1  0.12920800  0.52636400  0.17786800  1
  O  O42  1  0.77924900  0.73668500  0.82489000  1
  O  O43  1  0.22075100  0.26331500  0.17511000  1
  O  O44  1  0.51812000  0.35887700  0.04218200  1
  O  O45  1  0.48188000  0.64112300  0.95781800  1
  F  F46  1  0.29306500  0.86960300  0.49289500  1
  F  F47  1  0.70693500  0.13039700  0.50710500  1
  F  F48  1  0.38784300  0.62933300  0.54215800  1
  F  F49  1  0.61215700  0.37066700  0.45784200  1
  F  F50  1  0.52498500  0.81908200  0.54131400  1
  F  F51  1  0.47501500  0.18091800  0.45868600  1
  F  F52  1  0.06244700  0.64778600  0.48488900  1
  F  F53  1  0.93755300  0.35221400  0.51511100  1
  F  F54  1  0.94005600  0.86650100  0.49625200  1
  F  F55  1  0.05994400  0.13349900  0.50374800  1
  F  F56  1  0.81092700  0.66372400  0.51357700  1
  F  F57  1  0.18907300  0.33627600  0.48642300  1
