# generated using pymatgen
data_Na2B4O11
_symmetry_space_group_name_H-M   'P 1'
_cell_length_a   9.32052200
_cell_length_b   7.15826500
_cell_length_c   14.95858873
_cell_angle_alpha   84.83217004
_cell_angle_beta   90.00000000
_cell_angle_gamma   90.00000000
_symmetry_Int_Tables_number   1
_chemical_formula_structural   Na2B4O11
_chemical_formula_sum   'Na8 B16 O44'
_cell_volume   993.96177079
_cell_formula_units_Z   4
loop_
 _symmetry_equiv_pos_site_id
 _symmetry_equiv_pos_as_xyz
  1  'x, y, z'
loop_
 _atom_site_type_symbol
 _atom_site_label
 _atom_site_symmetry_multiplicity
 _atom_site_fract_x
 _atom_site_fract_y
 _atom_site_fract_z
 _atom_site_occupancy
  Na  Na0  1  0.99055700  0.76260100  0.78466600  1
  Na  Na1  1  0.49055700  0.23739900  0.71533400  1
  Na  Na2  1  0.00944300  0.23739900  0.21533400  1
  Na  Na3  1  0.50944300  0.76260100  0.28466600  1
  Na  Na4  1  0.74948700  0.71379800  0.62134700  1
  Na  Na5  1  0.24948700  0.28620200  0.87865300  1
  Na  Na6  1  0.25051300  0.28620200  0.37865300  1
  Na  Na7  1  0.75051300  0.71379800  0.12134700  1
  B  B8  1  0.66390200  0.49590600  0.93011300  1
  B  B9  1  0.16390200  0.50409400  0.56988700  1
  B  B10  1  0.33609800  0.50409400  0.06988700  1
  B  B11  1  0.83609800  0.49590600  0.43011300  1
  B  B12  1  0.75093800  0.44229200  0.77791700  1
  B  B13  1  0.25093800  0.55770800  0.72208300  1
  B  B14  1  0.24906200  0.55770800  0.22208300  1
  B  B15  1  0.74906200  0.44229200  0.27791700  1
  B  B16  1  0.99516100  0.41999400  0.69779700  1
  B  B17  1  0.49516100  0.58000600  0.80220300  1
  B  B18  1  0.00483900  0.58000600  0.30220300  1
  B  B19  1  0.50483900  0.41999400  0.19779700  1
  B  B20  1  0.83806000  0.13931000  0.72786600  1
  B  B21  1  0.33806000  0.86069000  0.77213400  1
  B  B22  1  0.16194000  0.86069000  0.27213400  1
  B  B23  1  0.66194000  0.13931000  0.22786600  1
  O  O24  1  0.52570900  0.51595600  0.89776900  1
  O  O25  1  0.02570900  0.48404400  0.60223100  1
  O  O26  1  0.47429100  0.48404400  0.10223100  1
  O  O27  1  0.97429100  0.51595600  0.39776900  1
  O  O28  1  0.61702100  0.53727800  0.74442000  1
  O  O29  1  0.11702100  0.46272200  0.75558000  1
  O  O30  1  0.38297900  0.46272200  0.25558000  1
  O  O31  1  0.88297900  0.53727800  0.24442000  1
  O  O32  1  0.72941500  0.23896900  0.76468900  1
  O  O33  1  0.22941500  0.76103100  0.73531100  1
  O  O34  1  0.27058500  0.76103100  0.23531100  1
  O  O35  1  0.77058500  0.23896900  0.26468900  1
  O  O36  1  0.86998400  0.52190900  0.72499700  1
  O  O37  1  0.36998400  0.47809100  0.77500300  1
  O  O38  1  0.13001600  0.47809100  0.27500300  1
  O  O39  1  0.63001600  0.52190900  0.22499700  1
  O  O40  1  0.97433800  0.21358200  0.71127400  1
  O  O41  1  0.47433800  0.78641800  0.78872600  1
  O  O42  1  0.02566200  0.78641800  0.28872600  1
  O  O43  1  0.52566200  0.21358200  0.21127400  1
  O  O44  1  0.82108400  0.96058900  0.70581400  1
  O  O45  1  0.32108400  0.03941100  0.79418600  1
  O  O46  1  0.17891600  0.03941100  0.29418600  1
  O  O47  1  0.67891600  0.96058900  0.20581400  1
  O  O48  1  0.80164000  0.50038900  0.51927300  1
  O  O49  1  0.30164000  0.49961100  0.98072700  1
  O  O50  1  0.19836000  0.49961100  0.48072700  1
  O  O51  1  0.69836000  0.50038900  0.01927300  1
  O  O52  1  0.50873700  0.10562700  0.56019600  1
  O  O53  1  0.00873700  0.89437300  0.93980400  1
  O  O54  1  0.49126300  0.89437300  0.43980400  1
  O  O55  1  0.99126300  0.10562700  0.06019600  1
  O  O56  1  0.77747400  0.47189200  0.87357300  1
  O  O57  1  0.27747400  0.52810800  0.62642700  1
  O  O58  1  0.22252600  0.52810800  0.12642700  1
  O  O59  1  0.72252600  0.47189200  0.37357300  1
  O  O60  1  0.56065100  0.97593000  0.98943400  1
  O  O61  1  0.06065100  0.02407000  0.51056600  1
  O  O62  1  0.43934900  0.02407000  0.01056600  1
  O  O63  1  0.93934900  0.97593000  0.48943400  1
  O  O64  1  0.54275600  0.93838200  0.57485100  1
  O  O65  1  0.04275600  0.06161800  0.92514900  1
  O  O66  1  0.45724400  0.06161800  0.42514900  1
  O  O67  1  0.95724400  0.93838200  0.07485100  1
