# generated using pymatgen
data_CaSO6
_symmetry_space_group_name_H-M   'P 1'
_cell_length_a   18.22824500
_cell_length_b   5.73497700
_cell_length_c   6.71554471
_cell_angle_alpha   57.00404662
_cell_angle_beta   90.00000000
_cell_angle_gamma   90.00000000
_symmetry_Int_Tables_number   1
_chemical_formula_structural   CaSO6
_chemical_formula_sum   'Ca4 S4 O24'
_cell_volume   588.80176369
_cell_formula_units_Z   4
loop_
 _symmetry_equiv_pos_site_id
 _symmetry_equiv_pos_as_xyz
  1  'x, y, z'
loop_
 _atom_site_type_symbol
 _atom_site_label
 _atom_site_symmetry_multiplicity
 _atom_site_fract_x
 _atom_site_fract_y
 _atom_site_fract_z
 _atom_site_occupancy
  Ca  Ca0  1  0.30705000  0.75228500  0.99449600  1
  Ca  Ca1  1  0.69295000  0.24771500  0.00550400  1
  Ca  Ca2  1  0.80705000  0.24771500  0.50550400  1
  Ca  Ca3  1  0.19295000  0.75228500  0.49449600  1
  S  S4  1  0.82461900  0.74842200  0.00534000  1
  S  S5  1  0.17538100  0.25157800  0.99466000  1
  S  S6  1  0.32461900  0.25157800  0.49466000  1
  S  S7  1  0.67538100  0.74842200  0.50534000  1
  O  O8  1  0.86793500  0.67319700  0.21874000  1
  O  O9  1  0.13206500  0.32680300  0.78126000  1
  O  O10  1  0.36793500  0.32680300  0.28126000  1
  O  O11  1  0.63206500  0.67319700  0.71874000  1
  O  O12  1  0.77729100  0.49784200  0.07843900  1
  O  O13  1  0.22270900  0.50215800  0.92156100  1
  O  O14  1  0.27729100  0.50215800  0.42156100  1
  O  O15  1  0.72270900  0.49784200  0.57843900  1
  O  O16  1  0.63084200  0.82644100  0.29421300  1
  O  O17  1  0.36915800  0.17355900  0.70578700  1
  O  O18  1  0.13084200  0.17355900  0.20578700  1
  O  O19  1  0.86915800  0.82644100  0.79421300  1
  O  O20  1  0.47805300  0.94238900  0.08285300  1
  O  O21  1  0.52194700  0.05761100  0.91714700  1
  O  O22  1  0.97805300  0.05761100  0.41714700  1
  O  O23  1  0.02194700  0.94238900  0.58285300  1
  O  O24  1  0.72427600  0.99549100  0.43088600  1
  O  O25  1  0.27572400  0.00450900  0.56911400  1
  O  O26  1  0.22427600  0.00450900  0.06911400  1
  O  O27  1  0.77572400  0.99549100  0.93088600  1
  O  O28  1  0.52126900  0.44221800  0.08474500  1
  O  O29  1  0.47873100  0.55778200  0.91525500  1
  O  O30  1  0.02126900  0.55778200  0.41525500  1
  O  O31  1  0.97873100  0.44221800  0.58474500  1
