# generated using pymatgen
data_KSi4H27(C3O)3
_symmetry_space_group_name_H-M   'P 1'
_cell_length_a   15.73351130
_cell_length_b   15.73313823
_cell_length_c   24.02554479
_cell_angle_alpha   70.88496578
_cell_angle_beta   70.88391865
_cell_angle_gamma   60.00060120
_symmetry_Int_Tables_number   1
_chemical_formula_structural   KSi4H27(C3O)3
_chemical_formula_sum   'K8 Si32 H216 C72 O24'
_cell_volume   4768.05493201
_cell_formula_units_Z   8
loop_
 _symmetry_equiv_pos_site_id
 _symmetry_equiv_pos_as_xyz
  1  'x, y, z'
loop_
 _atom_site_type_symbol
 _atom_site_label
 _atom_site_symmetry_multiplicity
 _atom_site_fract_x
 _atom_site_fract_y
 _atom_site_fract_z
 _atom_site_occupancy
  K  K0  1  0.93706020  0.76286342  0.70749770  1
  K  K1  1  0.76290426  0.59263943  0.70751851  1
  K  K2  1  0.59252708  0.93702961  0.70749586  1
  K  K3  1  0.06293980  0.23713658  0.29250230  1
  K  K4  1  0.23709574  0.40736057  0.29248149  1
  K  K5  1  0.40747292  0.06297039  0.29250414  1
  K  K6  1  0.70849412  0.70852519  0.87444385  1
  K  K7  1  0.29150588  0.29147481  0.12555615  1
  Si  Si8  1  0.57411176  0.07201216  0.82495371  1
  Si  Si9  1  0.07200183  0.52889977  0.82496098  1
  Si  Si10  1  0.52892951  0.57410750  0.82494611  1
  Si  Si11  1  0.42588824  0.92798784  0.17504629  1
  Si  Si12  1  0.92799817  0.47110023  0.17503902  1
  Si  Si13  1  0.47107049  0.42589250  0.17505389  1
  Si  Si14  1  0.79229939  0.89116640  0.89059887  1
  Si  Si15  1  0.89114484  0.42594677  0.89059300  1
  Si  Si16  1  0.42593147  0.79229707  0.89059568  1
  Si  Si17  1  0.20770061  0.10883360  0.10940113  1
  Si  Si18  1  0.10885516  0.57405323  0.10940700  1
  Si  Si19  1  0.57406853  0.20770293  0.10940432  1
  Si  Si20  1  0.82606535  0.03335061  0.73905591  1
  Si  Si21  1  0.03337072  0.40147122  0.73906420  1
  Si  Si22  1  0.40146692  0.82608758  0.73905945  1
  Si  Si23  1  0.17393465  0.96664939  0.26094409  1
  Si  Si24  1  0.96662928  0.59852878  0.26093580  1
  Si  Si25  1  0.59853308  0.17391242  0.26094055  1
  Si  Si26  1  0.97024135  0.72332914  0.54723288  1
  Si  Si27  1  0.72332673  0.75919443  0.54722164  1
  Si  Si28  1  0.75919179  0.97024962  0.54724018  1
  Si  Si29  1  0.02975865  0.27667086  0.45276712  1
  Si  Si30  1  0.27667327  0.24080557  0.45277836  1
  Si  Si31  1  0.24080821  0.02975038  0.45275982  1
  Si  Si32  1  0.73474978  0.94397140  0.80095105  1
  Si  Si33  1  0.94398432  0.52029248  0.80094229  1
  Si  Si34  1  0.52028438  0.73476663  0.80094160  1
  Si  Si35  1  0.26525022  0.05602860  0.19904895  1
  Si  Si36  1  0.05601568  0.47970752  0.19905771  1
  Si  Si37  1  0.47971562  0.26523337  0.19905840  1
  Si  Si38  1  0.80187632  0.80188978  0.59432413  1
  Si  Si39  1  0.19812368  0.19811022  0.40567587  1
  H  H40  1  0.47411919  0.24988169  0.84096695  1
  H  H41  1  0.24986977  0.43500713  0.84098231  1
  H  H42  1  0.43503498  0.47410364  0.84097681  1
  H  H43  1  0.52588081  0.75011831  0.15903305  1
  H  H44  1  0.75013023  0.56499287  0.15901769  1
  H  H45  1  0.56496502  0.52589636  0.15902319  1
  H  H46  1  0.59800771  0.19675926  0.85285207  1
  H  H47  1  0.19674341  0.35236325  0.85285978  1
  H  H48  1  0.35239643  0.59799166  0.85285696  1
  H  H49  1  0.40199229  0.80324074  0.14714793  1
  H  H50  1  0.80325659  0.64763675  0.14714022  1
  H  H51  1  0.64760357  0.40200834  0.14714304  1
  H  H52  1  0.57560723  0.24057164  0.77839640  1
  H  H53  1  0.24054712  0.40540682  0.77840942  1
  H  H54  1  0.40543009  0.57559593  0.77840294  1
  H  H55  1  0.42439277  0.75942836  0.22160360  1
  H  H56  1  0.75945288  0.59459318  0.22159058  1
  H  H57  1  0.59456991  0.42440407  0.22159706  1
  H  H58  1  0.50642693  0.96096809  0.90720152  1
  H  H59  1  0.96097846  0.62539591  0.90719757  1
  H  H60  1  0.62538786  0.50641877  0.90718461  1
  H  H61  1  0.49357307  0.03903191  0.09279848  1
  H  H62  1  0.03902154  0.37460409  0.09280243  1
  H  H63  1  0.37461214  0.49358123  0.09281539  1
  H  H64  1  0.53725344  0.02925774  0.93703837  1
  H  H65  1  0.02924822  0.49645135  0.93704326  1
  H  H66  1  0.49645453  0.53724946  0.93703403  1
  H  H67  1  0.46274656  0.97074226  0.06296163  1
  H  H68  1  0.97075178  0.50354865  0.06295674  1
  H  H69  1  0.50354547  0.46275054  0.06296597  1
  H  H70  1  0.42521973  0.08992656  0.90896872  1
  H  H71  1  0.08993271  0.57588573  0.90896093  1
  H  H72  1  0.57590095  0.42519342  0.90896067  1
  H  H73  1  0.57478027  0.91007344  0.09103128  1
  H  H74  1  0.91006729  0.42411427  0.09103907  1
  H  H75  1  0.42409905  0.57480658  0.09103933  1
  H  H76  1  0.78515193  0.94354970  0.98118669  1
  H  H77  1  0.94351707  0.29012401  0.98118083  1
  H  H78  1  0.29011789  0.78513708  0.98119600  1
  H  H79  1  0.21484807  0.05645030  0.01881331  1
  H  H80  1  0.05648293  0.70987599  0.01881917  1
  H  H81  1  0.70988211  0.21486292  0.01880400  1
  H  H82  1  0.76465482  0.04407756  0.91786405  1
  H  H83  1  0.04405016  0.27341666  0.91785307  1
  H  H84  1  0.27341776  0.76464033  0.91787185  1
  H  H85  1  0.23534518  0.95592244  0.08213595  1
  H  H86  1  0.95594984  0.72658334  0.08214693  1
  H  H87  1  0.72658224  0.23535967  0.08212815  1
  H  H88  1  0.66636618  0.00949152  0.96002082  1
  H  H89  1  0.00946032  0.36413245  0.96001234  1
  H  H90  1  0.36413197  0.66635624  0.96002476  1
  H  H91  1  0.33363382  0.99050848  0.03997918  1
  H  H92  1  0.99053968  0.63586755  0.03998766  1
  H  H93  1  0.63586803  0.33364376  0.03997524  1
  H  H94  1  0.96747101  0.77705437  0.84832129  1
  H  H95  1  0.77703929  0.40716799  0.84831401  1
  H  H96  1  0.40717037  0.96747398  0.84832238  1
  H  H97  1  0.03252899  0.22294563  0.15167871  1
  H  H98  1  0.22296071  0.59283201  0.15168599  1
  H  H99  1  0.59282963  0.03252602  0.15167762  1
  H  H100  1  0.96063994  0.89044212  0.85369909  1
  H  H101  1  0.89043307  0.29524165  0.85370270  1
  H  H102  1  0.29522788  0.96065106  0.85370755  1
  H  H103  1  0.03936006  0.10955788  0.14630091  1
  H  H104  1  0.10956693  0.70475835  0.14629730  1
  H  H105  1  0.70477212  0.03934894  0.14629245  1
  H  H106  1  0.96013887  0.79617613  0.91927112  1
  H  H107  1  0.79616878  0.32442134  0.91926945  1
  H  H108  1  0.32442408  0.96013395  0.91927182  1
  H  H109  1  0.03986113  0.20382387  0.08072888  1
  H  H110  1  0.20383122  0.67557866  0.08073055  1
  H  H111  1  0.67557592  0.03986605  0.08072818  1
  H  H112  1  0.90474836  0.14147594  0.73482040  1
  H  H113  1  0.14149311  0.21888731  0.73482942  1
  H  H114  1  0.21888746  0.90478062  0.73482715  1
  H  H115  1  0.09525164  0.85852406  0.26517960  1
  H  H116  1  0.85850689  0.78111269  0.26517058  1
  H  H117  1  0.78111254  0.09521938  0.26517285  1
  H  H118  1  0.80598788  0.14812109  0.79840554  1
  H  H119  1  0.14812275  0.24744391  0.79840984  1
  H  H120  1  0.24744862  0.80600607  0.79841196  1
  H  H121  1  0.19401212  0.85187891  0.20159446  1
  H  H122  1  0.85187725  0.75255609  0.20159016  1
  H  H123  1  0.75255138  0.19399393  0.20158804  1
  H  H124  1  0.92526722  0.04318043  0.79951806  1
  H  H125  1  0.04318420  0.23197740  0.79953017  1
  H  H126  1  0.23199268  0.92528821  0.79952513  1
  H  H127  1  0.07473278  0.95681957  0.20048194  1
  H  H128  1  0.95681580  0.76802260  0.20046983  1
  H  H129  1  0.76800732  0.07471179  0.20047487  1
  H  H130  1  0.72731551  0.11029146  0.65690444  1
  H  H131  1  0.11028674  0.50548105  0.65691463  1
  H  H132  1  0.50544944  0.72732590  0.65691875  1
  H  H133  1  0.27268449  0.88970854  0.34309556  1
  H  H134  1  0.88971326  0.49451895  0.34308537  1
  H  H135  1  0.49455056  0.27267410  0.34308125  1
  H  H136  1  0.69788745  0.19998565  0.69851339  1
  H  H137  1  0.20000096  0.40362415  0.69850677  1
  H  H138  1  0.40359754  0.69787318  0.69851723  1
  H  H139  1  0.30211255  0.80001435  0.30148661  1
  H  H140  1  0.79999904  0.59637585  0.30149323  1
  H  H141  1  0.59640246  0.30212682  0.30148277  1
  H  H142  1  0.81105198  0.16317993  0.64418268  1
  H  H143  1  0.16318087  0.38159133  0.64418383  1
  H  H144  1  0.38156171  0.81105905  0.64418386  1
  H  H145  1  0.18894802  0.83682007  0.35581732  1
  H  H146  1  0.83681913  0.61840867  0.35581617  1
  H  H147  1  0.61843829  0.18894095  0.35581614  1
  H  H148  1  0.98950524  0.54745735  0.59169381  1
  H  H149  1  0.54746164  0.87131599  0.59168503  1
  H  H150  1  0.87134209  0.98950767  0.59169794  1
  H  H151  1  0.01049476  0.45254265  0.40830619  1
  H  H152  1  0.45253836  0.12868401  0.40831497  1
  H  H153  1  0.12865791  0.01049233  0.40830206  1
  H  H154  1  0.97622301  0.58410536  0.51544846  1
  H  H155  1  0.58410878  0.92420438  0.51543880  1
  H  H156  1  0.92421439  0.97622627  0.51545110  1
  H  H157  1  0.02377699  0.41589464  0.48455154  1
  H  H158  1  0.41589122  0.07579562  0.48456120  1
  H  H159  1  0.07578561  0.02377373  0.48454890  1
  H  H160  1  0.09251685  0.54955424  0.53218680  1
  H  H161  1  0.54953740  0.82573721  0.53217893  1
  H  H162  1  0.82574584  0.09251794  0.53219010  1
  H  H163  1  0.90748315  0.45044576  0.46781320  1
  H  H164  1  0.45046260  0.17426279  0.46782107  1
  H  H165  1  0.17425416  0.90748206  0.46780990  1
  H  H166  1  0.09695981  0.72420926  0.45029968  1
  H  H167  1  0.72422956  0.72853729  0.45028268  1
  H  H168  1  0.72852918  0.09696622  0.45029666  1
  H  H169  1  0.90304019  0.27579074  0.54970032  1
  H  H170  1  0.27577044  0.27146271  0.54971732  1
  H  H171  1  0.27147082  0.90303378  0.54970334  1
  H  H172  1  0.97274674  0.78717416  0.43749592  1
  H  H173  1  0.78719258  0.80258905  0.43748166  1
  H  H174  1  0.80258064  0.97274595  0.43750415  1
  H  H175  1  0.02725326  0.21282584  0.56250408  1
  H  H176  1  0.21280742  0.19741095  0.56251834  1
  H  H177  1  0.19741936  0.02725405  0.56249585  1
  H  H178  1  0.01791924  0.84838233  0.46306190  1
  H  H179  1  0.84840014  0.67064421  0.46304058  1
  H  H180  1  0.67064116  0.01791602  0.46306428  1
  H  H181  1  0.98208076  0.15161767  0.53693810  1
  H  H182  1  0.15159986  0.32935579  0.53695942  1
  H  H183  1  0.32935884  0.98208398  0.53693572  1
  H  H184  1  0.41744422  0.23774173  0.74819211  1
  H  H185  1  0.23774056  0.59660505  0.74820555  1
  H  H186  1  0.59663499  0.41742962  0.74819305  1
  H  H187  1  0.58255578  0.76225827  0.25180789  1
  H  H188  1  0.76225944  0.40339495  0.25179445  1
  H  H189  1  0.40336501  0.58257038  0.25180695  1
  H  H190  1  0.38324836  0.15002125  0.74020001  1
  H  H191  1  0.15002533  0.72650327  0.74021418  1
  H  H192  1  0.72654558  0.38323733  0.74019776  1
  H  H193  1  0.61675164  0.84997875  0.25979999  1
  H  H194  1  0.84997467  0.27349673  0.25978582  1
  H  H195  1  0.27345442  0.61676267  0.25980224  1
  H  H196  1  0.36394303  0.17078223  0.81282420  1
  H  H197  1  0.17077675  0.65242332  0.81284236  1
  H  H198  1  0.65246134  0.36393943  0.81282353  1
  H  H199  1  0.63605697  0.82921777  0.18717580  1
  H  H200  1  0.82922325  0.34757668  0.18715764  1
  H  H201  1  0.34753866  0.63606057  0.18717647  1
  H  H202  1  0.70932402  0.80340574  0.02299082  1
  H  H203  1  0.80338789  0.46428152  0.02297695  1
  H  H204  1  0.46426381  0.70931306  0.02298204  1
  H  H205  1  0.29067598  0.19659426  0.97700918  1
  H  H206  1  0.19661211  0.53571848  0.97702305  1
  H  H207  1  0.53573619  0.29068694  0.97701796  1
  H  H208  1  0.76798095  0.68150047  0.00544026  1
  H  H209  1  0.68147280  0.54508948  0.00544115  1
  H  H210  1  0.54507098  0.76796247  0.00544175  1
  H  H211  1  0.23201905  0.31849953  0.99455974  1
  H  H212  1  0.31852720  0.45491052  0.99455885  1
  H  H213  1  0.45492902  0.23203753  0.99455825  1
  H  H214  1  0.84214213  0.74197953  0.99851186  1
  H  H215  1  0.74197358  0.41737020  0.99850168  1
  H  H216  1  0.41735332  0.84211627  0.99850472  1
  H  H217  1  0.15785787  0.25802047  0.00148814  1
  H  H218  1  0.25802642  0.58262980  0.00149832  1
  H  H219  1  0.58264668  0.15788373  0.00149528  1
  H  H220  1  0.05668998  0.96584535  0.69573546  1
  H  H221  1  0.96585413  0.28172752  0.69573378  1
  H  H222  1  0.28168777  0.05670382  0.69573440  1
  H  H223  1  0.94331002  0.03415465  0.30426454  1
  H  H224  1  0.03414587  0.71827248  0.30426622  1
  H  H225  1  0.71831223  0.94329618  0.30426560  1
  H  H226  1  0.06327748  0.90850703  0.64021034  1
  H  H227  1  0.90850872  0.38801760  0.64021180  1
  H  H228  1  0.38798046  0.06327181  0.64020904  1
  H  H229  1  0.93672252  0.09149297  0.35978966  1
  H  H230  1  0.09149128  0.61198240  0.35978820  1
  H  H231  1  0.61201954  0.93672819  0.35979096  1
  H  H232  1  0.98870621  0.03975236  0.63642786  1
  H  H233  1  0.03976102  0.33511885  0.63642493  1
  H  H234  1  0.33508943  0.98870668  0.63641883  1
  H  H235  1  0.01129379  0.96024764  0.36357214  1
  H  H236  1  0.96023898  0.66488115  0.36357507  1
  H  H237  1  0.66491057  0.01129332  0.36358117  1
  H  H238  1  0.16044927  0.74639938  0.53822162  1
  H  H239  1  0.74639676  0.55491946  0.53822765  1
  H  H240  1  0.55493146  0.16046501  0.53824182  1
  H  H241  1  0.83955073  0.25360062  0.46177838  1
  H  H242  1  0.25360324  0.44508054  0.46177235  1
  H  H243  1  0.44506854  0.83953499  0.46175818  1
  H  H244  1  0.17118211  0.67762576  0.61356559  1
  H  H245  1  0.67761875  0.53765302  0.61357508  1
  H  H246  1  0.53764547  0.17117851  0.61358600  1
  H  H247  1  0.82881789  0.32237424  0.38643441  1
  H  H248  1  0.32238125  0.46234698  0.38642492  1
  H  H249  1  0.46235453  0.82882149  0.38641400  1
  H  H250  1  0.18052706  0.61871307  0.55845752  1
  H  H251  1  0.61870295  0.64231983  0.55847850  1
  H  H252  1  0.64232129  0.18053025  0.55848231  1
  H  H253  1  0.81947294  0.38128693  0.44154248  1
  H  H254  1  0.38129705  0.35768017  0.44152150  1
  H  H255  1  0.35767871  0.81946975  0.44151769  1
  C  C256  1  0.41505845  0.16490655  0.76849657  1
  C  C257  1  0.16489649  0.65151527  0.76849964  1
  C  C258  1  0.65155455  0.41504476  0.76849584  1
  C  C259  1  0.58494155  0.83509345  0.23150343  1
  C  C260  1  0.83510351  0.34848473  0.23150036  1
  C  C261  1  0.34844545  0.58495524  0.23150416  1
  C  C262  1  0.76976247  0.75461450  0.99241076  1
  C  C263  1  0.75458988  0.48320825  0.99239077  1
  C  C264  1  0.48319709  0.76973128  0.99240821  1
  C  C265  1  0.23023753  0.24538550  0.00758924  1
  C  C266  1  0.24541012  0.51679175  0.00760923  1
  C  C267  1  0.51680291  0.23026872  0.00759179  1
  C  C268  1  0.01346454  0.96626461  0.66752915  1
  C  C269  1  0.96629966  0.35272729  0.66752148  1
  C  C270  1  0.35270698  0.01348675  0.66750488  1
  C  C271  1  0.98653546  0.03373539  0.33247085  1
  C  C272  1  0.03370034  0.64727271  0.33247852  1
  C  C273  1  0.64729302  0.98651325  0.33249512  1
  C  C274  1  0.14174384  0.69005142  0.57437874  1
  C  C275  1  0.69002794  0.59380373  0.57441268  1
  C  C276  1  0.59380424  0.14176199  0.57442159  1
  C  C277  1  0.85825616  0.30994858  0.42562126  1
  C  C278  1  0.30997206  0.40619627  0.42558732  1
  C  C279  1  0.40619576  0.85823801  0.42557841  1
  C  C280  1  0.55328639  0.20228527  0.82378848  1
  C  C281  1  0.20225825  0.42060537  0.82380992  1
  C  C282  1  0.42063681  0.55328150  0.82380029  1
  C  C283  1  0.44671361  0.79771473  0.17621152  1
  C  C284  1  0.79774175  0.57939463  0.17619008  1
  C  C285  1  0.57936319  0.44671850  0.17619971  1
  C  C286  1  0.50417709  0.03403945  0.90165991  1
  C  C287  1  0.03402910  0.56011551  0.90166021  1
  C  C288  1  0.56012645  0.50416861  0.90164505  1
  C  C289  1  0.49582291  0.96596055  0.09834009  1
  C  C290  1  0.96597090  0.43988449  0.09833979  1
  C  C291  1  0.43987355  0.49583139  0.09835495  1
  C  C292  1  0.74748744  0.98024324  0.94250548  1
  C  C293  1  0.98021703  0.32978053  0.94249648  1
  C  C294  1  0.32977786  0.74747643  0.94251523  1
  C  C295  1  0.25251256  0.01975676  0.05749452  1
  C  C296  1  0.01978297  0.67021947  0.05750352  1
  C  C297  1  0.67022214  0.25252357  0.05748477  1
  C  C298  1  0.93353601  0.83298239  0.87654406  1
  C  C299  1  0.83296036  0.35695803  0.87654642  1
  C  C300  1  0.35694657  0.93352882  0.87656284  1
  C  C301  1  0.06646399  0.16701761  0.12345594  1
  C  C302  1  0.16703964  0.64304197  0.12345358  1
  C  C303  1  0.64305343  0.06647118  0.12343716  1
  C  C304  1  0.87041022  0.09659919  0.77097962  1
  C  C305  1  0.09659521  0.26193590  0.77098605  1
  C  C306  1  0.26194123  0.87045437  0.77098148  1
  C  C307  1  0.12958978  0.90340081  0.22902038  1
  C  C308  1  0.90340479  0.73806410  0.22901395  1
  C  C309  1  0.73805877  0.12954563  0.22901852  1
  C  C310  1  0.75914703  0.13597343  0.67876931  1
  C  C311  1  0.13596839  0.42612729  0.67877951  1
  C  C312  1  0.42610241  0.75911732  0.67878591  1
  C  C313  1  0.24085297  0.86402657  0.32123069  1
  C  C314  1  0.86403161  0.57387271  0.32122049  1
  C  C315  1  0.57389759  0.24088268  0.32121409  1
  C  C316  1  0.01066099  0.58826169  0.54700949  1
  C  C317  1  0.58826279  0.85401960  0.54699278  1
  C  C318  1  0.85405223  0.01067101  0.54701500  1
  C  C319  1  0.98933901  0.41173831  0.45299051  1
  C  C320  1  0.41173721  0.14598040  0.45300722  1
  C  C321  1  0.14594777  0.98932899  0.45298500  1
  C  C322  1  0.01941582  0.77603950  0.46716701  1
  C  C323  1  0.77604802  0.73739600  0.46715445  1
  C  C324  1  0.73739169  0.01939066  0.46717127  1
  C  C325  1  0.98058418  0.22396050  0.53283299  1
  C  C326  1  0.22395198  0.26260400  0.53284555  1
  C  C327  1  0.26260831  0.98060934  0.53282873  1
  O  O328  1  0.51299493  0.08552132  0.77271060  1
  O  O329  1  0.08552808  0.62874901  0.77271467  1
  O  O330  1  0.62878367  0.51299108  0.77270014  1
  O  O331  1  0.48700507  0.91447868  0.22728940  1
  O  O332  1  0.91447192  0.37125099  0.22728533  1
  O  O333  1  0.37121633  0.48700892  0.22729986  1
  O  O334  1  0.75750431  0.79726667  0.93155036  1
  O  O335  1  0.79724359  0.51370223  0.93154332  1
  O  O336  1  0.51368503  0.75747929  0.93154640  1
  O  O337  1  0.24249569  0.20273333  0.06844964  1
  O  O338  1  0.20275641  0.48629777  0.06845668  1
  O  O339  1  0.48631497  0.24252071  0.06845360  1
  O  O340  1  0.93137742  0.94497826  0.70344239  1
  O  O341  1  0.94499780  0.42018629  0.70344381  1
  O  O342  1  0.42015763  0.93138999  0.70343262  1
  O  O343  1  0.06862258  0.05502174  0.29655761  1
  O  O344  1  0.05500220  0.57981371  0.29655619  1
  O  O345  1  0.57984237  0.06861001  0.29656738  1
  O  O346  1  0.03600428  0.72288456  0.59215156  1
  O  O347  1  0.72290706  0.64895959  0.59214529  1
  O  O348  1  0.64896440  0.03601177  0.59216322  1
  O  O349  1  0.96399572  0.27711544  0.40784844  1
  O  O350  1  0.27709294  0.35104041  0.40785471  1
  O  O351  1  0.35103560  0.96398823  0.40783678  1
