# generated using pymatgen
data_Co7B24(H3O23)2
_symmetry_space_group_name_H-M   'P 1'
_cell_length_a   8.26390400
_cell_length_b   20.42360200
_cell_length_c   7.74371300
_cell_angle_alpha   90.00000000
_cell_angle_beta   90.00000000
_cell_angle_gamma   90.00000000
_symmetry_Int_Tables_number   1
_chemical_formula_structural   Co7B24(H3O23)2
_chemical_formula_sum   'Co14 B48 H12 O92'
_cell_volume   1306.97370693
_cell_formula_units_Z   2
loop_
 _symmetry_equiv_pos_site_id
 _symmetry_equiv_pos_as_xyz
  1  'x, y, z'
loop_
 _atom_site_type_symbol
 _atom_site_label
 _atom_site_symmetry_multiplicity
 _atom_site_fract_x
 _atom_site_fract_y
 _atom_site_fract_z
 _atom_site_occupancy
  Co  Co0  1  0.80858200  0.06868600  0.50000000  1
  Co  Co1  1  0.19141800  0.93131400  0.50000000  1
  Co  Co2  1  0.30858200  0.43131400  0.50000000  1
  Co  Co3  1  0.69141800  0.56868600  0.50000000  1
  Co  Co4  1  0.89956600  0.32684900  0.50000000  1
  Co  Co5  1  0.10043400  0.67315100  0.50000000  1
  Co  Co6  1  0.39956600  0.17315100  0.50000000  1
  Co  Co7  1  0.60043400  0.82684900  0.50000000  1
  Co  Co8  1  0.59605100  0.11772700  0.00000000  1
  Co  Co9  1  0.40394900  0.88227300  0.00000000  1
  Co  Co10  1  0.09605100  0.38227300  0.00000000  1
  Co  Co11  1  0.90394900  0.61772700  0.00000000  1
  Co  Co12  1  0.50000000  0.50000000  0.00000000  1
  Co  Co13  1  0.00000000  0.00000000  0.00000000  1
  B  B14  1  0.64908300  0.42904800  0.33112100  1
  B  B15  1  0.35091700  0.57095200  0.33112100  1
  B  B16  1  0.14908300  0.07095200  0.66887900  1
  B  B17  1  0.85091700  0.92904800  0.66887900  1
  B  B18  1  0.35091700  0.57095200  0.66887900  1
  B  B19  1  0.64908300  0.42904800  0.66887900  1
  B  B20  1  0.85091700  0.92904800  0.33112100  1
  B  B21  1  0.14908300  0.07095200  0.33112100  1
  B  B22  1  0.71229000  0.32230500  0.17778700  1
  B  B23  1  0.28771000  0.67769500  0.17778700  1
  B  B24  1  0.21229000  0.17769500  0.82221300  1
  B  B25  1  0.78771000  0.82230500  0.82221300  1
  B  B26  1  0.28771000  0.67769500  0.82221300  1
  B  B27  1  0.71229000  0.32230500  0.82221300  1
  B  B28  1  0.78771000  0.82230500  0.17778700  1
  B  B29  1  0.21229000  0.17769500  0.17778700  1
  B  B30  1  0.73326400  0.20717100  0.33402200  1
  B  B31  1  0.26673600  0.79282900  0.33402200  1
  B  B32  1  0.23326400  0.29282900  0.66597800  1
  B  B33  1  0.76673600  0.70717100  0.66597800  1
  B  B34  1  0.26673600  0.79282900  0.66597800  1
  B  B35  1  0.73326400  0.20717100  0.66597800  1
  B  B36  1  0.76673600  0.70717100  0.33402200  1
  B  B37  1  0.23326400  0.29282900  0.33402200  1
  B  B38  1  0.87073500  0.49163100  0.16886600  1
  B  B39  1  0.12926500  0.50836900  0.16886600  1
  B  B40  1  0.37073500  0.00836900  0.83113400  1
  B  B41  1  0.62926500  0.99163100  0.83113400  1
  B  B42  1  0.12926500  0.50836900  0.83113400  1
  B  B43  1  0.87073500  0.49163100  0.83113400  1
  B  B44  1  0.62926500  0.99163100  0.16886600  1
  B  B45  1  0.37073500  0.00836900  0.16886600  1
  B  B46  1  0.92200600  0.13088200  0.16823900  1
  B  B47  1  0.07799400  0.86911800  0.16823900  1
  B  B48  1  0.42200600  0.36911800  0.83176100  1
  B  B49  1  0.57799400  0.63088200  0.83176100  1
  B  B50  1  0.07799400  0.86911800  0.83176100  1
  B  B51  1  0.92200600  0.13088200  0.83176100  1
  B  B52  1  0.57799400  0.63088200  0.16823900  1
  B  B53  1  0.42200600  0.36911800  0.16823900  1
  B  B54  1  0.98242000  0.26014000  0.16691300  1
  B  B55  1  0.01758000  0.73986000  0.16691300  1
  B  B56  1  0.48242000  0.23986000  0.83308700  1
  B  B57  1  0.51758000  0.76014000  0.83308700  1
  B  B58  1  0.01758000  0.73986000  0.83308700  1
  B  B59  1  0.98242000  0.26014000  0.83308700  1
  B  B60  1  0.51758000  0.76014000  0.16691300  1
  B  B61  1  0.48242000  0.23986000  0.16691300  1
  H  H62  1  0.51834100  0.06848100  0.38867900  1
  H  H63  1  0.48165900  0.93151900  0.38867900  1
  H  H64  1  0.01834100  0.43151900  0.61132100  1
  H  H65  1  0.98165900  0.56848100  0.61132100  1
  H  H66  1  0.48165900  0.93151900  0.61132100  1
  H  H67  1  0.51834100  0.06848100  0.61132100  1
  H  H68  1  0.98165900  0.56848100  0.38867900  1
  H  H69  1  0.01834100  0.43151900  0.38867900  1
  H  H70  1  0.74928500  0.40046500  0.00000000  1
  H  H71  1  0.25071500  0.59953500  0.00000000  1
  H  H72  1  0.24928500  0.09953500  0.00000000  1
  H  H73  1  0.75071500  0.90046500  0.00000000  1
  O  O74  1  0.52221300  0.42692300  0.19189900  1
  O  O75  1  0.47778700  0.57307700  0.19189900  1
  O  O76  1  0.02221300  0.07307700  0.80810100  1
  O  O77  1  0.97778700  0.92692300  0.80810100  1
  O  O78  1  0.47778700  0.57307700  0.80810100  1
  O  O79  1  0.52221300  0.42692300  0.80810100  1
  O  O80  1  0.97778700  0.92692300  0.19189900  1
  O  O81  1  0.02221300  0.07307700  0.19189900  1
  O  O82  1  0.52423200  0.05238700  0.18127600  1
  O  O83  1  0.47576800  0.94761300  0.18127600  1
  O  O84  1  0.02423200  0.44761300  0.81872400  1
  O  O85  1  0.97576800  0.55238700  0.81872400  1
  O  O86  1  0.47576800  0.94761300  0.81872400  1
  O  O87  1  0.52423200  0.05238700  0.81872400  1
  O  O88  1  0.97576800  0.55238700  0.18127600  1
  O  O89  1  0.02423200  0.44761300  0.18127600  1
  O  O90  1  0.53726900  0.30904700  0.17118800  1
  O  O91  1  0.46273100  0.69095300  0.17118800  1
  O  O92  1  0.03726900  0.19095300  0.82881200  1
  O  O93  1  0.96273100  0.80904700  0.82881200  1
  O  O94  1  0.46273100  0.69095300  0.82881200  1
  O  O95  1  0.53726900  0.30904700  0.82881200  1
  O  O96  1  0.96273100  0.80904700  0.17118800  1
  O  O97  1  0.03726900  0.19095300  0.17118800  1
  O  O98  1  0.55852800  0.20407300  0.30373600  1
  O  O99  1  0.44147200  0.79592700  0.30373600  1
  O  O100  1  0.05852800  0.29592700  0.69626400  1
  O  O101  1  0.94147200  0.70407300  0.69626400  1
  O  O102  1  0.44147200  0.79592700  0.69626400  1
  O  O103  1  0.55852800  0.20407300  0.69626400  1
  O  O104  1  0.94147200  0.70407300  0.30373600  1
  O  O105  1  0.05852800  0.29592700  0.30373600  1
  O  O106  1  0.75102000  0.36746800  0.31015000  1
  O  O107  1  0.24898000  0.63253200  0.31015000  1
  O  O108  1  0.25102000  0.13253200  0.68985000  1
  O  O109  1  0.74898000  0.86746800  0.68985000  1
  O  O110  1  0.24898000  0.63253200  0.68985000  1
  O  O111  1  0.75102000  0.36746800  0.68985000  1
  O  O112  1  0.74898000  0.86746800  0.31015000  1
  O  O113  1  0.25102000  0.13253200  0.31015000  1
  O  O114  1  0.75684700  0.48644000  0.30970900  1
  O  O115  1  0.24315300  0.51356000  0.30970900  1
  O  O116  1  0.25684700  0.01356000  0.69029100  1
  O  O117  1  0.74315300  0.98644000  0.69029100  1
  O  O118  1  0.24315300  0.51356000  0.69029100  1
  O  O119  1  0.75684700  0.48644000  0.69029100  1
  O  O120  1  0.74315300  0.98644000  0.30970900  1
  O  O121  1  0.25684700  0.01356000  0.30970900  1
  O  O122  1  0.80074100  0.25830900  0.19610800  1
  O  O123  1  0.19925900  0.74169100  0.19610800  1
  O  O124  1  0.30074100  0.24169100  0.80389200  1
  O  O125  1  0.69925900  0.75830900  0.80389200  1
  O  O126  1  0.19925900  0.74169100  0.80389200  1
  O  O127  1  0.80074100  0.25830900  0.80389200  1
  O  O128  1  0.69925900  0.75830900  0.19610800  1
  O  O129  1  0.30074100  0.24169100  0.19610800  1
  O  O130  1  0.80677700  0.14268400  0.30497600  1
  O  O131  1  0.19322300  0.85731600  0.30497600  1
  O  O132  1  0.30677700  0.35731600  0.69502400  1
  O  O133  1  0.69322300  0.64268400  0.69502400  1
  O  O134  1  0.19322300  0.85731600  0.69502400  1
  O  O135  1  0.80677700  0.14268400  0.69502400  1
  O  O136  1  0.69322300  0.64268400  0.30497600  1
  O  O137  1  0.30677700  0.35731600  0.30497600  1
  O  O138  1  0.55252500  0.08972400  0.50000000  1
  O  O139  1  0.44747500  0.91027600  0.50000000  1
  O  O140  1  0.05252500  0.41027600  0.50000000  1
  O  O141  1  0.94747500  0.58972400  0.50000000  1
  O  O142  1  0.56708700  0.43108700  0.50000000  1
  O  O143  1  0.43291300  0.56891300  0.50000000  1
  O  O144  1  0.06708700  0.06891300  0.50000000  1
  O  O145  1  0.93291300  0.93108700  0.50000000  1
  O  O146  1  0.77504400  0.23535900  0.50000000  1
  O  O147  1  0.22495600  0.76464100  0.50000000  1
  O  O148  1  0.27504400  0.26464100  0.50000000  1
  O  O149  1  0.72495600  0.73535900  0.50000000  1
  O  O150  1  0.52193000  0.21090500  0.00000000  1
  O  O151  1  0.47807000  0.78909500  0.00000000  1
  O  O152  1  0.02193000  0.28909500  0.00000000  1
  O  O153  1  0.97807000  0.71090500  0.00000000  1
  O  O154  1  0.75838300  0.35130800  0.00000000  1
  O  O155  1  0.24161700  0.64869200  0.00000000  1
  O  O156  1  0.25838300  0.14869200  0.00000000  1
  O  O157  1  0.74161700  0.85130800  0.00000000  1
  O  O158  1  0.78820200  0.48345100  0.00000000  1
  O  O159  1  0.21179800  0.51654900  0.00000000  1
  O  O160  1  0.28820200  0.01654900  0.00000000  1
  O  O161  1  0.71179800  0.98345100  0.00000000  1
  O  O162  1  0.83868300  0.12876100  0.00000000  1
  O  O163  1  0.16131700  0.87123900  0.00000000  1
  O  O164  1  0.33868300  0.37123900  0.00000000  1
  O  O165  1  0.66131700  0.62876100  0.00000000  1
