# generated using pymatgen
data_C61O2
_symmetry_space_group_name_H-M   'P 1'
_cell_length_a   9.93822200
_cell_length_b   9.92428100
_cell_length_c   17.84389631
_cell_angle_alpha   56.54448333
_cell_angle_beta   90.00000000
_cell_angle_gamma   90.00000000
_symmetry_Int_Tables_number   1
_chemical_formula_structural   C61O2
_chemical_formula_sum   'C122 O4'
_cell_volume   1468.34129225
_cell_formula_units_Z   2
loop_
 _symmetry_equiv_pos_site_id
 _symmetry_equiv_pos_as_xyz
  1  'x, y, z'
loop_
 _atom_site_type_symbol
 _atom_site_label
 _atom_site_symmetry_multiplicity
 _atom_site_fract_x
 _atom_site_fract_y
 _atom_site_fract_z
 _atom_site_occupancy
  C  C0  1  0.15541500  0.05799700  0.52754000  1
  C  C1  1  0.34458500  0.05799700  0.02754000  1
  C  C2  1  0.84458500  0.94200300  0.47246000  1
  C  C3  1  0.65541500  0.94200300  0.97246000  1
  C  C4  1  0.15503600  0.08643300  0.44152800  1
  C  C5  1  0.34496400  0.08643300  0.94152800  1
  C  C6  1  0.84496400  0.91356700  0.55847200  1
  C  C7  1  0.65503600  0.91356700  0.05847200  1
  C  C8  1  0.22042500  0.17185000  0.54281500  1
  C  C9  1  0.27957500  0.17185000  0.04281500  1
  C  C10  1  0.77957500  0.82815000  0.45718500  1
  C  C11  1  0.72042500  0.82815000  0.95718500  1
  C  C12  1  0.17863300  0.95403700  0.43034600  1
  C  C13  1  0.32136700  0.95403700  0.93034600  1
  C  C14  1  0.82136700  0.04596300  0.56965400  1
  C  C15  1  0.67863300  0.04596300  0.06965400  1
  C  C16  1  0.17943200  0.89605500  0.60570100  1
  C  C17  1  0.32056800  0.89605500  0.10570100  1
  C  C18  1  0.82056800  0.10394500  0.39429900  1
  C  C19  1  0.67943200  0.10394500  0.89429900  1
  C  C20  1  0.28234000  0.33941700  0.38196100  1
  C  C21  1  0.21766000  0.33941700  0.88196100  1
  C  C22  1  0.71766000  0.66058300  0.61803900  1
  C  C23  1  0.78234000  0.66058300  0.11803900  1
  C  C24  1  0.21942800  0.22974800  0.36735100  1
  C  C25  1  0.28057200  0.22974800  0.86735100  1
  C  C26  1  0.78057200  0.77025200  0.63264900  1
  C  C27  1  0.71942800  0.77025200  0.13264900  1
  C  C28  1  0.28294100  0.30978900  0.47129900  1
  C  C29  1  0.21705900  0.30978900  0.97129900  1
  C  C30  1  0.71705900  0.69021100  0.52870100  1
  C  C31  1  0.78294100  0.69021100  0.02870100  1
  C  C32  1  0.20159800  0.79801800  0.50557700  1
  C  C33  1  0.29840200  0.79801800  0.00557700  1
  C  C34  1  0.79840200  0.20198200  0.49442300  1
  C  C35  1  0.70159800  0.20198200  0.99442300  1
  C  C36  1  0.20218100  0.76857300  0.59487400  1
  C  C37  1  0.29781900  0.76857300  0.09487400  1
  C  C38  1  0.79781900  0.23142700  0.40512600  1
  C  C39  1  0.70218100  0.23142700  0.90512600  1
  C  C40  1  0.51356400  0.01134600  0.69554600  1
  C  C41  1  0.98643600  0.01134600  0.19554600  1
  C  C42  1  0.48643600  0.98865400  0.30445400  1
  C  C43  1  0.01356400  0.98865400  0.80445400  1
  C  C44  1  0.48915500  0.84721800  0.73302900  1
  C  C45  1  0.01084500  0.84721800  0.23302900  1
  C  C46  1  0.51084500  0.15278200  0.26697100  1
  C  C47  1  0.98915500  0.15278200  0.76697100  1
  C  C48  1  0.40961200  0.13005300  0.64328700  1
  C  C49  1  0.09038800  0.13005300  0.14328700  1
  C  C50  1  0.59038800  0.86994700  0.35671300  1
  C  C51  1  0.90961200  0.86994700  0.85671300  1
  C  C52  1  0.59271600  0.74682200  0.72993200  1
  C  C53  1  0.90728400  0.74682200  0.22993200  1
  C  C54  1  0.40728400  0.25317800  0.27006800  1
  C  C55  1  0.09271600  0.25317800  0.77006800  1
  C  C56  1  0.64253500  0.08135100  0.65344700  1
  C  C57  1  0.85746500  0.08135100  0.15344700  1
  C  C58  1  0.35746500  0.91864900  0.34655300  1
  C  C59  1  0.14253500  0.91864900  0.84655300  1
  C  C60  1  0.25955500  0.90972200  0.66932100  1
  C  C61  1  0.24044500  0.90972200  0.16932100  1
  C  C62  1  0.74044500  0.09027800  0.33067900  1
  C  C63  1  0.75955500  0.09027800  0.83067900  1
  C  C64  1  0.35968500  0.79529600  0.71978200  1
  C  C65  1  0.14031500  0.79529600  0.21978200  1
  C  C66  1  0.64031500  0.20470400  0.28021800  1
  C  C67  1  0.85968500  0.20470400  0.78021800  1
  C  C68  1  0.28496700  0.08020900  0.63037400  1
  C  C69  1  0.21503300  0.08020900  0.13037400  1
  C  C70  1  0.71503300  0.91979100  0.36962600  1
  C  C71  1  0.78496700  0.91979100  0.86962600  1
  C  C72  1  0.71692000  0.81402300  0.68969800  1
  C  C73  1  0.78308000  0.81402300  0.18969800  1
  C  C74  1  0.28308000  0.18597700  0.31030200  1
  C  C75  1  0.21692000  0.18597700  0.81030200  1
  C  C76  1  0.74216800  0.98460700  0.65063700  1
  C  C77  1  0.75783200  0.98460700  0.15063700  1
  C  C78  1  0.25783200  0.01539300  0.34936300  1
  C  C79  1  0.24216800  0.01539300  0.84936300  1
  C  C80  1  0.49175500  0.42270100  0.40368100  1
  C  C81  1  0.00824500  0.42270100  0.90368100  1
  C  C82  1  0.50824500  0.57729900  0.59631900  1
  C  C83  1  0.99175500  0.57729900  0.09631900  1
  C  C84  1  0.63046600  0.39393400  0.40977500  1
  C  C85  1  0.86953400  0.39393400  0.90977500  1
  C  C86  1  0.36953400  0.60606600  0.59022500  1
  C  C87  1  0.13046600  0.60606600  0.09022500  1
  C  C88  1  0.41234400  0.36115400  0.48472900  1
  C  C89  1  0.08765600  0.36115400  0.98472900  1
  C  C90  1  0.58765600  0.63884600  0.51527100  1
  C  C91  1  0.91234400  0.63884600  0.01527100  1
  C  C92  1  0.69398300  0.34996400  0.35287400  1
  C  C93  1  0.80601700  0.34996400  0.85287400  1
  C  C94  1  0.30601700  0.65003600  0.64712600  1
  C  C95  1  0.19398300  0.65003600  0.14712600  1
  C  C96  1  0.41146500  0.40912700  0.34019500  1
  C  C97  1  0.08853500  0.40912700  0.84019500  1
  C  C98  1  0.58853500  0.59087300  0.65980500  1
  C  C99  1  0.91146500  0.59087300  0.15980500  1
  C  C100  1  0.61838900  0.24302200  0.57535900  1
  C  C101  1  0.88161100  0.24302200  0.07535900  1
  C  C102  1  0.38161100  0.75697800  0.42464100  1
  C  C103  1  0.11838900  0.75697800  0.92464100  1
  C  C104  1  0.69499800  0.30250600  0.49732200  1
  C  C105  1  0.80500200  0.30250600  0.99732200  1
  C  C106  1  0.30500200  0.69749400  0.50267800  1
  C  C107  1  0.19499800  0.69749400  0.00267800  1
  C  C108  1  0.47441700  0.27304600  0.56901400  1
  C  C109  1  0.02558300  0.27304600  0.06901400  1
  C  C110  1  0.52558300  0.72695400  0.43098600  1
  C  C111  1  0.97441700  0.72695400  0.93098600  1
  C  C112  1  0.61666100  0.33695300  0.29156100  1
  C  C113  1  0.88333900  0.33695300  0.79156100  1
  C  C114  1  0.38333900  0.66304700  0.70843900  1
  C  C115  1  0.11666100  0.66304700  0.20843900  1
  C  C116  1  0.47274800  0.36701200  0.28521100  1
  C  C117  1  0.02725200  0.36701200  0.78521100  1
  C  C118  1  0.52725200  0.63298800  0.71478900  1
  C  C119  1  0.97274800  0.63298800  0.21478900  1
  C  C120  1  0.50000000  0.50000000  0.00000000  1
  C  C121  1  0.00000000  0.50000000  0.50000000  1
  O  O122  1  0.50853800  0.46742800  0.07383800  1
  O  O123  1  0.99146200  0.46742800  0.57383800  1
  O  O124  1  0.49146200  0.53257200  0.92616200  1
  O  O125  1  0.00853800  0.53257200  0.42616200  1
