# generated using pymatgen
data_K10Ge18WO4
_symmetry_space_group_name_H-M   'P 1'
_cell_length_a   14.18484060
_cell_length_b   15.97533289
_cell_length_c   17.76262745
_cell_angle_alpha   90.00000000
_cell_angle_beta   90.48313030
_cell_angle_gamma   90.00000000
_symmetry_Int_Tables_number   1
_chemical_formula_structural   K10Ge18WO4
_chemical_formula_sum   'K40 Ge72 W4 O16'
_cell_volume   4025.00240053
_cell_formula_units_Z   4
loop_
 _symmetry_equiv_pos_site_id
 _symmetry_equiv_pos_as_xyz
  1  'x, y, z'
loop_
 _atom_site_type_symbol
 _atom_site_label
 _atom_site_symmetry_multiplicity
 _atom_site_fract_x
 _atom_site_fract_y
 _atom_site_fract_z
 _atom_site_occupancy
  K  K0  1  0.35904614  0.25621861  0.89039367  1
  K  K1  1  0.64095386  0.75621861  0.60960633  1
  K  K2  1  0.64095386  0.74378139  0.10960633  1
  K  K3  1  0.35904614  0.24378139  0.39039367  1
  K  K4  1  0.62791798  0.39751012  0.83563441  1
  K  K5  1  0.37208202  0.89751012  0.66436559  1
  K  K6  1  0.37208202  0.60248988  0.16436559  1
  K  K7  1  0.62791798  0.10248988  0.33563441  1
  K  K8  1  0.25421985  0.49896389  0.97914871  1
  K  K9  1  0.74578015  0.99896389  0.52085129  1
  K  K10  1  0.74578015  0.50103611  0.02085129  1
  K  K11  1  0.25421985  0.00103611  0.47914871  1
  K  K12  1  0.28776880  0.68055084  0.53826096  1
  K  K13  1  0.71223120  0.18055084  0.96173904  1
  K  K14  1  0.71223120  0.31944916  0.46173904  1
  K  K15  1  0.28776880  0.81944916  0.03826096  1
  K  K16  1  0.21413063  0.23589260  0.61791056  1
  K  K17  1  0.78586937  0.73589260  0.88208944  1
  K  K18  1  0.78586937  0.76410740  0.38208944  1
  K  K19  1  0.21413063  0.26410740  0.11791056  1
  K  K20  1  0.47531103  0.01858362  0.89289953  1
  K  K21  1  0.52468897  0.51858362  0.60710047  1
  K  K22  1  0.52468897  0.98141638  0.10710047  1
  K  K23  1  0.47531103  0.48141638  0.39289953  1
  K  K24  1  0.17924858  0.05592763  0.81186662  1
  K  K25  1  0.82075142  0.55592763  0.68813338  1
  K  K26  1  0.82075142  0.94407237  0.18813338  1
  K  K27  1  0.17924858  0.44407237  0.31186662  1
  K  K28  1  0.27187646  0.47641653  0.71017208  1
  K  K29  1  0.72812354  0.97641653  0.78982792  1
  K  K30  1  0.72812354  0.52358347  0.28982792  1
  K  K31  1  0.27187646  0.02358347  0.21017208  1
  K  K32  1  0.06458726  0.62288977  0.85868234  1
  K  K33  1  0.93541274  0.12288977  0.64131766  1
  K  K34  1  0.93541274  0.37711023  0.14131766  1
  K  K35  1  0.06458726  0.87711023  0.35868234  1
  K  K36  1  0.00416912  0.40280612  0.56651129  1
  K  K37  1  0.99583088  0.90280612  0.93348871  1
  K  K38  1  0.99583088  0.59719388  0.43348871  1
  K  K39  1  0.00416912  0.09719388  0.06651129  1
  Ge  Ge40  1  0.69047988  0.15383684  0.65849622  1
  Ge  Ge41  1  0.30952012  0.65383684  0.84150378  1
  Ge  Ge42  1  0.30952012  0.84616316  0.34150378  1
  Ge  Ge43  1  0.69047988  0.34616316  0.15849622  1
  Ge  Ge44  1  0.58338731  0.16165998  0.53735967  1
  Ge  Ge45  1  0.41661269  0.66165998  0.96264033  1
  Ge  Ge46  1  0.41661269  0.83834002  0.46264033  1
  Ge  Ge47  1  0.58338731  0.33834002  0.03735967  1
  Ge  Ge48  1  0.54418697  0.05379547  0.65245651  1
  Ge  Ge49  1  0.45581303  0.55379547  0.84754349  1
  Ge  Ge50  1  0.45581303  0.94620453  0.34754349  1
  Ge  Ge51  1  0.54418697  0.44620453  0.15245651  1
  Ge  Ge52  1  0.56958919  0.18383795  0.76463642  1
  Ge  Ge53  1  0.43041081  0.68383795  0.73536358  1
  Ge  Ge54  1  0.43041081  0.81616205  0.23536358  1
  Ge  Ge55  1  0.56958919  0.31616205  0.26463642  1
  Ge  Ge56  1  0.61508714  0.30124619  0.65336588  1
  Ge  Ge57  1  0.38491286  0.80124619  0.84663412  1
  Ge  Ge58  1  0.38491286  0.69875381  0.34663412  1
  Ge  Ge59  1  0.61508714  0.19875381  0.15336588  1
  Ge  Ge60  1  0.41212198  0.13039760  0.57211743  1
  Ge  Ge61  1  0.58787802  0.63039760  0.92788257  1
  Ge  Ge62  1  0.58787802  0.86960240  0.42788257  1
  Ge  Ge63  1  0.41212198  0.36960240  0.07211743  1
  Ge  Ge64  1  0.40364947  0.13055855  0.71931839  1
  Ge  Ge65  1  0.59635053  0.63055855  0.78068161  1
  Ge  Ge66  1  0.59635053  0.86944145  0.28068161  1
  Ge  Ge67  1  0.40364947  0.36944145  0.21931839  1
  Ge  Ge68  1  0.44488061  0.29181979  0.70803949  1
  Ge  Ge69  1  0.55511939  0.79181979  0.79196051  1
  Ge  Ge70  1  0.55511939  0.70818021  0.29196051  1
  Ge  Ge71  1  0.44488061  0.20818021  0.20803949  1
  Ge  Ge72  1  0.47038194  0.28836893  0.56224477  1
  Ge  Ge73  1  0.52961806  0.78836893  0.93775523  1
  Ge  Ge74  1  0.52961806  0.71163107  0.43775523  1
  Ge  Ge75  1  0.47038194  0.21163107  0.06224477  1
  Ge  Ge76  1  0.05156415  0.67876285  0.63543269  1
  Ge  Ge77  1  0.94843585  0.17876285  0.86456731  1
  Ge  Ge78  1  0.94843585  0.32123715  0.36456731  1
  Ge  Ge79  1  0.05156415  0.82123715  0.13543269  1
  Ge  Ge80  1  0.08309509  0.25948884  0.93878119  1
  Ge  Ge81  1  0.91690491  0.75948884  0.56121881  1
  Ge  Ge82  1  0.91690491  0.74051116  0.06121881  1
  Ge  Ge83  1  0.08309509  0.24051116  0.43878119  1
  Ge  Ge84  1  0.09951588  0.80652265  0.55090082  1
  Ge  Ge85  1  0.90048412  0.30652265  0.94909918  1
  Ge  Ge86  1  0.90048412  0.19347735  0.44909918  1
  Ge  Ge87  1  0.09951588  0.69347735  0.05090082  1
  Ge  Ge88  1  0.13384436  0.79914517  0.71272569  1
  Ge  Ge89  1  0.86615564  0.29914517  0.78727431  1
  Ge  Ge90  1  0.86615564  0.20085483  0.28727431  1
  Ge  Ge91  1  0.13384436  0.70085483  0.21272569  1
  Ge  Ge92  1  0.04917060  0.25182001  0.76187541  1
  Ge  Ge93  1  0.95082940  0.75182001  0.73812459  1
  Ge  Ge94  1  0.95082940  0.74817999  0.23812459  1
  Ge  Ge95  1  0.04917060  0.24817999  0.26187541  1
  Ge  Ge96  1  0.03835155  0.41713594  0.94581343  1
  Ge  Ge97  1  0.96164845  0.91713594  0.55418657  1
  Ge  Ge98  1  0.96164845  0.58286406  0.05418657  1
  Ge  Ge99  1  0.03835155  0.08286406  0.44581343  1
  Ge  Ge100  1  0.11373891  0.93971131  0.63721358  1
  Ge  Ge101  1  0.88626109  0.43971131  0.86278642  1
  Ge  Ge102  1  0.88626109  0.06028869  0.36278642  1
  Ge  Ge103  1  0.11373891  0.56028869  0.13721358  1
  Ge  Ge104  1  0.99441669  0.91008504  0.74303501  1
  Ge  Ge105  1  0.00558331  0.41008504  0.75696499  1
  Ge  Ge106  1  0.00558331  0.08991496  0.25696499  1
  Ge  Ge107  1  0.99441669  0.58991496  0.24303501  1
  Ge  Ge108  1  0.14938090  0.36000724  0.83756201  1
  Ge  Ge109  1  0.85061910  0.86000724  0.66243799  1
  Ge  Ge110  1  0.85061910  0.63999276  0.16243799  1
  Ge  Ge111  1  0.14938090  0.13999276  0.33756201  1
  W  W112  1  0.25409990  0.45675288  0.50549458  1
  W  W113  1  0.74590010  0.95675288  0.99450542  1
  W  W114  1  0.74590010  0.54324712  0.49450542  1
  W  W115  1  0.25409990  0.04324712  0.00549458  1
  O  O116  1  0.34413946  0.97758295  0.04993822  1
  O  O117  1  0.65586054  0.47758295  0.45006178  1
  O  O118  1  0.65586054  0.02241705  0.95006178  1
  O  O119  1  0.34413946  0.52241705  0.54993822  1
  O  O120  1  0.16291052  0.97695284  0.96482271  1
  O  O121  1  0.83708948  0.47695284  0.53517729  1
  O  O122  1  0.83708948  0.02304716  0.03517729  1
  O  O123  1  0.16291052  0.52304716  0.46482271  1
  O  O124  1  0.20092215  0.39342893  0.57856598  1
  O  O125  1  0.79907785  0.89342893  0.92143402  1
  O  O126  1  0.79907785  0.60657107  0.42143402  1
  O  O127  1  0.20092215  0.10657107  0.07856598  1
  O  O128  1  0.30486915  0.10090273  0.92711352  1
  O  O129  1  0.69513085  0.60090273  0.57288648  1
  O  O130  1  0.69513085  0.89909727  0.07288648  1
  O  O131  1  0.30486915  0.39909727  0.42711352  1
