# generated using pymatgen
data_Na3P3O10
_symmetry_space_group_name_H-M   'P 1'
_cell_length_a   7.82928600
_cell_length_b   8.23035400
_cell_length_c   13.54538200
_cell_angle_alpha   90.00000000
_cell_angle_beta   90.00000000
_cell_angle_gamma   90.00000000
_symmetry_Int_Tables_number   1
_chemical_formula_structural   Na3P3O10
_chemical_formula_sum   'Na12 P12 O40'
_cell_volume   872.83455322
_cell_formula_units_Z   4
loop_
 _symmetry_equiv_pos_site_id
 _symmetry_equiv_pos_as_xyz
  1  'x, y, z'
loop_
 _atom_site_type_symbol
 _atom_site_label
 _atom_site_symmetry_multiplicity
 _atom_site_fract_x
 _atom_site_fract_y
 _atom_site_fract_z
 _atom_site_occupancy
  Na  Na0  1  0.53999600  0.75000000  0.26999200  1
  Na  Na1  1  0.03999600  0.75000000  0.23000800  1
  Na  Na2  1  0.46000400  0.25000000  0.73000800  1
  Na  Na3  1  0.96000400  0.25000000  0.76999200  1
  Na  Na4  1  0.82241300  0.49176300  0.42136500  1
  Na  Na5  1  0.32241300  0.00823700  0.07863500  1
  Na  Na6  1  0.17758700  0.99176300  0.57863500  1
  Na  Na7  1  0.67758700  0.50823700  0.92136500  1
  Na  Na8  1  0.17758700  0.50823700  0.57863500  1
  Na  Na9  1  0.67758700  0.99176300  0.92136500  1
  Na  Na10  1  0.82241300  0.00823700  0.42136500  1
  Na  Na11  1  0.32241300  0.49176300  0.07863500  1
  P  P12  1  0.48891600  0.25000000  0.46827000  1
  P  P13  1  0.98891600  0.25000000  0.03173000  1
  P  P14  1  0.51108400  0.75000000  0.53173000  1
  P  P15  1  0.01108400  0.75000000  0.96827000  1
  P  P16  1  0.26108700  0.07187900  0.33544300  1
  P  P17  1  0.76108700  0.42812100  0.16455700  1
  P  P18  1  0.73891300  0.57187900  0.66455700  1
  P  P19  1  0.23891300  0.92812100  0.83544300  1
  P  P20  1  0.73891300  0.92812100  0.66455700  1
  P  P21  1  0.23891300  0.57187900  0.83544300  1
  P  P22  1  0.26108700  0.42812100  0.33544300  1
  P  P23  1  0.76108700  0.07187900  0.16455700  1
  O  O24  1  0.67961400  0.25000000  0.47406700  1
  O  O25  1  0.17961400  0.25000000  0.02593300  1
  O  O26  1  0.32038600  0.75000000  0.52593300  1
  O  O27  1  0.82038600  0.75000000  0.97406700  1
  O  O28  1  0.62034100  0.75000000  0.44058000  1
  O  O29  1  0.12034100  0.75000000  0.05942000  1
  O  O30  1  0.37965900  0.25000000  0.55941900  1
  O  O31  1  0.87965900  0.25000000  0.94058100  1
  O  O32  1  0.23876800  0.25000000  0.28396000  1
  O  O33  1  0.73876800  0.25000000  0.21604000  1
  O  O34  1  0.76123200  0.75000000  0.71604000  1
  O  O35  1  0.26123200  0.75000000  0.78396000  1
  O  O36  1  0.43770100  0.09689900  0.39721800  1
  O  O37  1  0.93770100  0.40310100  0.10278200  1
  O  O38  1  0.56229900  0.59689900  0.60278200  1
  O  O39  1  0.06229900  0.90310100  0.89721800  1
  O  O40  1  0.56229900  0.90310100  0.60278200  1
  O  O41  1  0.06229900  0.59689900  0.89721800  1
  O  O42  1  0.43770100  0.40310100  0.39721800  1
  O  O43  1  0.93770100  0.09689900  0.10278200  1
  O  O44  1  0.11687700  0.04275600  0.40647000  1
  O  O45  1  0.61687700  0.45724400  0.09353000  1
  O  O46  1  0.88312300  0.54275600  0.59353000  1
  O  O47  1  0.38312300  0.95724400  0.90647000  1
  O  O48  1  0.88312300  0.95724400  0.59353000  1
  O  O49  1  0.38312300  0.54275600  0.90647000  1
  O  O50  1  0.11687700  0.45724400  0.40647000  1
  O  O51  1  0.61687700  0.04275600  0.09353000  1
  O  O52  1  0.29718200  0.95173500  0.25496300  1
  O  O53  1  0.79718200  0.54826500  0.24503700  1
  O  O54  1  0.70281800  0.45173500  0.74503700  1
  O  O55  1  0.20281800  0.04826500  0.75496300  1
  O  O56  1  0.70281800  0.04826500  0.74503700  1
  O  O57  1  0.20281800  0.45173500  0.75496300  1
  O  O58  1  0.29718200  0.54826500  0.25496300  1
  O  O59  1  0.79718200  0.95173500  0.24503700  1
  O  O60  1  0.01955700  0.75000000  0.40510300  1
  O  O61  1  0.51955700  0.75000000  0.09489700  1
  O  O62  1  0.98044300  0.25000000  0.59489700  1
  O  O63  1  0.48044300  0.25000000  0.90510300  1
