# generated using pymatgen
data_LaB2O4F
_symmetry_space_group_name_H-M   'P 1'
_cell_length_a   7.42134800
_cell_length_b   8.30432300
_cell_length_c   12.77009900
_cell_angle_alpha   90.00000000
_cell_angle_beta   90.00000000
_cell_angle_gamma   90.00000000
_symmetry_Int_Tables_number   1
_chemical_formula_structural   LaB2O4F
_chemical_formula_sum   'La8 B16 O32 F8'
_cell_volume   787.01189053
_cell_formula_units_Z   8
loop_
 _symmetry_equiv_pos_site_id
 _symmetry_equiv_pos_as_xyz
  1  'x, y, z'
loop_
 _atom_site_type_symbol
 _atom_site_label
 _atom_site_symmetry_multiplicity
 _atom_site_fract_x
 _atom_site_fract_y
 _atom_site_fract_z
 _atom_site_occupancy
  La  La0  1  0.24768000  0.61363900  0.47563400  1
  La  La1  1  0.75232000  0.11363900  0.02436600  1
  La  La2  1  0.25232000  0.38636100  0.97563400  1
  La  La3  1  0.74768000  0.88636100  0.52436600  1
  La  La4  1  0.75232000  0.38636100  0.52436600  1
  La  La5  1  0.24768000  0.88636100  0.97563400  1
  La  La6  1  0.74768000  0.61363900  0.02436600  1
  La  La7  1  0.25232000  0.11363900  0.47563400  1
  B  B8  1  0.34477900  0.65930900  0.17215500  1
  B  B9  1  0.65522100  0.15930900  0.32784500  1
  B  B10  1  0.15522100  0.34069100  0.67215500  1
  B  B11  1  0.84477900  0.84069100  0.82784500  1
  B  B12  1  0.65522100  0.34069100  0.82784500  1
  B  B13  1  0.34477900  0.84069100  0.67215500  1
  B  B14  1  0.84477900  0.65930900  0.32784500  1
  B  B15  1  0.15522100  0.15930900  0.17215500  1
  B  B16  1  0.26141600  0.90974900  0.27124600  1
  B  B17  1  0.73858400  0.40974900  0.22875400  1
  B  B18  1  0.23858400  0.09025100  0.77124600  1
  B  B19  1  0.76141600  0.59025100  0.72875400  1
  B  B20  1  0.73858400  0.09025100  0.72875400  1
  B  B21  1  0.26141600  0.59025100  0.77124600  1
  B  B22  1  0.76141600  0.90974900  0.22875400  1
  B  B23  1  0.23858400  0.40974900  0.27124600  1
  O  O24  1  0.42606500  0.60265400  0.08583100  1
  O  O25  1  0.57393500  0.10265400  0.41416900  1
  O  O26  1  0.07393500  0.39734600  0.58583100  1
  O  O27  1  0.92606500  0.89734600  0.91416900  1
  O  O28  1  0.57393500  0.39734600  0.91416900  1
  O  O29  1  0.42606500  0.89734600  0.58583100  1
  O  O30  1  0.92606500  0.60265400  0.41416900  1
  O  O31  1  0.07393500  0.10265400  0.08583100  1
  O  O32  1  0.30868000  0.82627000  0.17964500  1
  O  O33  1  0.69132000  0.32627000  0.32035500  1
  O  O34  1  0.19132000  0.17373000  0.67964500  1
  O  O35  1  0.80868000  0.67373000  0.82035500  1
  O  O36  1  0.69132000  0.17373000  0.82035500  1
  O  O37  1  0.30868000  0.67373000  0.67964500  1
  O  O38  1  0.80868000  0.82627000  0.32035500  1
  O  O39  1  0.19132000  0.32627000  0.17964500  1
  O  O40  1  0.29240700  0.56970600  0.25881000  1
  O  O41  1  0.70759300  0.06970600  0.24119000  1
  O  O42  1  0.20759300  0.43029400  0.75881000  1
  O  O43  1  0.79240700  0.93029400  0.74119000  1
  O  O44  1  0.70759300  0.43029400  0.74119000  1
  O  O45  1  0.29240700  0.93029400  0.75881000  1
  O  O46  1  0.79240700  0.56970600  0.24119000  1
  O  O47  1  0.20759300  0.06970600  0.25881000  1
  O  O48  1  0.27282900  0.85717800  0.36972400  1
  O  O49  1  0.72717100  0.35717800  0.13027600  1
  O  O50  1  0.22717100  0.14282200  0.86972400  1
  O  O51  1  0.77282900  0.64282200  0.63027600  1
  O  O52  1  0.72717100  0.14282200  0.63027600  1
  O  O53  1  0.27282900  0.64282200  0.86972400  1
  O  O54  1  0.77282900  0.85717800  0.13027600  1
  O  O55  1  0.22717100  0.35717800  0.36972400  1
  F  F56  1  0.06707700  0.63436400  0.04829100  1
  F  F57  1  0.93292300  0.13436400  0.45170900  1
  F  F58  1  0.43292300  0.36563600  0.54829100  1
  F  F59  1  0.56707700  0.86563600  0.95170900  1
  F  F60  1  0.93292300  0.36563600  0.95170900  1
  F  F61  1  0.06707700  0.86563600  0.54829100  1
  F  F62  1  0.56707700  0.63436400  0.45170900  1
  F  F63  1  0.43292300  0.13436400  0.04829100  1
