# generated using pymatgen
data_Ba3(P3O13)2
_symmetry_space_group_name_H-M   'P 1'
_cell_length_a   10.93616537
_cell_length_b   10.93616537
_cell_length_c   16.63451593
_cell_angle_alpha   63.28375751
_cell_angle_beta   63.28375751
_cell_angle_gamma   39.87579633
_symmetry_Int_Tables_number   1
_chemical_formula_structural   Ba3(P3O13)2
_chemical_formula_sum   'Ba6 P12 O52'
_cell_volume   1120.19128529
_cell_formula_units_Z   2
loop_
 _symmetry_equiv_pos_site_id
 _symmetry_equiv_pos_as_xyz
  1  'x, y, z'
loop_
 _atom_site_type_symbol
 _atom_site_label
 _atom_site_symmetry_multiplicity
 _atom_site_fract_x
 _atom_site_fract_y
 _atom_site_fract_z
 _atom_site_occupancy
  Ba  Ba0  1  0.60966000  0.79955500  0.72593800  1
  Ba  Ba1  1  0.20044500  0.39034000  0.77406200  1
  Ba  Ba2  1  0.39034000  0.20044500  0.27406200  1
  Ba  Ba3  1  0.79955500  0.60966000  0.22593800  1
  Ba  Ba4  1  0.27372200  0.72627800  0.75000000  1
  Ba  Ba5  1  0.72627800  0.27372200  0.25000000  1
  P  P6  1  0.75557100  0.98478700  0.78213400  1
  P  P7  1  0.01521300  0.24442900  0.71786600  1
  P  P8  1  0.24442900  0.01521300  0.21786600  1
  P  P9  1  0.98478700  0.75557100  0.28213400  1
  P  P10  1  0.36593000  0.70375000  0.37743200  1
  P  P11  1  0.29625000  0.63407000  0.12256800  1
  P  P12  1  0.63407000  0.29625000  0.62256800  1
  P  P13  1  0.70375000  0.36593000  0.87743200  1
  P  P14  1  0.78270500  0.47062100  0.57144800  1
  P  P15  1  0.52937900  0.21729500  0.92855200  1
  P  P16  1  0.21729500  0.52937900  0.42855200  1
  P  P17  1  0.47062100  0.78270500  0.07144800  1
  O  O18  1  0.96270300  0.28869900  0.62691300  1
  O  O19  1  0.71130100  0.03729700  0.87308700  1
  O  O20  1  0.03729700  0.71130100  0.37308700  1
  O  O21  1  0.28869900  0.96270300  0.12691300  1
  O  O22  1  0.96983100  0.40817300  0.72667200  1
  O  O23  1  0.59182700  0.03016900  0.77332800  1
  O  O24  1  0.03016900  0.59182700  0.27332800  1
  O  O25  1  0.40817300  0.96983100  0.22667200  1
  O  O26  1  0.21683500  0.04186000  0.72328000  1
  O  O27  1  0.95814000  0.78316500  0.77672000  1
  O  O28  1  0.78316500  0.95814000  0.27672000  1
  O  O29  1  0.04186000  0.21683500  0.22328000  1
  O  O30  1  0.54241200  0.57022500  0.83361400  1
  O  O31  1  0.42977500  0.45758800  0.66638600  1
  O  O32  1  0.45758800  0.42977500  0.16638600  1
  O  O33  1  0.57022500  0.54241200  0.33361400  1
  O  O34  1  0.80136500  0.32957300  0.93821400  1
  O  O35  1  0.67042700  0.19863500  0.56178600  1
  O  O36  1  0.19863500  0.67042700  0.06178600  1
  O  O37  1  0.32957300  0.80136500  0.43821400  1
  O  O38  1  0.36539000  0.74034500  0.06179300  1
  O  O39  1  0.25965500  0.63461000  0.43820700  1
  O  O40  1  0.63461000  0.25965500  0.93820700  1
  O  O41  1  0.74034500  0.36539000  0.56179300  1
  O  O42  1  0.62274300  0.61388800  0.13106300  1
  O  O43  1  0.38611200  0.37725700  0.36893700  1
  O  O44  1  0.37725700  0.38611200  0.86893700  1
  O  O45  1  0.61388800  0.62274300  0.63106300  1
  O  O46  1  0.85516500  0.52690600  0.47648200  1
  O  O47  1  0.47309400  0.14483500  0.02351800  1
  O  O48  1  0.14483500  0.47309400  0.52351800  1
  O  O49  1  0.52690600  0.85516500  0.97648200  1
  O  O50  1  0.86627000  0.23276200  0.79750400  1
  O  O51  1  0.76723800  0.13373000  0.70249600  1
  O  O52  1  0.13373000  0.76723800  0.20249600  1
  O  O53  1  0.23276200  0.86627000  0.29750400  1
  O  O54  1  0.50458000  0.13633500  0.59776200  1
  O  O55  1  0.86366500  0.49542000  0.90223800  1
  O  O56  1  0.49542000  0.86366500  0.40223800  1
  O  O57  1  0.13633500  0.50458000  0.09776200  1
  O  O58  1  0.03524000  0.60806200  0.01585700  1
  O  O59  1  0.39193800  0.96476000  0.48414300  1
  O  O60  1  0.96476000  0.39193800  0.98414300  1
  O  O61  1  0.60806200  0.03524000  0.51585700  1
  O  O62  1  0.64514300  0.98681100  0.12922000  1
  O  O63  1  0.01318900  0.35485700  0.37078000  1
  O  O64  1  0.35485700  0.01318900  0.87078000  1
  O  O65  1  0.98681100  0.64514300  0.62922000  1
  O  O66  1  0.98030200  0.25739600  0.03884300  1
  O  O67  1  0.74260400  0.01969800  0.46115700  1
  O  O68  1  0.01969800  0.74260400  0.96115700  1
  O  O69  1  0.25739600  0.98030200  0.53884300  1
