# generated using pymatgen
data_SrSc4Si5O17
_symmetry_space_group_name_H-M   'P 1'
_cell_length_a   19.45089500
_cell_length_b   5.33276600
_cell_length_c   6.63277128
_cell_angle_alpha   73.43397603
_cell_angle_beta   90.00000000
_cell_angle_gamma   90.00000000
_symmetry_Int_Tables_number   1
_chemical_formula_structural   SrSc4Si5O17
_chemical_formula_sum   'Sr2 Sc8 Si10 O34'
_cell_volume   659.44039696
_cell_formula_units_Z   2
loop_
 _symmetry_equiv_pos_site_id
 _symmetry_equiv_pos_as_xyz
  1  'x, y, z'
loop_
 _atom_site_type_symbol
 _atom_site_label
 _atom_site_symmetry_multiplicity
 _atom_site_fract_x
 _atom_site_fract_y
 _atom_site_fract_z
 _atom_site_occupancy
  Sr  Sr0  1  0.25000000  0.76740300  0.77725000  1
  Sr  Sr1  1  0.75000000  0.23259700  0.22275000  1
  Sc  Sc2  1  0.03797300  0.69626100  0.11203300  1
  Sc  Sc3  1  0.53797300  0.30373900  0.88796700  1
  Sc  Sc4  1  0.96202700  0.30373900  0.88796700  1
  Sc  Sc5  1  0.46202700  0.69626100  0.11203300  1
  Sc  Sc6  1  0.15992100  0.35827000  0.46214400  1
  Sc  Sc7  1  0.65992100  0.64173000  0.53785600  1
  Sc  Sc8  1  0.84007900  0.64173000  0.53785600  1
  Sc  Sc9  1  0.34007900  0.35827000  0.46214400  1
  Si  Si10  1  0.25000000  0.93802600  0.25834800  1
  Si  Si11  1  0.75000000  0.06197400  0.74165200  1
  Si  Si12  1  0.13299300  0.23499100  0.98506800  1
  Si  Si13  1  0.63299300  0.76500900  0.01493200  1
  Si  Si14  1  0.86700700  0.76500900  0.01493200  1
  Si  Si15  1  0.36700700  0.23499100  0.98506800  1
  Si  Si16  1  0.06330500  0.80244500  0.59050100  1
  Si  Si17  1  0.56330500  0.19755500  0.40949900  1
  Si  Si18  1  0.93669500  0.19755500  0.40949900  1
  Si  Si19  1  0.43669500  0.80244500  0.59050100  1
  O  O20  1  0.25000000  0.14975000  0.39561100  1
  O  O21  1  0.75000000  0.85025000  0.60438900  1
  O  O22  1  0.25000000  0.63652300  0.40829500  1
  O  O23  1  0.75000000  0.36347700  0.59170500  1
  O  O24  1  0.18345200  0.97811500  0.09900300  1
  O  O25  1  0.68345200  0.02188500  0.90099700  1
  O  O26  1  0.81654800  0.02188500  0.90099700  1
  O  O27  1  0.31654800  0.97811500  0.09900300  1
  O  O28  1  0.17091000  0.38909500  0.76614800  1
  O  O29  1  0.67091000  0.61090500  0.23385200  1
  O  O30  1  0.82909000  0.61090500  0.23385200  1
  O  O31  1  0.32909000  0.38909500  0.76614800  1
  O  O32  1  0.05951400  0.09205700  0.96685600  1
  O  O33  1  0.55951400  0.90794300  0.03314400  1
  O  O34  1  0.94048600  0.90794300  0.03314400  1
  O  O35  1  0.44048600  0.09205700  0.96685600  1
  O  O36  1  0.12748500  0.42159700  0.14491400  1
  O  O37  1  0.62748500  0.57840300  0.85508600  1
  O  O38  1  0.87251500  0.57840300  0.85508600  1
  O  O39  1  0.37251500  0.42159700  0.14491400  1
  O  O40  1  0.13194100  0.97282000  0.60201700  1
  O  O41  1  0.63194100  0.02718000  0.39798300  1
  O  O42  1  0.86805900  0.02718000  0.39798300  1
  O  O43  1  0.36805900  0.97282000  0.60201700  1
  O  O44  1  0.03531500  0.61456100  0.81880300  1
  O  O45  1  0.53531500  0.38543900  0.18119700  1
  O  O46  1  0.96468500  0.38543900  0.18119700  1
  O  O47  1  0.46468500  0.61456100  0.81880300  1
  O  O48  1  0.00000000  0.00000000  0.50000000  1
  O  O49  1  0.50000000  0.00000000  0.50000000  1
  O  O50  1  0.07548100  0.62657100  0.42370100  1
  O  O51  1  0.57548100  0.37342900  0.57629900  1
  O  O52  1  0.92451900  0.37342900  0.57629900  1
  O  O53  1  0.42451900  0.62657100  0.42370100  1
