# generated using pymatgen
data_KCu3P3(O4F3)2
_symmetry_space_group_name_H-M   'P 1'
_cell_length_a   10.36432342
_cell_length_b   10.36432342
_cell_length_c   7.91686191
_cell_angle_alpha   78.04467186
_cell_angle_beta   78.04467186
_cell_angle_gamma   43.10593143
_symmetry_Int_Tables_number   1
_chemical_formula_structural   KCu3P3(O4F3)2
_chemical_formula_sum   'K2 Cu6 P6 O16 F12'
_cell_volume   566.53900583
_cell_formula_units_Z   2
loop_
 _symmetry_equiv_pos_site_id
 _symmetry_equiv_pos_as_xyz
  1  'x, y, z'
loop_
 _atom_site_type_symbol
 _atom_site_label
 _atom_site_symmetry_multiplicity
 _atom_site_fract_x
 _atom_site_fract_y
 _atom_site_fract_z
 _atom_site_occupancy
  K  K0  1  0.65750200  0.34249800  0.25000000  1
  K  K1  1  0.34249800  0.65750200  0.75000000  1
  Cu  Cu2  1  0.87025000  0.80493500  0.81070400  1
  Cu  Cu3  1  0.19506500  0.12975000  0.68929600  1
  Cu  Cu4  1  0.12975000  0.19506500  0.18929600  1
  Cu  Cu5  1  0.80493500  0.87025000  0.31070400  1
  Cu  Cu6  1  0.50000000  0.00000000  0.00000000  1
  Cu  Cu7  1  0.00000000  0.50000000  0.50000000  1
  P  P8  1  0.87552200  0.12447800  0.75000000  1
  P  P9  1  0.12447800  0.87552200  0.25000000  1
  P  P10  1  0.84663000  0.50134000  0.90990500  1
  P  P11  1  0.49866000  0.15337000  0.59009500  1
  P  P12  1  0.15337000  0.49866000  0.09009500  1
  P  P13  1  0.50134000  0.84663000  0.40990500  1
  O  O14  1  0.91560300  0.96458300  0.70474300  1
  O  O15  1  0.03541700  0.08439700  0.79525700  1
  O  O16  1  0.08439700  0.03541700  0.29525700  1
  O  O17  1  0.96458300  0.91560300  0.20474300  1
  O  O18  1  0.79644500  0.67602400  0.93437200  1
  O  O19  1  0.32397600  0.20355500  0.56562800  1
  O  O20  1  0.20355500  0.32397600  0.06562800  1
  O  O21  1  0.67602400  0.79644500  0.43437200  1
  O  O22  1  0.89369000  0.36970000  0.07249400  1
  O  O23  1  0.63030000  0.10631000  0.42750600  1
  O  O24  1  0.10631000  0.63030000  0.92750600  1
  O  O25  1  0.36970000  0.89369000  0.57249400  1
  O  O26  1  0.98464400  0.40085600  0.74963700  1
  O  O27  1  0.59914400  0.01535600  0.75036200  1
  O  O28  1  0.01535600  0.59914400  0.25036300  1
  O  O29  1  0.40085600  0.98464400  0.24963700  1
  F  F30  1  0.65236000  0.58107900  0.86828400  1
  F  F31  1  0.41892100  0.34764000  0.63171600  1
  F  F32  1  0.34764000  0.41892100  0.13171600  1
  F  F33  1  0.58107900  0.65236000  0.36828400  1
  F  F34  1  0.98766200  0.67080600  0.57198100  1
  F  F35  1  0.32919400  0.01233800  0.92801900  1
  F  F36  1  0.01233800  0.32919400  0.42801900  1
  F  F37  1  0.67080600  0.98766200  0.07198100  1
  F  F38  1  0.76396600  0.29085300  0.60203900  1
  F  F39  1  0.70914700  0.23603400  0.89796100  1
  F  F40  1  0.23603400  0.70914700  0.39796100  1
  F  F41  1  0.29085300  0.76396600  0.10203900  1
