# generated using pymatgen
data_Sm2ZrSe5
_symmetry_space_group_name_H-M   'P 1'
_cell_length_a   7.71143000
_cell_length_b   8.24648600
_cell_length_c   12.30443900
_cell_angle_alpha   90.00000000
_cell_angle_beta   90.00000000
_cell_angle_gamma   90.00000000
_symmetry_Int_Tables_number   1
_chemical_formula_structural   Sm2ZrSe5
_chemical_formula_sum   'Sm8 Zr4 Se20'
_cell_volume   782.46634005
_cell_formula_units_Z   4
loop_
 _symmetry_equiv_pos_site_id
 _symmetry_equiv_pos_as_xyz
  1  'x, y, z'
loop_
 _atom_site_type_symbol
 _atom_site_label
 _atom_site_symmetry_multiplicity
 _atom_site_fract_x
 _atom_site_fract_y
 _atom_site_fract_z
 _atom_site_occupancy
  Sm  Sm0  1  0.97648900  0.00303200  0.17878600  1
  Sm  Sm1  1  0.52351100  0.49696800  0.67878600  1
  Sm  Sm2  1  0.02351100  0.50303200  0.82121400  1
  Sm  Sm3  1  0.47648900  0.99696800  0.32121400  1
  Sm  Sm4  1  0.02351100  0.99696800  0.82121400  1
  Sm  Sm5  1  0.47648900  0.50303200  0.32121400  1
  Sm  Sm6  1  0.97648900  0.49696800  0.17878600  1
  Sm  Sm7  1  0.52351100  0.00303200  0.67878600  1
  Zr  Zr8  1  0.41914000  0.75000000  0.00651900  1
  Zr  Zr9  1  0.08086000  0.75000000  0.50651900  1
  Zr  Zr10  1  0.58086000  0.25000000  0.99348100  1
  Zr  Zr11  1  0.91914000  0.25000000  0.49348100  1
  Se  Se12  1  0.84020700  0.96178400  0.40789700  1
  Se  Se13  1  0.65979300  0.53821600  0.90789700  1
  Se  Se14  1  0.15979300  0.46178400  0.59210300  1
  Se  Se15  1  0.34020700  0.03821600  0.09210300  1
  Se  Se16  1  0.15979300  0.03821600  0.59210300  1
  Se  Se17  1  0.34020700  0.46178400  0.09210300  1
  Se  Se18  1  0.84020700  0.53821600  0.40789700  1
  Se  Se19  1  0.65979300  0.96178400  0.90789700  1
  Se  Se20  1  0.66791000  0.75000000  0.18066800  1
  Se  Se21  1  0.83209000  0.75000000  0.68066800  1
  Se  Se22  1  0.33209000  0.25000000  0.81933200  1
  Se  Se23  1  0.16791000  0.25000000  0.31933200  1
  Se  Se24  1  0.44855000  0.75000000  0.50348400  1
  Se  Se25  1  0.05145000  0.75000000  0.00348400  1
  Se  Se26  1  0.55145000  0.25000000  0.49651600  1
  Se  Se27  1  0.94855000  0.25000000  0.99651600  1
  Se  Se28  1  0.18984200  0.75000000  0.29261500  1
  Se  Se29  1  0.31015800  0.75000000  0.79261500  1
  Se  Se30  1  0.81015800  0.25000000  0.70738500  1
  Se  Se31  1  0.68984200  0.25000000  0.20738500  1
