# generated using pymatgen
data_La3IrO7
_symmetry_space_group_name_H-M   'P 1'
_cell_length_a   5.79081100
_cell_length_b   8.91757700
_cell_length_c   25.32727593
_cell_angle_alpha   75.37150434
_cell_angle_beta   90.00000000
_cell_angle_gamma   90.00000000
_symmetry_Int_Tables_number   1
_chemical_formula_structural   La3IrO7
_chemical_formula_sum   'La24 Ir8 O56'
_cell_volume   1265.50328791
_cell_formula_units_Z   8
loop_
 _symmetry_equiv_pos_site_id
 _symmetry_equiv_pos_as_xyz
  1  'x, y, z'
loop_
 _atom_site_type_symbol
 _atom_site_label
 _atom_site_symmetry_multiplicity
 _atom_site_fract_x
 _atom_site_fract_y
 _atom_site_fract_z
 _atom_site_occupancy
  La  La0  1  0.74398100  0.98443500  0.45128800  1
  La  La1  1  0.75601900  0.98443500  0.95128800  1
  La  La2  1  0.25601900  0.01556500  0.54871200  1
  La  La3  1  0.24398100  0.01556500  0.04871200  1
  La  La4  1  0.77928600  0.57395600  0.44009700  1
  La  La5  1  0.72071400  0.57395600  0.94009700  1
  La  La6  1  0.22071400  0.42604400  0.55990300  1
  La  La7  1  0.27928600  0.42604400  0.05990300  1
  La  La8  1  0.26495500  0.29138500  0.41079500  1
  La  La9  1  0.23504500  0.29138500  0.91079500  1
  La  La10  1  0.73504500  0.70861500  0.58920500  1
  La  La11  1  0.76495500  0.70861500  0.08920500  1
  La  La12  1  0.78069700  0.99721000  0.30762400  1
  La  La13  1  0.71930300  0.99721000  0.80762400  1
  La  La14  1  0.21930300  0.00279000  0.69237600  1
  La  La15  1  0.28069700  0.00279000  0.19237600  1
  La  La16  1  0.29434400  0.70079800  0.33776900  1
  La  La17  1  0.20565600  0.70079800  0.83776900  1
  La  La18  1  0.70565600  0.29920200  0.66223100  1
  La  La19  1  0.79434400  0.29920200  0.16223100  1
  La  La20  1  0.76673500  0.42961000  0.30939700  1
  La  La21  1  0.73326500  0.42961000  0.80939700  1
  La  La22  1  0.23326500  0.57039000  0.69060300  1
  La  La23  1  0.26673500  0.57039000  0.19060300  1
  Ir  Ir24  1  0.23948200  0.79377800  0.45380900  1
  Ir  Ir25  1  0.26051800  0.79377800  0.95380900  1
  Ir  Ir26  1  0.76051800  0.20622200  0.54619100  1
  Ir  Ir27  1  0.73948200  0.20622200  0.04619100  1
  Ir  Ir28  1  0.82086700  0.78635200  0.20896900  1
  Ir  Ir29  1  0.67913300  0.78635200  0.70896900  1
  Ir  Ir30  1  0.17913300  0.21364800  0.79103100  1
  Ir  Ir31  1  0.32086700  0.21364800  0.29103100  1
  O  O32  1  0.17650000  0.01176500  0.45145400  1
  O  O33  1  0.32350000  0.01176500  0.95145400  1
  O  O34  1  0.82350000  0.98823500  0.54854600  1
  O  O35  1  0.67650000  0.98823500  0.04854600  1
  O  O36  1  0.96134700  0.74183200  0.50355200  1
  O  O37  1  0.53865300  0.74183200  0.00355200  1
  O  O38  1  0.03865300  0.25816800  0.49644800  1
  O  O39  1  0.46134700  0.25816800  0.99644800  1
  O  O40  1  0.46012500  0.80906400  0.51464700  1
  O  O41  1  0.03987500  0.80906400  0.01464700  1
  O  O42  1  0.53987500  0.19093600  0.48535300  1
  O  O43  1  0.96012500  0.19093600  0.98535300  1
  O  O44  1  0.52984100  0.81954700  0.40481700  1
  O  O45  1  0.97015900  0.81954700  0.90481700  1
  O  O46  1  0.47015900  0.18045300  0.59518300  1
  O  O47  1  0.02984100  0.18045300  0.09518300  1
  O  O48  1  0.00277300  0.81595200  0.39179800  1
  O  O49  1  0.49722700  0.81595200  0.89179800  1
  O  O50  1  0.99722700  0.18404800  0.60820200  1
  O  O51  1  0.50277300  0.18404800  0.10820200  1
  O  O52  1  0.28041300  0.57332600  0.46362500  1
  O  O53  1  0.21958700  0.57332600  0.96362500  1
  O  O54  1  0.71958700  0.42667400  0.53637500  1
  O  O55  1  0.78041300  0.42667400  0.03637500  1
  O  O56  1  0.83131300  0.00740000  0.21010600  1
  O  O57  1  0.66868700  0.00740000  0.71010600  1
  O  O58  1  0.16868700  0.99260000  0.78989400  1
  O  O59  1  0.33131300  0.99260000  0.28989400  1
  O  O60  1  0.65171400  0.74364700  0.27956600  1
  O  O61  1  0.84828600  0.74364700  0.77956600  1
  O  O62  1  0.34828600  0.25635300  0.72043400  1
  O  O63  1  0.15171400  0.25635300  0.22043400  1
  O  O64  1  0.12065800  0.75919900  0.24918700  1
  O  O65  1  0.37934200  0.75919900  0.74918700  1
  O  O66  1  0.87934200  0.24080100  0.75081300  1
  O  O67  1  0.62065800  0.24080100  0.25081300  1
  O  O68  1  0.04060800  0.83075300  0.14233000  1
  O  O69  1  0.45939200  0.83075300  0.64233000  1
  O  O70  1  0.95939200  0.16924700  0.85767000  1
  O  O71  1  0.54060800  0.16924700  0.35767000  1
  O  O72  1  0.52745500  0.80961700  0.16439200  1
  O  O73  1  0.97254500  0.80961700  0.66439200  1
  O  O74  1  0.47254500  0.19038300  0.83560800  1
  O  O75  1  0.02745500  0.19038300  0.33560800  1
  O  O76  1  0.82146600  0.56386600  0.21228500  1
  O  O77  1  0.67853400  0.56386600  0.71228500  1
  O  O78  1  0.17853400  0.43613400  0.78771500  1
  O  O79  1  0.32146600  0.43613400  0.28771500  1
  O  O80  1  0.01426700  0.49993200  0.37393900  1
  O  O81  1  0.48573300  0.49993200  0.87393900  1
  O  O82  1  0.98573300  0.50006800  0.62606100  1
  O  O83  1  0.51426700  0.50006800  0.12606100  1
  O  O84  1  0.53984800  0.49043500  0.37983300  1
  O  O85  1  0.96015200  0.49043500  0.87983300  1
  O  O86  1  0.46015200  0.50956500  0.62016700  1
  O  O87  1  0.03984800  0.50956500  0.12016700  1
