# generated using pymatgen
data_Te3WCl4O
_symmetry_space_group_name_H-M   'P 1'
_cell_length_a   9.44329244
_cell_length_b   16.96684241
_cell_length_c   28.05644207
_cell_angle_alpha   90.00000000
_cell_angle_beta   100.58268275
_cell_angle_gamma   90.00000000
_symmetry_Int_Tables_number   1
_chemical_formula_structural   Te3WCl4O
_chemical_formula_sum   'Te48 W16 Cl64 O16'
_cell_volume   4418.82252664
_cell_formula_units_Z   16
loop_
 _symmetry_equiv_pos_site_id
 _symmetry_equiv_pos_as_xyz
  1  'x, y, z'
loop_
 _atom_site_type_symbol
 _atom_site_label
 _atom_site_symmetry_multiplicity
 _atom_site_fract_x
 _atom_site_fract_y
 _atom_site_fract_z
 _atom_site_occupancy
  Te  Te0  1  0.61616807  0.09807875  0.81979395  1
  Te  Te1  1  0.38383193  0.59807875  0.68020605  1
  Te  Te2  1  0.38383193  0.90192125  0.18020605  1
  Te  Te3  1  0.61616807  0.40192125  0.31979395  1
  Te  Te4  1  0.82941272  0.00014101  0.80033963  1
  Te  Te5  1  0.17058728  0.50014101  0.69966037  1
  Te  Te6  1  0.17058728  0.99985899  0.19966037  1
  Te  Te7  1  0.82941272  0.49985899  0.30033963  1
  Te  Te8  1  0.00090938  0.99631004  0.89105168  1
  Te  Te9  1  0.99909062  0.49631004  0.60894832  1
  Te  Te10  1  0.99909062  0.00368996  0.10894832  1
  Te  Te11  1  0.00090938  0.50368996  0.39105168  1
  Te  Te12  1  0.84274622  0.09314532  0.93994160  1
  Te  Te13  1  0.15725378  0.59314532  0.56005840  1
  Te  Te14  1  0.15725378  0.90685468  0.06005840  1
  Te  Te15  1  0.84274622  0.40685468  0.43994160  1
  Te  Te16  1  0.72156889  0.94627655  0.93927044  1
  Te  Te17  1  0.27843111  0.44627655  0.56072956  1
  Te  Te18  1  0.27843111  0.05372345  0.06072956  1
  Te  Te19  1  0.72156889  0.55372345  0.43927044  1
  Te  Te20  1  0.54842899  0.95035961  0.84847556  1
  Te  Te21  1  0.45157101  0.45035961  0.65152444  1
  Te  Te22  1  0.45157101  0.04964039  0.15152444  1
  Te  Te23  1  0.54842899  0.54964039  0.34847556  1
  Te  Te24  1  0.25360708  0.97806740  0.53876640  1
  Te  Te25  1  0.74639292  0.47806740  0.96123360  1
  Te  Te26  1  0.74639292  0.02193260  0.46123360  1
  Te  Te27  1  0.25360708  0.52193260  0.03876640  1
  Te  Te28  1  0.15293485  0.11088161  0.57733411  1
  Te  Te29  1  0.84706515  0.61088161  0.92266589  1
  Te  Te30  1  0.84706515  0.88911839  0.42266589  1
  Te  Te31  1  0.15293485  0.38911839  0.07733411  1
  Te  Te32  1  0.32669150  0.10747242  0.66786835  1
  Te  Te33  1  0.67330850  0.60747242  0.83213165  1
  Te  Te34  1  0.67330850  0.89252758  0.33213165  1
  Te  Te35  1  0.32669150  0.39252758  0.16786835  1
  Te  Te36  1  0.48907040  0.97735601  0.65564309  1
  Te  Te37  1  0.51092960  0.47735601  0.84435691  1
  Te  Te38  1  0.51092960  0.02264399  0.34435691  1
  Te  Te39  1  0.48907040  0.52264399  0.15564309  1
  Te  Te40  1  0.24135007  0.92594275  0.68361415  1
  Te  Te41  1  0.75864993  0.42594275  0.81638585  1
  Te  Te42  1  0.75864993  0.07405725  0.31638585  1
  Te  Te43  1  0.24135007  0.57405725  0.18361415  1
  Te  Te44  1  0.06321098  0.92214764  0.59357143  1
  Te  Te45  1  0.93678902  0.42214764  0.90642857  1
  Te  Te46  1  0.93678902  0.07785236  0.40642857  1
  Te  Te47  1  0.06321098  0.57785236  0.09357143  1
  W  W48  1  0.35125543  0.75060461  0.43980697  1
  W  W49  1  0.64874457  0.25060461  0.06019303  1
  W  W50  1  0.64874457  0.24939539  0.56019303  1
  W  W51  1  0.35125543  0.74939539  0.93980697  1
  W  W52  1  0.61696736  0.75229859  0.56151239  1
  W  W53  1  0.38303264  0.25229859  0.93848761  1
  W  W54  1  0.38303264  0.24770141  0.43848761  1
  W  W55  1  0.61696736  0.74770141  0.06151239  1
  W  W56  1  0.84222803  0.75080207  0.69063169  1
  W  W57  1  0.15777197  0.25080207  0.80936831  1
  W  W58  1  0.15777197  0.24919793  0.30936831  1
  W  W59  1  0.84222803  0.74919793  0.19063169  1
  W  W60  1  0.10139909  0.74789040  0.81415636  1
  W  W61  1  0.89860091  0.24789040  0.68584364  1
  W  W62  1  0.89860091  0.25210960  0.18584364  1
  W  W63  1  0.10139909  0.75210960  0.31415636  1
  Cl  Cl64  1  0.31626373  0.61175614  0.45132633  1
  Cl  Cl65  1  0.68373627  0.11175614  0.04867367  1
  Cl  Cl66  1  0.68373627  0.38824386  0.54867367  1
  Cl  Cl67  1  0.31626373  0.88824386  0.95132633  1
  Cl  Cl68  1  0.16056561  0.77821750  0.48264354  1
  Cl  Cl69  1  0.83943439  0.27821750  0.01735646  1
  Cl  Cl70  1  0.83943439  0.22178250  0.51735646  1
  Cl  Cl71  1  0.16056561  0.72178250  0.98264354  1
  Cl  Cl72  1  0.38873493  0.88980351  0.43153572  1
  Cl  Cl73  1  0.61126507  0.38980351  0.06846428  1
  Cl  Cl74  1  0.61126507  0.11019649  0.56846428  1
  Cl  Cl75  1  0.38873493  0.61019649  0.93153572  1
  Cl  Cl76  1  0.55051004  0.71890672  0.39824712  1
  Cl  Cl77  1  0.44948996  0.21890672  0.10175288  1
  Cl  Cl78  1  0.44948996  0.28109328  0.60175288  1
  Cl  Cl79  1  0.55051004  0.78109328  0.89824712  1
  Cl  Cl80  1  0.58647340  0.61277342  0.56861767  1
  Cl  Cl81  1  0.41352660  0.11277342  0.93138233  1
  Cl  Cl82  1  0.41352660  0.38722658  0.43138233  1
  Cl  Cl83  1  0.58647340  0.88722658  0.06861767  1
  Cl  Cl84  1  0.41040470  0.77895427  0.59833481  1
  Cl  Cl85  1  0.58959530  0.27895427  0.90166519  1
  Cl  Cl86  1  0.58959530  0.22104573  0.40166519  1
  Cl  Cl87  1  0.41040470  0.72104573  0.09833481  1
  Cl  Cl88  1  0.66020404  0.89207870  0.55559147  1
  Cl  Cl89  1  0.33979596  0.39207870  0.94440853  1
  Cl  Cl90  1  0.33979596  0.10792130  0.44440853  1
  Cl  Cl91  1  0.66020404  0.60792130  0.05559147  1
  Cl  Cl92  1  0.82819629  0.72818611  0.52729358  1
  Cl  Cl93  1  0.17180371  0.22818611  0.97270642  1
  Cl  Cl94  1  0.17180371  0.27181389  0.47270642  1
  Cl  Cl95  1  0.82819629  0.77181389  0.02729358  1
  Cl  Cl96  1  0.79153523  0.61458265  0.70030622  1
  Cl  Cl97  1  0.20846477  0.11458265  0.79969378  1
  Cl  Cl98  1  0.20846477  0.38541735  0.29969378  1
  Cl  Cl99  1  0.79153523  0.88541735  0.20030622  1
  Cl  Cl100  1  0.63982572  0.78317196  0.72745088  1
  Cl  Cl101  1  0.36017428  0.28317196  0.77254912  1
  Cl  Cl102  1  0.36017428  0.21682804  0.27254912  1
  Cl  Cl103  1  0.63982572  0.71682804  0.22745088  1
  Cl  Cl104  1  0.89114220  0.89216935  0.68473624  1
  Cl  Cl105  1  0.10885780  0.39216935  0.81526376  1
  Cl  Cl106  1  0.10885780  0.10783065  0.31526376  1
  Cl  Cl107  1  0.89114220  0.60783065  0.18473624  1
  Cl  Cl108  1  0.05212682  0.72181475  0.65609977  1
  Cl  Cl109  1  0.94787318  0.22181475  0.84390023  1
  Cl  Cl110  1  0.94787318  0.27818525  0.34390023  1
  Cl  Cl111  1  0.05212682  0.77818525  0.15609977  1
  Cl  Cl112  1  0.07950152  0.60904045  0.81969707  1
  Cl  Cl113  1  0.92049848  0.10904045  0.68030293  1
  Cl  Cl114  1  0.92049848  0.39095955  0.18030293  1
  Cl  Cl115  1  0.07950152  0.89095955  0.31969707  1
  Cl  Cl116  1  0.89652909  0.76647145  0.85502321  1
  Cl  Cl117  1  0.10347091  0.26647145  0.64497679  1
  Cl  Cl118  1  0.10347091  0.23352855  0.14497679  1
  Cl  Cl119  1  0.89652909  0.73352855  0.35502321  1
  Cl  Cl120  1  0.13415481  0.89159560  0.81016729  1
  Cl  Cl121  1  0.86584519  0.39159560  0.68983271  1
  Cl  Cl122  1  0.86584519  0.10840440  0.18983271  1
  Cl  Cl123  1  0.13415481  0.60840440  0.31016729  1
  Cl  Cl124  1  0.30673538  0.73177355  0.77662981  1
  Cl  Cl125  1  0.69326462  0.23177355  0.72337019  1
  Cl  Cl126  1  0.69326462  0.26822645  0.22337019  1
  Cl  Cl127  1  0.30673538  0.76822645  0.27662981  1
  O  O128  1  0.22485083  0.74873388  0.37810044  1
  O  O129  1  0.77514917  0.24873388  0.12189956  1
  O  O130  1  0.77514917  0.25126612  0.62189956  1
  O  O131  1  0.22485083  0.75126612  0.87810044  1
  O  O132  1  0.49211143  0.75220763  0.49934129  1
  O  O133  1  0.50788857  0.25220763  0.00065871  1
  O  O134  1  0.50788857  0.24779237  0.50065871  1
  O  O135  1  0.49211143  0.74779237  0.99934129  1
  O  O136  1  0.73144532  0.75350879  0.62702884  1
  O  O137  1  0.26855468  0.25350879  0.87297116  1
  O  O138  1  0.26855468  0.24649121  0.37297116  1
  O  O139  1  0.73144532  0.74649121  0.12702884  1
  O  O140  1  0.97122789  0.75210171  0.75410109  1
  O  O141  1  0.02877211  0.25210171  0.74589891  1
  O  O142  1  0.02877211  0.24789829  0.24589891  1
  O  O143  1  0.97122789  0.74789829  0.25410109  1
