# generated using pymatgen
data_Sb2H24C6(NCl3)3
_symmetry_space_group_name_H-M   'P 1'
_cell_length_a   9.35415000
_cell_length_b   9.71094400
_cell_length_c   14.69555793
_cell_angle_alpha   84.05082501
_cell_angle_beta   90.00000000
_cell_angle_gamma   90.00000000
_symmetry_Int_Tables_number   1
_chemical_formula_structural   Sb2H24C6(NCl3)3
_chemical_formula_sum   'Sb4 H48 C12 N6 Cl18'
_cell_volume   1327.72008783
_cell_formula_units_Z   2
loop_
 _symmetry_equiv_pos_site_id
 _symmetry_equiv_pos_as_xyz
  1  'x, y, z'
loop_
 _atom_site_type_symbol
 _atom_site_label
 _atom_site_symmetry_multiplicity
 _atom_site_fract_x
 _atom_site_fract_y
 _atom_site_fract_z
 _atom_site_occupancy
  Sb  Sb0  1  0.19657000  0.99878900  0.50286600  1
  Sb  Sb1  1  0.80343000  0.99878900  0.00286600  1
  Sb  Sb2  1  0.70008900  0.32591900  0.33920400  1
  Sb  Sb3  1  0.29991100  0.32591900  0.83920400  1
  H  H4  1  0.26407200  0.72193200  0.77538900  1
  H  H5  1  0.73592800  0.72193200  0.27538900  1
  H  H6  1  0.28588400  0.89084200  0.73980000  1
  H  H7  1  0.71411600  0.89084200  0.23980000  1
  H  H8  1  0.11280000  0.64738400  0.43849000  1
  H  H9  1  0.88720000  0.64738400  0.93849000  1
  H  H10  1  0.03357800  0.49933200  0.42247600  1
  H  H11  1  0.96642200  0.49933200  0.92247600  1
  H  H12  1  0.14269700  0.03922800  0.20355900  1
  H  H13  1  0.85730300  0.03922800  0.70355900  1
  H  H14  1  0.11925200  0.13002800  0.09998000  1
  H  H15  1  0.88074800  0.13002800  0.59998000  1
  H  H16  1  0.51171600  0.77648400  0.73532500  1
  H  H17  1  0.48828400  0.77648400  0.23532500  1
  H  H18  1  0.49018300  0.71307900  0.85377400  1
  H  H19  1  0.50981700  0.71307900  0.35377400  1
  H  H20  1  0.51103200  0.89461900  0.82249400  1
  H  H21  1  0.48896800  0.89461900  0.32249400  1
  H  H22  1  0.12613600  0.86129800  0.86682700  1
  H  H23  1  0.87386400  0.86129800  0.36682700  1
  H  H24  1  0.28732000  0.94982500  0.89388300  1
  H  H25  1  0.71268000  0.94982500  0.39388300  1
  H  H26  1  0.26498300  0.76998000  0.93304700  1
  H  H27  1  0.73501700  0.76998000  0.43304700  1
  H  H28  1  0.21850700  0.55150000  0.58106900  1
  H  H29  1  0.78149300  0.55150000  0.08106900  1
  H  H30  1  0.13540200  0.38853400  0.56497100  1
  H  H31  1  0.86459800  0.38853400  0.06497100  1
  H  H32  1  0.02815300  0.53700700  0.58359700  1
  H  H33  1  0.97184700  0.53700700  0.08359700  1
  H  H34  1  0.26295200  0.38341800  0.41838500  1
  H  H35  1  0.73704800  0.38341800  0.91838500  1
  H  H36  1  0.24328700  0.52767300  0.33216300  1
  H  H37  1  0.75671300  0.52767300  0.83216300  1
  H  H38  1  0.34560800  0.54526300  0.43398600  1
  H  H39  1  0.65439200  0.54526300  0.93398600  1
  H  H40  1  0.05514900  0.26715500  0.22052400  1
  H  H41  1  0.94485100  0.26715500  0.72052400  1
  H  H42  1  0.20794000  0.33645900  0.15665300  1
  H  H43  1  0.79206000  0.33645900  0.65665300  1
  H  H44  1  0.23279200  0.24152100  0.26662700  1
  H  H45  1  0.76720800  0.24152100  0.76662700  1
  H  H46  1  0.36743100  0.17422100  0.08254500  1
  H  H47  1  0.63256900  0.17422100  0.58254500  1
  H  H48  1  0.39910400  0.09117200  0.19524000  1
  H  H49  1  0.60089600  0.09117200  0.69524000  1
  H  H50  1  0.33599000  0.99204900  0.10604600  1
  H  H51  1  0.66401000  0.99204900  0.60604600  1
  C  C52  1  0.46760300  0.79832900  0.80123500  1
  C  C53  1  0.53239700  0.79832900  0.30123500  1
  C  C54  1  0.24154700  0.85140800  0.87791900  1
  C  C55  1  0.75845300  0.85140800  0.37791900  1
  C  C56  1  0.12610800  0.50137000  0.55298300  1
  C  C57  1  0.87389200  0.50137000  0.05298300  1
  C  C58  1  0.25297700  0.49611400  0.40550600  1
  C  C59  1  0.74702300  0.49611400  0.90550600  1
  C  C60  1  0.16777300  0.25114300  0.20439200  1
  C  C61  1  0.83222700  0.25114300  0.70439200  1
  C  C62  1  0.33199000  0.09196300  0.13422700  1
  C  C63  1  0.66801000  0.09196300  0.63422700  1
  N  N64  1  0.30970000  0.81340600  0.79234000  1
  N  N65  1  0.69030000  0.81340600  0.29234000  1
  N  N66  1  0.12238900  0.54067500  0.45232800  1
  N  N67  1  0.87761100  0.54067500  0.95232800  1
  N  N68  1  0.18158000  0.12104100  0.15976100  1
  N  N69  1  0.81842000  0.12104100  0.65976100  1
  Cl  Cl70  1  0.00800400  0.84911800  0.57137300  1
  Cl  Cl71  1  0.99199600  0.84911800  0.07137300  1
  Cl  Cl72  1  0.15844000  0.87841400  0.35000100  1
  Cl  Cl73  1  0.84156000  0.87841400  0.85000100  1
  Cl  Cl74  1  0.38069600  0.81851300  0.55090700  1
  Cl  Cl75  1  0.61930400  0.81851300  0.05090700  1
  Cl  Cl76  1  0.49065500  0.15938600  0.39036700  1
  Cl  Cl77  1  0.50934500  0.15938600  0.89036700  1
  Cl  Cl78  1  0.22764500  0.09425900  0.66600700  1
  Cl  Cl79  1  0.77235500  0.09425900  0.16600700  1
  Cl  Cl80  1  0.96501300  0.19655400  0.46652800  1
  Cl  Cl81  1  0.03498700  0.19655400  0.96652800  1
  Cl  Cl82  1  0.89050600  0.52532500  0.29061700  1
  Cl  Cl83  1  0.10949400  0.52532500  0.79061700  1
  Cl  Cl84  1  0.64705900  0.45502000  0.46795900  1
  Cl  Cl85  1  0.35294100  0.45502000  0.96795900  1
  Cl  Cl86  1  0.53715800  0.45268100  0.23221900  1
  Cl  Cl87  1  0.46284200  0.45268100  0.73221900  1
