# generated using pymatgen
data_Na2MnP2O7
_symmetry_space_group_name_H-M   'P 1'
_cell_length_a   6.68860151
_cell_length_b   9.68660453
_cell_length_c   11.20795469
_cell_angle_alpha   64.86282524
_cell_angle_beta   86.00498753
_cell_angle_gamma   73.20268479
_symmetry_Int_Tables_number   1
_chemical_formula_structural   Na2MnP2O7
_chemical_formula_sum   'Na8 Mn4 P8 O28'
_cell_volume   628.15862513
_cell_formula_units_Z   4
loop_
 _symmetry_equiv_pos_site_id
 _symmetry_equiv_pos_as_xyz
  1  'x, y, z'
loop_
 _atom_site_type_symbol
 _atom_site_label
 _atom_site_symmetry_multiplicity
 _atom_site_fract_x
 _atom_site_fract_y
 _atom_site_fract_z
 _atom_site_occupancy
  Na  Na0  1  0.60162300  0.86076900  0.65718000  1
  Na  Na1  1  0.41980100  0.13956800  0.34503800  1
  Na  Na2  1  0.18200400  0.85234100  0.10324700  1
  Na  Na3  1  0.75963200  0.14653400  0.86339100  1
  Na  Na4  1  0.96927700  0.17650400  0.52570200  1
  Na  Na5  1  0.03319300  0.81911500  0.47565500  1
  Na  Na6  1  0.41051800  0.51621800  0.02395400  1
  Na  Na7  1  0.86444400  0.48301300  0.95221900  1
  Mn  Mn8  1  0.65510900  0.48950700  0.27300900  1
  Mn  Mn9  1  0.72886300  0.88795700  0.22109000  1
  Mn  Mn10  1  0.34963600  0.50405200  0.73440400  1
  Mn  Mn11  1  0.27196600  0.10567900  0.78704200  1
  P  P12  1  0.94242800  0.17036900  0.21659800  1
  P  P13  1  0.57322700  0.70245500  0.46210400  1
  P  P14  1  0.30365600  0.18830300  0.04351300  1
  P  P15  1  0.86840500  0.45602000  0.68893700  1
  P  P16  1  0.06970400  0.82223400  0.79060500  1
  P  P17  1  0.42004700  0.29097500  0.54547200  1
  P  P18  1  0.70969700  0.80339200  0.96031200  1
  P  P19  1  0.13144100  0.53869500  0.31656700  1
  O  O20  1  0.09042900  0.26495500  0.10206900  1
  O  O21  1  0.36232100  0.33520200  0.94360300  1
  O  O22  1  0.24854300  0.09172100  0.97958400  1
  O  O23  1  0.45867700  0.08630100  0.16296900  1
  O  O24  1  0.73913000  0.30719200  0.19149000  1
  O  O25  1  0.05859200  0.10033500  0.35034700  1
  O  O26  1  0.91842700  0.04306500  0.17683100  1
  O  O27  1  0.76148300  0.54177800  0.54000100  1
  O  O28  1  0.55775500  0.70308500  0.32482300  1
  O  O29  1  0.64610500  0.84666300  0.44737900  1
  O  O30  1  0.38123900  0.68821900  0.54214000  1
  O  O31  1  0.69087400  0.46797700  0.78366700  1
  O  O32  1  0.96908100  0.28349900  0.70937400  1
  O  O33  1  0.01938900  0.54471900  0.69567900  1
  O  O34  1  0.92658400  0.72201900  0.90536600  1
  O  O35  1  0.63649400  0.65806800  0.04960100  1
  O  O36  1  0.56627800  0.91848100  0.83721200  1
  O  O37  1  0.76905400  0.89085900  0.03173400  1
  O  O38  1  0.27480400  0.69208800  0.80648400  1
  O  O39  1  0.94882100  0.89847700  0.65758100  1
  O  O40  1  0.09434800  0.94293100  0.83898800  1
  O  O41  1  0.23572000  0.45233100  0.46766200  1
  O  O42  1  0.34096400  0.14717900  0.56708800  1
  O  O43  1  0.61108900  0.29648400  0.46254500  1
  O  O44  1  0.44682100  0.29194700  0.68141700  1
  O  O45  1  0.02986100  0.71074900  0.29674000  1
  O  O46  1  0.31437600  0.52733500  0.22546800  1
  O  O47  1  0.97997000  0.44983600  0.31222200  1
