# generated using pymatgen
data_NpCo(N3O4)2
_symmetry_space_group_name_H-M   'P 1'
_cell_length_a   9.26775541
_cell_length_b   8.30650300
_cell_length_c   7.62147714
_cell_angle_alpha   90.00000000
_cell_angle_beta   75.55997221
_cell_angle_gamma   90.00000000
_symmetry_Int_Tables_number   1
_chemical_formula_structural   NpCo(N3O4)2
_chemical_formula_sum   'Np2 Co2 N12 O16'
_cell_volume   568.18640976
_cell_formula_units_Z   2
loop_
 _symmetry_equiv_pos_site_id
 _symmetry_equiv_pos_as_xyz
  1  'x, y, z'
loop_
 _atom_site_type_symbol
 _atom_site_label
 _atom_site_symmetry_multiplicity
 _atom_site_fract_x
 _atom_site_fract_y
 _atom_site_fract_z
 _atom_site_occupancy
  Np  Np0  1  0.50000000  0.50000000  0.50000000  1
  Np  Np1  1  0.00000000  0.00000000  0.00000000  1
  Co  Co2  1  0.00000000  0.00000000  0.50000000  1
  Co  Co3  1  0.50000000  0.50000000  0.00000000  1
  N  N4  1  0.04413300  0.76934600  0.49554700  1
  N  N5  1  0.45586700  0.26934600  0.00445300  1
  N  N6  1  0.95586700  0.23065400  0.50445300  1
  N  N7  1  0.54413300  0.73065400  0.99554700  1
  N  N8  1  0.26529500  0.00483400  0.47258000  1
  N  N9  1  0.23470500  0.50483400  0.02742000  1
  N  N10  1  0.73470500  0.99516600  0.52742000  1
  N  N11  1  0.76529500  0.49516600  0.97258000  1
  N  N12  1  0.34996600  0.90922900  0.48496500  1
  N  N13  1  0.15003400  0.40922900  0.01503500  1
  N  N14  1  0.65003400  0.09077100  0.51503500  1
  N  N15  1  0.84996600  0.59077100  0.98496500  1
  O  O16  1  0.30486800  0.45638300  0.60781100  1
  O  O17  1  0.19513200  0.95638300  0.89218900  1
  O  O18  1  0.69513200  0.54361700  0.39218900  1
  O  O19  1  0.80486800  0.04361700  0.10781100  1
  O  O20  1  0.44335600  0.81323000  0.49813800  1
  O  O21  1  0.05664400  0.31323000  0.00186200  1
  O  O22  1  0.55664400  0.18677000  0.50186200  1
  O  O23  1  0.94335600  0.68677000  0.99813800  1
  O  O24  1  0.54339400  0.50549800  0.73623200  1
  O  O25  1  0.95660600  0.00549800  0.76376800  1
  O  O26  1  0.45660600  0.49450200  0.26376800  1
  O  O27  1  0.04339400  0.99450200  0.23623200  1
  O  O28  1  0.51615700  0.16998500  0.89978200  1
  O  O29  1  0.98384300  0.66998500  0.60021800  1
  O  O30  1  0.48384300  0.83001500  0.10021800  1
  O  O31  1  0.01615700  0.33001500  0.39978200  1
