# generated using pymatgen
data_SrAl(OF2)2
_symmetry_space_group_name_H-M   'P 1'
_cell_length_a   10.83169800
_cell_length_b   5.27818800
_cell_length_c   8.95305247
_cell_angle_alpha   75.00315027
_cell_angle_beta   90.00000000
_cell_angle_gamma   90.00000000
_symmetry_Int_Tables_number   1
_chemical_formula_structural   SrAl(OF2)2
_chemical_formula_sum   'Sr4 Al4 O8 F16'
_cell_volume   494.42759695
_cell_formula_units_Z   4
loop_
 _symmetry_equiv_pos_site_id
 _symmetry_equiv_pos_as_xyz
  1  'x, y, z'
loop_
 _atom_site_type_symbol
 _atom_site_label
 _atom_site_symmetry_multiplicity
 _atom_site_fract_x
 _atom_site_fract_y
 _atom_site_fract_z
 _atom_site_occupancy
  Sr  Sr0  1  0.30740300  0.87274600  0.54639400  1
  Sr  Sr1  1  0.80740300  0.12725400  0.95360600  1
  Sr  Sr2  1  0.69259700  0.12725400  0.45360600  1
  Sr  Sr3  1  0.19259700  0.87274600  0.04639400  1
  Al  Al4  1  0.02746700  0.20109400  0.29435000  1
  Al  Al5  1  0.52746700  0.79890600  0.20565000  1
  Al  Al6  1  0.97253300  0.79890600  0.70565000  1
  Al  Al7  1  0.47253300  0.20109400  0.79435000  1
  O  O8  1  0.97208600  0.89003500  0.47923700  1
  O  O9  1  0.47208600  0.10996500  0.02076300  1
  O  O10  1  0.02791400  0.10996500  0.52076300  1
  O  O11  1  0.52791400  0.89003500  0.97923700  1
  O  O12  1  0.28701000  0.39818000  0.48541100  1
  O  O13  1  0.78701000  0.60182000  0.01458900  1
  O  O14  1  0.71299000  0.60182000  0.51458900  1
  O  O15  1  0.21299000  0.39818000  0.98541100  1
  F  F16  1  0.09716700  0.50530200  0.23252900  1
  F  F17  1  0.59716700  0.49469800  0.26747100  1
  F  F18  1  0.90283300  0.49469800  0.76747100  1
  F  F19  1  0.40283300  0.50530200  0.73252900  1
  F  F20  1  0.17324200  0.02319700  0.30631100  1
  F  F21  1  0.67324200  0.97680300  0.19368900  1
  F  F22  1  0.82675800  0.97680300  0.69368900  1
  F  F23  1  0.32675800  0.02319700  0.80631100  1
  F  F24  1  0.87573700  0.31848000  0.30571100  1
  F  F25  1  0.37573700  0.68152000  0.19428900  1
  F  F26  1  0.12426300  0.68152000  0.69428900  1
  F  F27  1  0.62426300  0.31848000  0.80571100  1
  F  F28  1  0.99033400  0.09109300  0.12964500  1
  F  F29  1  0.49033400  0.90890700  0.37035500  1
  F  F30  1  0.00966600  0.90890700  0.87035500  1
  F  F31  1  0.50966600  0.09109300  0.62964500  1
