# generated using pymatgen
data_HeSiO2
_symmetry_space_group_name_H-M   'P 1'
_cell_length_a   5.18933200
_cell_length_b   8.98864900
_cell_length_c   10.47564770
_cell_angle_alpha   55.40489709
_cell_angle_beta   90.00000000
_cell_angle_gamma   90.00000000
_symmetry_Int_Tables_number   1
_chemical_formula_structural   HeSiO2
_chemical_formula_sum   'He8 Si8 O16'
_cell_volume   402.23898321
_cell_formula_units_Z   8
loop_
 _symmetry_equiv_pos_site_id
 _symmetry_equiv_pos_as_xyz
  1  'x, y, z'
loop_
 _atom_site_type_symbol
 _atom_site_label
 _atom_site_symmetry_multiplicity
 _atom_site_fract_x
 _atom_site_fract_y
 _atom_site_fract_z
 _atom_site_occupancy
  He  He0  1  0.80729100  0.62255500  0.45734700  1
  He  He1  1  0.30729100  0.37744500  0.04265300  1
  He  He2  1  0.19270900  0.37744500  0.54265300  1
  He  He3  1  0.69270900  0.62255500  0.95734700  1
  He  He4  1  0.19648800  0.13086700  0.45580700  1
  He  He5  1  0.69648800  0.86913300  0.04419300  1
  He  He6  1  0.80351200  0.86913300  0.54419300  1
  He  He7  1  0.30351200  0.13086700  0.95580700  1
  Si  Si8  1  0.19606300  0.62550500  0.18343800  1
  Si  Si9  1  0.69606300  0.37449500  0.31656200  1
  Si  Si10  1  0.80393700  0.37449500  0.81656200  1
  Si  Si11  1  0.30393700  0.62550500  0.68343800  1
  Si  Si12  1  0.30038000  0.87523100  0.30898500  1
  Si  Si13  1  0.80038000  0.12476900  0.19101500  1
  Si  Si14  1  0.69962000  0.12476900  0.69101500  1
  Si  Si15  1  0.19962000  0.87523100  0.80898500  1
  O  O16  1  0.24461000  0.75943700  0.23761500  1
  O  O17  1  0.74461000  0.24056300  0.26238500  1
  O  O18  1  0.75539000  0.24056300  0.76238500  1
  O  O19  1  0.25539000  0.75943700  0.73761500  1
  O  O20  1  0.18841800  0.74146800  0.99606200  1
  O  O21  1  0.68841800  0.25853200  0.50393800  1
  O  O22  1  0.81158200  0.25853200  0.00393800  1
  O  O23  1  0.31158200  0.74146800  0.49606200  1
  O  O24  1  0.42204200  0.47516500  0.24781600  1
  O  O25  1  0.92204200  0.52483500  0.25218400  1
  O  O26  1  0.57795800  0.52483500  0.75218400  1
  O  O27  1  0.07795800  0.47516500  0.74781600  1
  O  O28  1  0.07612900  0.02473900  0.25630700  1
  O  O29  1  0.57612900  0.97526100  0.24369300  1
  O  O30  1  0.92387100  0.97526100  0.74369300  1
  O  O31  1  0.42387100  0.02473900  0.75630700  1
