# generated using pymatgen
data_BaAs2O5
_symmetry_space_group_name_H-M   'P 1'
_cell_length_a   8.34325491
_cell_length_b   8.92122997
_cell_length_c   8.66737440
_cell_angle_alpha   92.20668817
_cell_angle_beta   89.25701499
_cell_angle_gamma   76.31405086
_symmetry_Int_Tables_number   1
_chemical_formula_structural   BaAs2O5
_chemical_formula_sum   'Ba4 As8 O20'
_cell_volume   626.18696821
_cell_formula_units_Z   4
loop_
 _symmetry_equiv_pos_site_id
 _symmetry_equiv_pos_as_xyz
  1  'x, y, z'
loop_
 _atom_site_type_symbol
 _atom_site_label
 _atom_site_symmetry_multiplicity
 _atom_site_fract_x
 _atom_site_fract_y
 _atom_site_fract_z
 _atom_site_occupancy
  Ba  Ba0  1  0.26098100  0.96034000  0.85970000  1
  Ba  Ba1  1  0.73901900  0.03966000  0.14030000  1
  Ba  Ba2  1  0.23565600  0.10781600  0.41600800  1
  Ba  Ba3  1  0.76434400  0.89218400  0.58399200  1
  As  As4  1  0.49723700  0.26079800  0.75754400  1
  As  As5  1  0.50276300  0.73920200  0.24245500  1
  As  As6  1  0.36760800  0.35934600  0.11865500  1
  As  As7  1  0.63239200  0.64065400  0.88134500  1
  As  As8  1  0.95620800  0.35447700  0.12986800  1
  As  As9  1  0.04379200  0.64552300  0.87013200  1
  As  As10  1  0.88165800  0.26452500  0.76054200  1
  As  As11  1  0.11834200  0.73547500  0.23945800  1
  O  O12  1  0.44559400  0.21180000  0.95828500  1
  O  O13  1  0.55440600  0.78820000  0.04171500  1
  O  O14  1  0.18081200  0.28534100  0.14972100  1
  O  O15  1  0.81918800  0.71465900  0.85027900  1
  O  O16  1  0.94917200  0.21703200  0.96332400  1
  O  O17  1  0.05082800  0.78296800  0.03667600  1
  O  O18  1  0.71832500  0.15404700  0.77912900  1
  O  O19  1  0.28167500  0.84595300  0.22087100  1
  O  O20  1  0.43469100  0.11037500  0.66310600  1
  O  O21  1  0.56530900  0.88962500  0.33689400  1
  O  O22  1  0.47099900  0.25180100  0.26448100  1
  O  O23  1  0.52900100  0.74819900  0.73551900  1
  O  O24  1  0.91578200  0.23350400  0.27002000  1
  O  O25  1  0.08421900  0.76649600  0.72998000  1
  O  O26  1  0.03080300  0.12245500  0.66643300  1
  O  O27  1  0.96919700  0.87754500  0.33356700  1
  O  O28  1  0.30077700  0.78392400  0.55275500  1
  O  O29  1  0.69922300  0.21607600  0.44724500  1
  O  O30  1  0.07591700  0.47794700  0.50281100  1
  O  O31  1  0.92408300  0.52205300  0.49718900  1
