# generated using pymatgen
data_Ti2C2O9
_symmetry_space_group_name_H-M   'P 1'
_cell_length_a   9.57953315
_cell_length_b   9.57953315
_cell_length_c   9.79925400
_cell_angle_alpha   90.00000000
_cell_angle_beta   90.00000000
_cell_angle_gamma   109.56210243
_symmetry_Int_Tables_number   1
_chemical_formula_structural   Ti2C2O9
_chemical_formula_sum   'Ti8 C8 O36'
_cell_volume   847.34695838
_cell_formula_units_Z   4
loop_
 _symmetry_equiv_pos_site_id
 _symmetry_equiv_pos_as_xyz
  1  'x, y, z'
loop_
 _atom_site_type_symbol
 _atom_site_label
 _atom_site_symmetry_multiplicity
 _atom_site_fract_x
 _atom_site_fract_y
 _atom_site_fract_z
 _atom_site_occupancy
  Ti  Ti0  1  0.67584400  0.04083100  0.09704000  1
  Ti  Ti1  1  0.95916900  0.32415600  0.90296000  1
  Ti  Ti2  1  0.45916900  0.82415600  0.59704000  1
  Ti  Ti3  1  0.17584400  0.54083100  0.40296000  1
  Ti  Ti4  1  0.32415600  0.95916900  0.90296000  1
  Ti  Ti5  1  0.04083100  0.67584400  0.09704000  1
  Ti  Ti6  1  0.54083100  0.17584400  0.40296000  1
  Ti  Ti7  1  0.82415600  0.45916900  0.59704000  1
  C  C8  1  0.88807400  0.88807400  0.16940600  1
  C  C9  1  0.11192600  0.11192600  0.83059400  1
  C  C10  1  0.61192600  0.61192600  0.66940600  1
  C  C11  1  0.38807400  0.38807400  0.33059400  1
  C  C12  1  0.81755700  0.81755700  0.03301000  1
  C  C13  1  0.18244300  0.18244300  0.96699000  1
  C  C14  1  0.68244300  0.68244300  0.53301000  1
  C  C15  1  0.31755700  0.31755700  0.46699000  1
  O  O16  1  0.84194900  0.98741000  0.21668500  1
  O  O17  1  0.01259000  0.15805100  0.78331500  1
  O  O18  1  0.51259000  0.65805100  0.71668500  1
  O  O19  1  0.34194900  0.48741000  0.28331500  1
  O  O20  1  0.15805100  0.01259000  0.78331500  1
  O  O21  1  0.98741000  0.84194900  0.21668500  1
  O  O22  1  0.48741000  0.34194900  0.28331500  1
  O  O23  1  0.65805100  0.51259000  0.71668500  1
  O  O24  1  0.72141200  0.86651000  0.98276000  1
  O  O25  1  0.13349000  0.27858800  0.01724000  1
  O  O26  1  0.63349000  0.77858800  0.48276000  1
  O  O27  1  0.22141200  0.36651000  0.51724000  1
  O  O28  1  0.27858800  0.13349000  0.01724000  1
  O  O29  1  0.86651000  0.72141200  0.98276000  1
  O  O30  1  0.36651000  0.22141200  0.51724000  1
  O  O31  1  0.77858800  0.63349000  0.48276000  1
  O  O32  1  0.62932600  0.12932600  0.25000000  1
  O  O33  1  0.87067400  0.37067400  0.75000000  1
  O  O34  1  0.37067400  0.87067400  0.75000000  1
  O  O35  1  0.12932600  0.62932600  0.25000000  1
  O  O36  1  0.50000000  0.00000000  0.00000000  1
  O  O37  1  0.00000000  0.50000000  0.00000000  1
  O  O38  1  0.50000000  0.00000000  0.50000000  1
  O  O39  1  0.00000000  0.50000000  0.50000000  1
  O  O40  1  0.81507400  0.18492600  0.00000000  1
  O  O41  1  0.31507400  0.68492600  0.50000000  1
  O  O42  1  0.18492600  0.81507400  0.00000000  1
  O  O43  1  0.68492600  0.31507400  0.50000000  1
  O  O44  1  0.54905300  0.84674600  0.18918200  1
  O  O45  1  0.15325400  0.45094700  0.81081800  1
  O  O46  1  0.65325400  0.95094700  0.68918200  1
  O  O47  1  0.04905300  0.34674600  0.31081800  1
  O  O48  1  0.45094700  0.15325400  0.81081800  1
  O  O49  1  0.84674600  0.54905300  0.18918200  1
  O  O50  1  0.34674600  0.04905300  0.31081800  1
  O  O51  1  0.95094700  0.65325400  0.68918200  1
