# generated using pymatgen
data_ZrCu2(O3F2)4
_symmetry_space_group_name_H-M   'P 1'
_cell_length_a   8.61164813
_cell_length_b   8.61164813
_cell_length_c   9.98520414
_cell_angle_alpha   95.66799200
_cell_angle_beta   109.55898481
_cell_angle_gamma   119.82214690
_symmetry_Int_Tables_number   1
_chemical_formula_structural   ZrCu2(O3F2)4
_chemical_formula_sum   'Zr2 Cu4 O24 F16'
_cell_volume   572.62232121
_cell_formula_units_Z   2
loop_
 _symmetry_equiv_pos_site_id
 _symmetry_equiv_pos_as_xyz
  1  'x, y, z'
loop_
 _atom_site_type_symbol
 _atom_site_label
 _atom_site_symmetry_multiplicity
 _atom_site_fract_x
 _atom_site_fract_y
 _atom_site_fract_z
 _atom_site_occupancy
  Zr  Zr0  1  0.99761800  0.24761800  0.75000000  1
  Zr  Zr1  1  0.00238200  0.75238200  0.25000000  1
  Cu  Cu2  1  0.65275400  0.59027500  0.75705300  1
  Cu  Cu3  1  0.33322200  0.89570000  0.74294700  1
  Cu  Cu4  1  0.34724600  0.40972500  0.24294700  1
  Cu  Cu5  1  0.66677800  0.10430000  0.25705300  1
  O  O6  1  0.77308700  0.67678600  0.63758000  1
  O  O7  1  0.53920600  0.13550700  0.86242000  1
  O  O8  1  0.22691300  0.32321400  0.36242000  1
  O  O9  1  0.46079400  0.86449300  0.13758000  1
  O  O10  1  0.54859900  0.51625600  0.88831500  1
  O  O11  1  0.12794100  0.66028300  0.61168500  1
  O  O12  1  0.45140100  0.48374400  0.11168500  1
  O  O13  1  0.87205900  0.33971700  0.38831500  1
  O  O14  1  0.56236500  0.35722400  0.64269200  1
  O  O15  1  0.21453300  0.91967300  0.85730800  1
  O  O16  1  0.43763500  0.64277600  0.35730800  1
  O  O17  1  0.78546700  0.08032700  0.14269200  1
  O  O18  1  0.71442400  0.81984700  0.85576400  1
  O  O19  1  0.46408200  0.85865900  0.64423600  1
  O  O20  1  0.28557600  0.18015300  0.14423600  1
  O  O21  1  0.53591800  0.14134100  0.35576400  1
  O  O22  1  0.98907200  0.68470700  0.87948100  1
  O  O23  1  0.30522500  0.10959100  0.62051900  1
  O  O24  1  0.01092800  0.31529300  0.12051900  1
  O  O25  1  0.69477500  0.89040900  0.37948100  1
  O  O26  1  0.38538200  0.56327300  0.59852400  1
  O  O27  1  0.46474900  0.78685800  0.90147600  1
  O  O28  1  0.61461800  0.43672700  0.40147600  1
  O  O29  1  0.53525100  0.21314200  0.09852400  1
  F  F30  1  0.71388000  0.12507600  0.57289000  1
  F  F31  1  0.05218500  0.14098900  0.92711000  1
  F  F32  1  0.28612000  0.87492400  0.42711000  1
  F  F33  1  0.94781500  0.85901100  0.07289000  1
  F  F34  1  0.23868900  0.50542700  0.91895100  1
  F  F35  1  0.08647600  0.31973800  0.58104900  1
  F  F36  1  0.76131100  0.49457300  0.08104900  1
  F  F37  1  0.91352400  0.68026200  0.41895100  1
  F  F38  1  0.83099600  0.25671400  0.86356100  1
  F  F39  1  0.89315300  0.96743400  0.63643900  1
  F  F40  1  0.16900400  0.74328600  0.13643900  1
  F  F41  1  0.10684700  0.03256600  0.36356100  1
  F  F42  1  0.95253700  0.48114100  0.71134200  1
  F  F43  1  0.26979900  0.24119400  0.78865800  1
  F  F44  1  0.04746300  0.51885900  0.28865800  1
  F  F45  1  0.73020100  0.75880600  0.21134200  1
