# generated using pymatgen
data_MoH12C2(N3O2)2
_symmetry_space_group_name_H-M   'P 1'
_cell_length_a   7.08100300
_cell_length_b   6.63532500
_cell_length_c   10.81242873
_cell_angle_alpha   82.64271557
_cell_angle_beta   90.00000000
_cell_angle_gamma   90.00000000
_symmetry_Int_Tables_number   1
_chemical_formula_structural   MoH12C2(N3O2)2
_chemical_formula_sum   'Mo2 H24 C4 N12 O8'
_cell_volume   503.83675783
_cell_formula_units_Z   2
loop_
 _symmetry_equiv_pos_site_id
 _symmetry_equiv_pos_as_xyz
  1  'x, y, z'
loop_
 _atom_site_type_symbol
 _atom_site_label
 _atom_site_symmetry_multiplicity
 _atom_site_fract_x
 _atom_site_fract_y
 _atom_site_fract_z
 _atom_site_occupancy
  Mo  Mo0  1  0.25000000  0.23077500  0.75910800  1
  Mo  Mo1  1  0.75000000  0.76922500  0.24089200  1
  H  H2  1  0.37238300  0.68988900  0.12422600  1
  H  H3  1  0.87238300  0.31011100  0.87577400  1
  H  H4  1  0.62761700  0.31011100  0.87577400  1
  H  H5  1  0.12761700  0.68988900  0.12422600  1
  H  H6  1  0.53841600  0.38756700  0.12580500  1
  H  H7  1  0.03841600  0.61243300  0.87419500  1
  H  H8  1  0.46158400  0.61243300  0.87419500  1
  H  H9  1  0.96158400  0.38756700  0.12580500  1
  H  H10  1  0.42527300  0.15434300  0.12599000  1
  H  H11  1  0.92527300  0.84565700  0.87401000  1
  H  H12  1  0.57472700  0.84565700  0.87401000  1
  H  H13  1  0.07472700  0.15434300  0.12599000  1
  H  H14  1  0.37244400  0.88632800  0.33178700  1
  H  H15  1  0.87244400  0.11367200  0.66821300  1
  H  H16  1  0.62755600  0.11367200  0.66821300  1
  H  H17  1  0.12755600  0.88632800  0.33178700  1
  H  H18  1  0.53884700  0.76060000  0.51491400  1
  H  H19  1  0.03884700  0.23940000  0.48508600  1
  H  H20  1  0.46115300  0.23940000  0.48508600  1
  H  H21  1  0.96115300  0.76060000  0.51491400  1
  H  H22  1  0.40768700  0.67717900  0.65143700  1
  H  H23  1  0.90768700  0.32282100  0.34856300  1
  H  H24  1  0.59231300  0.32282100  0.34856300  1
  H  H25  1  0.09231300  0.67717900  0.65143700  1
  C  C26  1  0.25000000  0.40861400  0.11685700  1
  C  C27  1  0.75000000  0.59138600  0.88314300  1
  C  C28  1  0.25000000  0.78988300  0.50243700  1
  C  C29  1  0.75000000  0.21011700  0.49756300  1
  N  N30  1  0.25000000  0.61181900  0.11331700  1
  N  N31  1  0.75000000  0.38818100  0.88668300  1
  N  N32  1  0.41518000  0.30992600  0.11617300  1
  N  N33  1  0.91518000  0.69007400  0.88382700  1
  N  N34  1  0.58482000  0.69007400  0.88382700  1
  N  N35  1  0.08482000  0.30992600  0.11617300  1
  N  N36  1  0.25000000  0.87092300  0.38233700  1
  N  N37  1  0.75000000  0.12907700  0.61766300  1
  N  N38  1  0.41345800  0.75311600  0.56345100  1
  N  N39  1  0.91345800  0.24688400  0.43654900  1
  N  N40  1  0.58654200  0.24688400  0.43654900  1
  N  N41  1  0.08654200  0.75311600  0.56345100  1
  O  O42  1  0.25000000  0.48956100  0.79690800  1
  O  O43  1  0.75000000  0.51043900  0.20309200  1
  O  O44  1  0.25000000  0.23736000  0.59322900  1
  O  O45  1  0.75000000  0.76264000  0.40677100  1
  O  O46  1  0.46297300  0.10623400  0.81930100  1
  O  O47  1  0.96297300  0.89376600  0.18069900  1
  O  O48  1  0.53702700  0.89376600  0.18069900  1
  O  O49  1  0.03702700  0.10623400  0.81930100  1
