# generated using pymatgen
data_CuH14C2N10(ClO3)2
_symmetry_space_group_name_H-M   'P 1'
_cell_length_a   7.98604500
_cell_length_b   13.14010300
_cell_length_c   7.94692912
_cell_angle_alpha   90.00000000
_cell_angle_beta   115.34512416
_cell_angle_gamma   90.00000000
_symmetry_Int_Tables_number   1
_chemical_formula_structural   CuH14C2N10(ClO3)2
_chemical_formula_sum   'Cu2 H28 C4 N20 Cl4 O12'
_cell_volume   753.66110845
_cell_formula_units_Z   2
loop_
 _symmetry_equiv_pos_site_id
 _symmetry_equiv_pos_as_xyz
  1  'x, y, z'
loop_
 _atom_site_type_symbol
 _atom_site_label
 _atom_site_symmetry_multiplicity
 _atom_site_fract_x
 _atom_site_fract_y
 _atom_site_fract_z
 _atom_site_occupancy
  Cu  Cu0  1  0.00000000  0.50000000  0.50000000  1
  Cu  Cu1  1  0.00000000  0.00000000  0.00000000  1
  H  H2  1  0.26377800  0.44573300  0.08637500  1
  H  H3  1  0.73622200  0.94573300  0.41362500  1
  H  H4  1  0.73622200  0.55426700  0.91362500  1
  H  H5  1  0.26377800  0.05426700  0.58637500  1
  H  H6  1  0.25754800  0.62982400  0.64678400  1
  H  H7  1  0.74245200  0.12982400  0.85321600  1
  H  H8  1  0.74245200  0.37017600  0.35321600  1
  H  H9  1  0.25754800  0.87017600  0.14678400  1
  H  H10  1  0.08788000  0.67986300  0.46124600  1
  H  H11  1  0.91212000  0.17986300  0.03875400  1
  H  H12  1  0.91212000  0.32013700  0.53875400  1
  H  H13  1  0.08788000  0.82013700  0.96124600  1
  H  H14  1  0.41457100  0.54882900  0.18937900  1
  H  H15  1  0.58542900  0.04882900  0.31062100  1
  H  H16  1  0.58542900  0.45117100  0.81062100  1
  H  H17  1  0.41457100  0.95117100  0.68937900  1
  H  H18  1  0.34712200  0.65704700  0.39066000  1
  H  H19  1  0.65287800  0.15704700  0.10934000  1
  H  H20  1  0.65287800  0.34295300  0.60934000  1
  H  H21  1  0.34712200  0.84295300  0.89066000  1
  H  H22  1  0.45880300  0.20668100  0.53527600  1
  H  H23  1  0.54119700  0.70668100  0.96472400  1
  H  H24  1  0.54119700  0.79331900  0.46472400  1
  H  H25  1  0.45880300  0.29331900  0.03527600  1
  H  H26  1  0.43901400  0.28306500  0.68026000  1
  H  H27  1  0.56098600  0.78306500  0.81974000  1
  H  H28  1  0.56098600  0.71693500  0.31974000  1
  H  H29  1  0.43901400  0.21693500  0.18026000  1
  C  C30  1  0.21908200  0.51737200  0.28859500  1
  C  C31  1  0.78091800  0.01737200  0.21140500  1
  C  C32  1  0.78091800  0.48262800  0.71140500  1
  C  C33  1  0.21908200  0.98262800  0.78859500  1
  N  N34  1  0.16708500  0.61542500  0.51123300  1
  N  N35  1  0.83291500  0.11542500  0.98876700  1
  N  N36  1  0.83291500  0.38457500  0.48876700  1
  N  N37  1  0.16708500  0.88457500  0.01123300  1
  N  N38  1  0.26764400  0.59666100  0.40602500  1
  N  N39  1  0.73235600  0.09666100  0.09397500  1
  N  N40  1  0.73235600  0.40333900  0.59397500  1
  N  N41  1  0.26764400  0.90333900  0.90602500  1
  N  N42  1  0.30227300  0.50515900  0.17705300  1
  N  N43  1  0.69772700  0.00515900  0.32294700  1
  N  N44  1  0.69772700  0.49484100  0.82294700  1
  N  N45  1  0.30227300  0.99484100  0.67705300  1
  N  N46  1  0.08660500  0.45548800  0.30202500  1
  N  N47  1  0.91339500  0.95548800  0.19797500  1
  N  N48  1  0.91339500  0.54451200  0.69797500  1
  N  N49  1  0.08660500  0.04451200  0.80202500  1
  N  N50  1  0.02670500  0.37172500  0.19252600  1
  N  N51  1  0.97329500  0.87172500  0.30747400  1
  N  N52  1  0.97329500  0.62827500  0.80747400  1
  N  N53  1  0.02670500  0.12827500  0.69252600  1
  Cl  Cl54  1  0.68112000  0.60655700  0.21162500  1
  Cl  Cl55  1  0.31888000  0.10655700  0.28837500  1
  Cl  Cl56  1  0.31888000  0.39344300  0.78837500  1
  Cl  Cl57  1  0.68112000  0.89344300  0.71162500  1
  O  O58  1  0.91463400  0.31647700  0.22069100  1
  O  O59  1  0.08536600  0.81647700  0.27930900  1
  O  O60  1  0.08536600  0.68352300  0.77930900  1
  O  O61  1  0.91463400  0.18352300  0.72069100  1
  O  O62  1  0.07899400  0.35146300  0.06874300  1
  O  O63  1  0.92100600  0.85146300  0.43125700  1
  O  O64  1  0.92100600  0.64853700  0.93125700  1
  O  O65  1  0.07899400  0.14853700  0.56874300  1
  O  O66  1  0.53050400  0.24743000  0.64758600  1
  O  O67  1  0.46949600  0.74743000  0.85241400  1
  O  O68  1  0.46949600  0.75257000  0.35241400  1
  O  O69  1  0.53050400  0.25257000  0.14758600  1
