# generated using pymatgen
data_Li2PH3O4
_symmetry_space_group_name_H-M   'P 1'
_cell_length_a   5.10666000
_cell_length_b   9.08403300
_cell_length_c   18.21751295
_cell_angle_alpha   90.00000000
_cell_angle_beta   91.48469426
_cell_angle_gamma   90.00000000
_symmetry_Int_Tables_number   1
_chemical_formula_structural   Li2PH3O4
_chemical_formula_sum   'Li16 P8 H24 O32'
_cell_volume   844.80973308
_cell_formula_units_Z   8
loop_
 _symmetry_equiv_pos_site_id
 _symmetry_equiv_pos_as_xyz
  1  'x, y, z'
loop_
 _atom_site_type_symbol
 _atom_site_label
 _atom_site_symmetry_multiplicity
 _atom_site_fract_x
 _atom_site_fract_y
 _atom_site_fract_z
 _atom_site_occupancy
  Li  Li0  1  0.31997400  0.85445600  0.95515500  1
  Li  Li1  1  0.68002600  0.35445600  0.54484500  1
  Li  Li2  1  0.68002600  0.14554400  0.04484500  1
  Li  Li3  1  0.31997400  0.64554400  0.45515500  1
  Li  Li4  1  0.31389300  0.17965800  0.89033500  1
  Li  Li5  1  0.68610700  0.67965800  0.60966500  1
  Li  Li6  1  0.68610700  0.82034200  0.10966500  1
  Li  Li7  1  0.31389300  0.32034200  0.39033500  1
  Li  Li8  1  0.80807100  0.34328700  0.94446900  1
  Li  Li9  1  0.19192900  0.84328700  0.55553100  1
  Li  Li10  1  0.19192900  0.65671300  0.05553100  1
  Li  Li11  1  0.80807100  0.15671300  0.44446900  1
  Li  Li12  1  0.80746000  0.67001800  0.94998900  1
  Li  Li13  1  0.19254000  0.17001800  0.55001100  1
  Li  Li14  1  0.19254000  0.32998200  0.05001100  1
  Li  Li15  1  0.80746000  0.82998200  0.44998900  1
  P  P16  1  0.30439400  0.51197100  0.90588900  1
  P  P17  1  0.69560600  0.01197100  0.59411100  1
  P  P18  1  0.69560600  0.48802900  0.09411100  1
  P  P19  1  0.30439400  0.98802900  0.40588900  1
  P  P20  1  0.80494200  0.00214300  0.89688100  1
  P  P21  1  0.19505800  0.50214300  0.60311900  1
  P  P22  1  0.19505800  0.99785700  0.10311900  1
  P  P23  1  0.80494200  0.49785700  0.39688100  1
  H  H24  1  0.73647300  0.01209900  0.82126900  1
  H  H25  1  0.26352700  0.51209900  0.67873100  1
  H  H26  1  0.26352700  0.98790100  0.17873100  1
  H  H27  1  0.73647300  0.48790100  0.32126900  1
  H  H28  1  0.43617000  0.25672400  0.75801600  1
  H  H29  1  0.56383000  0.75672400  0.74198400  1
  H  H30  1  0.56383000  0.74327600  0.24198400  1
  H  H31  1  0.43617000  0.24327600  0.25801600  1
  H  H32  1  0.12584700  0.25648200  0.76295700  1
  H  H33  1  0.87415300  0.75648200  0.73704300  1
  H  H34  1  0.87415300  0.74351800  0.23704300  1
  H  H35  1  0.12584700  0.24351800  0.26295700  1
  H  H36  1  0.21466600  0.91174700  0.79813100  1
  H  H37  1  0.78533400  0.41174700  0.70186900  1
  H  H38  1  0.78533400  0.08825300  0.20186900  1
  H  H39  1  0.21466600  0.58825300  0.29813100  1
  H  H40  1  0.26328500  0.93429500  0.71514000  1
  H  H41  1  0.73671500  0.43429500  0.78486000  1
  H  H42  1  0.73671500  0.06570500  0.28486000  1
  H  H43  1  0.26328500  0.56570500  0.21514000  1
  H  H44  1  0.21501700  0.52788600  0.83231700  1
  H  H45  1  0.78498300  0.02788600  0.66768300  1
  H  H46  1  0.78498300  0.47211400  0.16768300  1
  H  H47  1  0.21501700  0.97211400  0.33231700  1
  O  O48  1  0.18889800  0.36603900  0.93489700  1
  O  O49  1  0.81110200  0.86603900  0.56510300  1
  O  O50  1  0.81110200  0.63396100  0.06510300  1
  O  O51  1  0.18889800  0.13396100  0.43489700  1
  O  O52  1  0.60479300  0.50790400  0.90472600  1
  O  O53  1  0.39520700  0.00790400  0.59527400  1
  O  O54  1  0.39520700  0.49209600  0.09527400  1
  O  O55  1  0.60479300  0.99209600  0.40472600  1
  O  O56  1  0.19393000  0.64663100  0.94664200  1
  O  O57  1  0.80607000  0.14663100  0.55335800  1
  O  O58  1  0.80607000  0.35336900  0.05335800  1
  O  O59  1  0.19393000  0.85336900  0.44664200  1
  O  O60  1  0.68071400  0.86159700  0.92609700  1
  O  O61  1  0.31928600  0.36159700  0.57390300  1
  O  O62  1  0.31928600  0.13840300  0.07390300  1
  O  O63  1  0.68071400  0.63840300  0.42609700  1
  O  O64  1  0.10629300  0.99937000  0.90110800  1
  O  O65  1  0.89370700  0.49937000  0.59889200  1
  O  O66  1  0.89370700  0.00063000  0.09889200  1
  O  O67  1  0.10629300  0.50063000  0.40110800  1
  O  O68  1  0.68393400  0.14212700  0.93133400  1
  O  O69  1  0.31606600  0.64212700  0.56866600  1
  O  O70  1  0.31606600  0.85787300  0.06866600  1
  O  O71  1  0.68393400  0.35787300  0.43133400  1
  O  O72  1  0.28655200  0.20575400  0.77989300  1
  O  O73  1  0.71344800  0.70575400  0.72010700  1
  O  O74  1  0.71344800  0.79424600  0.22010700  1
  O  O75  1  0.28655200  0.29424600  0.27989300  1
  O  O76  1  0.23479500  0.85735000  0.75168400  1
  O  O77  1  0.76520500  0.35735000  0.74831600  1
  O  O78  1  0.76520500  0.14265000  0.24831600  1
  O  O79  1  0.23479500  0.64265000  0.25168400  1
