# generated using pymatgen
data_NpP2H2CO8
_symmetry_space_group_name_H-M   'P 1'
_cell_length_a   8.74290200
_cell_length_b   9.05430000
_cell_length_c   9.38459600
_cell_angle_alpha   90.00000000
_cell_angle_beta   90.00000000
_cell_angle_gamma   90.00000000
_symmetry_Int_Tables_number   1
_chemical_formula_structural   NpP2H2CO8
_chemical_formula_sum   'Np4 P8 H8 C4 O32'
_cell_volume   742.89266739
_cell_formula_units_Z   4
loop_
 _symmetry_equiv_pos_site_id
 _symmetry_equiv_pos_as_xyz
  1  'x, y, z'
loop_
 _atom_site_type_symbol
 _atom_site_label
 _atom_site_symmetry_multiplicity
 _atom_site_fract_x
 _atom_site_fract_y
 _atom_site_fract_z
 _atom_site_occupancy
  Np  Np0  1  0.26301400  0.72833100  0.01652400  1
  Np  Np1  1  0.73698600  0.22833100  0.98347600  1
  Np  Np2  1  0.23698600  0.22833100  0.51652400  1
  Np  Np3  1  0.76301400  0.72833100  0.48347600  1
  P  P4  1  0.38587900  0.59073700  0.39847800  1
  P  P5  1  0.61412100  0.09073700  0.60152200  1
  P  P6  1  0.11412100  0.09073700  0.89847800  1
  P  P7  1  0.88587900  0.59073700  0.10152200  1
  P  P8  1  0.16286000  0.85085300  0.38968200  1
  P  P9  1  0.83714000  0.35085300  0.61031800  1
  P  P10  1  0.33714000  0.35085300  0.88968200  1
  P  P11  1  0.66286000  0.85085300  0.11031800  1
  H  H12  1  0.24331800  0.70378100  0.59369200  1
  H  H13  1  0.75668200  0.20378100  0.40630800  1
  H  H14  1  0.25668200  0.20378100  0.09369200  1
  H  H15  1  0.74331800  0.70378100  0.90630800  1
  H  H16  1  0.38953300  0.82033600  0.52726500  1
  H  H17  1  0.61046700  0.32033600  0.47273500  1
  H  H18  1  0.11046700  0.32033600  0.02726500  1
  H  H19  1  0.88953300  0.82033600  0.97273500  1
  C  C20  1  0.29731800  0.74395300  0.49553100  1
  C  C21  1  0.70268200  0.24395300  0.50446900  1
  C  C22  1  0.20268200  0.24395300  0.99553100  1
  C  C23  1  0.79731800  0.74395300  0.00446900  1
  O  O24  1  0.33038300  0.57661000  0.24622800  1
  O  O25  1  0.66961700  0.07661000  0.75377200  1
  O  O26  1  0.16961700  0.07661000  0.74622800  1
  O  O27  1  0.83038300  0.57661000  0.25377200  1
  O  O28  1  0.22345100  0.86371000  0.23728700  1
  O  O29  1  0.77654900  0.36371000  0.76271300  1
  O  O30  1  0.27654900  0.36371000  0.73728700  1
  O  O31  1  0.72345100  0.86371000  0.26271300  1
  O  O32  1  0.56334200  0.62886700  0.39494400  1
  O  O33  1  0.43665800  0.12886700  0.60505600  1
  O  O34  1  0.93665800  0.12886700  0.89494400  1
  O  O35  1  0.06334200  0.62886700  0.10505600  1
  O  O36  1  0.00455800  0.76924000  0.38396100  1
  O  O37  1  0.99544200  0.26924000  0.61603900  1
  O  O38  1  0.49544200  0.26924000  0.88396100  1
  O  O39  1  0.50455800  0.76924000  0.11603900  1
  O  O40  1  0.13980700  0.00063500  0.46317900  1
  O  O41  1  0.86019300  0.50063500  0.53682100  1
  O  O42  1  0.36019300  0.50063500  0.96317900  1
  O  O43  1  0.63980700  0.00063500  0.03682100  1
  O  O44  1  0.36525800  0.44819300  0.48505900  1
  O  O45  1  0.63474200  0.94819300  0.51494100  1
  O  O46  1  0.13474200  0.94819300  0.98505900  1
  O  O47  1  0.86525800  0.44819300  0.01494100  1
  O  O48  1  0.39922500  0.81395800  0.88964700  1
  O  O49  1  0.60077500  0.31395800  0.11035300  1
  O  O50  1  0.10077500  0.31395800  0.38964700  1
  O  O51  1  0.89922500  0.81395800  0.61035300  1
  O  O52  1  0.15291100  0.68132500  0.85400700  1
  O  O53  1  0.84708900  0.18132500  0.14599300  1
  O  O54  1  0.34708900  0.18132500  0.35400700  1
  O  O55  1  0.65291100  0.68132500  0.64599300  1
