# generated using pymatgen
data_U3P2Pb2O21
_symmetry_space_group_name_H-M   'P 1'
_cell_length_a   6.98987200
_cell_length_b   16.71495200
_cell_length_c   8.09164823
_cell_angle_alpha   90.00000000
_cell_angle_beta   106.82750509
_cell_angle_gamma   90.00000000
_symmetry_Int_Tables_number   1
_chemical_formula_structural   U3P2Pb2O21
_chemical_formula_sum   'U6 P4 Pb4 O42'
_cell_volume   904.90972429
_cell_formula_units_Z   2
loop_
 _symmetry_equiv_pos_site_id
 _symmetry_equiv_pos_as_xyz
  1  'x, y, z'
loop_
 _atom_site_type_symbol
 _atom_site_label
 _atom_site_symmetry_multiplicity
 _atom_site_fract_x
 _atom_site_fract_y
 _atom_site_fract_z
 _atom_site_occupancy
  U  U0  1  0.70081900  0.75000000  0.40175800  1
  U  U1  1  0.29918100  0.25000000  0.59824200  1
  U  U2  1  0.20110800  0.63972600  0.40661600  1
  U  U3  1  0.79889200  0.13972600  0.59338400  1
  U  U4  1  0.79889200  0.36027400  0.59338400  1
  U  U5  1  0.20110800  0.86027400  0.40661600  1
  P  P6  1  0.68788400  0.55317000  0.37343900  1
  P  P7  1  0.31211600  0.05317000  0.62656100  1
  P  P8  1  0.31211600  0.44683000  0.62656100  1
  P  P9  1  0.68788400  0.94683000  0.37343900  1
  Pb  Pb10  1  0.34539300  0.60596600  0.92587300  1
  Pb  Pb11  1  0.65460700  0.10596600  0.07412700  1
  Pb  Pb12  1  0.65460700  0.39403400  0.07412700  1
  Pb  Pb13  1  0.34539300  0.89403400  0.92587300  1
  O  O14  1  0.57571700  0.75000000  0.16122200  1
  O  O15  1  0.42428300  0.25000000  0.83877800  1
  O  O16  1  0.81535600  0.75000000  0.63075900  1
  O  O17  1  0.18464400  0.25000000  0.36924100  1
  O  O18  1  0.17598000  0.62936000  0.17118700  1
  O  O19  1  0.82402000  0.12936000  0.82881300  1
  O  O20  1  0.82402000  0.37064000  0.82881300  1
  O  O21  1  0.17598000  0.87064000  0.17118700  1
  O  O22  1  0.23669100  0.65047100  0.64477900  1
  O  O23  1  0.76330900  0.15047100  0.35522100  1
  O  O24  1  0.76330900  0.34952900  0.35522100  1
  O  O25  1  0.23669100  0.84952900  0.64477900  1
  O  O26  1  0.54687700  0.61568400  0.42057500  1
  O  O27  1  0.45312300  0.11568400  0.57942500  1
  O  O28  1  0.45312300  0.38431600  0.57942500  1
  O  O29  1  0.54687700  0.88431600  0.42057500  1
  O  O30  1  0.86416500  0.60752100  0.36203600  1
  O  O31  1  0.13583500  0.10752100  0.63796400  1
  O  O32  1  0.13583500  0.39247900  0.63796400  1
  O  O33  1  0.86416500  0.89247900  0.36203600  1
  O  O34  1  0.75770200  0.49110600  0.51856100  1
  O  O35  1  0.24229800  0.99110600  0.48143900  1
  O  O36  1  0.24229800  0.50889400  0.48143900  1
  O  O37  1  0.75770200  0.00889400  0.51856100  1
  O  O38  1  0.57887400  0.51387700  0.19686200  1
  O  O39  1  0.42112600  0.01387700  0.80313800  1
  O  O40  1  0.42112600  0.48612300  0.80313800  1
  O  O41  1  0.57887400  0.98612300  0.19686200  1
  O  O42  1  0.00870200  0.75000000  0.36725000  1
  O  O43  1  0.99129800  0.25000000  0.63275000  1
  O  O44  1  0.38845700  0.75000000  0.42488000  1
  O  O45  1  0.61154300  0.25000000  0.57512000  1
  O  O46  1  0.62568000  0.65143100  0.95716700  1
  O  O47  1  0.37432000  0.15143100  0.04283300  1
  O  O48  1  0.37432000  0.34856900  0.04283300  1
  O  O49  1  0.62568000  0.84856900  0.95716700  1
  O  O50  1  0.07106200  0.56273700  0.91495400  1
  O  O51  1  0.92893800  0.06273700  0.08504600  1
  O  O52  1  0.92893800  0.43726300  0.08504600  1
  O  O53  1  0.07106200  0.93726300  0.91495400  1
  O  O54  1  0.29827300  0.75000000  0.95025400  1
  O  O55  1  0.70172700  0.25000000  0.04974600  1
