# generated using pymatgen
data_YMnSn2
_symmetry_space_group_name_H-M   'P 1'
_cell_length_a   9.01869300
_cell_length_b   10.48597000
_cell_length_c   11.46213800
_cell_angle_alpha   90.00000000
_cell_angle_beta   90.00000000
_cell_angle_gamma   90.00000000
_symmetry_Int_Tables_number   1
_chemical_formula_structural   YMnSn2
_chemical_formula_sum   'Y12 Mn12 Sn24'
_cell_volume   1083.97145907
_cell_formula_units_Z   12
loop_
 _symmetry_equiv_pos_site_id
 _symmetry_equiv_pos_as_xyz
  1  'x, y, z'
loop_
 _atom_site_type_symbol
 _atom_site_label
 _atom_site_symmetry_multiplicity
 _atom_site_fract_x
 _atom_site_fract_y
 _atom_site_fract_z
 _atom_site_occupancy
  Y  Y0  1  0.24399900  0.82860000  0.45239800  1
  Y  Y1  1  0.24399900  0.17140000  0.54760200  1
  Y  Y2  1  0.75600100  0.32860000  0.04760200  1
  Y  Y3  1  0.75600100  0.67140000  0.95239800  1
  Y  Y4  1  0.75600100  0.17140000  0.54760200  1
  Y  Y5  1  0.75600100  0.82860000  0.45239800  1
  Y  Y6  1  0.24399900  0.67140000  0.95239800  1
  Y  Y7  1  0.24399900  0.32860000  0.04760200  1
  Y  Y8  1  0.00000000  0.83545100  0.17962100  1
  Y  Y9  1  0.00000000  0.16454900  0.82037900  1
  Y  Y10  1  0.00000000  0.33545100  0.32037900  1
  Y  Y11  1  0.00000000  0.66454900  0.67962100  1
  Mn  Mn12  1  0.24709900  0.58796000  0.25451500  1
  Mn  Mn13  1  0.24709900  0.41204000  0.74548500  1
  Mn  Mn14  1  0.75290100  0.08796000  0.24548500  1
  Mn  Mn15  1  0.75290100  0.91204000  0.75451500  1
  Mn  Mn16  1  0.75290100  0.41204000  0.74548500  1
  Mn  Mn17  1  0.75290100  0.58796000  0.25451500  1
  Mn  Mn18  1  0.24709900  0.91204000  0.75451500  1
  Mn  Mn19  1  0.24709900  0.08796000  0.24548500  1
  Mn  Mn20  1  0.24304500  0.50000000  0.50000000  1
  Mn  Mn21  1  0.75695500  0.00000000  0.00000000  1
  Mn  Mn22  1  0.75695500  0.50000000  0.50000000  1
  Mn  Mn23  1  0.24304500  0.00000000  0.00000000  1
  Sn  Sn24  1  0.33859700  0.83803300  0.18095700  1
  Sn  Sn25  1  0.33859700  0.16196700  0.81904300  1
  Sn  Sn26  1  0.66140300  0.33803300  0.31904300  1
  Sn  Sn27  1  0.66140300  0.66196700  0.68095700  1
  Sn  Sn28  1  0.66140300  0.16196700  0.81904300  1
  Sn  Sn29  1  0.66140300  0.83803300  0.18095700  1
  Sn  Sn30  1  0.33859700  0.66196700  0.68095700  1
  Sn  Sn31  1  0.33859700  0.33803300  0.31904300  1
  Sn  Sn32  1  0.50000000  0.54481600  0.12462500  1
  Sn  Sn33  1  0.50000000  0.45518400  0.87537500  1
  Sn  Sn34  1  0.50000000  0.04481600  0.37537500  1
  Sn  Sn35  1  0.50000000  0.95518400  0.62462500  1
  Sn  Sn36  1  0.00000000  0.54087400  0.12224400  1
  Sn  Sn37  1  0.00000000  0.45912600  0.87775600  1
  Sn  Sn38  1  0.00000000  0.04087400  0.37775600  1
  Sn  Sn39  1  0.00000000  0.95912600  0.62224400  1
  Sn  Sn40  1  0.50000000  0.62387000  0.40510300  1
  Sn  Sn41  1  0.50000000  0.37613000  0.59489700  1
  Sn  Sn42  1  0.50000000  0.12387000  0.09489700  1
  Sn  Sn43  1  0.50000000  0.87613000  0.90510300  1
  Sn  Sn44  1  0.00000000  0.62853200  0.39934100  1
  Sn  Sn45  1  0.00000000  0.37146800  0.60065900  1
  Sn  Sn46  1  0.00000000  0.12853200  0.10065900  1
  Sn  Sn47  1  0.00000000  0.87146800  0.89934100  1
