# generated using pymatgen
data_Mn5(AsO5)4
_symmetry_space_group_name_H-M   'P 1'
_cell_length_a   9.35795500
_cell_length_b   9.55384193
_cell_length_c   9.96236641
_cell_angle_alpha   102.50302664
_cell_angle_beta   118.01257388
_cell_angle_gamma   90.00000000
_symmetry_Int_Tables_number   1
_chemical_formula_structural   Mn5(AsO5)4
_chemical_formula_sum   'Mn10 As8 O40'
_cell_volume   762.32292712
_cell_formula_units_Z   2
loop_
 _symmetry_equiv_pos_site_id
 _symmetry_equiv_pos_as_xyz
  1  'x, y, z'
loop_
 _atom_site_type_symbol
 _atom_site_label
 _atom_site_symmetry_multiplicity
 _atom_site_fract_x
 _atom_site_fract_y
 _atom_site_fract_z
 _atom_site_occupancy
  Mn  Mn0  1  0.10435700  0.25000000  0.00000000  1
  Mn  Mn1  1  0.89564300  0.75000000  0.00000000  1
  Mn  Mn2  1  0.26116800  0.69522600  0.63752500  1
  Mn  Mn3  1  0.62364200  0.80477400  0.36247500  1
  Mn  Mn4  1  0.73883200  0.30477400  0.36247500  1
  Mn  Mn5  1  0.37635800  0.19522600  0.63752500  1
  Mn  Mn6  1  0.85032200  0.61385900  0.64597700  1
  Mn  Mn7  1  0.20434500  0.88614100  0.35402300  1
  Mn  Mn8  1  0.14967800  0.38614100  0.35402300  1
  Mn  Mn9  1  0.79565500  0.11385900  0.64597700  1
  As  As10  1  0.12773700  0.89714900  0.86965800  1
  As  As11  1  0.25807800  0.60285100  0.13034200  1
  As  As12  1  0.87226300  0.10285100  0.13034200  1
  As  As13  1  0.74192200  0.39714900  0.86965800  1
  As  As14  1  0.39161500  0.14701200  0.30003700  1
  As  As15  1  0.09157800  0.35298800  0.69996300  1
  As  As16  1  0.60838500  0.85298800  0.69996300  1
  As  As17  1  0.90842200  0.64701200  0.30003700  1
  O  O18  1  0.96704600  0.77569900  0.84960300  1
  O  O19  1  0.11744400  0.72430100  0.15039700  1
  O  O20  1  0.03295400  0.22430100  0.15039700  1
  O  O21  1  0.88255600  0.27569900  0.84960300  1
  O  O22  1  0.11371300  0.82084500  0.69005100  1
  O  O23  1  0.42366200  0.67915500  0.30994900  1
  O  O24  1  0.88628700  0.17915500  0.30994900  1
  O  O25  1  0.57633800  0.32084500  0.69005100  1
  O  O26  1  0.02426900  0.05434400  0.85834300  1
  O  O27  1  0.16592600  0.44565600  0.14165700  1
  O  O28  1  0.97573100  0.94565600  0.14165700  1
  O  O29  1  0.83407400  0.55434400  0.85834300  1
  O  O30  1  0.37093700  0.97670900  0.32640100  1
  O  O31  1  0.04453600  0.52329100  0.67359900  1
  O  O32  1  0.62906300  0.02329100  0.67359900  1
  O  O33  1  0.95546400  0.47670900  0.32640100  1
  O  O34  1  0.60106600  0.16977300  0.38267600  1
  O  O35  1  0.21839100  0.33022700  0.61732400  1
  O  O36  1  0.39893400  0.83022700  0.61732400  1
  O  O37  1  0.78160900  0.66977300  0.38267600  1
  O  O38  1  0.32793200  0.25824900  0.41950100  1
  O  O39  1  0.90843200  0.24175100  0.58049900  1
  O  O40  1  0.67206800  0.74175100  0.58049900  1
  O  O41  1  0.09156800  0.75824900  0.41950100  1
  O  O42  1  0.31535800  0.20087500  0.12720300  1
  O  O43  1  0.18815600  0.29912500  0.87279700  1
  O  O44  1  0.68464200  0.79912500  0.87279700  1
  O  O45  1  0.81184400  0.70087500  0.12720300  1
  O  O46  1  0.30458100  0.91695700  0.03090000  1
  O  O47  1  0.27368100  0.58304300  0.96910000  1
  O  O48  1  0.69541900  0.08304300  0.96910000  1
  O  O49  1  0.72631900  0.41695700  0.03090000  1
  O  O50  1  0.77740600  0.95157200  0.49363200  1
  O  O51  1  0.28377400  0.54842800  0.50636800  1
  O  O52  1  0.22259400  0.04842800  0.50636800  1
  O  O53  1  0.71622600  0.45157200  0.49363200  1
  O  O54  1  0.62132100  0.31886800  0.18240800  1
  O  O55  1  0.43891300  0.18113200  0.81759200  1
  O  O56  1  0.37867900  0.68113200  0.81759200  1
  O  O57  1  0.56108700  0.81886800  0.18240800  1
