# generated using pymatgen
data_ZnFe16Ni7O32
_symmetry_space_group_name_H-M   'P 1'
_cell_length_a   8.38404800
_cell_length_b   8.39070302
_cell_length_c   8.39077530
_cell_angle_alpha   90.15640485
_cell_angle_beta   90.00553785
_cell_angle_gamma   90.00428146
_symmetry_Int_Tables_number   1
_chemical_formula_structural   ZnFe16Ni7O32
_chemical_formula_sum   'Zn1 Fe16 Ni7 O32'
_cell_volume   590.27253472
_cell_formula_units_Z   1
loop_
 _symmetry_equiv_pos_site_id
 _symmetry_equiv_pos_as_xyz
  1  'x, y, z'
loop_
 _atom_site_type_symbol
 _atom_site_label
 _atom_site_symmetry_multiplicity
 _atom_site_fract_x
 _atom_site_fract_y
 _atom_site_fract_z
 _atom_site_occupancy
  Zn  Zn0  1  0.99542900  0.99841600  0.00322800  1
  Fe  Fe1  1  0.49577600  0.00011700  0.49666800  1
  Fe  Fe2  1  0.49212000  0.50241300  0.99871700  1
  Fe  Fe3  1  0.99789400  0.49640700  0.49817600  1
  Fe  Fe4  1  0.25231800  0.25143400  0.75232500  1
  Fe  Fe5  1  0.25523400  0.75133700  0.24653200  1
  Fe  Fe6  1  0.75670200  0.24899600  0.25004100  1
  Fe  Fe7  1  0.75538800  0.74985300  0.75550100  1
  Fe  Fe8  1  0.62627600  0.12400700  0.87406700  1
  Fe  Fe9  1  0.12555200  0.37469500  0.12544700  1
  Fe  Fe10  1  0.87499200  0.12602600  0.62441800  1
  Fe  Fe11  1  0.62451500  0.62589900  0.37317500  1
  Fe  Fe12  1  0.12560300  0.12606500  0.37329100  1
  Fe  Fe13  1  0.12553500  0.62441700  0.87593800  1
  Fe  Fe14  1  0.12627700  0.87406100  0.62723500  1
  Fe  Fe15  1  0.62359700  0.37698700  0.62637800  1
  Fe  Fe16  1  0.62604700  0.87381800  0.12471900  1
  Ni  Ni17  1  0.37544200  0.62371400  0.62565200  1
  Ni  Ni18  1  0.87469800  0.87494800  0.37227400  1
  Ni  Ni19  1  0.37453300  0.12541700  0.12554300  1
  Ni  Ni20  1  0.87456100  0.62621200  0.12428100  1
  Ni  Ni21  1  0.87544000  0.37582700  0.87563700  1
  Ni  Ni22  1  0.37569000  0.87380600  0.87623300  1
  Ni  Ni23  1  0.37430500  0.37492900  0.37494500  1
  O  O24  1  0.62296000  0.38333900  0.38638200  1
  O  O25  1  0.11397100  0.11908700  0.61439200  1
  O  O26  1  0.38968100  0.88046500  0.12059500  1
  O  O27  1  0.89237400  0.62020900  0.87918300  1
  O  O28  1  0.62633600  0.63712000  0.12749700  1
  O  O29  1  0.13073000  0.85892400  0.86466900  1
  O  O30  1  0.87459900  0.35778100  0.62871700  1
  O  O31  1  0.36004700  0.13058200  0.37252900  1
  O  O32  1  0.62174900  0.87816300  0.88879300  1
  O  O33  1  0.12299500  0.38615400  0.88868200  1
  O  O34  1  0.12168200  0.88801800  0.38002900  1
  O  O35  1  0.12297200  0.61270800  0.11410300  1
  O  O36  1  0.62427800  0.11385100  0.11861300  1
  O  O37  1  0.62333200  0.61272900  0.62418700  1
  O  O38  1  0.37617600  0.37928400  0.61860000  1
  O  O39  1  0.87976300  0.89183700  0.62082600  1
  O  O40  1  0.88824800  0.37835500  0.12027900  1
  O  O41  1  0.88907300  0.12193400  0.38917300  1
  O  O42  1  0.38880000  0.62150500  0.37946100  1
  O  O43  1  0.39037700  0.12088900  0.87885500  1
  O  O44  1  0.63520500  0.13616200  0.62919000  1
  O  O45  1  0.12687500  0.63107000  0.63521900  1
  O  O46  1  0.12921600  0.14120700  0.14090100  1
  O  O47  1  0.12833000  0.36372000  0.36254500  1
  O  O48  1  0.62666200  0.86594500  0.36324400  1
  O  O49  1  0.62800700  0.37309100  0.86204100  1
  O  O50  1  0.85417900  0.86659100  0.13375900  1
  O  O51  1  0.36255600  0.37058500  0.12977600  1
  O  O52  1  0.36892000  0.87061000  0.62981800  1
  O  O53  1  0.35777100  0.62862700  0.86867800  1
  O  O54  1  0.85718400  0.13157600  0.85544000  1
  O  O55  1  0.86102800  0.62808100  0.37340400  1
