# generated using pymatgen
data_Zn3(NO5)2
_symmetry_space_group_name_H-M   'P 1'
_cell_length_a   9.58345300
_cell_length_b   7.55526300
_cell_length_c   11.36000580
_cell_angle_alpha   81.09726818
_cell_angle_beta   90.00000000
_cell_angle_gamma   90.00000000
_symmetry_Int_Tables_number   1
_chemical_formula_structural   Zn3(NO5)2
_chemical_formula_sum   'Zn12 N8 O40'
_cell_volume   812.61758595
_cell_formula_units_Z   4
loop_
 _symmetry_equiv_pos_site_id
 _symmetry_equiv_pos_as_xyz
  1  'x, y, z'
loop_
 _atom_site_type_symbol
 _atom_site_label
 _atom_site_symmetry_multiplicity
 _atom_site_fract_x
 _atom_site_fract_y
 _atom_site_fract_z
 _atom_site_occupancy
  Zn  Zn0  1  0.56450200  0.96238600  0.62059600  1
  Zn  Zn1  1  0.06450200  0.03761400  0.87940400  1
  Zn  Zn2  1  0.43549800  0.03761400  0.37940400  1
  Zn  Zn3  1  0.93549800  0.96238600  0.12059600  1
  Zn  Zn4  1  0.75663700  0.95543300  0.85862300  1
  Zn  Zn5  1  0.25663700  0.04456700  0.64137700  1
  Zn  Zn6  1  0.24336300  0.04456700  0.14137700  1
  Zn  Zn7  1  0.74336300  0.95543300  0.35862300  1
  Zn  Zn8  1  0.90946600  0.99807000  0.61323000  1
  Zn  Zn9  1  0.40946600  0.00193000  0.88677000  1
  Zn  Zn10  1  0.09053400  0.00193000  0.38677000  1
  Zn  Zn11  1  0.59053400  0.99807000  0.11323000  1
  N  N12  1  0.57086300  0.37331900  0.76033600  1
  N  N13  1  0.07086300  0.62668100  0.73966400  1
  N  N14  1  0.42913700  0.62668100  0.23966400  1
  N  N15  1  0.92913700  0.37331900  0.26033600  1
  N  N16  1  0.74336500  0.36561500  0.50115300  1
  N  N17  1  0.24336500  0.63438500  0.99884700  1
  N  N18  1  0.25663500  0.63438500  0.49884700  1
  N  N19  1  0.75663500  0.36561500  0.00115300  1
  O  O20  1  0.57423400  0.19978500  0.77837400  1
  O  O21  1  0.07423400  0.80021500  0.72162600  1
  O  O22  1  0.42576600  0.80021500  0.22162600  1
  O  O23  1  0.92576600  0.19978500  0.27837400  1
  O  O24  1  0.45795700  0.45066300  0.76535300  1
  O  O25  1  0.95795700  0.54933700  0.73464700  1
  O  O26  1  0.54204300  0.54933700  0.23464700  1
  O  O27  1  0.04204300  0.45066300  0.26535300  1
  O  O28  1  0.68293300  0.45559500  0.73865500  1
  O  O29  1  0.18293300  0.54440500  0.76134500  1
  O  O30  1  0.31706700  0.54440500  0.26134500  1
  O  O31  1  0.81706700  0.45559500  0.23865500  1
  O  O32  1  0.74623800  0.19118400  0.51818500  1
  O  O33  1  0.24623800  0.80881600  0.98181500  1
  O  O34  1  0.25376200  0.80881600  0.48181500  1
  O  O35  1  0.75376200  0.19118400  0.01818500  1
  O  O36  1  0.62776700  0.43870600  0.48426900  1
  O  O37  1  0.12776700  0.56129400  0.01573100  1
  O  O38  1  0.37223300  0.56129400  0.51573100  1
  O  O39  1  0.87223300  0.43870600  0.98426900  1
  O  O40  1  0.85406900  0.45030400  0.50174200  1
  O  O41  1  0.35406900  0.54969600  0.99825800  1
  O  O42  1  0.14593100  0.54969600  0.49825800  1
  O  O43  1  0.64593100  0.45030400  0.00174200  1
  O  O44  1  0.91546600  0.88418000  0.96362900  1
  O  O45  1  0.41546600  0.11582000  0.53637100  1
  O  O46  1  0.08453400  0.11582000  0.03637100  1
  O  O47  1  0.58453400  0.88418000  0.46362900  1
  O  O48  1  0.91137200  0.10297000  0.76381600  1
  O  O49  1  0.41137200  0.89703000  0.73618400  1
  O  O50  1  0.08862800  0.89703000  0.23618400  1
  O  O51  1  0.58862800  0.10297000  0.26381600  1
  O  O52  1  0.73588500  0.88864300  0.69988700  1
  O  O53  1  0.23588500  0.11135700  0.80011300  1
  O  O54  1  0.26411500  0.11135700  0.30011300  1
  O  O55  1  0.76411500  0.88864300  0.19988700  1
  O  O56  1  0.59232200  0.90614600  0.95850200  1
  O  O57  1  0.09232200  0.09385400  0.54149800  1
  O  O58  1  0.40767800  0.09385400  0.04149800  1
  O  O59  1  0.90767800  0.90614600  0.45850200  1
