# generated using pymatgen
data_Ca2S2O7
_symmetry_space_group_name_H-M   'P 1'
_cell_length_a   5.69994700
_cell_length_b   9.90696300
_cell_length_c   11.04431000
_cell_angle_alpha   90.00000000
_cell_angle_beta   90.00000000
_cell_angle_gamma   90.00000000
_symmetry_Int_Tables_number   1
_chemical_formula_structural   Ca2S2O7
_chemical_formula_sum   'Ca8 S8 O28'
_cell_volume   623.66295300
_cell_formula_units_Z   4
loop_
 _symmetry_equiv_pos_site_id
 _symmetry_equiv_pos_as_xyz
  1  'x, y, z'
loop_
 _atom_site_type_symbol
 _atom_site_label
 _atom_site_symmetry_multiplicity
 _atom_site_fract_x
 _atom_site_fract_y
 _atom_site_fract_z
 _atom_site_occupancy
  Ca  Ca0  1  0.42991300  0.62877800  0.13067100  1
  Ca  Ca1  1  0.07008700  0.12877800  0.36932900  1
  Ca  Ca2  1  0.07008700  0.37122200  0.63067100  1
  Ca  Ca3  1  0.42991300  0.87122200  0.86932900  1
  Ca  Ca4  1  0.57008700  0.37122200  0.86932900  1
  Ca  Ca5  1  0.92991300  0.87122200  0.63067100  1
  Ca  Ca6  1  0.92991300  0.62877800  0.36932900  1
  Ca  Ca7  1  0.57008700  0.12877800  0.13067100  1
  S  S8  1  0.87677000  0.86702000  0.12500300  1
  S  S9  1  0.62323000  0.36702000  0.37499700  1
  S  S10  1  0.62323000  0.13298000  0.62500300  1
  S  S11  1  0.87677000  0.63298000  0.87499700  1
  S  S12  1  0.12323000  0.13298000  0.87499700  1
  S  S13  1  0.37677000  0.63298000  0.62500300  1
  S  S14  1  0.37677000  0.86702000  0.37499700  1
  S  S15  1  0.12323000  0.36702000  0.12500300  1
  O  O16  1  0.67349200  0.90467000  0.04177000  1
  O  O17  1  0.82650800  0.40467000  0.45823000  1
  O  O18  1  0.82650800  0.09533000  0.54177000  1
  O  O19  1  0.67349200  0.59533000  0.95823000  1
  O  O20  1  0.32650800  0.09533000  0.95823000  1
  O  O21  1  0.17349200  0.59533000  0.54177000  1
  O  O22  1  0.17349200  0.90467000  0.45823000  1
  O  O23  1  0.32650800  0.40467000  0.04177000  1
  O  O24  1  0.90460200  0.98834000  0.20796600  1
  O  O25  1  0.59539800  0.48834000  0.29203400  1
  O  O26  1  0.59539800  0.01166000  0.70796600  1
  O  O27  1  0.90460200  0.51166000  0.79203400  1
  O  O28  1  0.09539800  0.01166000  0.79203400  1
  O  O29  1  0.40460200  0.51166000  0.70796600  1
  O  O30  1  0.40460200  0.98834000  0.29203400  1
  O  O31  1  0.09539800  0.48834000  0.20796600  1
  O  O32  1  0.79293600  0.74752600  0.19925800  1
  O  O33  1  0.70706400  0.24752600  0.30074200  1
  O  O34  1  0.70706400  0.25247400  0.69925800  1
  O  O35  1  0.79293600  0.75247400  0.80074200  1
  O  O36  1  0.20706400  0.25247400  0.80074200  1
  O  O37  1  0.29293600  0.75247400  0.69925800  1
  O  O38  1  0.29293600  0.74752600  0.30074200  1
  O  O39  1  0.20706400  0.24752600  0.19925800  1
  O  O40  1  0.18857300  0.75000000  0.00000000  1
  O  O41  1  0.31142700  0.25000000  0.50000000  1
  O  O42  1  0.81142700  0.25000000  0.00000000  1
  O  O43  1  0.68857300  0.75000000  0.50000000  1
