# generated using pymatgen
data_Ho2B3O8
_symmetry_space_group_name_H-M   'P 1'
_cell_length_a   4.36236100
_cell_length_b   8.89492800
_cell_length_c   12.89263200
_cell_angle_alpha   90.00000000
_cell_angle_beta   90.00000000
_cell_angle_gamma   90.00000000
_symmetry_Int_Tables_number   1
_chemical_formula_structural   Ho2B3O8
_chemical_formula_sum   'Ho8 B12 O32'
_cell_volume   500.27134269
_cell_formula_units_Z   4
loop_
 _symmetry_equiv_pos_site_id
 _symmetry_equiv_pos_as_xyz
  1  'x, y, z'
loop_
 _atom_site_type_symbol
 _atom_site_label
 _atom_site_symmetry_multiplicity
 _atom_site_fract_x
 _atom_site_fract_y
 _atom_site_fract_z
 _atom_site_occupancy
  Ho  Ho0  1  0.95036100  0.03788500  0.13897800  1
  Ho  Ho1  1  0.54963900  0.53788500  0.36102200  1
  Ho  Ho2  1  0.54963900  0.96211500  0.63897800  1
  Ho  Ho3  1  0.95036100  0.46211500  0.86102200  1
  Ho  Ho4  1  0.04963900  0.96211500  0.86102200  1
  Ho  Ho5  1  0.45036100  0.46211500  0.63897800  1
  Ho  Ho6  1  0.45036100  0.03788500  0.36102200  1
  Ho  Ho7  1  0.04963900  0.53788500  0.13897800  1
  B  B8  1  0.56257500  0.75000000  0.00000000  1
  B  B9  1  0.93742500  0.25000000  0.50000000  1
  B  B10  1  0.43742500  0.25000000  0.00000000  1
  B  B11  1  0.06257500  0.75000000  0.50000000  1
  B  B12  1  0.97865700  0.80333700  0.30681900  1
  B  B13  1  0.52134300  0.30333700  0.19318100  1
  B  B14  1  0.52134300  0.19666300  0.80681900  1
  B  B15  1  0.97865700  0.69666300  0.69318100  1
  B  B16  1  0.02134300  0.19666300  0.69318100  1
  B  B17  1  0.47865700  0.69666300  0.80681900  1
  B  B18  1  0.47865700  0.80333700  0.19318100  1
  B  B19  1  0.02134300  0.30333700  0.30681900  1
  O  O20  1  0.96299100  0.96504400  0.31126100  1
  O  O21  1  0.53700900  0.46504400  0.18873900  1
  O  O22  1  0.53700900  0.03495600  0.81126100  1
  O  O23  1  0.96299100  0.53495600  0.68873900  1
  O  O24  1  0.03700900  0.03495600  0.68873900  1
  O  O25  1  0.46299100  0.53495600  0.81126100  1
  O  O26  1  0.46299100  0.96504400  0.18873900  1
  O  O27  1  0.03700900  0.46504400  0.31126100  1
  O  O28  1  0.79573100  0.74681100  0.21565600  1
  O  O29  1  0.70426900  0.24681100  0.28434400  1
  O  O30  1  0.70426900  0.25318900  0.71565600  1
  O  O31  1  0.79573100  0.75318900  0.78434400  1
  O  O32  1  0.20426900  0.25318900  0.78434400  1
  O  O33  1  0.29573100  0.75318900  0.71565600  1
  O  O34  1  0.29573100  0.74681100  0.28434400  1
  O  O35  1  0.20426900  0.24681100  0.21565600  1
  O  O36  1  0.36328800  0.76001200  0.90602700  1
  O  O37  1  0.13671200  0.26001200  0.59397300  1
  O  O38  1  0.13671200  0.23998800  0.40602700  1
  O  O39  1  0.36328800  0.73998800  0.09397300  1
  O  O40  1  0.63671200  0.23998800  0.09397300  1
  O  O41  1  0.86328800  0.73998800  0.40602700  1
  O  O42  1  0.86328800  0.76001200  0.59397300  1
  O  O43  1  0.63671200  0.26001200  0.90602700  1
  O  O44  1  0.77766500  0.62211900  0.99563300  1
  O  O45  1  0.72233500  0.12211900  0.50436700  1
  O  O46  1  0.72233500  0.37788100  0.49563300  1
  O  O47  1  0.77766500  0.87788100  0.00436700  1
  O  O48  1  0.22233500  0.37788100  0.00436700  1
  O  O49  1  0.27766500  0.87788100  0.49563300  1
  O  O50  1  0.27766500  0.62211900  0.50436700  1
  O  O51  1  0.22233500  0.12211900  0.99563300  1
