# generated using pymatgen
data_Al2Mo3
_symmetry_space_group_name_H-M   'P 1'
_cell_length_a   8.99801100
_cell_length_b   7.62817500
_cell_length_c   9.80408772
_cell_angle_alpha   72.06102422
_cell_angle_beta   90.00000000
_cell_angle_gamma   90.00000000
_symmetry_Int_Tables_number   1
_chemical_formula_structural   Al2Mo3
_chemical_formula_sum   'Al16 Mo24'
_cell_volume   640.22216026
_cell_formula_units_Z   8
loop_
 _symmetry_equiv_pos_site_id
 _symmetry_equiv_pos_as_xyz
  1  'x, y, z'
loop_
 _atom_site_type_symbol
 _atom_site_label
 _atom_site_symmetry_multiplicity
 _atom_site_fract_x
 _atom_site_fract_y
 _atom_site_fract_z
 _atom_site_occupancy
  Al  Al0  1  0.46401000  0.58156000  0.32344900  1
  Al  Al1  1  0.96401000  0.91844000  0.67655100  1
  Al  Al2  1  0.53599000  0.41844000  0.67655100  1
  Al  Al3  1  0.03599000  0.08156000  0.32344900  1
  Al  Al4  1  0.87882000  0.96838200  0.92922500  1
  Al  Al5  1  0.37882000  0.53161800  0.07077500  1
  Al  Al6  1  0.12118000  0.03161800  0.07077500  1
  Al  Al7  1  0.62118000  0.46838200  0.92922500  1
  Al  Al8  1  0.90159900  0.43419300  0.24865300  1
  Al  Al9  1  0.40159900  0.06580700  0.75134700  1
  Al  Al10  1  0.09840100  0.56580700  0.75134700  1
  Al  Al11  1  0.59840100  0.93419300  0.24865300  1
  Al  Al12  1  0.48995300  0.20129400  0.47633900  1
  Al  Al13  1  0.98995300  0.29870600  0.52366100  1
  Al  Al14  1  0.51004700  0.79870600  0.52366100  1
  Al  Al15  1  0.01004700  0.70129400  0.47633900  1
  Mo  Mo16  1  0.76453500  0.01798600  0.44792600  1
  Mo  Mo17  1  0.26453500  0.48201400  0.55207400  1
  Mo  Mo18  1  0.23546500  0.98201400  0.55207400  1
  Mo  Mo19  1  0.73546500  0.51798600  0.44792600  1
  Mo  Mo20  1  0.66547700  0.68791100  0.10722500  1
  Mo  Mo21  1  0.16547700  0.81208900  0.89277500  1
  Mo  Mo22  1  0.33452300  0.31208900  0.89277500  1
  Mo  Mo23  1  0.83452300  0.18791100  0.10722500  1
  Mo  Mo24  1  0.61852200  0.31482900  0.21982600  1
  Mo  Mo25  1  0.11852200  0.18517100  0.78017400  1
  Mo  Mo26  1  0.38147800  0.68517100  0.78017400  1
  Mo  Mo27  1  0.88147800  0.81482900  0.21982600  1
  Mo  Mo28  1  0.22507100  0.34512400  0.34089800  1
  Mo  Mo29  1  0.72507100  0.15487600  0.65910200  1
  Mo  Mo30  1  0.77492900  0.65487600  0.65910200  1
  Mo  Mo31  1  0.27492900  0.84512400  0.34089800  1
  Mo  Mo32  1  0.13813900  0.66222900  0.18895400  1
  Mo  Mo33  1  0.63813900  0.83777100  0.81104600  1
  Mo  Mo34  1  0.86186100  0.33777100  0.81104600  1
  Mo  Mo35  1  0.36186100  0.16222900  0.18895400  1
  Mo  Mo36  1  0.10550100  0.38577400  0.05416100  1
  Mo  Mo37  1  0.60550100  0.11422600  0.94583900  1
  Mo  Mo38  1  0.89449900  0.61422600  0.94583900  1
  Mo  Mo39  1  0.39449900  0.88577400  0.05416100  1
