# generated using pymatgen
data_SrU2(AsO10)2
_symmetry_space_group_name_H-M   'P 1'
_cell_length_a   7.16828700
_cell_length_b   7.30921800
_cell_length_c   16.17562483
_cell_angle_alpha   83.26216218
_cell_angle_beta   90.00000000
_cell_angle_gamma   90.00000000
_symmetry_Int_Tables_number   1
_chemical_formula_structural   SrU2(AsO10)2
_chemical_formula_sum   'Sr2 U4 As4 O40'
_cell_volume   841.66148545
_cell_formula_units_Z   2
loop_
 _symmetry_equiv_pos_site_id
 _symmetry_equiv_pos_as_xyz
  1  'x, y, z'
loop_
 _atom_site_type_symbol
 _atom_site_label
 _atom_site_symmetry_multiplicity
 _atom_site_fract_x
 _atom_site_fract_y
 _atom_site_fract_z
 _atom_site_occupancy
  Sr  Sr0  1  0.21293300  0.00000000  0.25000000  1
  Sr  Sr1  1  0.78706700  0.00000000  0.75000000  1
  U  U2  1  0.25102300  0.72526600  0.06229000  1
  U  U3  1  0.25102300  0.27473400  0.43771000  1
  U  U4  1  0.74897700  0.27473400  0.93771000  1
  U  U5  1  0.74897700  0.72526600  0.56229000  1
  As  As6  1  0.24542200  0.23940500  0.00656900  1
  As  As7  1  0.24542200  0.76059500  0.49343100  1
  As  As8  1  0.75457800  0.76059500  0.99343100  1
  As  As9  1  0.75457800  0.23940500  0.50656900  1
  O  O10  1  0.24815700  0.74211400  0.94991900  1
  O  O11  1  0.24815700  0.25788600  0.55008100  1
  O  O12  1  0.75184300  0.25788600  0.05008100  1
  O  O13  1  0.75184300  0.74211400  0.44991900  1
  O  O14  1  0.25516400  0.71801400  0.17800000  1
  O  O15  1  0.25516400  0.28198600  0.32200000  1
  O  O16  1  0.74483600  0.28198600  0.82200000  1
  O  O17  1  0.74483600  0.71801400  0.67800000  1
  O  O18  1  0.26393200  0.03981400  0.07501800  1
  O  O19  1  0.26393200  0.96018600  0.42498200  1
  O  O20  1  0.73606800  0.96018600  0.92498200  1
  O  O21  1  0.73606800  0.03981400  0.57501800  1
  O  O22  1  0.22305900  0.41352400  0.06927300  1
  O  O23  1  0.22305900  0.58647600  0.43072700  1
  O  O24  1  0.77694100  0.58647600  0.93072700  1
  O  O25  1  0.77694100  0.41352400  0.56927300  1
  O  O26  1  0.05818700  0.22915100  0.94129300  1
  O  O27  1  0.05818700  0.77084900  0.55870700  1
  O  O28  1  0.94181300  0.77084900  0.05870700  1
  O  O29  1  0.94181300  0.22915100  0.44129300  1
  O  O30  1  0.43551500  0.27486500  0.94239500  1
  O  O31  1  0.43551500  0.72513500  0.55760500  1
  O  O32  1  0.56448500  0.72513500  0.05760500  1
  O  O33  1  0.56448500  0.27486500  0.44239500  1
  O  O34  1  0.57351000  0.90741600  0.30755700  1
  O  O35  1  0.57351000  0.09258400  0.19244300  1
  O  O36  1  0.42649000  0.09258400  0.69244300  1
  O  O37  1  0.42649000  0.90741600  0.80755700  1
  O  O38  1  0.74347800  0.07667100  0.20114300  1
  O  O39  1  0.74347800  0.92332900  0.29885700  1
  O  O40  1  0.25652200  0.92332900  0.79885700  1
  O  O41  1  0.25652200  0.07667100  0.70114300  1
  O  O42  1  0.04601900  0.32003700  0.19864700  1
  O  O43  1  0.04601900  0.67996300  0.30135300  1
  O  O44  1  0.95398100  0.67996300  0.80135300  1
  O  O45  1  0.95398100  0.32003700  0.69864700  1
  O  O46  1  0.73172300  0.43879900  0.22767800  1
  O  O47  1  0.73172300  0.56120100  0.27232200  1
  O  O48  1  0.26827700  0.56120100  0.77232200  1
  O  O49  1  0.26827700  0.43879900  0.72767800  1
