# generated using pymatgen
data_TmHSO5
_symmetry_space_group_name_H-M   'P 1'
_cell_length_a   7.95719267
_cell_length_b   8.11557053
_cell_length_c   10.89295000
_cell_angle_alpha   90.00000000
_cell_angle_beta   90.00000000
_cell_angle_gamma   94.31501009
_symmetry_Int_Tables_number   1
_chemical_formula_structural   TmHSO5
_chemical_formula_sum   'Tm8 H8 S8 O40'
_cell_volume   701.44183802
_cell_formula_units_Z   8
loop_
 _symmetry_equiv_pos_site_id
 _symmetry_equiv_pos_as_xyz
  1  'x, y, z'
loop_
 _atom_site_type_symbol
 _atom_site_label
 _atom_site_symmetry_multiplicity
 _atom_site_fract_x
 _atom_site_fract_y
 _atom_site_fract_z
 _atom_site_occupancy
  Tm  Tm0  1  0.68748100  0.40899900  0.92701300  1
  Tm  Tm1  1  0.18748100  0.90899900  0.57298700  1
  Tm  Tm2  1  0.31251900  0.59100100  0.07298700  1
  Tm  Tm3  1  0.81251900  0.09100100  0.42701300  1
  Tm  Tm4  1  0.65949100  0.87377500  0.93845600  1
  Tm  Tm5  1  0.15949100  0.37377500  0.56154400  1
  Tm  Tm6  1  0.34050900  0.12622500  0.06154400  1
  Tm  Tm7  1  0.84050900  0.62622500  0.43845600  1
  H  H8  1  0.65937700  0.63136600  0.12315300  1
  H  H9  1  0.15937700  0.13136600  0.37684700  1
  H  H10  1  0.34062300  0.36863400  0.87684700  1
  H  H11  1  0.84062300  0.86863400  0.62315300  1
  H  H12  1  0.31267200  0.85388200  0.90891800  1
  H  H13  1  0.81267200  0.35388200  0.59108200  1
  H  H14  1  0.68732800  0.14611800  0.09108200  1
  H  H15  1  0.18732800  0.64611800  0.40891800  1
  S  S16  1  0.04323400  0.63311400  0.80886700  1
  S  S17  1  0.54323400  0.13311400  0.69113300  1
  S  S18  1  0.95676600  0.36688600  0.19113300  1
  S  S19  1  0.45676600  0.86688600  0.30886700  1
  S  S20  1  0.99964000  0.13493400  0.83011400  1
  S  S21  1  0.49964000  0.63493400  0.66988600  1
  S  S22  1  0.00036000  0.86506600  0.16988600  1
  S  S23  1  0.50036000  0.36506600  0.33011400  1
  O  O24  1  0.59915800  0.63153600  0.04489300  1
  O  O25  1  0.09915800  0.13153600  0.45510700  1
  O  O26  1  0.40084200  0.36846400  0.95510700  1
  O  O27  1  0.90084200  0.86846400  0.54489300  1
  O  O28  1  0.37379900  0.85734400  0.98724000  1
  O  O29  1  0.87379900  0.35734400  0.51276000  1
  O  O30  1  0.62620100  0.14265600  0.01276000  1
  O  O31  1  0.12620100  0.64265600  0.48724000  1
  O  O32  1  0.87788500  0.64691200  0.87221000  1
  O  O33  1  0.37788500  0.14691200  0.62779000  1
  O  O34  1  0.12211500  0.35308800  0.12779000  1
  O  O35  1  0.62211500  0.85308800  0.37221000  1
  O  O36  1  0.16583700  0.57273900  0.89716400  1
  O  O37  1  0.66583700  0.07273900  0.60283600  1
  O  O38  1  0.83416300  0.42726100  0.10283600  1
  O  O39  1  0.33416300  0.92726100  0.39716400  1
  O  O40  1  0.01484400  0.51668000  0.70508900  1
  O  O41  1  0.51484400  0.01668000  0.79491100  1
  O  O42  1  0.98515600  0.48332000  0.29491100  1
  O  O43  1  0.48515600  0.98332000  0.20508900  1
  O  O44  1  0.11300000  0.79523600  0.76008800  1
  O  O45  1  0.61300000  0.29523600  0.73991200  1
  O  O46  1  0.88700000  0.20476400  0.23991200  1
  O  O47  1  0.38700000  0.70476400  0.26008800  1
  O  O48  1  0.92470700  0.28391500  0.87492500  1
  O  O49  1  0.42470700  0.78391500  0.62507500  1
  O  O50  1  0.07529300  0.71608500  0.12507500  1
  O  O51  1  0.57529300  0.21608500  0.37492500  1
  O  O52  1  0.87034100  0.99423400  0.83026400  1
  O  O53  1  0.37034100  0.49423400  0.66973600  1
  O  O54  1  0.12965900  0.00576600  0.16973600  1
  O  O55  1  0.62965900  0.50576600  0.33026400  1
  O  O56  1  0.14625400  0.10019600  0.90698500  1
  O  O57  1  0.64625400  0.60019600  0.59301500  1
  O  O58  1  0.85374600  0.89980400  0.09301500  1
  O  O59  1  0.35374600  0.39980400  0.40698500  1
  O  O60  1  0.05938700  0.15742700  0.69940700  1
  O  O61  1  0.55938700  0.65742700  0.80059300  1
  O  O62  1  0.94061300  0.84257300  0.30059300  1
  O  O63  1  0.44061300  0.34257300  0.19940700  1
