# generated using pymatgen
data_K7Na(TeO8)4
_symmetry_space_group_name_H-M   'P 1'
_cell_length_a   12.24158668
_cell_length_b   12.24158668
_cell_length_c   12.24158668
_cell_angle_alpha   147.71754023
_cell_angle_beta   98.54503286
_cell_angle_gamma   90.34308452
_symmetry_Int_Tables_number   1
_chemical_formula_structural   K7Na(TeO8)4
_chemical_formula_sum   'K7 Na1 Te4 O32'
_cell_volume   938.34658193
_cell_formula_units_Z   1
loop_
 _symmetry_equiv_pos_site_id
 _symmetry_equiv_pos_as_xyz
  1  'x, y, z'
loop_
 _atom_site_type_symbol
 _atom_site_label
 _atom_site_symmetry_multiplicity
 _atom_site_fract_x
 _atom_site_fract_y
 _atom_site_fract_z
 _atom_site_occupancy
  K  K0  1  0.29730100  0.79730100  0.50000000  1
  K  K1  1  0.70269900  0.20269900  0.50000000  1
  K  K2  1  0.12475900  0.62475900  0.50000000  1
  K  K3  1  0.87524100  0.37524100  0.50000000  1
  K  K4  1  0.26516100  0.50000000  0.76516100  1
  K  K5  1  0.73483900  0.50000000  0.23483900  1
  K  K6  1  0.50000000  0.00000000  0.50000000  1
  Na  Na7  1  0.00000000  0.00000000  0.00000000  1
  Te  Te8  1  0.30747100  0.20887900  0.09859200  1
  Te  Te9  1  0.88971300  0.79112100  0.09859200  1
  Te  Te10  1  0.11028700  0.20887900  0.90140800  1
  Te  Te11  1  0.69252900  0.79112100  0.90140800  1
  O  O12  1  0.28375300  0.28375300  0.00000000  1
  O  O13  1  0.71624700  0.71624700  0.00000000  1
  O  O14  1  0.13234700  0.13234700  0.00000000  1
  O  O15  1  0.86765300  0.86765300  0.00000000  1
  O  O16  1  0.47196500  0.29472100  0.17724400  1
  O  O17  1  0.88252300  0.70527900  0.17724400  1
  O  O18  1  0.11747700  0.29472100  0.82275600  1
  O  O19  1  0.52803500  0.70527900  0.82275600  1
  O  O20  1  0.29686300  0.12190900  0.17495400  1
  O  O21  1  0.05304400  0.87809100  0.17495400  1
  O  O22  1  0.94695600  0.12190900  0.82504600  1
  O  O23  1  0.70313700  0.87809100  0.82504600  1
  O  O24  1  0.31247200  0.93274200  0.82521900  1
  O  O25  1  0.89247700  0.06725800  0.37973100  1
  O  O26  1  0.10752300  0.48725400  0.17478100  1
  O  O27  1  0.68752800  0.51274600  0.62026900  1
  O  O28  1  0.68752800  0.06725800  0.17478100  1
  O  O29  1  0.10752300  0.93274200  0.62026900  1
  O  O30  1  0.89247700  0.51274600  0.82521900  1
  O  O31  1  0.31247200  0.48725400  0.37973100  1
  O  O32  1  0.09965000  0.59485500  0.69450500  1
  O  O33  1  0.09965000  0.40514500  0.50479500  1
  O  O34  1  0.90035000  0.40514500  0.30549500  1
  O  O35  1  0.90035000  0.59485500  0.49520500  1
  O  O36  1  0.44364700  0.99346800  0.26429400  1
  O  O37  1  0.27082600  0.00653200  0.45018000  1
  O  O38  1  0.72917400  0.17935400  0.73570600  1
  O  O39  1  0.55635300  0.82064600  0.54982000  1
  O  O40  1  0.55635300  0.00653200  0.73570600  1
  O  O41  1  0.72917400  0.99346800  0.54982000  1
  O  O42  1  0.27082600  0.82064600  0.26429400  1
  O  O43  1  0.44364700  0.17935400  0.45018000  1
