# generated using pymatgen
data_Ba3NaRu2O9
_symmetry_space_group_name_H-M   'P 1'
_cell_length_a   11.90582292
_cell_length_b   11.90582292
_cell_length_c   14.60043700
_cell_angle_alpha   90.00000000
_cell_angle_beta   90.00000000
_cell_angle_gamma   119.85710799
_symmetry_Int_Tables_number   1
_chemical_formula_structural   Ba3NaRu2O9
_chemical_formula_sum   'Ba24 Na8 Ru16 O72'
_cell_volume   1794.89420274
_cell_formula_units_Z   8
loop_
 _symmetry_equiv_pos_site_id
 _symmetry_equiv_pos_as_xyz
  1  'x, y, z'
loop_
 _atom_site_type_symbol
 _atom_site_label
 _atom_site_symmetry_multiplicity
 _atom_site_fract_x
 _atom_site_fract_y
 _atom_site_fract_z
 _atom_site_occupancy
  Ba  Ba0  1  0.99746400  0.00253600  0.75000000  1
  Ba  Ba1  1  0.00253600  0.99746400  0.25000000  1
  Ba  Ba2  1  0.50144900  0.49855100  0.25000000  1
  Ba  Ba3  1  0.49855100  0.50144900  0.75000000  1
  Ba  Ba4  1  0.50316100  0.99416100  0.25000000  1
  Ba  Ba5  1  0.99416100  0.50316100  0.75000000  1
  Ba  Ba6  1  0.49683900  0.00583900  0.75000000  1
  Ba  Ba7  1  0.00583900  0.49683900  0.25000000  1
  Ba  Ba8  1  0.33217900  0.66782100  0.41555900  1
  Ba  Ba9  1  0.66782100  0.33217900  0.58444100  1
  Ba  Ba10  1  0.33217900  0.66782100  0.08444100  1
  Ba  Ba11  1  0.66782100  0.33217900  0.91555900  1
  Ba  Ba12  1  0.83216400  0.16783600  0.41322300  1
  Ba  Ba13  1  0.16783600  0.83216400  0.58677700  1
  Ba  Ba14  1  0.83216400  0.16783600  0.08677700  1
  Ba  Ba15  1  0.16783600  0.83216400  0.91322300  1
  Ba  Ba16  1  0.83727000  0.66065900  0.40428700  1
  Ba  Ba17  1  0.66065900  0.83727000  0.59571300  1
  Ba  Ba18  1  0.83727000  0.66065900  0.09571300  1
  Ba  Ba19  1  0.66065900  0.83727000  0.90428700  1
  Ba  Ba20  1  0.16273000  0.33934100  0.59571300  1
  Ba  Ba21  1  0.33934100  0.16273000  0.40428700  1
  Ba  Ba22  1  0.16273000  0.33934100  0.90428700  1
  Ba  Ba23  1  0.33934100  0.16273000  0.09571300  1
  Na  Na24  1  0.50000000  0.00000000  0.50000000  1
  Na  Na25  1  0.00000000  0.50000000  0.50000000  1
  Na  Na26  1  0.50000000  0.00000000  0.00000000  1
  Na  Na27  1  0.00000000  0.50000000  0.00000000  1
  Na  Na28  1  0.50000000  0.50000000  0.50000000  1
  Na  Na29  1  0.50000000  0.50000000  0.00000000  1
  Na  Na30  1  0.00000000  0.00000000  0.50000000  1
  Na  Na31  1  0.00000000  0.00000000  0.00000000  1
  Ru  Ru32  1  0.16979900  0.83020100  0.33694800  1
  Ru  Ru33  1  0.83020100  0.16979900  0.66305200  1
  Ru  Ru34  1  0.16979900  0.83020100  0.16305200  1
  Ru  Ru35  1  0.83020100  0.16979900  0.83694800  1
  Ru  Ru36  1  0.66884400  0.33115600  0.33640500  1
  Ru  Ru37  1  0.33115600  0.66884400  0.66359500  1
  Ru  Ru38  1  0.66884400  0.33115600  0.16359500  1
  Ru  Ru39  1  0.33115600  0.66884400  0.83640500  1
  Ru  Ru40  1  0.67028600  0.83168500  0.34640300  1
  Ru  Ru41  1  0.83168500  0.67028600  0.65359700  1
  Ru  Ru42  1  0.67028600  0.83168500  0.15359700  1
  Ru  Ru43  1  0.83168500  0.67028600  0.84640300  1
  Ru  Ru44  1  0.32971400  0.16831500  0.65359700  1
  Ru  Ru45  1  0.16831500  0.32971400  0.34640300  1
  Ru  Ru46  1  0.32971400  0.16831500  0.84640300  1
  Ru  Ru47  1  0.16831500  0.32971400  0.15359700  1
  O  O48  1  0.32325400  0.90585300  0.40800900  1
  O  O49  1  0.90585300  0.32325400  0.59199100  1
  O  O50  1  0.32325400  0.90585300  0.09199100  1
  O  O51  1  0.90585300  0.32325400  0.90800900  1
  O  O52  1  0.67674600  0.09414700  0.59199100  1
  O  O53  1  0.09414700  0.67674600  0.40800900  1
  O  O54  1  0.67674600  0.09414700  0.90800900  1
  O  O55  1  0.09414700  0.67674600  0.09199100  1
  O  O56  1  0.24933300  0.75066700  0.25000000  1
  O  O57  1  0.75066700  0.24933300  0.75000000  1
  O  O58  1  0.01101300  0.75075300  0.25000000  1
  O  O59  1  0.75075300  0.01101300  0.75000000  1
  O  O60  1  0.98898700  0.24924700  0.75000000  1
  O  O61  1  0.24924700  0.98898700  0.25000000  1
  O  O62  1  0.09315700  0.90684300  0.40856800  1
  O  O63  1  0.90684300  0.09315700  0.59143200  1
  O  O64  1  0.09315700  0.90684300  0.09143200  1
  O  O65  1  0.90684300  0.09315700  0.90856800  1
  O  O66  1  0.59188600  0.17616500  0.40593300  1
  O  O67  1  0.17616500  0.59188600  0.59406700  1
  O  O68  1  0.59188600  0.17616500  0.09406700  1
  O  O69  1  0.17616500  0.59188600  0.90593300  1
  O  O70  1  0.40811400  0.82383500  0.59406700  1
  O  O71  1  0.82383500  0.40811400  0.40593300  1
  O  O72  1  0.40811400  0.82383500  0.90593300  1
  O  O73  1  0.82383500  0.40811400  0.09406700  1
  O  O74  1  0.74796400  0.25203600  0.25000000  1
  O  O75  1  0.25203600  0.74796400  0.75000000  1
  O  O76  1  0.59303500  0.40696500  0.41039900  1
  O  O77  1  0.40696500  0.59303500  0.58960100  1
  O  O78  1  0.59303500  0.40696500  0.08960100  1
  O  O79  1  0.40696500  0.59303500  0.91039900  1
  O  O80  1  0.50930000  0.25451100  0.25000000  1
  O  O81  1  0.25451100  0.50930000  0.75000000  1
  O  O82  1  0.49070000  0.74548900  0.75000000  1
  O  O83  1  0.74548900  0.49070000  0.25000000  1
  O  O84  1  0.58839000  0.90394600  0.41459000  1
  O  O85  1  0.90394600  0.58839000  0.58541000  1
  O  O86  1  0.58839000  0.90394600  0.08541000  1
  O  O87  1  0.90394600  0.58839000  0.91459000  1
  O  O88  1  0.41161000  0.09605400  0.58541000  1
  O  O89  1  0.09605400  0.41161000  0.41459000  1
  O  O90  1  0.41161000  0.09605400  0.91459000  1
  O  O91  1  0.09605400  0.41161000  0.08541000  1
  O  O92  1  0.73561600  0.97842000  0.25000000  1
  O  O93  1  0.97842000  0.73561600  0.75000000  1
  O  O94  1  0.26438400  0.02158000  0.75000000  1
  O  O95  1  0.02158000  0.26438400  0.25000000  1
  O  O96  1  0.52413300  0.75573800  0.25000000  1
  O  O97  1  0.75573800  0.52413300  0.75000000  1
  O  O98  1  0.47586700  0.24426200  0.75000000  1
  O  O99  1  0.24426200  0.47586700  0.25000000  1
  O  O100  1  0.59583700  0.67450400  0.40837700  1
  O  O101  1  0.67450400  0.59583700  0.59162300  1
  O  O102  1  0.59583700  0.67450400  0.09162300  1
  O  O103  1  0.67450400  0.59583700  0.90837700  1
  O  O104  1  0.40416300  0.32549600  0.59162300  1
  O  O105  1  0.32549600  0.40416300  0.40837700  1
  O  O106  1  0.40416300  0.32549600  0.90837700  1
  O  O107  1  0.32549600  0.40416300  0.09162300  1
  O  O108  1  0.82699300  0.91544900  0.40828100  1
  O  O109  1  0.91544900  0.82699300  0.59171900  1
  O  O110  1  0.82699300  0.91544900  0.09171900  1
  O  O111  1  0.91544900  0.82699300  0.90828100  1
  O  O112  1  0.17300700  0.08455100  0.59171900  1
  O  O113  1  0.08455100  0.17300700  0.40828100  1
  O  O114  1  0.17300700  0.08455100  0.90828100  1
  O  O115  1  0.08455100  0.17300700  0.09171900  1
  O  O116  1  0.74960300  0.76339300  0.25000000  1
  O  O117  1  0.76339300  0.74960300  0.75000000  1
  O  O118  1  0.25039700  0.23660700  0.75000000  1
  O  O119  1  0.23660700  0.25039700  0.25000000  1
