# generated using pymatgen
data_SbCN2OF3
_symmetry_space_group_name_H-M   'P 1'
_cell_length_a   8.31181600
_cell_length_b   9.66038800
_cell_length_c   7.52637300
_cell_angle_alpha   90.00000000
_cell_angle_beta   90.00000000
_cell_angle_gamma   90.00000000
_symmetry_Int_Tables_number   1
_chemical_formula_structural   SbCN2OF3
_chemical_formula_sum   'Sb4 C4 N8 O4 F12'
_cell_volume   604.33288631
_cell_formula_units_Z   4
loop_
 _symmetry_equiv_pos_site_id
 _symmetry_equiv_pos_as_xyz
  1  'x, y, z'
loop_
 _atom_site_type_symbol
 _atom_site_label
 _atom_site_symmetry_multiplicity
 _atom_site_fract_x
 _atom_site_fract_y
 _atom_site_fract_z
 _atom_site_occupancy
  Sb  Sb0  1  0.90608700  0.89216400  0.51308400  1
  Sb  Sb1  1  0.09391300  0.10783600  0.01308400  1
  Sb  Sb2  1  0.59391300  0.89216400  0.01308400  1
  Sb  Sb3  1  0.40608700  0.10783600  0.51308400  1
  C  C4  1  0.04530400  0.71505800  0.12850500  1
  C  C5  1  0.95469600  0.28494200  0.62850500  1
  C  C6  1  0.45469600  0.71505800  0.62850500  1
  C  C7  1  0.54530400  0.28494200  0.12850500  1
  N  N8  1  0.63059100  0.40311400  0.17078500  1
  N  N9  1  0.36940900  0.59688600  0.67078600  1
  N  N10  1  0.86940900  0.40311400  0.67078600  1
  N  N11  1  0.13059100  0.59688600  0.17078500  1
  N  N12  1  0.54776200  0.40013200  0.01994900  1
  N  N13  1  0.45223800  0.59986800  0.51994900  1
  N  N14  1  0.95223800  0.40013200  0.51994900  1
  N  N15  1  0.04776200  0.59986800  0.01994900  1
  O  O16  1  0.99948800  0.16884400  0.66290500  1
  O  O17  1  0.00051200  0.83115600  0.16290500  1
  O  O18  1  0.50051200  0.16884400  0.16290500  1
  O  O19  1  0.49948800  0.83115600  0.66290500  1
  F  F20  1  0.13228200  0.30426600  0.98315100  1
  F  F21  1  0.86771800  0.69573400  0.48315100  1
  F  F22  1  0.36771800  0.30426600  0.48315100  1
  F  F23  1  0.63228200  0.69573400  0.98315100  1
  F  F24  1  0.85577900  0.87826200  0.76931000  1
  F  F25  1  0.14422100  0.12173800  0.26931000  1
  F  F26  1  0.64422100  0.87826200  0.26931000  1
  F  F27  1  0.35577900  0.12173800  0.76931000  1
  F  F28  1  0.63254400  0.14307400  0.56931100  1
  F  F29  1  0.36745600  0.85692600  0.06931100  1
  F  F30  1  0.86745600  0.14307400  0.06931100  1
  F  F31  1  0.13254400  0.85692600  0.56931100  1
