# generated using pymatgen
data_RuSN4(ClO)2
_symmetry_space_group_name_H-M   'P 1'
_cell_length_a   5.08953000
_cell_length_b   14.00431500
_cell_length_c   16.46794300
_cell_angle_alpha   90.00000000
_cell_angle_beta   90.00000000
_cell_angle_gamma   90.00000000
_symmetry_Int_Tables_number   1
_chemical_formula_structural   RuSN4(ClO)2
_chemical_formula_sum   'Ru4 S4 N16 Cl8 O8'
_cell_volume   1173.75891691
_cell_formula_units_Z   4
loop_
 _symmetry_equiv_pos_site_id
 _symmetry_equiv_pos_as_xyz
  1  'x, y, z'
loop_
 _atom_site_type_symbol
 _atom_site_label
 _atom_site_symmetry_multiplicity
 _atom_site_fract_x
 _atom_site_fract_y
 _atom_site_fract_z
 _atom_site_occupancy
  Ru  Ru0  1  0.25000000  0.18415000  0.09752500  1
  Ru  Ru1  1  0.25000000  0.31585000  0.59752500  1
  Ru  Ru2  1  0.75000000  0.81585000  0.90247500  1
  Ru  Ru3  1  0.75000000  0.68415000  0.40247500  1
  S  S4  1  0.25000000  0.47597700  0.18650900  1
  S  S5  1  0.25000000  0.02402300  0.68650900  1
  S  S6  1  0.75000000  0.52402300  0.81349100  1
  S  S7  1  0.75000000  0.97597700  0.31349100  1
  N  N8  1  0.47249100  0.29832900  0.04562800  1
  N  N9  1  0.02750900  0.20167100  0.54562800  1
  N  N10  1  0.97249100  0.70167100  0.95437200  1
  N  N11  1  0.52750900  0.79832900  0.45437200  1
  N  N12  1  0.52750900  0.70167100  0.95437200  1
  N  N13  1  0.97249100  0.79832900  0.45437200  1
  N  N14  1  0.02750900  0.29832900  0.04562800  1
  N  N15  1  0.47249100  0.20167100  0.54562800  1
  N  N16  1  0.51974700  0.16039600  0.15711000  1
  N  N17  1  0.98025300  0.33960400  0.65711000  1
  N  N18  1  0.01974700  0.83960400  0.84289000  1
  N  N19  1  0.48025300  0.66039600  0.34289000  1
  N  N20  1  0.48025300  0.83960400  0.84289000  1
  N  N21  1  0.01974700  0.66039600  0.34289000  1
  N  N22  1  0.98025300  0.16039600  0.15711000  1
  N  N23  1  0.51974700  0.33960400  0.65711000  1
  Cl  Cl24  1  0.25000000  0.08157000  0.99189700  1
  Cl  Cl25  1  0.25000000  0.41843000  0.49189700  1
  Cl  Cl26  1  0.75000000  0.91843000  0.00810300  1
  Cl  Cl27  1  0.75000000  0.58157000  0.50810300  1
  Cl  Cl28  1  0.75000000  0.33554700  0.02956000  1
  Cl  Cl29  1  0.75000000  0.16445300  0.52956000  1
  Cl  Cl30  1  0.25000000  0.66445300  0.97044000  1
  Cl  Cl31  1  0.25000000  0.83554700  0.47044000  1
  O  O32  1  0.25000000  0.45361200  0.27230600  1
  O  O33  1  0.25000000  0.04638800  0.77230600  1
  O  O34  1  0.75000000  0.54638800  0.72769400  1
  O  O35  1  0.75000000  0.95361200  0.22769400  1
  O  O36  1  0.25000000  0.57469800  0.16031300  1
  O  O37  1  0.25000000  0.92530200  0.66031300  1
  O  O38  1  0.75000000  0.42530200  0.83968700  1
  O  O39  1  0.75000000  0.07469800  0.33968700  1
