# generated using pymatgen
data_BrN3
_symmetry_space_group_name_H-M   'P 1'
_cell_length_a   10.76274360
_cell_length_b   10.76274360
_cell_length_c   10.76274360
_cell_angle_alpha   98.31809484
_cell_angle_beta   98.31809484
_cell_angle_gamma   135.28885183
_symmetry_Int_Tables_number   1
_chemical_formula_structural   BrN3
_chemical_formula_sum   'Br8 N24'
_cell_volume   811.18634771
_cell_formula_units_Z   8
loop_
 _symmetry_equiv_pos_site_id
 _symmetry_equiv_pos_as_xyz
  1  'x, y, z'
loop_
 _atom_site_type_symbol
 _atom_site_label
 _atom_site_symmetry_multiplicity
 _atom_site_fract_x
 _atom_site_fract_y
 _atom_site_fract_z
 _atom_site_occupancy
  Br  Br0  1  0.45104200  0.45217000  0.76861000  1
  Br  Br1  1  0.95104200  0.18243200  0.99887300  1
  Br  Br2  1  0.93243200  0.20104200  0.49887300  1
  Br  Br3  1  0.20217000  0.70104200  0.26861000  1
  Br  Br4  1  0.68355900  0.68243200  0.23139000  1
  Br  Br5  1  0.18355900  0.95217000  0.00112700  1
  Br  Br6  1  0.70217000  0.43355900  0.50112700  1
  Br  Br7  1  0.43243200  0.93355900  0.73139000  1
  N  N8  1  0.64423800  0.46986900  0.79266000  1
  N  N9  1  0.14423800  0.35157800  0.17436800  1
  N  N10  1  0.10157800  0.39423800  0.67436800  1
  N  N11  1  0.21986900  0.89423800  0.29266000  1
  N  N12  1  0.67721000  0.85157800  0.20734000  1
  N  N13  1  0.17721000  0.96986900  0.82563200  1
  N  N14  1  0.71986900  0.42721000  0.32563200  1
  N  N15  1  0.60157800  0.92721000  0.70734000  1
  N  N16  1  0.66882200  0.43926700  0.89521300  1
  N  N17  1  0.16882200  0.27360900  0.22955500  1
  N  N18  1  0.02360900  0.41882200  0.72955500  1
  N  N19  1  0.18926700  0.91882200  0.39521300  1
  N  N20  1  0.54405400  0.77360900  0.10478700  1
  N  N21  1  0.04405400  0.93926700  0.77044500  1
  N  N22  1  0.68926700  0.29405400  0.27044500  1
  N  N23  1  0.52360900  0.79405400  0.60478700  1
  N  N24  1  0.70628700  0.41418600  0.98679900  1
  N  N25  1  0.20628700  0.21948800  0.29210100  1
  N  N26  1  0.96948800  0.45628700  0.79210100  1
  N  N27  1  0.16418600  0.95628700  0.48679900  1
  N  N28  1  0.42738700  0.71948800  0.01320100  1
  N  N29  1  0.92738700  0.91418600  0.70789900  1
  N  N30  1  0.66418600  0.17738700  0.20789900  1
  N  N31  1  0.46948800  0.67738700  0.51320100  1
