# generated using pymatgen
data_SrH10Pb2Br6O5
_symmetry_space_group_name_H-M   'P 1'
_cell_length_a   9.97173525
_cell_length_b   9.97173525
_cell_length_c   9.43756029
_cell_angle_alpha   71.05477302
_cell_angle_beta   71.05477302
_cell_angle_gamma   77.66357695
_symmetry_Int_Tables_number   1
_chemical_formula_structural   SrH10Pb2Br6O5
_chemical_formula_sum   'Sr2 H20 Pb4 Br12 O10'
_cell_volume   833.34364008
_cell_formula_units_Z   2
loop_
 _symmetry_equiv_pos_site_id
 _symmetry_equiv_pos_as_xyz
  1  'x, y, z'
loop_
 _atom_site_type_symbol
 _atom_site_label
 _atom_site_symmetry_multiplicity
 _atom_site_fract_x
 _atom_site_fract_y
 _atom_site_fract_z
 _atom_site_occupancy
  Sr  Sr0  1  0.97946200  0.02053800  0.25000000  1
  Sr  Sr1  1  0.02053800  0.97946200  0.75000000  1
  H  H2  1  0.09092900  0.33367400  0.09427700  1
  H  H3  1  0.66632600  0.90907100  0.40572300  1
  H  H4  1  0.90907100  0.66632600  0.90572300  1
  H  H5  1  0.33367400  0.09092900  0.59427700  1
  H  H6  1  0.06074400  0.29833900  0.27608300  1
  H  H7  1  0.70166100  0.93925600  0.22391700  1
  H  H8  1  0.93925600  0.70166100  0.72391700  1
  H  H9  1  0.29833900  0.06074400  0.77608300  1
  H  H10  1  0.22596700  0.89574200  0.43338800  1
  H  H11  1  0.10425800  0.77403300  0.06661200  1
  H  H12  1  0.77403300  0.10425800  0.56661200  1
  H  H13  1  0.89574200  0.22596700  0.93338800  1
  H  H14  1  0.22735600  0.05903100  0.38236900  1
  H  H15  1  0.94096900  0.77264400  0.11763100  1
  H  H16  1  0.77264400  0.94096900  0.61763100  1
  H  H17  1  0.05903100  0.22735600  0.88236900  1
  H  H18  1  0.78502700  0.32434300  0.22661400  1
  H  H19  1  0.67565700  0.21497300  0.27338600  1
  H  H20  1  0.21497300  0.67565700  0.77338600  1
  H  H21  1  0.32434300  0.78502700  0.72661400  1
  Pb  Pb22  1  0.45128900  0.26626800  0.96724400  1
  Pb  Pb23  1  0.73373200  0.54871100  0.53275600  1
  Pb  Pb24  1  0.54871100  0.73373200  0.03275600  1
  Pb  Pb25  1  0.26626800  0.45128900  0.46724400  1
  Br  Br26  1  0.43277000  0.18375300  0.31863700  1
  Br  Br27  1  0.81624700  0.56723000  0.18136300  1
  Br  Br28  1  0.56723000  0.81624700  0.68136300  1
  Br  Br29  1  0.18375300  0.43277000  0.81863700  1
  Br  Br30  1  0.69621800  0.43561800  0.88806400  1
  Br  Br31  1  0.56438200  0.30378200  0.61193600  1
  Br  Br32  1  0.30378200  0.56438200  0.11193600  1
  Br  Br33  1  0.43561800  0.69621800  0.38806400  1
  Br  Br34  1  0.68764100  0.01538800  0.96938100  1
  Br  Br35  1  0.98461200  0.31235900  0.53061900  1
  Br  Br36  1  0.31235900  0.98461200  0.03061900  1
  Br  Br37  1  0.01538800  0.68764100  0.46938100  1
  O  O38  1  0.09065800  0.25423800  0.18904500  1
  O  O39  1  0.74576200  0.90934200  0.31095500  1
  O  O40  1  0.90934200  0.74576200  0.81095500  1
  O  O41  1  0.25423800  0.09065800  0.68904500  1
  O  O42  1  0.16070600  0.98569000  0.43269000  1
  O  O43  1  0.01431000  0.83929400  0.06731000  1
  O  O44  1  0.83929400  0.01431000  0.56731000  1
  O  O45  1  0.98569000  0.16070600  0.93269000  1
  O  O46  1  0.77783700  0.22216300  0.25000000  1
  O  O47  1  0.22216300  0.77783700  0.75000000  1
