# generated using pymatgen
data_K2Al2Si3O10
_symmetry_space_group_name_H-M   'P 1'
_cell_length_a   12.68126007
_cell_length_b   9.85403590
_cell_length_c   9.26554718
_cell_angle_alpha   83.03668492
_cell_angle_beta   50.47287593
_cell_angle_gamma   46.49043916
_symmetry_Int_Tables_number   1
_chemical_formula_structural   K2Al2Si3O10
_chemical_formula_sum   'K4 Al4 Si6 O20'
_cell_volume   533.72026738
_cell_formula_units_Z   2
loop_
 _symmetry_equiv_pos_site_id
 _symmetry_equiv_pos_as_xyz
  1  'x, y, z'
loop_
 _atom_site_type_symbol
 _atom_site_label
 _atom_site_symmetry_multiplicity
 _atom_site_fract_x
 _atom_site_fract_y
 _atom_site_fract_z
 _atom_site_occupancy
  K  K0  1  0.96750600  0.15763300  0.61481000  1
  K  K1  1  0.26005200  0.61481000  0.15763300  1
  K  K2  1  0.63519000  0.98994800  0.28249400  1
  K  K3  1  0.09236700  0.28249400  0.98994800  1
  Al  Al4  1  0.57384900  0.73052600  0.99657500  1
  Al  Al5  1  0.69905000  0.99657500  0.73052600  1
  Al  Al6  1  0.25342500  0.55095000  0.67615100  1
  Al  Al7  1  0.51947400  0.67615100  0.55095000  1
  Si  Si8  1  0.25518900  0.24481100  0.24481100  1
  Si  Si9  1  0.00518900  0.99481100  0.99481100  1
  Si  Si10  1  0.55179700  0.50483100  0.23679400  1
  Si  Si11  1  0.70657900  0.23679400  0.50483100  1
  Si  Si12  1  0.01320600  0.54342100  0.69820300  1
  Si  Si13  1  0.74516900  0.69820300  0.54342100  1
  O  O14  1  0.34380300  0.01765900  0.21305500  1
  O  O15  1  0.42548300  0.21305500  0.01765900  1
  O  O16  1  0.03694500  0.82451700  0.90619700  1
  O  O17  1  0.23234100  0.90619700  0.82451700  1
  O  O18  1  0.50773600  0.60857900  0.10239000  1
  O  O19  1  0.78129500  0.10239000  0.60857900  1
  O  O20  1  0.14761000  0.46870500  0.74226400  1
  O  O21  1  0.64142100  0.74226400  0.46870500  1
  O  O22  1  0.83586500  0.55937300  0.87581500  1
  O  O23  1  0.72894600  0.87581500  0.55937300  1
  O  O24  1  0.37418500  0.52105400  0.41413500  1
  O  O25  1  0.69062700  0.41413500  0.52105400  1
  O  O26  1  0.52997300  0.64016700  0.36004200  1
  O  O27  1  0.46981800  0.36004200  0.64016700  1
  O  O28  1  0.88995800  0.78018200  0.72002700  1
  O  O29  1  0.60983300  0.72002700  0.78018200  1
  O  O30  1  0.81663300  0.23427000  0.03597100  1
  O  O31  1  0.91312700  0.03597100  0.23427000  1
  O  O32  1  0.21402900  0.33687300  0.43336700  1
  O  O33  1  0.01573000  0.43336700  0.33687300  1
