# generated using pymatgen
data_K2Mg(SeO7)2
_symmetry_space_group_name_H-M   'P 1'
_cell_length_a   6.10915940
_cell_length_b   8.52934393
_cell_length_c   12.04948100
_cell_angle_alpha   90.00000000
_cell_angle_beta   90.00000000
_cell_angle_gamma   102.94291197
_symmetry_Int_Tables_number   1
_chemical_formula_structural   K2Mg(SeO7)2
_chemical_formula_sum   'K4 Mg2 Se4 O28'
_cell_volume   611.91208663
_cell_formula_units_Z   2
loop_
 _symmetry_equiv_pos_site_id
 _symmetry_equiv_pos_as_xyz
  1  'x, y, z'
loop_
 _atom_site_type_symbol
 _atom_site_label
 _atom_site_symmetry_multiplicity
 _atom_site_fract_x
 _atom_site_fract_y
 _atom_site_fract_z
 _atom_site_occupancy
  K  K0  1  0.84000900  0.13979700  0.65801500  1
  K  K1  1  0.15999100  0.36020300  0.15801500  1
  K  K2  1  0.15999100  0.86020300  0.34198500  1
  K  K3  1  0.84000900  0.63979700  0.84198500  1
  Mg  Mg4  1  0.50000000  0.50000000  0.50000000  1
  Mg  Mg5  1  0.50000000  0.00000000  0.00000000  1
  Se  Se6  1  0.24975000  0.90663100  0.64981400  1
  Se  Se7  1  0.75025000  0.59336900  0.14981400  1
  Se  Se8  1  0.75025000  0.09336900  0.35018600  1
  Se  Se9  1  0.24975000  0.40663100  0.85018600  1
  O  O10  1  0.49683700  0.86605200  0.69174000  1
  O  O11  1  0.50316300  0.63394800  0.19174000  1
  O  O12  1  0.50316300  0.13394800  0.30826000  1
  O  O13  1  0.49683700  0.36605200  0.80826000  1
  O  O14  1  0.10866300  0.75694800  0.56458000  1
  O  O15  1  0.89133700  0.74305200  0.06458000  1
  O  O16  1  0.89133700  0.24305200  0.43542000  1
  O  O17  1  0.10866300  0.25694800  0.93542000  1
  O  O18  1  0.08347000  0.92364300  0.75629600  1
  O  O19  1  0.91653000  0.57635700  0.25629600  1
  O  O20  1  0.91653000  0.07635700  0.24370400  1
  O  O21  1  0.08347000  0.42364300  0.74370400  1
  O  O22  1  0.29296900  0.06999300  0.56869700  1
  O  O23  1  0.70703100  0.43000700  0.06869700  1
  O  O24  1  0.70703100  0.93000700  0.43130300  1
  O  O25  1  0.29296900  0.56999300  0.93130300  1
  O  O26  1  0.33169300  0.36274500  0.37567000  1
  O  O27  1  0.66830700  0.13725500  0.87567000  1
  O  O28  1  0.66830700  0.63725500  0.62433000  1
  O  O29  1  0.33169300  0.86274500  0.12433000  1
  O  O30  1  0.55175100  0.34633300  0.62638500  1
  O  O31  1  0.44824900  0.15366700  0.12638500  1
  O  O32  1  0.44824900  0.65366700  0.37361500  1
  O  O33  1  0.55175100  0.84633300  0.87361500  1
  O  O34  1  0.15566200  0.51925100  0.53674200  1
  O  O35  1  0.84433800  0.98074900  0.03674200  1
  O  O36  1  0.84433800  0.48074900  0.46325800  1
  O  O37  1  0.15566200  0.01925100  0.96325800  1
