# generated using pymatgen
data_Sr25Ti39O103
_symmetry_space_group_name_H-M   'P 1'
_cell_length_a   5.64070520
_cell_length_b   19.60359436
_cell_length_c   30.06631399
_cell_angle_alpha   90.00000000
_cell_angle_beta   90.50552208
_cell_angle_gamma   90.00000000
_symmetry_Int_Tables_number   1
_chemical_formula_structural   Sr25Ti39O103
_chemical_formula_sum   'Sr25 Ti39 O103'
_cell_volume   3324.54636690
_cell_formula_units_Z   1
loop_
 _symmetry_equiv_pos_site_id
 _symmetry_equiv_pos_as_xyz
  1  'x, y, z'
loop_
 _atom_site_type_symbol
 _atom_site_label
 _atom_site_symmetry_multiplicity
 _atom_site_fract_x
 _atom_site_fract_y
 _atom_site_fract_z
 _atom_site_occupancy
  Sr  Sr0  1  0.50505493  -0.00000000  0.18997183  1
  Sr  Sr1  1  0.49494507  -0.00000000  0.81002817  1
  Sr  Sr2  1  0.50958240  0.79536379  0.18874152  1
  Sr  Sr3  1  0.50958240  0.20463621  0.18874152  1
  Sr  Sr4  1  0.49041760  0.20463621  0.81125848  1
  Sr  Sr5  1  0.49041760  0.79536379  0.81125848  1
  Sr  Sr6  1  0.49330937  0.59738044  0.19432798  1
  Sr  Sr7  1  0.49330937  0.40261956  0.19432798  1
  Sr  Sr8  1  0.50669063  0.40261956  0.80567202  1
  Sr  Sr9  1  0.50669063  0.59738044  0.80567202  1
  Sr  Sr10  1  0.00091458  -0.00000000  0.09446045  1
  Sr  Sr11  1  0.99908542  -0.00000000  0.90553955  1
  Sr  Sr12  1  0.00228059  0.80338862  0.09182988  1
  Sr  Sr13  1  0.00228059  0.19661138  0.09182988  1
  Sr  Sr14  1  0.99771941  0.19661138  0.90817012  1
  Sr  Sr15  1  0.99771941  0.80338862  0.90817012  1
  Sr  Sr16  1  -0.00013746  0.60090837  0.08922318  1
  Sr  Sr17  1  -0.00013746  0.39909163  0.08922318  1
  Sr  Sr18  1  0.00013746  0.39909163  0.91077682  1
  Sr  Sr19  1  0.00013746  0.60090837  0.91077682  1
  Sr  Sr20  1  0.50000000  -0.00000000  -0.00000000  1
  Sr  Sr21  1  0.50000000  0.80260308  -0.00000000  1
  Sr  Sr22  1  0.50000000  0.19739692  -0.00000000  1
  Sr  Sr23  1  0.50000000  0.60069794  -0.00000000  1
  Sr  Sr24  1  0.50000000  0.39930206  -0.00000000  1
  Ti  Ti25  1  0.34594464  0.91240573  0.28873605  1
  Ti  Ti26  1  0.34594464  0.08759427  0.28873605  1
  Ti  Ti27  1  0.65405536  0.08759427  0.71126395  1
  Ti  Ti28  1  0.65405536  0.91240573  0.71126395  1
  Ti  Ti29  1  0.84691152  0.84420113  0.29506643  1
  Ti  Ti30  1  0.84691152  0.15579887  0.29506643  1
  Ti  Ti31  1  0.15308848  0.15579887  0.70493357  1
  Ti  Ti32  1  0.15308848  0.84420113  0.70493357  1
  Ti  Ti33  1  0.97657903  0.67681629  0.27213304  1
  Ti  Ti34  1  0.97657903  0.32318371  0.27213304  1
  Ti  Ti35  1  0.02342097  0.32318371  0.72786696  1
  Ti  Ti36  1  0.02342097  0.67681629  0.72786696  1
  Ti  Ti37  1  0.98308587  0.50000000  0.27140553  1
  Ti  Ti38  1  0.01691413  0.50000000  0.72859447  1
  Ti  Ti39  1  0.00478679  0.89812118  0.18718882  1
  Ti  Ti40  1  0.00478679  0.10187882  0.18718882  1
  Ti  Ti41  1  0.99521321  0.10187882  0.81281118  1
  Ti  Ti42  1  0.99521321  0.89812118  0.81281118  1
  Ti  Ti43  1  0.01578389  0.69862063  0.17886070  1
  Ti  Ti44  1  0.01578389  0.30137937  0.17886070  1
  Ti  Ti45  1  0.98421611  0.30137937  0.82113930  1
  Ti  Ti46  1  0.98421611  0.69862063  0.82113930  1
  Ti  Ti47  1  0.01136603  0.50000000  0.17702050  1
  Ti  Ti48  1  0.98863397  0.50000000  0.82297950  1
  Ti  Ti49  1  0.49953590  0.90039896  0.09431236  1
  Ti  Ti50  1  0.49953590  0.09960104  0.09431236  1
  Ti  Ti51  1  0.50046310  0.09960104  0.90568764  1
  Ti  Ti52  1  0.50046310  0.90039896  0.90568764  1
  Ti  Ti53  1  0.50356770  0.69900766  0.09201984  1
  Ti  Ti54  1  0.50356770  0.30099234  0.09201984  1
  Ti  Ti55  1  0.49643230  0.30099234  0.90798016  1
  Ti  Ti56  1  0.49643230  0.69900766  0.90798016  1
  Ti  Ti57  1  0.50422139  0.50000000  0.09152263  1
  Ti  Ti58  1  0.49577861  0.50000000  0.90847737  1
  Ti  Ti59  1  -0.00000000  0.90093582  -0.00000000  1
  Ti  Ti60  1  -0.00000000  0.09906418  -0.00000000  1
  Ti  Ti61  1  -0.00000000  0.70232194  -0.00000000  1
  Ti  Ti62  1  -0.00000000  0.29767806  -0.00000000  1
  Ti  Ti63  1  -0.00000000  0.50000000  -0.00000000  1
  O  O64  1  0.46208607  -0.00000000  0.28269985  1
  O  O65  1  0.53791393  -0.00000000  0.71730015  1
  O  O66  1  0.06591320  0.90480553  0.31741697  1
  O  O67  1  0.06591320  0.09519447  0.31741697  1
  O  O68  1  0.93408680  0.09519447  0.68258303  1
  O  O69  1  0.93408680  0.90480553  0.68258303  1
  O  O70  1  0.55310944  0.85597420  0.31828025  1
  O  O71  1  0.55310944  0.14402580  0.31828025  1
  O  O72  1  0.44689056  0.14402580  0.68171975  1
  O  O73  1  0.44689056  0.85597420  0.68171975  1
  O  O74  1  0.94598335  0.75608329  0.30472806  1
  O  O75  1  0.94598335  0.24391671  0.30472806  1
  O  O76  1  0.05401665  0.24391671  0.69527194  1
  O  O77  1  0.05401665  0.75608329  0.69527194  1
  O  O78  1  0.96508867  0.58811948  0.29571323  1
  O  O79  1  0.96508867  0.41188052  0.29571323  1
  O  O80  1  0.03491133  0.41188052  0.70428677  1
  O  O81  1  0.03491133  0.58811948  0.70428677  1
  O  O82  1  0.28609635  0.88987595  0.23078118  1
  O  O83  1  0.28609635  0.11012405  0.23078118  1
  O  O84  1  0.71390365  0.11012405  0.76921882  1
  O  O85  1  0.71390365  0.88987595  0.76921882  1
  O  O86  1  0.79189480  0.87252525  0.23737419  1
  O  O87  1  0.79189480  0.12747475  0.23737419  1
  O  O88  1  0.20810520  0.12747475  0.76262581  1
  O  O89  1  0.20810520  0.87252525  0.76262581  1
  O  O90  1  0.22534887  0.68798657  0.23519410  1
  O  O91  1  0.22534887  0.31201343  0.23519410  1
  O  O92  1  0.77465113  0.31201343  0.76480590  1
  O  O93  1  0.77465113  0.68798657  0.76480590  1
  O  O94  1  0.76121673  0.69037735  0.22651642  1
  O  O95  1  0.76121673  0.30962265  0.22651642  1
  O  O96  1  0.23878327  0.30962265  0.77348358  1
  O  O97  1  0.23878327  0.69037735  0.77348358  1
  O  O98  1  0.23071814  0.50000000  0.23370842  1
  O  O99  1  0.76928186  0.50000000  0.76629158  1
  O  O100  1  0.76383053  0.50000000  0.22602693  1
  O  O101  1  0.23616947  0.50000000  0.77397307  1
  O  O102  1  0.99229064  -0.00000000  0.19287634  1
  O  O103  1  0.00770936  -0.00000000  0.80712366  1
  O  O104  1  0.02949885  0.79681124  0.17815418  1
  O  O105  1  0.02949885  0.20318876  0.17815418  1
  O  O106  1  0.97050115  0.20318876  0.82184582  1
  O  O107  1  0.97050115  0.79681124  0.82184582  1
  O  O108  1  0.01470679  0.59792090  0.17482540  1
  O  O109  1  0.01470679  0.40207910  0.17482540  1
  O  O110  1  0.98529321  0.40207910  0.82517460  1
  O  O111  1  0.98529321  0.59792090  0.82517460  1
  O  O112  1  0.24551253  0.90683514  0.13977506  1
  O  O113  1  0.24551253  0.09316486  0.13977506  1
  O  O114  1  0.75448747  0.09316486  0.86022494  1
  O  O115  1  0.75448747  0.90683514  0.86022494  1
  O  O116  1  0.74449957  0.90139666  0.14509913  1
  O  O117  1  0.74449957  0.09860334  0.14509913  1
  O  O118  1  0.25550043  0.09860334  0.85490087  1
  O  O119  1  0.25550043  0.90139666  0.85490087  1
  O  O120  1  0.30737891  0.69578549  0.14463078  1
  O  O121  1  0.30737891  0.30421451  0.14463078  1
  O  O122  1  0.69262109  0.30421451  0.85536922  1
  O  O123  1  0.69262109  0.69578549  0.85536922  1
  O  O124  1  0.79047024  0.70123994  0.13137534  1
  O  O125  1  0.79047024  0.29876006  0.13137534  1
  O  O126  1  0.20952976  0.29876006  0.86862466  1
  O  O127  1  0.20952976  0.70123994  0.86862466  1
  O  O128  1  0.30889620  0.50000000  0.14340380  1
  O  O129  1  0.69110380  0.50000000  0.85659620  1
  O  O130  1  0.78883552  0.50000000  0.12955384  1
  O  O131  1  0.21116448  0.50000000  0.87044616  1
  O  O132  1  0.51529141  -0.00000000  0.09279902  1
  O  O133  1  0.48470859  -0.00000000  0.90720098  1
  O  O134  1  0.49865002  0.80214263  0.09526983  1
  O  O135  1  0.49865002  0.19785737  0.09526983  1
  O  O136  1  0.50134998  0.19785737  0.90473017  1
  O  O137  1  0.50134998  0.80214263  0.90473017  1
  O  O138  1  0.50787355  0.60080391  0.08834292  1
  O  O139  1  0.50787355  0.39919609  0.08834292  1
  O  O140  1  0.49212645  0.39919609  0.91165708  1
  O  O141  1  0.49212645  0.60080391  0.91165708  1
  O  O142  1  0.25957368  0.90126788  0.04575474  1
  O  O143  1  0.25957368  0.09873212  0.04575474  1
  O  O144  1  0.74042632  0.09873212  0.95424526  1
  O  O145  1  0.74042632  0.90126788  0.95424526  1
  O  O146  1  0.76076913  0.89976620  0.04879982  1
  O  O147  1  0.76076913  0.10023380  0.04879982  1
  O  O148  1  0.23923087  0.10023380  0.95120018  1
  O  O149  1  0.23923087  0.89976620  0.95120018  1
  O  O150  1  0.22649052  0.70333320  0.05141757  1
  O  O151  1  0.22649052  0.29666680  0.05141757  1
  O  O152  1  0.77350948  0.29666680  0.94858243  1
  O  O153  1  0.77350948  0.70333320  0.94858243  1
  O  O154  1  0.72654078  0.70380308  0.04087820  1
  O  O155  1  0.72654078  0.29619692  0.04087820  1
  O  O156  1  0.27345922  0.29619692  0.95912180  1
  O  O157  1  0.27345922  0.70380308  0.95912180  1
  O  O158  1  0.22690625  0.50000000  0.05064506  1
  O  O159  1  0.77309375  0.50000000  0.94935494  1
  O  O160  1  0.73003676  0.50000000  0.04023304  1
  O  O161  1  0.26996324  0.50000000  0.95976696  1
  O  O162  1  -0.00000000  -0.00000000  -0.00000000  1
  O  O163  1  -0.00000000  0.80203786  -0.00000000  1
  O  O164  1  -0.00000000  0.19796214  -0.00000000  1
  O  O165  1  -0.00000000  0.60197474  -0.00000000  1
  O  O166  1  -0.00000000  0.39802526  -0.00000000  1
