# generated using pymatgen
data_Rb2Mo3(As2O11)2
_symmetry_space_group_name_H-M   'P 1'
_cell_length_a   11.89022554
_cell_length_b   11.89022554
_cell_length_c   9.64491051
_cell_angle_alpha   83.19366248
_cell_angle_beta   83.19366248
_cell_angle_gamma   50.22346972
_symmetry_Int_Tables_number   1
_chemical_formula_structural   Rb2Mo3(As2O11)2
_chemical_formula_sum   'Rb4 Mo6 As8 O44'
_cell_volume   1038.95304719
_cell_formula_units_Z   2
loop_
 _symmetry_equiv_pos_site_id
 _symmetry_equiv_pos_as_xyz
  1  'x, y, z'
loop_
 _atom_site_type_symbol
 _atom_site_label
 _atom_site_symmetry_multiplicity
 _atom_site_fract_x
 _atom_site_fract_y
 _atom_site_fract_z
 _atom_site_occupancy
  Rb  Rb0  1  0.64370200  0.10725200  0.62442300  1
  Rb  Rb1  1  0.89274800  0.35629800  0.87557700  1
  Rb  Rb2  1  0.35629800  0.89274800  0.37557700  1
  Rb  Rb3  1  0.10725200  0.64370200  0.12442300  1
  Mo  Mo4  1  0.66556500  0.97575600  0.22755900  1
  Mo  Mo5  1  0.02424400  0.33443500  0.27244100  1
  Mo  Mo6  1  0.33443500  0.02424400  0.77244100  1
  Mo  Mo7  1  0.97575600  0.66556500  0.72755900  1
  Mo  Mo8  1  0.55088900  0.44911100  0.25000000  1
  Mo  Mo9  1  0.44911100  0.55088900  0.75000000  1
  As  As10  1  0.31909200  0.19910800  0.05770300  1
  As  As11  1  0.80089200  0.68090800  0.44229700  1
  As  As12  1  0.68090800  0.80089200  0.94229700  1
  As  As13  1  0.19910800  0.31909200  0.55770300  1
  As  As14  1  0.52548700  0.28412500  0.01054000  1
  As  As15  1  0.71587500  0.47451300  0.48946000  1
  As  As16  1  0.47451300  0.71587500  0.98946000  1
  As  As17  1  0.28412500  0.52548700  0.51054000  1
  O  O18  1  0.24306200  0.17441400  0.94000300  1
  O  O19  1  0.82558600  0.75693800  0.55999700  1
  O  O20  1  0.75693800  0.82558600  0.05999700  1
  O  O21  1  0.17441400  0.24306200  0.44000300  1
  O  O22  1  0.17918100  0.33939900  0.16244900  1
  O  O23  1  0.66060100  0.82081900  0.33755100  1
  O  O24  1  0.82081900  0.66060100  0.83755100  1
  O  O25  1  0.33939900  0.17918100  0.66244900  1
  O  O26  1  0.45611000  0.04628800  0.14691900  1
  O  O27  1  0.95371200  0.54389000  0.35308100  1
  O  O28  1  0.54389000  0.95371200  0.85308100  1
  O  O29  1  0.04628800  0.45611000  0.64691900  1
  O  O30  1  0.38564600  0.28626900  0.95918600  1
  O  O31  1  0.71373100  0.61435400  0.54081400  1
  O  O32  1  0.61435400  0.71373100  0.04081400  1
  O  O33  1  0.28626900  0.38564600  0.45918600  1
  O  O34  1  0.66344900  0.10842400  0.06862000  1
  O  O35  1  0.89157600  0.33655100  0.43138000  1
  O  O36  1  0.33655100  0.89157600  0.93138000  1
  O  O37  1  0.10842400  0.66344900  0.56862000  1
  O  O38  1  0.58194500  0.33003300  0.86184100  1
  O  O39  1  0.66996700  0.41805500  0.63815900  1
  O  O40  1  0.41805500  0.66996700  0.13815900  1
  O  O41  1  0.33003300  0.58194500  0.36184100  1
  O  O42  1  0.44342500  0.40691000  0.14122400  1
  O  O43  1  0.59309000  0.55657500  0.35877600  1
  O  O44  1  0.55657500  0.59309000  0.85877600  1
  O  O45  1  0.40691000  0.44342500  0.64122400  1
  O  O46  1  0.55483400  0.10944400  0.34697300  1
  O  O47  1  0.89055600  0.44516600  0.15302700  1
  O  O48  1  0.44516600  0.89055600  0.65302700  1
  O  O49  1  0.10944400  0.55483400  0.84697300  1
  O  O50  1  0.84143200  0.89453700  0.27072100  1
  O  O51  1  0.10546300  0.15856800  0.22927900  1
  O  O52  1  0.15856800  0.10546300  0.72927900  1
  O  O53  1  0.89453700  0.84143200  0.77072100  1
  O  O54  1  0.69371300  0.37880300  0.12405000  1
  O  O55  1  0.62119700  0.30628700  0.37595000  1
  O  O56  1  0.30628700  0.62119700  0.87595000  1
  O  O57  1  0.37880300  0.69371300  0.62405000  1
  O  O58  1  0.96645700  0.03251300  0.55369100  1
  O  O59  1  0.96748700  0.03354300  0.94630900  1
  O  O60  1  0.03354300  0.96748700  0.44630900  1
  O  O61  1  0.03251300  0.96645700  0.05369100  1
