# generated using pymatgen
data_FeH14SO11
_symmetry_space_group_name_H-M   'P 1'
_cell_length_a   6.56177000
_cell_length_b   11.16844600
_cell_length_c   14.15621747
_cell_angle_alpha   73.86341233
_cell_angle_beta   90.00000000
_cell_angle_gamma   90.00000000
_symmetry_Int_Tables_number   1
_chemical_formula_structural   FeH14SO11
_chemical_formula_sum   'Fe4 H56 S4 O44'
_cell_volume   996.56219187
_cell_formula_units_Z   4
loop_
 _symmetry_equiv_pos_site_id
 _symmetry_equiv_pos_as_xyz
  1  'x, y, z'
loop_
 _atom_site_type_symbol
 _atom_site_label
 _atom_site_symmetry_multiplicity
 _atom_site_fract_x
 _atom_site_fract_y
 _atom_site_fract_z
 _atom_site_occupancy
  Fe  Fe0  1  0.50000000  0.50000000  0.00000000  1
  Fe  Fe1  1  0.00000000  0.00000000  0.00000000  1
  Fe  Fe2  1  0.00000000  0.50000000  0.50000000  1
  Fe  Fe3  1  0.50000000  0.00000000  0.50000000  1
  H  H4  1  0.75513500  0.04062000  0.14828700  1
  H  H5  1  0.25513500  0.45938000  0.85171300  1
  H  H6  1  0.24486500  0.95938000  0.85171300  1
  H  H7  1  0.74486500  0.54062000  0.14828700  1
  H  H8  1  0.92995000  0.14790800  0.12474800  1
  H  H9  1  0.42995000  0.35209200  0.87525200  1
  H  H10  1  0.07005000  0.85209200  0.87525200  1
  H  H11  1  0.57005000  0.64790800  0.12474800  1
  H  H12  1  0.31360300  0.29953500  0.12278700  1
  H  H13  1  0.81360300  0.20046500  0.87721300  1
  H  H14  1  0.68639700  0.70046500  0.87721300  1
  H  H15  1  0.18639700  0.79953500  0.12278700  1
  H  H16  1  0.54871700  0.29960900  0.15839100  1
  H  H17  1  0.04871700  0.20039100  0.84160900  1
  H  H18  1  0.45128300  0.70039100  0.84160900  1
  H  H19  1  0.95128300  0.79960900  0.15839100  1
  H  H20  1  0.37439200  0.03250400  0.09073900  1
  H  H21  1  0.87439200  0.46749600  0.90926100  1
  H  H22  1  0.62560800  0.96749600  0.90926100  1
  H  H23  1  0.12560800  0.53250400  0.09073900  1
  H  H24  1  0.38701900  0.11623200  0.97933500  1
  H  H25  1  0.88701800  0.38376800  0.02066500  1
  H  H26  1  0.61298100  0.88376800  0.02066500  1
  H  H27  1  0.11298100  0.61623200  0.97933500  1
  H  H28  1  0.01854100  0.30061100  0.42212200  1
  H  H29  1  0.51854100  0.19938900  0.57787800  1
  H  H30  1  0.98145900  0.69938900  0.57787800  1
  H  H31  1  0.48145900  0.80061100  0.42212200  1
  H  H32  1  0.97196200  0.24232300  0.53599200  1
  H  H33  1  0.47196200  0.25767700  0.46400800  1
  H  H34  1  0.02803800  0.75767700  0.46400800  1
  H  H35  1  0.52803800  0.74232300  0.53599200  1
  H  H36  1  0.77656600  0.13138300  0.37425000  1
  H  H37  1  0.27656600  0.36861700  0.62575000  1
  H  H38  1  0.22343400  0.86861700  0.62575000  1
  H  H39  1  0.72343400  0.63138300  0.37425000  1
  H  H40  1  0.85760300  0.99113900  0.40893300  1
  H  H41  1  0.35760300  0.50886100  0.59106700  1
  H  H42  1  0.14239700  0.00886100  0.59106700  1
  H  H43  1  0.64239700  0.49113900  0.40893300  1
  H  H44  1  0.41886600  0.03748700  0.29689000  1
  H  H45  1  0.91886600  0.46251300  0.70311000  1
  H  H46  1  0.58113400  0.96251300  0.70311000  1
  H  H47  1  0.08113400  0.53748700  0.29689000  1
  H  H48  1  0.27503900  0.13642400  0.32972700  1
  H  H49  1  0.77503900  0.36357600  0.67027300  1
  H  H50  1  0.72496100  0.86357600  0.67027300  1
  H  H51  1  0.22496100  0.63642400  0.32972700  1
  H  H52  1  0.58608200  0.36089200  0.31488800  1
  H  H53  1  0.08608200  0.13910800  0.68511200  1
  H  H54  1  0.41391800  0.63910800  0.68511200  1
  H  H55  1  0.91391800  0.86089200  0.31488800  1
  H  H56  1  0.38577100  0.43165000  0.33967100  1
  H  H57  1  0.88577100  0.06835000  0.66032900  1
  H  H58  1  0.61422900  0.56835000  0.66032900  1
  H  H59  1  0.11422900  0.93165000  0.33967100  1
  S  S60  1  0.96912500  0.32492600  0.22706500  1
  S  S61  1  0.46912500  0.17507400  0.77293500  1
  S  S62  1  0.03087500  0.67507400  0.77293500  1
  S  S63  1  0.53087500  0.82492600  0.22706500  1
  O  O64  1  0.97236300  0.46490000  0.20367200  1
  O  O65  1  0.47236300  0.03510000  0.79632800  1
  O  O66  1  0.02763700  0.53510000  0.79632800  1
  O  O67  1  0.52763700  0.96490000  0.20367200  1
  O  O68  1  0.03369400  0.28834900  0.13740800  1
  O  O69  1  0.53369400  0.21165100  0.86259200  1
  O  O70  1  0.96630600  0.71165100  0.86259200  1
  O  O71  1  0.46630600  0.78834900  0.13740800  1
  O  O72  1  0.11171600  0.27181000  0.30956200  1
  O  O73  1  0.61171600  0.22819000  0.69043800  1
  O  O74  1  0.88828400  0.72819000  0.69043800  1
  O  O75  1  0.38828400  0.77181000  0.30956200  1
  O  O76  1  0.75698500  0.27778500  0.25481100  1
  O  O77  1  0.25698500  0.22221500  0.74518900  1
  O  O78  1  0.24301500  0.72221500  0.74518900  1
  O  O79  1  0.74301500  0.77778500  0.25481100  1
  O  O80  1  0.88782300  0.06651600  0.11610800  1
  O  O81  1  0.38782300  0.43348400  0.88389200  1
  O  O82  1  0.11217700  0.93348400  0.88389200  1
  O  O83  1  0.61217700  0.56651600  0.11610800  1
  O  O84  1  0.45626200  0.31939600  0.10148000  1
  O  O85  1  0.95626200  0.18060400  0.89852000  1
  O  O86  1  0.54373800  0.68060400  0.89852000  1
  O  O87  1  0.04373800  0.81939600  0.10148000  1
  O  O88  1  0.29536100  0.06579600  0.02978500  1
  O  O89  1  0.79536100  0.43420400  0.97021500  1
  O  O90  1  0.70463900  0.93420400  0.97021500  1
  O  O91  1  0.20463900  0.56579600  0.02978500  1
  O  O92  1  0.95771600  0.31926500  0.48031000  1
  O  O93  1  0.45771600  0.18073500  0.51969000  1
  O  O94  1  0.04228400  0.68073500  0.51969000  1
  O  O95  1  0.54228400  0.81926500  0.48031000  1
  O  O96  1  0.78244000  0.05725400  0.43083300  1
  O  O97  1  0.28244000  0.44274600  0.56916700  1
  O  O98  1  0.21756000  0.94274600  0.56916700  1
  O  O99  1  0.71756000  0.55725400  0.43083300  1
  O  O100  1  0.34304800  0.05418800  0.35232300  1
  O  O101  1  0.84304800  0.44581200  0.64767700  1
  O  O102  1  0.65695200  0.94581200  0.64767700  1
  O  O103  1  0.15695200  0.55418800  0.35232300  1
  O  O104  1  0.51272900  0.38917200  0.36606400  1
  O  O105  1  0.01272900  0.11082800  0.63393600  1
  O  O106  1  0.48727100  0.61082800  0.63393600  1
  O  O107  1  0.98727100  0.88917200  0.36606400  1
