# generated using pymatgen
data_Co2H22C(N2O3)4
_symmetry_space_group_name_H-M   'P 1'
_cell_length_a   7.91370200
_cell_length_b   9.97887557
_cell_length_c   11.05843471
_cell_angle_alpha   103.90551118
_cell_angle_beta   108.99797651
_cell_angle_gamma   91.76212269
_symmetry_Int_Tables_number   1
_chemical_formula_structural   Co2H22C(N2O3)4
_chemical_formula_sum   'Co4 H44 C2 N16 O24'
_cell_volume   795.84578352
_cell_formula_units_Z   2
loop_
 _symmetry_equiv_pos_site_id
 _symmetry_equiv_pos_as_xyz
  1  'x, y, z'
loop_
 _atom_site_type_symbol
 _atom_site_label
 _atom_site_symmetry_multiplicity
 _atom_site_fract_x
 _atom_site_fract_y
 _atom_site_fract_z
 _atom_site_occupancy
  Co  Co0  1  0.23800100  0.85426500  0.13916600  1
  Co  Co1  1  0.76199900  0.14573500  0.86083400  1
  Co  Co2  1  0.17844300  0.78089600  0.35514200  1
  Co  Co3  1  0.82155700  0.21910400  0.64485800  1
  H  H4  1  0.01030600  0.66826500  0.11865400  1
  H  H5  1  0.98969400  0.33173500  0.88134600  1
  H  H6  1  0.29871000  0.00690700  0.35851600  1
  H  H7  1  0.70129000  0.99309300  0.64148400  1
  H  H8  1  0.48274400  0.69712900  0.19133100  1
  H  H9  1  0.51725600  0.30287100  0.80866900  1
  H  H10  1  0.43208800  0.70081300  0.03651400  1
  H  H11  1  0.56791200  0.29918700  0.96348600  1
  H  H12  1  0.56708500  0.83157400  0.15557000  1
  H  H13  1  0.43291500  0.16842600  0.84443000  1
  H  H14  1  0.20199600  0.76261400  0.89195500  1
  H  H15  1  0.79800400  0.23738600  0.10804500  1
  H  H16  1  0.02536300  0.70399300  0.92475300  1
  H  H17  1  0.97463700  0.29600700  0.07524700  1
  H  H18  1  0.05078600  0.86673300  0.91758000  1
  H  H19  1  0.94921400  0.13326700  0.08242000  1
  H  H20  1  0.48097700  0.02817700  0.14435200  1
  H  H21  1  0.51902300  0.97182300  0.85564800  1
  H  H22  1  0.29220700  0.03224000  0.02348100  1
  H  H23  1  0.70779300  0.96776000  0.97651900  1
  H  H24  1  0.31848400  0.10904700  0.18196100  1
  H  H25  1  0.68151600  0.89095300  0.81803900  1
  H  H26  1  0.37132500  0.58615000  0.34269500  1
  H  H27  1  0.62867500  0.41385000  0.65730500  1
  H  H28  1  0.50091800  0.73184300  0.43899700  1
  H  H29  1  0.49908200  0.26815700  0.56100300  1
  H  H30  1  0.37901100  0.64292600  0.49723200  1
  H  H31  1  0.62098900  0.35707400  0.50276800  1
  H  H32  1  0.89032300  0.64169700  0.30214600  1
  H  H33  1  0.10967700  0.35830300  0.69785400  1
  H  H34  1  0.04795800  0.54016400  0.34952200  1
  H  H35  1  0.95204200  0.45983600  0.65047800  1
  H  H36  1  0.99942500  0.66031100  0.46116100  1
  H  H37  1  0.00057500  0.33968900  0.53883900  1
  H  H38  1  0.14116800  0.95621900  0.54599400  1
  H  H39  1  0.85883200  0.04378100  0.45400600  1
  H  H40  1  0.23309100  0.82761000  0.60401400  1
  H  H41  1  0.76690900  0.17239000  0.39598600  1
  H  H42  1  0.35660300  0.94313000  0.57257700  1
  H  H43  1  0.64339700  0.05687000  0.42742300  1
  H  H44  1  0.68091100  0.57808300  0.94756900  1
  H  H45  1  0.31908900  0.42191700  0.05243100  1
  H  H46  1  0.82465000  0.48243100  0.92315800  1
  H  H47  1  0.17535000  0.51756900  0.07684200  1
  C  C48  1  0.91649700  0.92787400  0.20063600  1
  C  C49  1  0.08350300  0.07212600  0.79936400  1
  N  N50  1  0.45289500  0.76221100  0.13030200  1
  N  N51  1  0.54710500  0.23778900  0.86969800  1
  N  N52  1  0.11928200  0.78760800  0.94722100  1
  N  N53  1  0.88071800  0.21239200  0.05277900  1
  N  N54  1  0.34387800  0.02333200  0.11983500  1
  N  N55  1  0.65612200  0.97666800  0.88016500  1
  N  N56  1  0.37844600  0.67470000  0.41478600  1
  N  N57  1  0.62155400  0.32530000  0.58521400  1
  N  N58  1  0.01446500  0.63983400  0.36916500  1
  N  N59  1  0.98553500  0.36016600  0.63083500  1
  N  N60  1  0.23226800  0.88631800  0.53917700  1
  N  N61  1  0.76773200  0.11368200  0.46082300  1
  N  N62  1  0.37665300  0.59913500  0.74364000  1
  N  N63  1  0.62334700  0.40086500  0.25636000  1
  N  N64  1  0.81726000  0.73428400  0.62628800  1
  N  N65  1  0.18274000  0.26571600  0.37371200  1
  O  O66  1  0.14082800  0.68867500  0.17073000  1
  O  O67  1  0.85917200  0.31132500  0.82927000  1
  O  O68  1  0.33957600  0.91540100  0.33072100  1
  O  O69  1  0.66042400  0.08459900  0.66927900  1
  O  O70  1  0.02483200  0.94624200  0.13606700  1
  O  O71  1  0.97516800  0.05375800  0.86393300  1
  O  O72  1  0.96743000  0.87660700  0.30338100  1
  O  O73  1  0.03257000  0.12339300  0.69661900  1
  O  O74  1  0.75777700  0.96317000  0.16154000  1
  O  O75  1  0.24222300  0.03683000  0.83846000  1
  O  O76  1  0.36405700  0.72777700  0.78127000  1
  O  O77  1  0.63594300  0.27222300  0.21873000  1
  O  O78  1  0.42436700  0.52929500  0.83046000  1
  O  O79  1  0.57563300  0.47070500  0.16954000  1
  O  O80  1  0.34141400  0.53913400  0.62278900  1
  O  O81  1  0.65858600  0.46086600  0.37721100  1
  O  O82  1  0.95321400  0.67070500  0.62349400  1
  O  O83  1  0.04678600  0.32929500  0.37650600  1
  O  O84  1  0.77152900  0.82141000  0.55689500  1
  O  O85  1  0.22847100  0.17859000  0.44310500  1
  O  O86  1  0.72823500  0.71141800  0.69705200  1
  O  O87  1  0.27176500  0.28858200  0.30294800  1
  O  O88  1  0.81105500  0.57233300  0.97926300  1
  O  O89  1  0.18894500  0.42766700  0.02073700  1
