# generated using pymatgen
data_CaU2Se5
_symmetry_space_group_name_H-M   'P 1'
_cell_length_a   7.65208000
_cell_length_b   8.12611200
_cell_length_c   12.55676300
_cell_angle_alpha   90.00000000
_cell_angle_beta   90.00000000
_cell_angle_gamma   90.00000000
_symmetry_Int_Tables_number   1
_chemical_formula_structural   CaU2Se5
_chemical_formula_sum   'Ca4 U8 Se20'
_cell_volume   780.80035643
_cell_formula_units_Z   4
loop_
 _symmetry_equiv_pos_site_id
 _symmetry_equiv_pos_as_xyz
  1  'x, y, z'
loop_
 _atom_site_type_symbol
 _atom_site_label
 _atom_site_symmetry_multiplicity
 _atom_site_fract_x
 _atom_site_fract_y
 _atom_site_fract_z
 _atom_site_occupancy
  Ca  Ca0  1  0.42279200  0.75000000  0.00672600  1
  Ca  Ca1  1  0.07720800  0.75000000  0.50672600  1
  Ca  Ca2  1  0.57720800  0.25000000  0.99327400  1
  Ca  Ca3  1  0.92279200  0.25000000  0.49327400  1
  U  U4  1  0.99139100  0.99886800  0.18054700  1
  U  U5  1  0.50860900  0.50113200  0.68054700  1
  U  U6  1  0.00860900  0.49886800  0.81945300  1
  U  U7  1  0.49139100  0.00113200  0.31945300  1
  U  U8  1  0.00860900  0.00113200  0.81945300  1
  U  U9  1  0.49139100  0.49886800  0.31945300  1
  U  U10  1  0.99139100  0.50113200  0.18054700  1
  U  U11  1  0.50860900  0.99886800  0.68054700  1
  Se  Se12  1  0.66279400  0.54404100  0.88699200  1
  Se  Se13  1  0.83720600  0.95595900  0.38699200  1
  Se  Se14  1  0.33720600  0.04404100  0.11300800  1
  Se  Se15  1  0.16279400  0.45595900  0.61300800  1
  Se  Se16  1  0.33720600  0.45595900  0.11300800  1
  Se  Se17  1  0.16279400  0.04404100  0.61300800  1
  Se  Se18  1  0.66279400  0.95595900  0.88699200  1
  Se  Se19  1  0.83720600  0.54404100  0.38699200  1
  Se  Se20  1  0.67999400  0.75000000  0.18380800  1
  Se  Se21  1  0.82000600  0.75000000  0.68380800  1
  Se  Se22  1  0.32000600  0.25000000  0.81619200  1
  Se  Se23  1  0.17999400  0.25000000  0.31619200  1
  Se  Se24  1  0.02402200  0.75000000  0.00260300  1
  Se  Se25  1  0.47597800  0.75000000  0.50260300  1
  Se  Se26  1  0.97597800  0.25000000  0.99739700  1
  Se  Se27  1  0.52402200  0.25000000  0.49739700  1
  Se  Se28  1  0.29097000  0.75000000  0.78785400  1
  Se  Se29  1  0.20903000  0.75000000  0.28785400  1
  Se  Se30  1  0.70903000  0.25000000  0.21214600  1
  Se  Se31  1  0.79097000  0.25000000  0.71214600  1
