# generated using pymatgen
data_K2NdH4N5O17
_symmetry_space_group_name_H-M   'P 1'
_cell_length_a   8.44388902
_cell_length_b   8.44388902
_cell_length_c   12.25199886
_cell_angle_alpha   108.44720221
_cell_angle_beta   108.44720221
_cell_angle_gamma   94.68770088
_symmetry_Int_Tables_number   1
_chemical_formula_structural   K2NdH4N5O17
_chemical_formula_sum   'K4 Nd2 H8 N10 O34'
_cell_volume   769.87144652
_cell_formula_units_Z   2
loop_
 _symmetry_equiv_pos_site_id
 _symmetry_equiv_pos_as_xyz
  1  'x, y, z'
loop_
 _atom_site_type_symbol
 _atom_site_label
 _atom_site_symmetry_multiplicity
 _atom_site_fract_x
 _atom_site_fract_y
 _atom_site_fract_z
 _atom_site_occupancy
  K  K0  1  0.19425600  0.72055200  0.29837100  1
  K  K1  1  0.27944800  0.80574400  0.70162900  1
  K  K2  1  0.32781900  0.35411500  0.79837100  1
  K  K3  1  0.64588500  0.67218100  0.20162900  1
  Nd  Nd4  1  0.74922400  0.25077600  0.50000000  1
  Nd  Nd5  1  0.99922400  0.00077600  0.00000000  1
  H  H6  1  0.52791000  0.10689000  0.21417400  1
  H  H7  1  0.89311000  0.47209000  0.78582600  1
  H  H8  1  0.85728300  0.93626300  0.71417400  1
  H  H9  1  0.06373700  0.14271700  0.28582600  1
  H  H10  1  0.71398700  0.13602500  0.22185400  1
  H  H11  1  0.86397500  0.28601300  0.77814600  1
  H  H12  1  0.83583000  0.75786700  0.72185400  1
  H  H13  1  0.24213300  0.16417000  0.27814600  1
  N  N14  1  0.05711500  0.43919500  0.48200600  1
  N  N15  1  0.56080500  0.94288500  0.51799400  1
  N  N16  1  0.79281200  0.67489100  0.98200600  1
  N  N17  1  0.32510900  0.20718800  0.01799400  1
  N  N18  1  0.52786100  0.43861800  0.35312600  1
  N  N19  1  0.56138200  0.47213900  0.64687400  1
  N  N20  1  0.66450800  0.07526500  0.85312600  1
  N  N21  1  0.92473500  0.33549200  0.14687400  1
  N  N22  1  0.00199500  0.99800500  0.50000000  1
  N  N23  1  0.25199500  0.74800500  0.00000000  1
  O  O24  1  0.97581700  0.29104000  0.40259900  1
  O  O25  1  0.70896000  0.02418300  0.59740100  1
  O  O26  1  0.86156000  0.67678200  0.90259900  1
  O  O27  1  0.32321800  0.13844000  0.09740100  1
  O  O28  1  0.01491400  0.49397400  0.57716500  1
  O  O29  1  0.50602600  0.98508600  0.42283500  1
  O  O30  1  0.83319100  0.81225100  0.07716500  1
  O  O31  1  0.18774900  0.16680900  0.92283500  1
  O  O32  1  0.16992700  0.52521000  0.46817600  1
  O  O33  1  0.47479000  0.83007300  0.53182400  1
  O  O34  1  0.69296600  0.54824800  0.96817600  1
  O  O35  1  0.45175200  0.30703400  0.03182400  1
  O  O36  1  0.68935900  0.47123000  0.38666300  1
  O  O37  1  0.52877000  0.31064100  0.61333700  1
  O  O38  1  0.66543300  0.94730400  0.88666300  1
  O  O39  1  0.05269600  0.33456700  0.11333700  1
  O  O40  1  0.46176000  0.31774300  0.37751400  1
  O  O41  1  0.68225700  0.53824000  0.62248600  1
  O  O42  1  0.80977000  0.16575400  0.87751400  1
  O  O43  1  0.83424600  0.19023000  0.12248600  1
  O  O44  1  0.43789600  0.51992900  0.29810300  1
  O  O45  1  0.48007100  0.56210400  0.70189700  1
  O  O46  1  0.52817400  0.11020700  0.79810300  1
  O  O47  1  0.88979300  0.47182600  0.20189700  1
  O  O48  1  0.03634200  0.13926100  0.58961700  1
  O  O49  1  0.86073900  0.96365800  0.41038300  1
  O  O50  1  0.20035700  0.80327600  0.08961700  1
  O  O51  1  0.19672400  0.79964300  0.91038300  1
  O  O52  1  0.10285200  0.89714800  0.50000000  1
  O  O53  1  0.35285200  0.64714800  0.00000000  1
  O  O54  1  0.64155900  0.09314800  0.25987700  1
  O  O55  1  0.90685200  0.35844100  0.74012300  1
  O  O56  1  0.91672900  0.86831800  0.75987700  1
  O  O57  1  0.13168200  0.08327100  0.24012300  1
