# generated using pymatgen
data_Tb5Bi3
_symmetry_space_group_name_H-M   'P 1'
_cell_length_a   8.36368000
_cell_length_b   9.54731200
_cell_length_c   12.16475400
_cell_angle_alpha   90.00000000
_cell_angle_beta   90.00000000
_cell_angle_gamma   90.00000000
_symmetry_Int_Tables_number   1
_chemical_formula_structural   Tb5Bi3
_chemical_formula_sum   'Tb20 Bi12'
_cell_volume   971.36366518
_cell_formula_units_Z   4
loop_
 _symmetry_equiv_pos_site_id
 _symmetry_equiv_pos_as_xyz
  1  'x, y, z'
loop_
 _atom_site_type_symbol
 _atom_site_label
 _atom_site_symmetry_multiplicity
 _atom_site_fract_x
 _atom_site_fract_y
 _atom_site_fract_z
 _atom_site_occupancy
  Tb  Tb0  1  0.80776800  0.56101300  0.06579000  1
  Tb  Tb1  1  0.69223200  0.93898700  0.56579000  1
  Tb  Tb2  1  0.19223200  0.06101300  0.93421000  1
  Tb  Tb3  1  0.30776800  0.43898700  0.43421000  1
  Tb  Tb4  1  0.19223200  0.43898700  0.93421000  1
  Tb  Tb5  1  0.30776800  0.06101300  0.43421000  1
  Tb  Tb6  1  0.80776800  0.93898700  0.06579000  1
  Tb  Tb7  1  0.69223200  0.56101300  0.56579000  1
  Tb  Tb8  1  0.17248800  0.75000000  0.22954000  1
  Tb  Tb9  1  0.32751200  0.75000000  0.72954000  1
  Tb  Tb10  1  0.82751200  0.25000000  0.77046000  1
  Tb  Tb11  1  0.67248800  0.25000000  0.27046000  1
  Tb  Tb12  1  0.47543300  0.75000000  0.00424500  1
  Tb  Tb13  1  0.02456700  0.75000000  0.50424500  1
  Tb  Tb14  1  0.52456700  0.25000000  0.99575500  1
  Tb  Tb15  1  0.97543300  0.25000000  0.49575500  1
  Tb  Tb16  1  0.65708700  0.75000000  0.29149500  1
  Tb  Tb17  1  0.84291300  0.75000000  0.79149500  1
  Tb  Tb18  1  0.34291300  0.25000000  0.70850500  1
  Tb  Tb19  1  0.15708700  0.25000000  0.20850500  1
  Bi  Bi20  1  0.40292400  0.75000000  0.47543800  1
  Bi  Bi21  1  0.09707600  0.75000000  0.97543800  1
  Bi  Bi22  1  0.59707600  0.25000000  0.52456200  1
  Bi  Bi23  1  0.90292400  0.25000000  0.02456200  1
  Bi  Bi24  1  0.93442400  0.50828900  0.32512900  1
  Bi  Bi25  1  0.56557600  0.99171100  0.82512900  1
  Bi  Bi26  1  0.06557600  0.00828900  0.67487100  1
  Bi  Bi27  1  0.43442400  0.49171100  0.17487100  1
  Bi  Bi28  1  0.06557600  0.49171100  0.67487100  1
  Bi  Bi29  1  0.43442400  0.00828900  0.17487100  1
  Bi  Bi30  1  0.93442400  0.99171100  0.32512900  1
  Bi  Bi31  1  0.56557600  0.50828900  0.82512900  1
