# generated using pymatgen
data_NdH3S2O9
_symmetry_space_group_name_H-M   'P 1'
_cell_length_a   7.04428800
_cell_length_b   8.81577900
_cell_length_c   10.88677015
_cell_angle_alpha   89.17405164
_cell_angle_beta   90.00000000
_cell_angle_gamma   90.00000000
_symmetry_Int_Tables_number   1
_chemical_formula_structural   NdH3S2O9
_chemical_formula_sum   'Nd4 H12 S8 O36'
_cell_volume   676.00782897
_cell_formula_units_Z   4
loop_
 _symmetry_equiv_pos_site_id
 _symmetry_equiv_pos_as_xyz
  1  'x, y, z'
loop_
 _atom_site_type_symbol
 _atom_site_label
 _atom_site_symmetry_multiplicity
 _atom_site_fract_x
 _atom_site_fract_y
 _atom_site_fract_z
 _atom_site_occupancy
  Nd  Nd0  1  0.16830800  0.94252200  0.84788800  1
  Nd  Nd1  1  0.66830800  0.05747800  0.65211200  1
  Nd  Nd2  1  0.83169200  0.05747800  0.15211200  1
  Nd  Nd3  1  0.33169200  0.94252200  0.34788800  1
  H  H4  1  0.56059700  0.64615200  0.15111500  1
  H  H5  1  0.06059700  0.35384800  0.34888500  1
  H  H6  1  0.43940300  0.35384800  0.84888500  1
  H  H7  1  0.93940300  0.64615200  0.65111500  1
  H  H8  1  0.79135900  0.59071100  0.13357200  1
  H  H9  1  0.29135900  0.40928900  0.36642800  1
  H  H10  1  0.20864100  0.40928900  0.86642800  1
  H  H11  1  0.70864100  0.59071100  0.63357200  1
  H  H12  1  0.60850400  0.46783400  0.12185800  1
  H  H13  1  0.10850400  0.53216600  0.37814200  1
  H  H14  1  0.39149600  0.53216600  0.87814200  1
  H  H15  1  0.89149600  0.46783400  0.62185800  1
  S  S16  1  0.15372000  0.72734100  0.08323600  1
  S  S17  1  0.65372000  0.27265900  0.41676400  1
  S  S18  1  0.84628000  0.27265900  0.91676400  1
  S  S19  1  0.34628000  0.72734100  0.58323600  1
  S  S20  1  0.16236900  0.18360700  0.61193100  1
  S  S21  1  0.66236900  0.81639300  0.88806900  1
  S  S22  1  0.83763100  0.81639300  0.38806900  1
  S  S23  1  0.33763100  0.18360700  0.11193100  1
  O  O24  1  0.01228700  0.61591000  0.12230700  1
  O  O25  1  0.51228700  0.38409000  0.37769300  1
  O  O26  1  0.98771300  0.38409000  0.87769300  1
  O  O27  1  0.48771300  0.61591000  0.62230700  1
  O  O28  1  0.23876900  0.69514400  0.96062800  1
  O  O29  1  0.73876900  0.30485600  0.53937200  1
  O  O30  1  0.76123100  0.30485600  0.03937200  1
  O  O31  1  0.26123100  0.69514400  0.46062800  1
  O  O32  1  0.06211300  0.88148600  0.06075200  1
  O  O33  1  0.56211300  0.11851400  0.43924800  1
  O  O34  1  0.93788700  0.11851400  0.93924800  1
  O  O35  1  0.43788700  0.88148600  0.56075200  1
  O  O36  1  0.30725600  0.74550700  0.17704600  1
  O  O37  1  0.80725600  0.25449300  0.32295400  1
  O  O38  1  0.69274400  0.25449300  0.82295400  1
  O  O39  1  0.19274400  0.74550700  0.67704600  1
  O  O40  1  0.12709600  0.34531400  0.61058700  1
  O  O41  1  0.62709600  0.65468600  0.88941300  1
  O  O42  1  0.87290400  0.65468600  0.38941300  1
  O  O43  1  0.37290400  0.34531400  0.11058700  1
  O  O44  1  0.33592700  0.14298400  0.68877600  1
  O  O45  1  0.83592700  0.85701600  0.81122400  1
  O  O46  1  0.66407300  0.85701600  0.31122400  1
  O  O47  1  0.16407300  0.14298400  0.18877600  1
  O  O48  1  0.00796000  0.09537500  0.68112100  1
  O  O49  1  0.50796000  0.90462500  0.81887900  1
  O  O50  1  0.99204000  0.90462500  0.31887900  1
  O  O51  1  0.49204000  0.09537500  0.18112100  1
  O  O52  1  0.17437900  0.12230800  0.48641900  1
  O  O53  1  0.67437900  0.87769200  0.01358100  1
  O  O54  1  0.82562100  0.87769200  0.51358100  1
  O  O55  1  0.32562100  0.12230800  0.98641900  1
  O  O56  1  0.65518200  0.56328100  0.15950500  1
  O  O57  1  0.15518200  0.43671900  0.34049500  1
  O  O58  1  0.34481800  0.43671900  0.84049500  1
  O  O59  1  0.84481800  0.56328100  0.65950500  1
