# generated using pymatgen
data_KTeO7
_symmetry_space_group_name_H-M   'P 1'
_cell_length_a   9.09905100
_cell_length_b   5.99610500
_cell_length_c   14.13075886
_cell_angle_alpha   90.00000000
_cell_angle_beta   100.67399150
_cell_angle_gamma   90.00000000
_symmetry_Int_Tables_number   1
_chemical_formula_structural   KTeO7
_chemical_formula_sum   'K4 Te4 O28'
_cell_volume   757.61826007
_cell_formula_units_Z   4
loop_
 _symmetry_equiv_pos_site_id
 _symmetry_equiv_pos_as_xyz
  1  'x, y, z'
loop_
 _atom_site_type_symbol
 _atom_site_label
 _atom_site_symmetry_multiplicity
 _atom_site_fract_x
 _atom_site_fract_y
 _atom_site_fract_z
 _atom_site_occupancy
  K  K0  1  0.46621100  0.80501100  0.12413300  1
  K  K1  1  0.53378900  0.30501100  0.37586700  1
  K  K2  1  0.53378900  0.19498900  0.87586700  1
  K  K3  1  0.46621100  0.69498900  0.62413300  1
  Te  Te4  1  0.24302800  0.83989500  0.34256700  1
  Te  Te5  1  0.75697200  0.33989500  0.15743300  1
  Te  Te6  1  0.75697200  0.16010500  0.65743300  1
  Te  Te7  1  0.24302800  0.66010500  0.84256700  1
  O  O8  1  0.17100400  0.55984000  0.16334000  1
  O  O9  1  0.82899600  0.05984000  0.33666000  1
  O  O10  1  0.82899600  0.44016000  0.83666000  1
  O  O11  1  0.17100400  0.94016000  0.66334000  1
  O  O12  1  0.42998200  0.71931700  0.38669300  1
  O  O13  1  0.57001800  0.21931700  0.11330700  1
  O  O14  1  0.57001800  0.28068300  0.61330700  1
  O  O15  1  0.42998200  0.78068300  0.88669300  1
  O  O16  1  0.89343800  0.87783900  0.34679900  1
  O  O17  1  0.10656200  0.37783900  0.15320100  1
  O  O18  1  0.10656200  0.12216100  0.65320100  1
  O  O19  1  0.89343800  0.62216100  0.84679900  1
  O  O20  1  0.21569100  0.41432100  0.47377200  1
  O  O21  1  0.78430900  0.91432100  0.02622800  1
  O  O22  1  0.78430900  0.58567900  0.52622800  1
  O  O23  1  0.21569100  0.08567900  0.97377200  1
  O  O24  1  0.26616900  0.02964400  0.46660100  1
  O  O25  1  0.73383100  0.52964400  0.03339900  1
  O  O26  1  0.73383100  0.97035600  0.53339900  1
  O  O27  1  0.26616900  0.47035600  0.96660100  1
  O  O28  1  0.28429200  0.05801800  0.25917200  1
  O  O29  1  0.71570800  0.55801800  0.24082800  1
  O  O30  1  0.71570800  0.94198200  0.74082800  1
  O  O31  1  0.28429200  0.44198200  0.75917200  1
  O  O32  1  0.85021100  0.72999400  0.04124400  1
  O  O33  1  0.14978900  0.22999400  0.45875600  1
  O  O34  1  0.14978900  0.27000600  0.95875600  1
  O  O35  1  0.85021100  0.77000600  0.54124400  1
