# generated using pymatgen
data_ZnH12C3SeS3(N3O2)2
_symmetry_space_group_name_H-M   'P 1'
_cell_length_a   7.98573000
_cell_length_b   11.45337800
_cell_length_c   15.98483700
_cell_angle_alpha   90.00000000
_cell_angle_beta   90.00000000
_cell_angle_gamma   90.00000000
_symmetry_Int_Tables_number   1
_chemical_formula_structural   ZnH12C3SeS3(N3O2)2
_chemical_formula_sum   'Zn4 H48 C12 Se4 S12 N24 O16'
_cell_volume   1462.03048641
_cell_formula_units_Z   4
loop_
 _symmetry_equiv_pos_site_id
 _symmetry_equiv_pos_as_xyz
  1  'x, y, z'
loop_
 _atom_site_type_symbol
 _atom_site_label
 _atom_site_symmetry_multiplicity
 _atom_site_fract_x
 _atom_site_fract_y
 _atom_site_fract_z
 _atom_site_occupancy
  Zn  Zn0  1  0.66109500  0.93738000  0.92122600  1
  Zn  Zn1  1  0.33890500  0.06262000  0.42122600  1
  Zn  Zn2  1  0.66109500  0.56262000  0.42122600  1
  Zn  Zn3  1  0.33890500  0.43738000  0.92122600  1
  H  H4  1  0.30604800  0.14966900  0.72145200  1
  H  H5  1  0.69395200  0.85033100  0.22145200  1
  H  H6  1  0.30604800  0.35033100  0.22145200  1
  H  H7  1  0.69395200  0.64966900  0.72145200  1
  H  H8  1  0.16370600  0.03480100  0.70898300  1
  H  H9  1  0.83629400  0.96519900  0.20898300  1
  H  H10  1  0.16370600  0.46519900  0.20898300  1
  H  H11  1  0.83629400  0.53480100  0.70898300  1
  H  H12  1  0.20305600  0.85770000  0.77826000  1
  H  H13  1  0.79694400  0.14230000  0.27826000  1
  H  H14  1  0.20305600  0.64230000  0.27826000  1
  H  H15  1  0.79694400  0.35770000  0.77826000  1
  H  H16  1  0.35121100  0.85394400  0.86097500  1
  H  H17  1  0.64878900  0.14605600  0.36097500  1
  H  H18  1  0.35121100  0.64605600  0.36097500  1
  H  H19  1  0.64878900  0.35394400  0.86097500  1
  H  H20  1  0.92080100  0.08722600  0.85673200  1
  H  H21  1  0.07919900  0.91277400  0.35673200  1
  H  H22  1  0.92080100  0.41277400  0.35673200  1
  H  H23  1  0.07919900  0.58722600  0.85673200  1
  H  H24  1  0.02480800  0.21866100  0.87626200  1
  H  H25  1  0.97519200  0.78133900  0.37626200  1
  H  H26  1  0.02480800  0.28133900  0.37626200  1
  H  H27  1  0.97519200  0.71866100  0.87626200  1
  H  H28  1  0.97717400  0.21534900  0.09579300  1
  H  H29  1  0.02282600  0.78465100  0.59579300  1
  H  H30  1  0.97717400  0.28465100  0.59579300  1
  H  H31  1  0.02282600  0.71534900  0.09579300  1
  H  H32  1  0.06140600  0.28877900  0.00969100  1
  H  H33  1  0.93859400  0.71122100  0.50969100  1
  H  H34  1  0.06140600  0.21122100  0.50969100  1
  H  H35  1  0.93859400  0.78877900  0.00969100  1
  H  H36  1  0.28140300  0.88054400  0.18388400  1
  H  H37  1  0.71859700  0.11945600  0.68388400  1
  H  H38  1  0.28140300  0.61945600  0.68388400  1
  H  H39  1  0.71859700  0.38054400  0.18388400  1
  H  H40  1  0.39823000  0.75514200  0.15563700  1
  H  H41  1  0.60177000  0.24485800  0.65563700  1
  H  H42  1  0.39823000  0.74485800  0.65563700  1
  H  H43  1  0.60177000  0.25514200  0.15563700  1
  H  H44  1  0.40075000  0.03527600  0.00227100  1
  H  H45  1  0.59925000  0.96472400  0.50227100  1
  H  H46  1  0.40075000  0.46472400  0.50227100  1
  H  H47  1  0.59925000  0.53527600  0.00227100  1
  H  H48  1  0.31481400  0.04864700  0.10172700  1
  H  H49  1  0.68518600  0.95135300  0.60172700  1
  H  H50  1  0.31481400  0.45135300  0.60172700  1
  H  H51  1  0.68518600  0.54864700  0.10172700  1
  C  C52  1  0.34913200  0.00535700  0.79475700  1
  C  C53  1  0.65086800  0.99464300  0.29475700  1
  C  C54  1  0.34913200  0.49464300  0.29475700  1
  C  C55  1  0.65086800  0.50535700  0.79475700  1
  C  C56  1  0.93275600  0.13822300  0.98089200  1
  C  C57  1  0.06724400  0.86177700  0.48089200  1
  C  C58  1  0.93275600  0.36177700  0.48089200  1
  C  C59  1  0.06724400  0.63822300  0.98089200  1
  C  C60  1  0.39898100  0.88462400  0.06929600  1
  C  C61  1  0.60101900  0.11537600  0.56929600  1
  C  C62  1  0.39898100  0.61537600  0.56929600  1
  C  C63  1  0.60101900  0.38462400  0.06929600  1
  Se  Se64  1  0.85131100  0.87353300  0.74735100  1
  Se  Se65  1  0.14868900  0.12646700  0.24735100  1
  Se  Se66  1  0.85131100  0.62646700  0.24735100  1
  Se  Se67  1  0.14868900  0.37353300  0.74735100  1
  S  S68  1  0.50325800  0.07718100  0.85134700  1
  S  S69  1  0.49674200  0.92281900  0.35134700  1
  S  S70  1  0.50325800  0.42281900  0.35134700  1
  S  S71  1  0.49674200  0.57718100  0.85134700  1
  S  S72  1  0.82747500  0.02157800  0.02518200  1
  S  S73  1  0.17252500  0.97842200  0.52518200  1
  S  S74  1  0.82747500  0.47842200  0.52518200  1
  S  S75  1  0.17252500  0.52157800  0.02518200  1
  S  S76  1  0.50957600  0.79950500  0.99837600  1
  S  S77  1  0.49042400  0.20049500  0.49837600  1
  S  S78  1  0.50957600  0.70049500  0.49837600  1
  S  S79  1  0.49042400  0.29950500  0.99837600  1
  N  N80  1  0.27339000  0.06512400  0.73386800  1
  N  N81  1  0.72661000  0.93487600  0.23386800  1
  N  N82  1  0.27339000  0.43487600  0.23386800  1
  N  N83  1  0.72661000  0.56512400  0.73386800  1
  N  N84  1  0.30177600  0.89594900  0.81054700  1
  N  N85  1  0.69822400  0.10405100  0.31054700  1
  N  N86  1  0.30177600  0.60405100  0.31054700  1
  N  N87  1  0.69822400  0.39594900  0.81054700  1
  N  N88  1  0.95407500  0.15041800  0.89873700  1
  N  N89  1  0.04592500  0.84958200  0.39873700  1
  N  N90  1  0.95407500  0.34958200  0.39873700  1
  N  N91  1  0.04592500  0.65041800  0.89873700  1
  N  N92  1  0.99516800  0.21970200  0.03242200  1
  N  N93  1  0.00483200  0.78029800  0.53242200  1
  N  N94  1  0.99516800  0.28029800  0.53242200  1
  N  N95  1  0.00483200  0.71970200  0.03242200  1
  N  N96  1  0.35194600  0.83480000  0.14097500  1
  N  N97  1  0.64805400  0.16520000  0.64097500  1
  N  N98  1  0.35194600  0.66520000  0.64097500  1
  N  N99  1  0.64805400  0.33480000  0.14097500  1
  N  N100  1  0.35411100  0.99490000  0.05396000  1
  N  N101  1  0.64588900  0.00510000  0.55396000  1
  N  N102  1  0.35411100  0.50510000  0.55396000  1
  N  N103  1  0.64588900  0.49490000  0.05396000  1
  O  O104  1  0.82007500  0.84100800  0.85118500  1
  O  O105  1  0.17992500  0.15899200  0.35118500  1
  O  O106  1  0.82007500  0.65899200  0.35118500  1
  O  O107  1  0.17992500  0.34100800  0.85118500  1
  O  O108  1  0.02468200  0.80099500  0.71962700  1
  O  O109  1  0.97531800  0.19900500  0.21962700  1
  O  O110  1  0.02468200  0.69900500  0.21962700  1
  O  O111  1  0.97531800  0.30099500  0.71962700  1
  O  O112  1  0.88189600  0.01737000  0.73908500  1
  O  O113  1  0.11810400  0.98263000  0.23908500  1
  O  O114  1  0.88189600  0.48263000  0.23908500  1
  O  O115  1  0.11810400  0.51737000  0.73908500  1
  O  O116  1  0.68708600  0.82881300  0.69167100  1
  O  O117  1  0.31291400  0.17118700  0.19167100  1
  O  O118  1  0.68708600  0.67118700  0.19167100  1
  O  O119  1  0.31291400  0.32881300  0.69167100  1
