# generated using pymatgen
data_VZnP2PbO9
_symmetry_space_group_name_H-M   'P 1'
_cell_length_a   8.86881300
_cell_length_b   9.24389500
_cell_length_c   18.27749500
_cell_angle_alpha   90.00000000
_cell_angle_beta   90.00000000
_cell_angle_gamma   90.00000000
_symmetry_Int_Tables_number   1
_chemical_formula_structural   VZnP2PbO9
_chemical_formula_sum   'V8 Zn8 P16 Pb8 O72'
_cell_volume   1498.43247011
_cell_formula_units_Z   8
loop_
 _symmetry_equiv_pos_site_id
 _symmetry_equiv_pos_as_xyz
  1  'x, y, z'
loop_
 _atom_site_type_symbol
 _atom_site_label
 _atom_site_symmetry_multiplicity
 _atom_site_fract_x
 _atom_site_fract_y
 _atom_site_fract_z
 _atom_site_occupancy
  V  V0  1  0.50034800  0.16129200  0.28739100  1
  V  V1  1  0.00034800  0.33870800  0.71260900  1
  V  V2  1  0.49965200  0.66129200  0.21260900  1
  V  V3  1  0.99965200  0.83870800  0.78739100  1
  V  V4  1  0.49965200  0.83870800  0.71260900  1
  V  V5  1  0.99965200  0.66129200  0.28739100  1
  V  V6  1  0.50034800  0.33870800  0.78739100  1
  V  V7  1  0.00034800  0.16129200  0.21260900  1
  Zn  Zn8  1  0.69899300  0.91230100  0.41444700  1
  Zn  Zn9  1  0.19899300  0.58769900  0.58555300  1
  Zn  Zn10  1  0.30100700  0.41230100  0.08555300  1
  Zn  Zn11  1  0.80100700  0.08769900  0.91444700  1
  Zn  Zn12  1  0.30100700  0.08769900  0.58555300  1
  Zn  Zn13  1  0.80100700  0.41230100  0.41444700  1
  Zn  Zn14  1  0.69899300  0.58769900  0.91444700  1
  Zn  Zn15  1  0.19899300  0.91230100  0.08555300  1
  P  P16  1  0.75043700  0.40962800  0.25959200  1
  P  P17  1  0.25043700  0.09037200  0.74040800  1
  P  P18  1  0.24956300  0.90962800  0.24040800  1
  P  P19  1  0.74956300  0.59037200  0.75959200  1
  P  P20  1  0.24956300  0.59037200  0.74040800  1
  P  P21  1  0.74956300  0.90962800  0.25959200  1
  P  P22  1  0.75043700  0.09037200  0.75959200  1
  P  P23  1  0.25043700  0.40962800  0.24040800  1
  P  P24  1  0.95075500  0.79922500  0.97743400  1
  P  P25  1  0.45075500  0.70077500  0.02256600  1
  P  P26  1  0.04924500  0.29922500  0.52256600  1
  P  P27  1  0.54924500  0.20077500  0.47743400  1
  P  P28  1  0.04924500  0.20077500  0.02256600  1
  P  P29  1  0.54924500  0.29922500  0.97743400  1
  P  P30  1  0.95075500  0.70077500  0.47743400  1
  P  P31  1  0.45075500  0.79922500  0.52256600  1
  Pb  Pb32  1  0.68194100  0.00623800  0.08849600  1
  Pb  Pb33  1  0.18194100  0.49376200  0.91150400  1
  Pb  Pb34  1  0.31805900  0.50623800  0.41150400  1
  Pb  Pb35  1  0.81805900  0.99376200  0.58849600  1
  Pb  Pb36  1  0.31805900  0.99376200  0.91150400  1
  Pb  Pb37  1  0.81805900  0.50623800  0.08849600  1
  Pb  Pb38  1  0.68194100  0.49376200  0.58849600  1
  Pb  Pb39  1  0.18194100  0.00623800  0.41150400  1
  O  O40  1  0.56060300  0.66496200  0.08689900  1
  O  O41  1  0.06060300  0.83503800  0.91310100  1
  O  O42  1  0.43939700  0.16496200  0.41310100  1
  O  O43  1  0.93939700  0.33503800  0.58689900  1
  O  O44  1  0.43939700  0.33503800  0.91310100  1
  O  O45  1  0.93939700  0.16496200  0.08689900  1
  O  O46  1  0.56060300  0.83503800  0.58689900  1
  O  O47  1  0.06060300  0.66496200  0.41310100  1
  O  O48  1  0.65080700  0.82134000  0.20679500  1
  O  O49  1  0.15080700  0.67866000  0.79320500  1
  O  O50  1  0.34919300  0.32134000  0.29320500  1
  O  O51  1  0.84919300  0.17866000  0.70679500  1
  O  O52  1  0.34919300  0.17866000  0.79320500  1
  O  O53  1  0.84919300  0.32134000  0.20679500  1
  O  O54  1  0.65080700  0.67866000  0.70679500  1
  O  O55  1  0.15080700  0.82134000  0.29320500  1
  O  O56  1  0.81387200  0.90567400  0.97681300  1
  O  O57  1  0.31387200  0.59432600  0.02318700  1
  O  O58  1  0.18612800  0.40567400  0.52318700  1
  O  O59  1  0.68612800  0.09432600  0.47681300  1
  O  O60  1  0.18612800  0.09432600  0.02318700  1
  O  O61  1  0.68612800  0.40567400  0.97681300  1
  O  O62  1  0.81387200  0.59432600  0.47681300  1
  O  O63  1  0.31387200  0.90567400  0.52318700  1
  O  O64  1  0.53091100  0.14944000  0.19867700  1
  O  O65  1  0.03091100  0.35056000  0.80132300  1
  O  O66  1  0.46908900  0.64944000  0.30132300  1
  O  O67  1  0.96908900  0.85056000  0.69867700  1
  O  O68  1  0.46908900  0.85056000  0.80132300  1
  O  O69  1  0.96908900  0.64944000  0.19867700  1
  O  O70  1  0.53091100  0.35056000  0.69867700  1
  O  O71  1  0.03091100  0.14944000  0.30132300  1
  O  O72  1  0.88846200  0.64019400  0.96776600  1
  O  O73  1  0.38846200  0.85980600  0.03223400  1
  O  O74  1  0.11153800  0.14019400  0.53223400  1
  O  O75  1  0.61153800  0.35980600  0.46776600  1
  O  O76  1  0.11153800  0.35980600  0.03223400  1
  O  O77  1  0.61153800  0.14019400  0.96776600  1
  O  O78  1  0.88846200  0.85980600  0.46776600  1
  O  O79  1  0.38846200  0.64019400  0.53223400  1
  O  O80  1  0.84572900  0.50143600  0.31553700  1
  O  O81  1  0.34572900  0.99856400  0.68446300  1
  O  O82  1  0.15427100  0.00143600  0.18446300  1
  O  O83  1  0.65427100  0.49856400  0.81553700  1
  O  O84  1  0.15427100  0.49856400  0.68446300  1
  O  O85  1  0.65427100  0.00143600  0.31553700  1
  O  O86  1  0.84572900  0.99856400  0.81553700  1
  O  O87  1  0.34572900  0.50143600  0.18446300  1
  O  O88  1  0.02546500  0.80097300  0.05318800  1
  O  O89  1  0.52546500  0.69902700  0.94681200  1
  O  O90  1  0.97453500  0.30097300  0.44681200  1
  O  O91  1  0.47453500  0.19902700  0.55318800  1
  O  O92  1  0.97453500  0.19902700  0.94681200  1
  O  O93  1  0.47453500  0.30097300  0.05318800  1
  O  O94  1  0.02546500  0.69902700  0.55318800  1
  O  O95  1  0.52546500  0.80097300  0.44681200  1
  O  O96  1  0.66175500  0.50877900  0.20679200  1
  O  O97  1  0.16175500  0.99122100  0.79320800  1
  O  O98  1  0.33824500  0.00877900  0.29320800  1
  O  O99  1  0.83824500  0.49122100  0.70679200  1
  O  O100  1  0.33824500  0.49122100  0.79320800  1
  O  O101  1  0.83824500  0.00877900  0.20679200  1
  O  O102  1  0.66175500  0.99122100  0.70679200  1
  O  O103  1  0.16175500  0.50877900  0.29320800  1
  O  O104  1  0.65529800  0.31520300  0.31159100  1
  O  O105  1  0.15529800  0.18479700  0.68840900  1
  O  O106  1  0.34470200  0.81520300  0.18840900  1
  O  O107  1  0.84470200  0.68479700  0.81159100  1
  O  O108  1  0.34470200  0.68479700  0.68840900  1
  O  O109  1  0.84470200  0.81520300  0.31159100  1
  O  O110  1  0.65529800  0.18479700  0.81159100  1
  O  O111  1  0.15529800  0.31520300  0.18840900  1
