# generated using pymatgen
data_MoBr5N2O
_symmetry_space_group_name_H-M   'P 1'
_cell_length_a   7.21441800
_cell_length_b   10.50928000
_cell_length_c   15.25665300
_cell_angle_alpha   90.00000000
_cell_angle_beta   90.00000000
_cell_angle_gamma   90.00000000
_symmetry_Int_Tables_number   1
_chemical_formula_structural   MoBr5N2O
_chemical_formula_sum   'Mo4 Br20 N8 O4'
_cell_volume   1156.73408609
_cell_formula_units_Z   4
loop_
 _symmetry_equiv_pos_site_id
 _symmetry_equiv_pos_as_xyz
  1  'x, y, z'
loop_
 _atom_site_type_symbol
 _atom_site_label
 _atom_site_symmetry_multiplicity
 _atom_site_fract_x
 _atom_site_fract_y
 _atom_site_fract_z
 _atom_site_occupancy
  Mo  Mo0  1  0.81710600  0.75000000  0.08439400  1
  Mo  Mo1  1  0.68289400  0.75000000  0.58439400  1
  Mo  Mo2  1  0.18289400  0.25000000  0.91560600  1
  Mo  Mo3  1  0.31710600  0.25000000  0.41560600  1
  Br  Br4  1  0.80992400  0.98423600  0.10473700  1
  Br  Br5  1  0.69007600  0.51576400  0.60473700  1
  Br  Br6  1  0.19007600  0.48423600  0.89526300  1
  Br  Br7  1  0.30992400  0.01576400  0.39526300  1
  Br  Br8  1  0.19007600  0.01576400  0.89526300  1
  Br  Br9  1  0.30992400  0.48423600  0.39526300  1
  Br  Br10  1  0.80992400  0.51576400  0.10473700  1
  Br  Br11  1  0.69007600  0.98423600  0.60473700  1
  Br  Br12  1  0.52289300  0.75000000  0.00621100  1
  Br  Br13  1  0.97710700  0.75000000  0.50621100  1
  Br  Br14  1  0.47710700  0.25000000  0.99378900  1
  Br  Br15  1  0.02289300  0.25000000  0.49378900  1
  Br  Br16  1  0.02346400  0.75000000  0.22702900  1
  Br  Br17  1  0.47653600  0.75000000  0.72702900  1
  Br  Br18  1  0.97653600  0.25000000  0.77297100  1
  Br  Br19  1  0.52346400  0.25000000  0.27297100  1
  Br  Br20  1  0.62940000  0.75000000  0.25277400  1
  Br  Br21  1  0.87060000  0.75000000  0.75277400  1
  Br  Br22  1  0.37060000  0.25000000  0.74722600  1
  Br  Br23  1  0.12940000  0.25000000  0.24722600  1
  N  N24  1  0.84403800  0.49797200  0.35578000  1
  N  N25  1  0.65596200  0.00202800  0.85578000  1
  N  N26  1  0.15596200  0.99797200  0.64422000  1
  N  N27  1  0.34403800  0.50202800  0.14422000  1
  N  N28  1  0.15596200  0.50202800  0.64422000  1
  N  N29  1  0.34403800  0.99797200  0.14422000  1
  N  N30  1  0.84403800  0.00202800  0.35578000  1
  N  N31  1  0.65596200  0.49797200  0.85578000  1
  O  O32  1  0.98323500  0.75000000  0.00544300  1
  O  O33  1  0.51676500  0.75000000  0.50544300  1
  O  O34  1  0.01676500  0.25000000  0.99455700  1
  O  O35  1  0.48323500  0.25000000  0.49455700  1
