# generated using pymatgen
data_Ba2SrMg4F14
_symmetry_space_group_name_H-M   'P 1'
_cell_length_a   12.63162300
_cell_length_b   12.63162300
_cell_length_c   7.57588100
_cell_angle_alpha   90.00000000
_cell_angle_beta   90.00000000
_cell_angle_gamma   90.00000000
_symmetry_Int_Tables_number   1
_chemical_formula_structural   Ba2SrMg4F14
_chemical_formula_sum   'Ba8 Sr4 Mg16 F56'
_cell_volume   1208.79166009
_cell_formula_units_Z   4
loop_
 _symmetry_equiv_pos_site_id
 _symmetry_equiv_pos_as_xyz
  1  'x, y, z'
loop_
 _atom_site_type_symbol
 _atom_site_label
 _atom_site_symmetry_multiplicity
 _atom_site_fract_x
 _atom_site_fract_y
 _atom_site_fract_z
 _atom_site_occupancy
  Ba  Ba0  1  0.52039400  0.18865800  0.50000000  1
  Ba  Ba1  1  0.47960600  0.81134200  0.50000000  1
  Ba  Ba2  1  0.02039400  0.31134200  0.00000000  1
  Ba  Ba3  1  0.97960600  0.68865800  0.00000000  1
  Ba  Ba4  1  0.18865800  0.52039400  0.50000000  1
  Ba  Ba5  1  0.81134200  0.47960600  0.50000000  1
  Ba  Ba6  1  0.31134200  0.02039400  0.00000000  1
  Ba  Ba7  1  0.68865800  0.97960600  0.00000000  1
  Sr  Sr8  1  0.50000000  0.50000000  0.25313500  1
  Sr  Sr9  1  0.00000000  0.00000000  0.75313500  1
  Sr  Sr10  1  0.50000000  0.50000000  0.74686500  1
  Sr  Sr11  1  0.00000000  0.00000000  0.24686500  1
  Mg  Mg12  1  0.79637900  0.20362100  0.25410900  1
  Mg  Mg13  1  0.20362100  0.79637900  0.25410900  1
  Mg  Mg14  1  0.29637900  0.29637900  0.75410900  1
  Mg  Mg15  1  0.70362100  0.70362100  0.75410900  1
  Mg  Mg16  1  0.20362100  0.79637900  0.74589100  1
  Mg  Mg17  1  0.79637900  0.20362100  0.74589100  1
  Mg  Mg18  1  0.70362100  0.70362100  0.24589100  1
  Mg  Mg19  1  0.29637900  0.29637900  0.24589100  1
  Mg  Mg20  1  0.74690900  0.95126600  0.50000000  1
  Mg  Mg21  1  0.25309100  0.04873400  0.50000000  1
  Mg  Mg22  1  0.24690900  0.54873400  0.00000000  1
  Mg  Mg23  1  0.75309100  0.45126600  0.00000000  1
  Mg  Mg24  1  0.95126600  0.74690900  0.50000000  1
  Mg  Mg25  1  0.04873400  0.25309100  0.50000000  1
  Mg  Mg26  1  0.54873400  0.24690900  0.00000000  1
  Mg  Mg27  1  0.45126600  0.75309100  0.00000000  1
  F  F28  1  0.64558400  0.19245500  0.18994600  1
  F  F29  1  0.35441600  0.80754500  0.18994600  1
  F  F30  1  0.14558400  0.30754500  0.68994600  1
  F  F31  1  0.85441600  0.69245500  0.68994600  1
  F  F32  1  0.35441600  0.80754500  0.81005400  1
  F  F33  1  0.64558400  0.19245500  0.81005400  1
  F  F34  1  0.85441600  0.69245500  0.31005400  1
  F  F35  1  0.14558400  0.30754500  0.31005400  1
  F  F36  1  0.19245500  0.64558400  0.18994600  1
  F  F37  1  0.80754500  0.35441600  0.18994600  1
  F  F38  1  0.30754500  0.14558400  0.68994600  1
  F  F39  1  0.69245500  0.85441600  0.68994600  1
  F  F40  1  0.80754500  0.35441600  0.81005400  1
  F  F41  1  0.19245500  0.64558400  0.81005400  1
  F  F42  1  0.69245500  0.85441600  0.31005400  1
  F  F43  1  0.30754500  0.14558400  0.31005400  1
  F  F44  1  0.80085800  0.04580900  0.30212100  1
  F  F45  1  0.19914200  0.95419100  0.30212100  1
  F  F46  1  0.30085800  0.45419100  0.80212100  1
  F  F47  1  0.69914200  0.54580900  0.80212100  1
  F  F48  1  0.19914200  0.95419100  0.69787900  1
  F  F49  1  0.80085800  0.04580900  0.69787900  1
  F  F50  1  0.69914200  0.54580900  0.19787900  1
  F  F51  1  0.30085800  0.45419100  0.19787900  1
  F  F52  1  0.04580900  0.80085800  0.30212100  1
  F  F53  1  0.95419100  0.19914200  0.30212100  1
  F  F54  1  0.45419100  0.30085800  0.80212100  1
  F  F55  1  0.54580900  0.69914200  0.80212100  1
  F  F56  1  0.95419100  0.19914200  0.69787900  1
  F  F57  1  0.04580900  0.80085800  0.69787900  1
  F  F58  1  0.54580900  0.69914200  0.19787900  1
  F  F59  1  0.45419100  0.30085800  0.19787900  1
  F  F60  1  0.60748900  0.01159400  0.50000000  1
  F  F61  1  0.39251100  0.98840600  0.50000000  1
  F  F62  1  0.10748900  0.48840600  0.00000000  1
  F  F63  1  0.89251100  0.51159400  0.00000000  1
  F  F64  1  0.01159400  0.60748900  0.50000000  1
  F  F65  1  0.98840600  0.39251100  0.50000000  1
  F  F66  1  0.48840600  0.10748900  0.00000000  1
  F  F67  1  0.51159400  0.89251100  0.00000000  1
  F  F68  1  0.66372100  0.66372100  0.50000000  1
  F  F69  1  0.33627900  0.33627900  0.50000000  1
  F  F70  1  0.16372100  0.83627900  0.00000000  1
  F  F71  1  0.83627900  0.16372100  0.00000000  1
  F  F72  1  0.90045900  0.90045900  0.50000000  1
  F  F73  1  0.09954100  0.09954100  0.50000000  1
  F  F74  1  0.40045900  0.59954100  0.00000000  1
  F  F75  1  0.59954100  0.40045900  0.00000000  1
  F  F76  1  0.75927000  0.24073000  0.50000000  1
  F  F77  1  0.24073000  0.75927000  0.50000000  1
  F  F78  1  0.25927000  0.25927000  0.00000000  1
  F  F79  1  0.74073000  0.74073000  0.00000000  1
  F  F80  1  0.58391400  0.41608600  0.50000000  1
  F  F81  1  0.41608600  0.58391400  0.50000000  1
  F  F82  1  0.08391400  0.08391400  0.00000000  1
  F  F83  1  0.91608600  0.91608600  0.00000000  1
