# generated using pymatgen
data_Cu2Pb5C(SO7)3
_symmetry_space_group_name_H-M   'P 1'
_cell_length_a   6.10116300
_cell_length_b   7.59142200
_cell_length_c   20.78403700
_cell_angle_alpha   90.00000000
_cell_angle_beta   90.00000000
_cell_angle_gamma   90.00000000
_symmetry_Int_Tables_number   1
_chemical_formula_structural   Cu2Pb5C(SO7)3
_chemical_formula_sum   'Cu4 Pb10 C2 S6 O42'
_cell_volume   962.64391256
_cell_formula_units_Z   2
loop_
 _symmetry_equiv_pos_site_id
 _symmetry_equiv_pos_as_xyz
  1  'x, y, z'
loop_
 _atom_site_type_symbol
 _atom_site_label
 _atom_site_symmetry_multiplicity
 _atom_site_fract_x
 _atom_site_fract_y
 _atom_site_fract_z
 _atom_site_occupancy
  Cu  Cu0  1  0.18631500  0.49646800  0.24928500  1
  Cu  Cu1  1  0.18631500  0.49646800  0.75071500  1
  Cu  Cu2  1  0.68631500  0.50353200  0.25071500  1
  Cu  Cu3  1  0.68631500  0.50353200  0.74928500  1
  Pb  Pb4  1  0.98748600  0.10676600  0.00000000  1
  Pb  Pb5  1  0.48748600  0.89323400  0.50000000  1
  Pb  Pb6  1  0.45323300  0.43132400  0.09598300  1
  Pb  Pb7  1  0.45323300  0.43132400  0.90401700  1
  Pb  Pb8  1  0.95323300  0.56867600  0.40401700  1
  Pb  Pb9  1  0.95323300  0.56867600  0.59598300  1
  Pb  Pb10  1  0.41662800  0.87636700  0.16910000  1
  Pb  Pb11  1  0.41662800  0.87636700  0.83090000  1
  Pb  Pb12  1  0.91662800  0.12363300  0.33090000  1
  Pb  Pb13  1  0.91662800  0.12363300  0.66910000  1
  C  C14  1  0.41518900  0.83577400  0.00000000  1
  C  C15  1  0.91518900  0.16422600  0.50000000  1
  S  S16  1  0.94353800  0.12208400  0.16149900  1
  S  S17  1  0.94353800  0.12208400  0.83850100  1
  S  S18  1  0.44353800  0.87791600  0.33850100  1
  S  S19  1  0.44353800  0.87791600  0.66149900  1
  S  S20  1  0.95063700  0.55731400  0.00000000  1
  S  S21  1  0.45063700  0.44268600  0.50000000  1
  O  O22  1  0.13695800  0.39133600  0.32757000  1
  O  O23  1  0.13695800  0.39133600  0.67243000  1
  O  O24  1  0.63695800  0.60866400  0.17243000  1
  O  O25  1  0.63695800  0.60866400  0.82757000  1
  O  O26  1  0.24010200  0.59548900  0.17009100  1
  O  O27  1  0.24010200  0.59548900  0.82990900  1
  O  O28  1  0.74010200  0.40451100  0.32990900  1
  O  O29  1  0.74010200  0.40451100  0.67009100  1
  O  O30  1  0.43894500  0.37156000  0.23669900  1
  O  O31  1  0.43894500  0.37156000  0.76330100  1
  O  O32  1  0.93894500  0.62844000  0.26330100  1
  O  O33  1  0.93894500  0.62844000  0.73669900  1
  O  O34  1  0.95272700  0.66421500  0.05859900  1
  O  O35  1  0.95272700  0.66421500  0.94140100  1
  O  O36  1  0.45272700  0.33578500  0.44140100  1
  O  O37  1  0.45272700  0.33578500  0.55859900  1
  O  O38  1  0.75512600  0.43039100  0.00000000  1
  O  O39  1  0.25512600  0.56960900  0.50000000  1
  O  O40  1  0.14887300  0.42798000  0.00000000  1
  O  O41  1  0.64887300  0.57202000  0.50000000  1
  O  O42  1  0.92705400  0.26417800  0.21058600  1
  O  O43  1  0.92705400  0.26417800  0.78941400  1
  O  O44  1  0.42705400  0.73582200  0.28941400  1
  O  O45  1  0.42705400  0.73582200  0.71058600  1
  O  O46  1  0.99235000  0.95330800  0.19469500  1
  O  O47  1  0.99235000  0.95330800  0.80530500  1
  O  O48  1  0.49235000  0.04669200  0.30530500  1
  O  O49  1  0.49235000  0.04669200  0.69469500  1
  O  O50  1  0.73636200  0.11126700  0.12309700  1
  O  O51  1  0.73636200  0.11126700  0.87690300  1
  O  O52  1  0.23636200  0.88873300  0.37690300  1
  O  O53  1  0.23636200  0.88873300  0.62309700  1
  O  O54  1  0.12767400  0.16285900  0.11464600  1
  O  O55  1  0.12767400  0.16285900  0.88535400  1
  O  O56  1  0.62767400  0.83714100  0.38535400  1
  O  O57  1  0.62767400  0.83714100  0.61464600  1
  O  O58  1  0.44186300  0.75333300  0.05426700  1
  O  O59  1  0.44186300  0.75333300  0.94573300  1
  O  O60  1  0.94186300  0.24666700  0.44573300  1
  O  O61  1  0.94186300  0.24666700  0.55426700  1
  O  O62  1  0.36519200  0.00166900  0.00000000  1
  O  O63  1  0.86519200  0.99833100  0.50000000  1
