# generated using pymatgen
data_CaLaMn2O6
_symmetry_space_group_name_H-M   'P 1'
_cell_length_a   5.54656900
_cell_length_b   7.64861200
_cell_length_c   11.02222600
_cell_angle_alpha   90.00000000
_cell_angle_beta   90.00000000
_cell_angle_gamma   90.00000000
_symmetry_Int_Tables_number   1
_chemical_formula_structural   CaLaMn2O6
_chemical_formula_sum   'Ca4 La4 Mn8 O24'
_cell_volume   467.60200225
_cell_formula_units_Z   4
loop_
 _symmetry_equiv_pos_site_id
 _symmetry_equiv_pos_as_xyz
  1  'x, y, z'
loop_
 _atom_site_type_symbol
 _atom_site_label
 _atom_site_symmetry_multiplicity
 _atom_site_fract_x
 _atom_site_fract_y
 _atom_site_fract_z
 _atom_site_occupancy
  Ca  Ca0  1  0.49685800  0.50000000  0.38348900  1
  Ca  Ca1  1  0.50314200  0.00000000  0.88348900  1
  Ca  Ca2  1  0.99580200  0.00000000  0.11317400  1
  Ca  Ca3  1  0.00419800  0.50000000  0.61317400  1
  La  La4  1  0.48478600  0.50000000  0.86736800  1
  La  La5  1  0.51521400  0.00000000  0.36736800  1
  La  La6  1  0.99259300  0.00000000  0.62770700  1
  La  La7  1  0.00740700  0.50000000  0.12770700  1
  Mn  Mn8  1  0.01067900  0.25158600  0.37142600  1
  Mn  Mn9  1  0.01067900  0.74841400  0.37142600  1
  Mn  Mn10  1  0.98932100  0.24841400  0.87142600  1
  Mn  Mn11  1  0.98932100  0.75158600  0.87142600  1
  Mn  Mn12  1  0.50583400  0.24826700  0.12203600  1
  Mn  Mn13  1  0.50583400  0.75173300  0.12203600  1
  Mn  Mn14  1  0.49416600  0.25173300  0.62203600  1
  Mn  Mn15  1  0.49416600  0.74826700  0.62203600  1
  O  O16  1  0.25412700  0.29490200  0.49706800  1
  O  O17  1  0.25412700  0.70509800  0.49706800  1
  O  O18  1  0.74587300  0.20509800  0.99706800  1
  O  O19  1  0.74587300  0.79490200  0.99706800  1
  O  O20  1  0.27782500  0.29557600  0.25324400  1
  O  O21  1  0.27782500  0.70442400  0.25324400  1
  O  O22  1  0.72217500  0.20442400  0.75324400  1
  O  O23  1  0.72217500  0.79557600  0.75324400  1
  O  O24  1  0.21949100  0.28937700  0.74181200  1
  O  O25  1  0.21949100  0.71062300  0.74181200  1
  O  O26  1  0.78050900  0.21062300  0.24181200  1
  O  O27  1  0.78050900  0.78937700  0.24181200  1
  O  O28  1  0.75939400  0.21393000  0.49498500  1
  O  O29  1  0.75939400  0.78607000  0.49498500  1
  O  O30  1  0.24060600  0.28607000  0.99498500  1
  O  O31  1  0.24060600  0.71393000  0.99498500  1
  O  O32  1  0.42703200  0.00000000  0.60618900  1
  O  O33  1  0.57296800  0.50000000  0.10618900  1
  O  O34  1  0.57766800  0.50000000  0.63149000  1
  O  O35  1  0.42233200  0.00000000  0.13149000  1
  O  O36  1  0.07552700  0.00000000  0.86351200  1
  O  O37  1  0.92447300  0.50000000  0.36351200  1
  O  O38  1  0.91795500  0.50000000  0.87922700  1
  O  O39  1  0.08204500  0.00000000  0.37922700  1
