# generated using pymatgen
data_MnSe2O9
_symmetry_space_group_name_H-M   'P 1'
_cell_length_a   4.99612500
_cell_length_b   8.60482389
_cell_length_c   15.91746298
_cell_angle_alpha   100.39662895
_cell_angle_beta   90.00000000
_cell_angle_gamma   90.00000000
_symmetry_Int_Tables_number   1
_chemical_formula_structural   MnSe2O9
_chemical_formula_sum   'Mn4 Se8 O36'
_cell_volume   673.06923895
_cell_formula_units_Z   4
loop_
 _symmetry_equiv_pos_site_id
 _symmetry_equiv_pos_as_xyz
  1  'x, y, z'
loop_
 _atom_site_type_symbol
 _atom_site_label
 _atom_site_symmetry_multiplicity
 _atom_site_fract_x
 _atom_site_fract_y
 _atom_site_fract_z
 _atom_site_occupancy
  Mn  Mn0  1  0.25474100  0.74749700  0.98926600  1
  Mn  Mn1  1  0.24525900  0.24749700  0.48926600  1
  Mn  Mn2  1  0.74525900  0.25250300  0.01073400  1
  Mn  Mn3  1  0.75474100  0.75250300  0.51073400  1
  Se  Se4  1  0.76053500  0.63595600  0.10691300  1
  Se  Se5  1  0.73946500  0.13595600  0.60691300  1
  Se  Se6  1  0.23946500  0.36404400  0.89308700  1
  Se  Se7  1  0.26053500  0.86404400  0.39308700  1
  Se  Se8  1  0.24190300  0.11173200  0.11762700  1
  Se  Se9  1  0.25809700  0.61173200  0.61762700  1
  Se  Se10  1  0.75809700  0.88826800  0.88237300  1
  Se  Se11  1  0.74190300  0.38826800  0.38237300  1
  O  O12  1  0.58135000  0.76123500  0.05668100  1
  O  O13  1  0.91865000  0.26123500  0.55668100  1
  O  O14  1  0.41865000  0.23876500  0.94331900  1
  O  O15  1  0.08135000  0.73876500  0.44331900  1
  O  O16  1  0.07839800  0.62682800  0.06563100  1
  O  O17  1  0.42160200  0.12682800  0.56563100  1
  O  O18  1  0.92160200  0.37317200  0.93436900  1
  O  O19  1  0.57839800  0.87317200  0.43436900  1
  O  O20  1  0.62670100  0.45126900  0.08315000  1
  O  O21  1  0.87329900  0.95126900  0.58315000  1
  O  O22  1  0.37329900  0.54873100  0.91685000  1
  O  O23  1  0.12670100  0.04873100  0.41685000  1
  O  O24  1  0.76224100  0.69829100  0.20939900  1
  O  O25  1  0.73775900  0.19829100  0.70939900  1
  O  O26  1  0.23775900  0.30170900  0.79060100  1
  O  O27  1  0.26224100  0.80170900  0.29060100  1
  O  O28  1  0.56731800  0.13370400  0.08842600  1
  O  O29  1  0.93268200  0.63370400  0.58842600  1
  O  O30  1  0.43268200  0.86629600  0.91157400  1
  O  O31  1  0.06731800  0.36629600  0.41157400  1
  O  O32  1  0.05691300  0.25853300  0.08648300  1
  O  O33  1  0.44308700  0.75853300  0.58648300  1
  O  O34  1  0.94308700  0.74146700  0.91351700  1
  O  O35  1  0.55691300  0.24146700  0.41351700  1
  O  O36  1  0.11896900  0.93661700  0.06524300  1
  O  O37  1  0.38103100  0.43661700  0.56524300  1
  O  O38  1  0.88103100  0.06338300  0.93475700  1
  O  O39  1  0.61896900  0.56338300  0.43475700  1
  O  O40  1  0.22933600  0.12127800  0.22055900  1
  O  O41  1  0.27066400  0.62127800  0.72055900  1
  O  O42  1  0.77066400  0.87872200  0.77944100  1
  O  O43  1  0.72933600  0.37872200  0.27944100  1
  O  O44  1  0.79112400  0.99530700  0.25068200  1
  O  O45  1  0.70887600  0.49530700  0.75068200  1
  O  O46  1  0.20887600  0.00469300  0.74931800  1
  O  O47  1  0.29112400  0.50469300  0.24931800  1
