# generated using pymatgen
data_Cd6P7NO24
_symmetry_space_group_name_H-M   'P 1'
_cell_length_a   27.78551900
_cell_length_b   5.55688700
_cell_length_c   6.89827195
_cell_angle_alpha   72.73495729
_cell_angle_beta   90.00000000
_cell_angle_gamma   90.00000000
_symmetry_Int_Tables_number   1
_chemical_formula_structural   Cd6P7NO24
_chemical_formula_sum   'Cd12 P14 N2 O48'
_cell_volume   1017.10879709
_cell_formula_units_Z   2
loop_
 _symmetry_equiv_pos_site_id
 _symmetry_equiv_pos_as_xyz
  1  'x, y, z'
loop_
 _atom_site_type_symbol
 _atom_site_label
 _atom_site_symmetry_multiplicity
 _atom_site_fract_x
 _atom_site_fract_y
 _atom_site_fract_z
 _atom_site_occupancy
  Cd  Cd0  1  0.15056200  0.00288600  0.00300900  1
  Cd  Cd1  1  0.84943800  0.00288600  0.00300900  1
  Cd  Cd2  1  0.29384200  0.03337000  0.60939800  1
  Cd  Cd3  1  0.70615800  0.03337000  0.60939800  1
  Cd  Cd4  1  0.06494800  0.32160000  0.62396700  1
  Cd  Cd5  1  0.93505200  0.32160000  0.62396700  1
  Cd  Cd6  1  0.20728000  0.39396400  0.23782200  1
  Cd  Cd7  1  0.79272000  0.39396400  0.23782200  1
  Cd  Cd8  1  0.34966300  0.42521400  0.84472400  1
  Cd  Cd9  1  0.65033700  0.42521400  0.84472400  1
  Cd  Cd10  1  0.43516400  0.10613400  0.22309300  1
  Cd  Cd11  1  0.56483600  0.10613400  0.22309300  1
  P  P12  1  0.14254300  0.88297000  0.53388400  1
  P  P13  1  0.85745700  0.88297000  0.53388400  1
  P  P14  1  0.42055500  0.96757200  0.75292000  1
  P  P15  1  0.57944500  0.96757200  0.75292000  1
  P  P16  1  0.22574100  0.50785800  0.71550000  1
  P  P17  1  0.77425900  0.50785800  0.71550000  1
  P  P18  1  0.50000000  0.68550900  0.02996900  1
  P  P19  1  0.35728800  0.54553400  0.31337500  1
  P  P20  1  0.64271200  0.54553400  0.31337500  1
  P  P21  1  0.00000000  0.74049900  0.81498900  1
  P  P22  1  0.07954800  0.46063300  0.09339500  1
  P  P23  1  0.92045200  0.46063300  0.09339500  1
  P  P24  1  0.27444600  0.91937700  0.13207300  1
  P  P25  1  0.72555400  0.91937700  0.13207300  1
  N  N26  1  0.00000000  0.93891000  0.27255300  1
  N  N27  1  0.50000000  0.46899700  0.57103800  1
  O  O28  1  0.20203600  0.35301000  0.91427700  1
  O  O29  1  0.79796400  0.35301000  0.91427700  1
  O  O30  1  0.29884100  0.07209800  0.93468100  1
  O  O31  1  0.70115900  0.07209800  0.93468100  1
  O  O32  1  0.50000000  0.40660200  0.14223900  1
  O  O33  1  0.34563600  0.36673100  0.52570800  1
  O  O34  1  0.65436400  0.36673100  0.52570800  1
  O  O35  1  0.15502300  0.06173900  0.32210200  1
  O  O36  1  0.84497700  0.06173900  0.32210200  1
  O  O37  1  0.37307500  0.83518100  0.73164700  1
  O  O38  1  0.62692500  0.83518100  0.73164700  1
  O  O39  1  0.00000000  0.01939900  0.70075500  1
  O  O40  1  0.04603300  0.69477000  0.95969400  1
  O  O41  1  0.95396700  0.69477000  0.95969400  1
  O  O42  1  0.00000000  0.55187200  0.69374900  1
  O  O43  1  0.45418100  0.73154400  0.88426500  1
  O  O44  1  0.54581900  0.73154400  0.88426500  1
  O  O45  1  0.37169500  0.39126200  0.16919700  1
  O  O46  1  0.62830500  0.39126200  0.16919700  1
  O  O47  1  0.05425800  0.34633100  0.29456400  1
  O  O48  1  0.94574200  0.34633100  0.29456400  1
  O  O49  1  0.41578000  0.15090800  0.88098100  1
  O  O50  1  0.58422000  0.15090800  0.88098100  1
  O  O51  1  0.50000000  0.87140000  0.15241400  1
  O  O52  1  0.12692900  0.59248300  0.11532600  1
  O  O53  1  0.87307100  0.59248300  0.11532600  1
  O  O54  1  0.44563000  0.08532500  0.55161100  1
  O  O55  1  0.55437000  0.08532500  0.55161100  1
  O  O56  1  0.27100200  0.07169800  0.28491300  1
  O  O57  1  0.72899800  0.07169800  0.28491300  1
  O  O58  1  0.27438700  0.62260100  0.75005500  1
  O  O59  1  0.72561300  0.62260100  0.75005500  1
  O  O60  1  0.22563500  0.80645800  0.09653400  1
  O  O61  1  0.77436500  0.80645800  0.09653400  1
  O  O62  1  0.12852200  0.03885700  0.67774900  1
  O  O63  1  0.87147800  0.03885700  0.67774900  1
  O  O64  1  0.08452100  0.27635300  0.96752400  1
  O  O65  1  0.91547900  0.27635300  0.96752400  1
  O  O66  1  0.19405400  0.75794700  0.62089200  1
  O  O67  1  0.80594600  0.75794700  0.62089200  1
  O  O68  1  0.30519700  0.66569400  0.22878600  1
  O  O69  1  0.69480300  0.66569400  0.22878600  1
  O  O70  1  0.22935400  0.35503000  0.56309200  1
  O  O71  1  0.77064600  0.35503000  0.56309200  1
  O  O72  1  0.39204500  0.75073900  0.31906500  1
  O  O73  1  0.60795500  0.75073900  0.31906500  1
  O  O74  1  0.10695400  0.68353100  0.52582500  1
  O  O75  1  0.89304600  0.68353100  0.52582500  1
