# generated using pymatgen
data_CaAsO5
_symmetry_space_group_name_H-M   'P 1'
_cell_length_a   6.56131200
_cell_length_b   8.62942800
_cell_length_c   15.32572600
_cell_angle_alpha   90.00000000
_cell_angle_beta   90.00000000
_cell_angle_gamma   90.00000000
_symmetry_Int_Tables_number   1
_chemical_formula_structural   CaAsO5
_chemical_formula_sum   'Ca8 As8 O40'
_cell_volume   867.74826882
_cell_formula_units_Z   8
loop_
 _symmetry_equiv_pos_site_id
 _symmetry_equiv_pos_as_xyz
  1  'x, y, z'
loop_
 _atom_site_type_symbol
 _atom_site_label
 _atom_site_symmetry_multiplicity
 _atom_site_fract_x
 _atom_site_fract_y
 _atom_site_fract_z
 _atom_site_occupancy
  Ca  Ca0  1  0.36138500  0.19133800  0.46356800  1
  Ca  Ca1  1  0.13861500  0.30866200  0.96356800  1
  Ca  Ca2  1  0.86138500  0.30866200  0.53643200  1
  Ca  Ca3  1  0.63861500  0.19133800  0.03643200  1
  Ca  Ca4  1  0.63861500  0.80866200  0.53643200  1
  Ca  Ca5  1  0.86138500  0.69133800  0.03643200  1
  Ca  Ca6  1  0.13861500  0.69133800  0.46356800  1
  Ca  Ca7  1  0.36138500  0.80866200  0.96356800  1
  As  As8  1  0.86571400  0.04990500  0.38752800  1
  As  As9  1  0.63428600  0.45009500  0.88752800  1
  As  As10  1  0.36571400  0.45009500  0.61247200  1
  As  As11  1  0.13428600  0.04990500  0.11247200  1
  As  As12  1  0.13428600  0.95009500  0.61247200  1
  As  As13  1  0.36571400  0.54990500  0.11247200  1
  As  As14  1  0.63428600  0.54990500  0.38752800  1
  As  As15  1  0.86571400  0.95009500  0.88752800  1
  O  O16  1  0.73723500  0.09630700  0.28603300  1
  O  O17  1  0.76276500  0.40369300  0.78603300  1
  O  O18  1  0.23723500  0.40369300  0.71396700  1
  O  O19  1  0.26276500  0.09630700  0.21396700  1
  O  O20  1  0.26276500  0.90369300  0.71396700  1
  O  O21  1  0.23723500  0.59630700  0.21396700  1
  O  O22  1  0.76276500  0.59630700  0.28603300  1
  O  O23  1  0.73723500  0.90369300  0.78603300  1
  O  O24  1  0.03040900  0.19888700  0.40701100  1
  O  O25  1  0.46959100  0.30111300  0.90701100  1
  O  O26  1  0.53040900  0.30111300  0.59298900  1
  O  O27  1  0.96959100  0.19888700  0.09298900  1
  O  O28  1  0.96959100  0.80111300  0.59298900  1
  O  O29  1  0.53040900  0.69888700  0.09298900  1
  O  O30  1  0.46959100  0.69888700  0.40701100  1
  O  O31  1  0.03040900  0.80111300  0.90701100  1
  O  O32  1  0.96170000  0.86958400  0.38501300  1
  O  O33  1  0.53830000  0.63041600  0.88501300  1
  O  O34  1  0.46170000  0.63041600  0.61498700  1
  O  O35  1  0.03830000  0.86958400  0.11498700  1
  O  O36  1  0.03830000  0.13041600  0.61498700  1
  O  O37  1  0.46170000  0.36958400  0.11498700  1
  O  O38  1  0.53830000  0.36958400  0.38501300  1
  O  O39  1  0.96170000  0.13041600  0.88501300  1
  O  O40  1  0.68399500  0.06289300  0.46892400  1
  O  O41  1  0.81600500  0.43710700  0.96892400  1
  O  O42  1  0.18399500  0.43710700  0.53107600  1
  O  O43  1  0.31600500  0.06289300  0.03107600  1
  O  O44  1  0.31600500  0.93710700  0.53107600  1
  O  O45  1  0.18399500  0.56289300  0.03107600  1
  O  O46  1  0.81600500  0.56289300  0.46892400  1
  O  O47  1  0.68399500  0.93710700  0.96892400  1
  O  O48  1  0.54401400  0.97002300  0.28609400  1
  O  O49  1  0.95598600  0.52997700  0.78609400  1
  O  O50  1  0.04401400  0.52997700  0.71390600  1
  O  O51  1  0.45598600  0.97002300  0.21390600  1
  O  O52  1  0.45598600  0.02997700  0.71390600  1
  O  O53  1  0.04401400  0.47002300  0.21390600  1
  O  O54  1  0.95598600  0.47002300  0.28609400  1
  O  O55  1  0.54401400  0.02997700  0.78609400  1
