# generated using pymatgen
data_VZnH14(O2F)4
_symmetry_space_group_name_H-M   'P 1'
_cell_length_a   6.55364191
_cell_length_b   11.36999689
_cell_length_c   14.16086353
_cell_angle_alpha   89.73486496
_cell_angle_beta   89.22629416
_cell_angle_gamma   78.62623491
_symmetry_Int_Tables_number   1
_chemical_formula_structural   VZnH14(O2F)4
_chemical_formula_sum   'V4 Zn4 H56 O32 F16'
_cell_volume   1034.37639802
_cell_formula_units_Z   4
loop_
 _symmetry_equiv_pos_site_id
 _symmetry_equiv_pos_as_xyz
  1  'x, y, z'
loop_
 _atom_site_type_symbol
 _atom_site_label
 _atom_site_symmetry_multiplicity
 _atom_site_fract_x
 _atom_site_fract_y
 _atom_site_fract_z
 _atom_site_occupancy
  V  V0  1  0.49466600  0.23650700  0.26688600  1
  V  V1  1  0.50533400  0.76349300  0.73311400  1
  V  V2  1  0.48754100  0.73344600  0.24062000  1
  V  V3  1  0.51245900  0.26655400  0.75938000  1
  Zn  Zn4  1  0.00000000  0.00000000  0.00000000  1
  Zn  Zn5  1  0.00000000  0.50000000  0.00000000  1
  Zn  Zn6  1  0.00000000  0.50000000  0.50000000  1
  Zn  Zn7  1  0.00000000  0.00000000  0.50000000  1
  H  H8  1  0.60297200  0.09834000  0.06446700  1
  H  H9  1  0.39702800  0.90166000  0.93553300  1
  H  H10  1  0.59883200  0.11271200  0.95316400  1
  H  H11  1  0.40116800  0.88728800  0.04683600  1
  H  H12  1  0.04135100  0.84365900  0.85156400  1
  H  H13  1  0.95864900  0.15634100  0.14843600  1
  H  H14  1  0.80417200  0.85992400  0.88468800  1
  H  H15  1  0.19582800  0.14007600  0.11531200  1
  H  H16  1  0.82324300  0.86416100  0.12996600  1
  H  H17  1  0.17675700  0.13583900  0.87003400  1
  H  H18  1  0.05256800  0.87210700  0.16596900  1
  H  H19  1  0.94743200  0.12789300  0.83403100  1
  H  H20  1  0.66672900  0.68707300  0.04300500  1
  H  H21  1  0.33327100  0.31292700  0.95699500  1
  H  H22  1  0.61442500  0.62510900  0.94640000  1
  H  H23  1  0.38557500  0.37489100  0.05360000  1
  H  H24  1  0.76785000  0.35986500  0.91120700  1
  H  H25  1  0.23215000  0.64013500  0.08879300  1
  H  H26  1  0.92597300  0.27768400  0.97891000  1
  H  H27  1  0.07402700  0.72231600  0.02109000  1
  H  H28  1  0.05401800  0.41192700  0.18218700  1
  H  H29  1  0.94598200  0.58807300  0.81781300  1
  H  H30  1  0.80414200  0.37142000  0.37975500  1
  H  H31  1  0.19585800  0.62858000  0.62024500  1
  H  H32  1  0.04273000  0.35491200  0.34595200  1
  H  H33  1  0.95727000  0.64508800  0.65404800  1
  H  H34  1  0.60175500  0.61240500  0.45109300  1
  H  H35  1  0.39824500  0.38759500  0.54890700  1
  H  H36  1  0.59617600  0.59345100  0.56225600  1
  H  H37  1  0.40382400  0.40654900  0.43774400  1
  H  H38  1  0.82121900  0.35523700  0.62212500  1
  H  H39  1  0.17878100  0.64476300  0.37787500  1
  H  H40  1  0.04899400  0.36027000  0.66135100  1
  H  H41  1  0.95100600  0.63973000  0.33864900  1
  H  H42  1  0.92756800  0.08568000  0.31533800  1
  H  H43  1  0.07243200  0.91432000  0.68466200  1
  H  H44  1  0.08852800  0.22533900  0.52175600  1
  H  H45  1  0.91147200  0.77466100  0.47824400  1
  H  H46  1  0.37560200  0.87030200  0.54943500  1
  H  H47  1  0.62439800  0.12969800  0.45056500  1
  H  H48  1  0.33438000  0.81749900  0.44769800  1
  H  H49  1  0.66562000  0.18250100  0.55230200  1
  H  H50  1  0.54893600  0.96230900  0.30137500  1
  H  H51  1  0.45106400  0.03769100  0.69862500  1
  H  H52  1  0.69421800  0.87103400  0.36581000  1
  H  H53  1  0.30578100  0.12896600  0.63419000  1
  H  H54  1  0.67824600  0.38811400  0.13384000  1
  H  H55  1  0.32175400  0.61188600  0.86616000  1
  H  H56  1  0.47939200  0.46786300  0.17834900  1
  H  H57  1  0.52060800  0.53213700  0.82165100  1
  H  H58  1  0.10345600  0.96524300  0.31363700  1
  H  H59  1  0.89654400  0.03475700  0.68636300  1
  H  H60  1  0.88553400  0.53362900  0.18619100  1
  H  H61  1  0.11446600  0.46637100  0.81380900  1
  H  H62  1  0.26072900  0.14296200  0.45862000  1
  H  H63  1  0.73927100  0.85703800  0.54138000  1
  O  O64  1  0.68205400  0.07176100  0.00557700  1
  O  O65  1  0.31794600  0.92823900  0.99442300  1
  O  O66  1  0.94610200  0.86223900  0.90677800  1
  O  O67  1  0.05389800  0.13776200  0.09322200  1
  O  O68  1  0.96075200  0.87807800  0.11016900  1
  O  O69  1  0.03924800  0.12192200  0.88983100  1
  O  O70  1  0.71568000  0.62082500  0.99843700  1
  O  O71  1  0.28432000  0.37917500  0.00156300  1
  O  O72  1  0.84048000  0.35850300  0.97242000  1
  O  O73  1  0.15952000  0.64149700  0.02758000  1
  O  O74  1  0.94274500  0.46362400  0.14541500  1
  O  O75  1  0.05725500  0.53637600  0.85458500  1
  O  O76  1  0.94700800  0.37328800  0.40114500  1
  O  O77  1  0.05299200  0.62671200  0.59885500  1
  O  O78  1  0.68267800  0.57186800  0.50417300  1
  O  O79  1  0.31732200  0.42813200  0.49582700  1
  O  O80  1  0.96319900  0.36347100  0.60360100  1
  O  O81  1  0.03680100  0.63652900  0.39639900  1
  O  O82  1  0.01460900  0.02418400  0.35532800  1
  O  O83  1  0.98539100  0.97581600  0.64467200  1
  O  O84  1  0.17752400  0.14445200  0.51755300  1
  O  O85  1  0.82247600  0.85554800  0.48244700  1
  O  O86  1  0.28783900  0.88449200  0.49242200  1
  O  O87  1  0.71216100  0.11550800  0.50757800  1
  O  O88  1  0.63042800  0.87988400  0.30252900  1
  O  O89  1  0.36957200  0.12011600  0.69747100  1
  O  O90  1  0.53465300  0.38538800  0.15437500  1
  O  O91  1  0.46534700  0.61461200  0.84562500  1
  O  O92  1  0.38229500  0.62577500  0.19286500  1
  O  O93  1  0.61770500  0.37422500  0.80713500  1
  O  O94  1  0.46419900  0.13837800  0.35224500  1
  O  O95  1  0.53580100  0.86162200  0.64775500  1
  F  F96  1  0.44110900  0.15140800  0.15403700  1
  F  F97  1  0.55889100  0.84859200  0.84596300  1
  F  F98  1  0.79153600  0.18469800  0.24066100  1
  F  F99  1  0.20846400  0.81530200  0.75933900  1
  F  F100  1  0.56142200  0.36077300  0.34973300  1
  F  F101  1  0.43857800  0.63922700  0.65026600  1
  F  F102  1  0.21303200  0.33065300  0.25840900  1
  F  F103  1  0.78696800  0.66934700  0.74159100  1
  F  F104  1  0.77424600  0.64506300  0.25651400  1
  F  F105  1  0.22575400  0.35493700  0.74348600  1
  F  F106  1  0.42619400  0.70082700  0.37494400  1
  F  F107  1  0.57380600  0.29917300  0.62505600  1
  F  F108  1  0.24159500  0.86374200  0.24236000  1
  F  F109  1  0.75840500  0.13625800  0.75764000  1
  F  F110  1  0.57960000  0.80091100  0.12232200  1
  F  F111  1  0.42040000  0.19908900  0.87767800  1
