# generated using pymatgen
data_MnH11C5NO6
_symmetry_space_group_name_H-M   'P 1'
_cell_length_a   8.29549172
_cell_length_b   8.29549172
_cell_length_c   8.83061999
_cell_angle_alpha   63.70838114
_cell_angle_beta   63.70838114
_cell_angle_gamma   60.34677095
_symmetry_Int_Tables_number   1
_chemical_formula_structural   MnH11C5NO6
_chemical_formula_sum   'Mn2 H22 C10 N2 O12'
_cell_volume   453.51340757
_cell_formula_units_Z   2
loop_
 _symmetry_equiv_pos_site_id
 _symmetry_equiv_pos_as_xyz
  1  'x, y, z'
loop_
 _atom_site_type_symbol
 _atom_site_label
 _atom_site_symmetry_multiplicity
 _atom_site_fract_x
 _atom_site_fract_y
 _atom_site_fract_z
 _atom_site_occupancy
  Mn  Mn0  1  0.32163800  0.82766100  0.60465900  1
  Mn  Mn1  1  0.82766100  0.32163800  0.10465900  1
  H  H2  1  0.18570100  0.69174900  0.35507600  1
  H  H3  1  0.69174900  0.18570100  0.85507600  1
  H  H4  1  0.95946700  0.82012700  0.32457800  1
  H  H5  1  0.82012700  0.95946700  0.82457800  1
  H  H6  1  0.48232700  0.16909300  0.35054800  1
  H  H7  1  0.16909300  0.48232700  0.85054800  1
  H  H8  1  0.56073700  0.65108400  0.87109700  1
  H  H9  1  0.65108400  0.56073700  0.37109700  1
  H  H10  1  0.02238900  0.15912800  0.77551900  1
  H  H11  1  0.15912800  0.02238900  0.27551900  1
  H  H12  1  0.95167600  0.59732500  0.61584000  1
  H  H13  1  0.59732500  0.95167600  0.11584000  1
  H  H14  1  0.12119600  0.40174000  0.51928800  1
  H  H15  1  0.40174000  0.12119600  0.01928800  1
  H  H16  1  0.88415600  0.52910300  0.49272900  1
  H  H17  1  0.52910300  0.88415600  0.99272900  1
  H  H18  1  0.18213500  0.73544200  0.06606000  1
  H  H19  1  0.73544200  0.18213500  0.56606000  1
  H  H20  1  0.01578200  0.60988200  0.17510500  1
  H  H21  1  0.60988200  0.01578200  0.67510500  1
  H  H22  1  0.25852300  0.48585700  0.19081500  1
  H  H23  1  0.48585700  0.25852300  0.69081500  1
  C  C24  1  0.61207300  0.03376900  0.35500100  1
  C  C25  1  0.03376900  0.61207300  0.85500100  1
  C  C26  1  0.57733100  0.52288000  0.84770900  1
  C  C27  1  0.52288000  0.57733100  0.34770900  1
  C  C28  1  0.13509100  0.08659600  0.84417200  1
  C  C29  1  0.08659600  0.13509100  0.34417200  1
  C  C30  1  0.00192500  0.54317900  0.50429300  1
  C  C31  1  0.54317900  0.00192500  0.00429300  1
  C  C32  1  0.13639600  0.62499200  0.18085300  1
  C  C33  1  0.62499200  0.13639600  0.68085300  1
  N  N34  1  0.07147800  0.68223300  0.34108200  1
  N  N35  1  0.68223300  0.07147800  0.84108200  1
  O  O36  1  0.58950800  0.87392300  0.44140700  1
  O  O37  1  0.87392300  0.58950800  0.94140700  1
  O  O38  1  0.35762900  0.68536100  0.42477400  1
  O  O39  1  0.68536100  0.35762900  0.92477400  1
  O  O40  1  0.77711900  0.05075400  0.27049600  1
  O  O41  1  0.05075400  0.77711900  0.77049600  1
  O  O42  1  0.14179900  0.10110600  0.47234000  1
  O  O43  1  0.10110600  0.14179900  0.97234000  1
  O  O44  1  0.28857600  0.95414300  0.78783700  1
  O  O45  1  0.95414300  0.28857600  0.28783700  1
  O  O46  1  0.48932200  0.54734000  0.74852400  1
  O  O47  1  0.54734000  0.48932200  0.24852400  1
