# generated using pymatgen
data_TbCu(WO4)2
_symmetry_space_group_name_H-M   'P 1'
_cell_length_a   6.84714600
_cell_length_b   10.07100293
_cell_length_c   15.37532820
_cell_angle_alpha   107.25288032
_cell_angle_beta   89.05343224
_cell_angle_gamma   108.06258210
_symmetry_Int_Tables_number   1
_chemical_formula_structural   TbCu(WO4)2
_chemical_formula_sum   'Tb6 Cu6 W12 O48'
_cell_volume   959.31219267
_cell_formula_units_Z   6
loop_
 _symmetry_equiv_pos_site_id
 _symmetry_equiv_pos_as_xyz
  1  'x, y, z'
loop_
 _atom_site_type_symbol
 _atom_site_label
 _atom_site_symmetry_multiplicity
 _atom_site_fract_x
 _atom_site_fract_y
 _atom_site_fract_z
 _atom_site_occupancy
  Tb  Tb0  1  0.19540500  0.22482700  0.01485500  1
  Tb  Tb1  1  0.80459500  0.77517300  0.98514500  1
  Tb  Tb2  1  0.03560000  0.39752300  0.67576400  1
  Tb  Tb3  1  0.96440000  0.60247700  0.32423600  1
  Tb  Tb4  1  0.35999100  0.05138800  0.34367500  1
  Tb  Tb5  1  0.64000900  0.94861200  0.65632500  1
  Cu  Cu6  1  0.50000000  0.50000000  0.50000000  1
  Cu  Cu7  1  0.00000000  0.00000000  0.50000000  1
  Cu  Cu8  1  0.17052100  0.83454400  0.83484000  1
  Cu  Cu9  1  0.82947900  0.16545600  0.16516000  1
  Cu  Cu10  1  0.32093000  0.66270000  0.16849400  1
  Cu  Cu11  1  0.67907000  0.33730000  0.83150600  1
  W  W12  1  0.35051700  0.40803400  0.28499200  1
  W  W13  1  0.64948300  0.59196600  0.71500800  1
  W  W14  1  0.19109200  0.58048100  0.94655400  1
  W  W15  1  0.80890800  0.41951900  0.05344600  1
  W  W16  1  0.16242200  0.10543700  0.74234300  1
  W  W17  1  0.83757800  0.89456300  0.25765700  1
  W  W18  1  0.50525300  0.23302100  0.60965900  1
  W  W19  1  0.49474700  0.76697900  0.39034100  1
  W  W20  1  0.33153500  0.93801000  0.06864700  1
  W  W21  1  0.66846500  0.06199000  0.93135300  1
  W  W22  1  0.02455000  0.75097600  0.60453300  1
  W  W23  1  0.97545000  0.24902400  0.39546700  1
  O  O24  1  0.59339700  0.91900700  0.00462000  1
  O  O25  1  0.40660300  0.08099300  0.99538000  1
  O  O26  1  0.95314700  0.59907400  0.66525400  1
  O  O27  1  0.04685300  0.40092600  0.33474600  1
  O  O28  1  0.12024300  0.43103200  0.00809600  1
  O  O29  1  0.87975700  0.56896800  0.99190400  1
  O  O30  1  0.71560100  0.73767400  0.65092300  1
  O  O31  1  0.28439900  0.26232600  0.34907700  1
  O  O32  1  0.43178600  0.09276200  0.68385600  1
  O  O33  1  0.56821400  0.90723800  0.31614400  1
  O  O34  1  0.72286200  0.25448100  0.91950600  1
  O  O35  1  0.27713800  0.74551900  0.08049400  1
  O  O36  1  0.37222700  0.11522300  0.49984000  1
  O  O37  1  0.62777300  0.88477700  0.50016000  1
  O  O38  1  0.75774800  0.70528400  0.82934400  1
  O  O39  1  0.24225200  0.29471600  0.17065600  1
  O  O40  1  0.92141700  0.03101900  0.92644000  1
  O  O41  1  0.07858300  0.96898100  0.07356000  1
  O  O42  1  0.92936300  0.64604700  0.48664900  1
  O  O43  1  0.07063700  0.35395300  0.51335100  1
  O  O44  1  0.08166100  0.46975900  0.83133900  1
  O  O45  1  0.91833900  0.53024100  0.16866100  1
  O  O46  1  0.16754200  0.76768500  0.93588900  1
  O  O47  1  0.83245800  0.23231500  0.06411100  1
  O  O48  1  0.55925700  0.41655700  0.58402100  1
  O  O49  1  0.44074300  0.58344300  0.41597900  1
  O  O50  1  0.89164200  0.09033100  0.25369900  1
  O  O51  1  0.10835800  0.90966900  0.74630100  1
  O  O52  1  0.53782800  0.39469500  0.05954600  1
  O  O53  1  0.46217200  0.60530500  0.94045400  1
  O  O54  1  0.55347300  0.95423300  0.81681500  1
  O  O55  1  0.44652700  0.04576700  0.18318500  1
  O  O56  1  0.24272200  0.25339000  0.67154900  1
  O  O57  1  0.75727800  0.74661000  0.32845100  1
  O  O58  1  0.75376300  0.19388800  0.60104000  1
  O  O59  1  0.24623700  0.80611200  0.39896000  1
  O  O60  1  0.00411000  0.94298400  0.60496900  1
  O  O61  1  0.99589000  0.05701600  0.39503100  1
  O  O62  1  0.27319900  0.20981500  0.85764500  1
  O  O63  1  0.72680100  0.79018500  0.14235500  1
  O  O64  1  0.67453900  0.40768700  0.73200500  1
  O  O65  1  0.32546100  0.59231300  0.26799500  1
  O  O66  1  0.90782100  0.13232400  0.74834500  1
  O  O67  1  0.09217900  0.86767600  0.25165500  1
  O  O68  1  0.37758300  0.56674600  0.71944500  1
  O  O69  1  0.62241700  0.43325400  0.28055500  1
  O  O70  1  0.29805900  0.78165700  0.60328400  1
  O  O71  1  0.70194100  0.21834300  0.39671600  1
