# generated using pymatgen
data_Sb2Te3WC4(OF3)4
_symmetry_space_group_name_H-M   'P 1'
_cell_length_a   8.73591500
_cell_length_b   15.16758500
_cell_length_c   15.77028700
_cell_angle_alpha   90.00000000
_cell_angle_beta   90.00000000
_cell_angle_gamma   90.00000000
_symmetry_Int_Tables_number   1
_chemical_formula_structural   Sb2Te3WC4(OF3)4
_chemical_formula_sum   'Sb8 Te12 W4 C16 O16 F48'
_cell_volume   2089.60613267
_cell_formula_units_Z   4
loop_
 _symmetry_equiv_pos_site_id
 _symmetry_equiv_pos_as_xyz
  1  'x, y, z'
loop_
 _atom_site_type_symbol
 _atom_site_label
 _atom_site_symmetry_multiplicity
 _atom_site_fract_x
 _atom_site_fract_y
 _atom_site_fract_z
 _atom_site_occupancy
  Sb  Sb0  1  0.25000000  0.55523900  0.34409300  1
  Sb  Sb1  1  0.25000000  0.94476100  0.84409300  1
  Sb  Sb2  1  0.75000000  0.44476100  0.65590700  1
  Sb  Sb3  1  0.75000000  0.05523900  0.15590700  1
  Sb  Sb4  1  0.25000000  0.24571300  0.03756500  1
  Sb  Sb5  1  0.25000000  0.25428700  0.53756500  1
  Sb  Sb6  1  0.75000000  0.75428700  0.96243500  1
  Sb  Sb7  1  0.75000000  0.74571300  0.46243500  1
  Te  Te8  1  0.25000000  0.55521600  0.63142900  1
  Te  Te9  1  0.25000000  0.94478400  0.13142900  1
  Te  Te10  1  0.75000000  0.44478400  0.36857100  1
  Te  Te11  1  0.75000000  0.05521600  0.86857100  1
  Te  Te12  1  0.09092300  0.68647300  0.71736600  1
  Te  Te13  1  0.40907700  0.81352700  0.21736600  1
  Te  Te14  1  0.59092300  0.31352700  0.28263400  1
  Te  Te15  1  0.90907700  0.18647300  0.78263400  1
  Te  Te16  1  0.90907700  0.31352700  0.28263400  1
  Te  Te17  1  0.59092300  0.18647300  0.78263400  1
  Te  Te18  1  0.40907700  0.68647300  0.71736600  1
  Te  Te19  1  0.09092300  0.81352700  0.21736600  1
  W  W20  1  0.25000000  0.55552300  0.81481200  1
  W  W21  1  0.25000000  0.94447700  0.31481200  1
  W  W22  1  0.75000000  0.44447700  0.18518800  1
  W  W23  1  0.75000000  0.05552300  0.68518800  1
  C  C24  1  0.25000000  0.42161800  0.80041800  1
  C  C25  1  0.25000000  0.07838200  0.30041800  1
  C  C26  1  0.75000000  0.57838200  0.19958200  1
  C  C27  1  0.75000000  0.92161800  0.69958200  1
  C  C28  1  0.25000000  0.62198100  0.92957000  1
  C  C29  1  0.25000000  0.87801900  0.42957000  1
  C  C30  1  0.75000000  0.37801900  0.07043000  1
  C  C31  1  0.75000000  0.12198100  0.57043000  1
  C  C32  1  0.04970800  0.51506900  0.87026400  1
  C  C33  1  0.45029200  0.98493100  0.37026400  1
  C  C34  1  0.54970800  0.48493100  0.12973600  1
  C  C35  1  0.95029200  0.01506900  0.62973600  1
  C  C36  1  0.95029200  0.48493100  0.12973600  1
  C  C37  1  0.54970800  0.01506900  0.62973600  1
  C  C38  1  0.45029200  0.51506900  0.87026400  1
  C  C39  1  0.04970800  0.98493100  0.37026400  1
  O  O40  1  0.25000000  0.34604600  0.79122000  1
  O  O41  1  0.25000000  0.15395400  0.29122000  1
  O  O42  1  0.75000000  0.65395400  0.20878000  1
  O  O43  1  0.75000000  0.84604600  0.70878000  1
  O  O44  1  0.25000000  0.65934300  0.99307100  1
  O  O45  1  0.25000000  0.84065700  0.49307100  1
  O  O46  1  0.75000000  0.34065700  0.00692900  1
  O  O47  1  0.75000000  0.15934300  0.50692900  1
  O  O48  1  0.93777600  0.49265300  0.90240100  1
  O  O49  1  0.56222400  0.00734700  0.40240100  1
  O  O50  1  0.43777600  0.50734700  0.09759900  1
  O  O51  1  0.06222400  0.99265300  0.59759900  1
  O  O52  1  0.06222400  0.50734700  0.09759900  1
  O  O53  1  0.43777600  0.99265300  0.59759900  1
  O  O54  1  0.56222400  0.49265300  0.90240100  1
  O  O55  1  0.93777600  0.00734700  0.40240100  1
  F  F56  1  0.25000000  0.44599100  0.28142800  1
  F  F57  1  0.25000000  0.05400900  0.78142800  1
  F  F58  1  0.75000000  0.55400900  0.71857200  1
  F  F59  1  0.75000000  0.94599100  0.21857200  1
  F  F60  1  0.25000000  0.66421600  0.40494300  1
  F  F61  1  0.25000000  0.83578400  0.90494300  1
  F  F62  1  0.75000000  0.33578400  0.59505700  1
  F  F63  1  0.75000000  0.16421600  0.09505700  1
  F  F64  1  0.40491300  0.60188800  0.26946100  1
  F  F65  1  0.09508700  0.89811200  0.76946100  1
  F  F66  1  0.90491300  0.39811200  0.73053900  1
  F  F67  1  0.59508700  0.10188800  0.23053900  1
  F  F68  1  0.59508700  0.39811200  0.73053900  1
  F  F69  1  0.90491300  0.10188800  0.23053900  1
  F  F70  1  0.09508700  0.60188800  0.26946100  1
  F  F71  1  0.40491300  0.89811200  0.76946100  1
  F  F72  1  0.40746500  0.50852700  0.41628800  1
  F  F73  1  0.09253500  0.99147300  0.91628800  1
  F  F74  1  0.90746500  0.49147300  0.58371200  1
  F  F75  1  0.59253500  0.00852700  0.08371200  1
  F  F76  1  0.59253500  0.49147300  0.58371200  1
  F  F77  1  0.90746500  0.00852700  0.08371200  1
  F  F78  1  0.09253500  0.50852700  0.41628800  1
  F  F79  1  0.40746500  0.99147300  0.91628800  1
  F  F80  1  0.25000000  0.12847200  0.08568200  1
  F  F81  1  0.25000000  0.37152800  0.58568200  1
  F  F82  1  0.75000000  0.87152800  0.91431800  1
  F  F83  1  0.75000000  0.62847200  0.41431800  1
  F  F84  1  0.25000000  0.36261800  0.99139000  1
  F  F85  1  0.25000000  0.13738200  0.49139000  1
  F  F86  1  0.75000000  0.63738200  0.00861000  1
  F  F87  1  0.75000000  0.86261800  0.50861000  1
  F  F88  1  0.40484900  0.28041000  0.11837900  1
  F  F89  1  0.09515100  0.21959000  0.61837900  1
  F  F90  1  0.90484900  0.71959000  0.88162100  1
  F  F91  1  0.59515100  0.78041000  0.38162100  1
  F  F92  1  0.59515100  0.71959000  0.88162100  1
  F  F93  1  0.90484900  0.78041000  0.38162100  1
  F  F94  1  0.09515100  0.28041000  0.11837900  1
  F  F95  1  0.40484900  0.21959000  0.61837900  1
  F  F96  1  0.09449300  0.21196200  0.95791400  1
  F  F97  1  0.40550700  0.28803800  0.45791400  1
  F  F98  1  0.59449300  0.78803800  0.04208600  1
  F  F99  1  0.90550700  0.71196200  0.54208600  1
  F  F100  1  0.90550700  0.78803800  0.04208600  1
  F  F101  1  0.59449300  0.71196200  0.54208600  1
  F  F102  1  0.40550700  0.21196200  0.95791400  1
  F  F103  1  0.09449300  0.28803800  0.45791400  1
