# generated using pymatgen
data_Li14W7O32
_symmetry_space_group_name_H-M   'P 1'
_cell_length_a   9.65520700
_cell_length_b   9.65520700
_cell_length_c   9.65520700
_cell_angle_alpha   90.00000000
_cell_angle_beta   90.00000000
_cell_angle_gamma   90.00000000
_symmetry_Int_Tables_number   1
_chemical_formula_structural   Li14W7O32
_chemical_formula_sum   'Li14 W7 O32'
_cell_volume   900.08757663
_cell_formula_units_Z   1
loop_
 _symmetry_equiv_pos_site_id
 _symmetry_equiv_pos_as_xyz
  1  'x, y, z'
loop_
 _atom_site_type_symbol
 _atom_site_label
 _atom_site_symmetry_multiplicity
 _atom_site_fract_x
 _atom_site_fract_y
 _atom_site_fract_z
 _atom_site_occupancy
  Li  Li0  1  0.00000000  0.00000000  0.22876800  1
  Li  Li1  1  0.00000000  0.77123200  0.00000000  1
  Li  Li2  1  0.77123200  0.00000000  0.00000000  1
  Li  Li3  1  0.00000000  0.00000000  0.77123200  1
  Li  Li4  1  0.00000000  0.22876800  0.00000000  1
  Li  Li5  1  0.22876800  0.00000000  0.00000000  1
  Li  Li6  1  0.78679500  0.78679500  0.21320500  1
  Li  Li7  1  0.78679500  0.21320500  0.78679500  1
  Li  Li8  1  0.21320500  0.78679500  0.78679500  1
  Li  Li9  1  0.21320500  0.21320500  0.21320500  1
  Li  Li10  1  0.00000000  0.50000000  0.50000000  1
  Li  Li11  1  0.50000000  0.50000000  0.00000000  1
  Li  Li12  1  0.50000000  0.00000000  0.50000000  1
  Li  Li13  1  0.50000000  0.50000000  0.50000000  1
  W  W14  1  0.63254500  0.63254500  0.36745500  1
  W  W15  1  0.63254500  0.36745500  0.63254500  1
  W  W16  1  0.36745500  0.63254500  0.63254500  1
  W  W17  1  0.36745500  0.36745500  0.36745500  1
  W  W18  1  0.00000000  0.00000000  0.50000000  1
  W  W19  1  0.00000000  0.50000000  0.00000000  1
  W  W20  1  0.50000000  0.00000000  0.00000000  1
  O  O21  1  0.37943700  0.89783300  0.10216700  1
  O  O22  1  0.89783300  0.89783300  0.62056300  1
  O  O23  1  0.89783300  0.37943700  0.10216700  1
  O  O24  1  0.37943700  0.10216700  0.89783300  1
  O  O25  1  0.89783300  0.10216700  0.37943700  1
  O  O26  1  0.89783300  0.62056300  0.89783300  1
  O  O27  1  0.62056300  0.89783300  0.89783300  1
  O  O28  1  0.10216700  0.89783300  0.37943700  1
  O  O29  1  0.10216700  0.37943700  0.89783300  1
  O  O30  1  0.62056300  0.10216700  0.10216700  1
  O  O31  1  0.10216700  0.10216700  0.62056300  1
  O  O32  1  0.10216700  0.62056300  0.10216700  1
  O  O33  1  0.82051500  0.61806700  0.38193300  1
  O  O34  1  0.61806700  0.61806700  0.17948500  1
  O  O35  1  0.61806700  0.82051500  0.38193300  1
  O  O36  1  0.82051500  0.38193300  0.61806700  1
  O  O37  1  0.61806700  0.38193300  0.82051500  1
  O  O38  1  0.61806700  0.17948500  0.61806700  1
  O  O39  1  0.17948500  0.61806700  0.61806700  1
  O  O40  1  0.38193300  0.61806700  0.82051500  1
  O  O41  1  0.38193300  0.82051500  0.61806700  1
  O  O42  1  0.17948500  0.38193300  0.38193300  1
  O  O43  1  0.38193300  0.38193300  0.17948500  1
  O  O44  1  0.38193300  0.17948500  0.38193300  1
  O  O45  1  0.40212600  0.40212600  0.59787400  1
  O  O46  1  0.40212600  0.59787400  0.40212600  1
  O  O47  1  0.59787400  0.40212600  0.40212600  1
  O  O48  1  0.59787400  0.59787400  0.59787400  1
  O  O49  1  0.89902100  0.89902100  0.10097900  1
  O  O50  1  0.89902100  0.10097900  0.89902100  1
  O  O51  1  0.10097900  0.89902100  0.89902100  1
  O  O52  1  0.10097900  0.10097900  0.10097900  1
