# generated using pymatgen
data_Hg3(SCl)2
_symmetry_space_group_name_H-M   'P 1'
_cell_length_a   18.47595446
_cell_length_b   18.47595446
_cell_length_c   18.47595446
_cell_angle_alpha   90.00000000
_cell_angle_beta   90.00000000
_cell_angle_gamma   90.00000000
_symmetry_Int_Tables_number   1
_chemical_formula_structural   Hg3(SCl)2
_chemical_formula_sum   'Hg96 S64 Cl64'
_cell_volume   6306.96831734
_cell_formula_units_Z   32
loop_
 _symmetry_equiv_pos_site_id
 _symmetry_equiv_pos_as_xyz
  1  'x, y, z'
loop_
 _atom_site_type_symbol
 _atom_site_label
 _atom_site_symmetry_multiplicity
 _atom_site_fract_x
 _atom_site_fract_y
 _atom_site_fract_z
 _atom_site_occupancy
  Hg  Hg0  1  0.85695047  0.35695047  0.75000000  1
  Hg  Hg1  1  0.64304953  0.25000000  0.85695047  1
  Hg  Hg2  1  0.75000000  0.14304953  0.64304953  1
  Hg  Hg3  1  0.14304953  0.64304953  0.25000000  1
  Hg  Hg4  1  0.35695047  0.75000000  0.14304953  1
  Hg  Hg5  1  0.25000000  0.85695047  0.35695047  1
  Hg  Hg6  1  0.85695047  0.64304953  0.25000000  1
  Hg  Hg7  1  0.64304953  0.75000000  0.14304953  1
  Hg  Hg8  1  0.75000000  0.85695047  0.35695047  1
  Hg  Hg9  1  0.14304953  0.35695047  0.75000000  1
  Hg  Hg10  1  0.35695047  0.25000000  0.85695047  1
  Hg  Hg11  1  0.25000000  0.14304953  0.64304953  1
  Hg  Hg12  1  0.14304953  0.64304953  0.75000000  1
  Hg  Hg13  1  0.35695047  0.75000000  0.85695047  1
  Hg  Hg14  1  0.25000000  0.85695047  0.64304953  1
  Hg  Hg15  1  0.85695047  0.35695047  0.25000000  1
  Hg  Hg16  1  0.64304953  0.25000000  0.14304953  1
  Hg  Hg17  1  0.75000000  0.14304953  0.35695047  1
  Hg  Hg18  1  0.14304953  0.35695047  0.25000000  1
  Hg  Hg19  1  0.35695047  0.25000000  0.14304953  1
  Hg  Hg20  1  0.25000000  0.14304953  0.35695047  1
  Hg  Hg21  1  0.85695047  0.64304953  0.75000000  1
  Hg  Hg22  1  0.64304953  0.75000000  0.85695047  1
  Hg  Hg23  1  0.75000000  0.85695047  0.64304953  1
  Hg  Hg24  1  0.64123714  0.38401761  0.00000000  1
  Hg  Hg25  1  0.61598239  0.00000000  0.64123714  1
  Hg  Hg26  1  -0.00000000  0.35876286  0.61598239  1
  Hg  Hg27  1  0.35876286  0.61598239  0.00000000  1
  Hg  Hg28  1  0.38401761  -0.00000000  0.35876286  1
  Hg  Hg29  1  -0.00000000  0.64123714  0.38401761  1
  Hg  Hg30  1  0.64123714  0.61598239  0.00000000  1
  Hg  Hg31  1  0.61598239  -0.00000000  0.35876286  1
  Hg  Hg32  1  0.35876286  0.38401761  0.00000000  1
  Hg  Hg33  1  0.38401761  0.00000000  0.64123714  1
  Hg  Hg34  1  -0.00000000  0.64123714  0.61598239  1
  Hg  Hg35  1  -0.00000000  0.35876286  0.38401761  1
  Hg  Hg36  1  0.14123714  0.50000000  0.88401761  1
  Hg  Hg37  1  0.11598239  0.14123714  0.50000000  1
  Hg  Hg38  1  0.50000000  0.11598239  0.85876286  1
  Hg  Hg39  1  0.85876286  0.50000000  0.11598239  1
  Hg  Hg40  1  0.88401761  0.85876286  0.50000000  1
  Hg  Hg41  1  0.50000000  0.88401761  0.14123714  1
  Hg  Hg42  1  0.14123714  0.50000000  0.11598239  1
  Hg  Hg43  1  0.11598239  0.85876286  0.50000000  1
  Hg  Hg44  1  0.85876286  0.50000000  0.88401761  1
  Hg  Hg45  1  0.88401761  0.14123714  0.50000000  1
  Hg  Hg46  1  0.50000000  0.11598239  0.14123714  1
  Hg  Hg47  1  0.50000000  0.88401761  0.85876286  1
  Hg  Hg48  1  0.63516796  0.50000000  0.64475643  1
  Hg  Hg49  1  0.50000000  0.35524357  0.63516796  1
  Hg  Hg50  1  0.64475643  0.36483204  0.50000000  1
  Hg  Hg51  1  0.36483204  0.50000000  0.35524357  1
  Hg  Hg52  1  0.50000000  0.64475643  0.36483204  1
  Hg  Hg53  1  0.35524357  0.63516796  0.50000000  1
  Hg  Hg54  1  0.63516796  0.50000000  0.35524357  1
  Hg  Hg55  1  0.64475643  0.63516796  0.50000000  1
  Hg  Hg56  1  0.36483204  0.50000000  0.64475643  1
  Hg  Hg57  1  0.35524357  0.36483204  0.50000000  1
  Hg  Hg58  1  0.50000000  0.64475643  0.63516796  1
  Hg  Hg59  1  0.50000000  0.35524357  0.36483204  1
  Hg  Hg60  1  0.13516796  0.14475643  0.00000000  1
  Hg  Hg61  1  -0.00000000  0.13516796  0.85524357  1
  Hg  Hg62  1  0.14475643  0.00000000  0.86483204  1
  Hg  Hg63  1  0.86483204  0.85524357  0.00000000  1
  Hg  Hg64  1  -0.00000000  0.86483204  0.14475643  1
  Hg  Hg65  1  0.85524357  0.00000000  0.13516796  1
  Hg  Hg66  1  0.13516796  0.85524357  0.00000000  1
  Hg  Hg67  1  0.14475643  -0.00000000  0.13516796  1
  Hg  Hg68  1  0.86483204  0.14475643  0.00000000  1
  Hg  Hg69  1  0.85524357  -0.00000000  0.86483204  1
  Hg  Hg70  1  -0.00000000  0.13516796  0.14475643  1
  Hg  Hg71  1  -0.00000000  0.86483204  0.85524357  1
  Hg  Hg72  1  0.86329867  0.50000000  0.61592079  1
  Hg  Hg73  1  0.50000000  0.38407921  0.86329867  1
  Hg  Hg74  1  0.61592079  0.13670133  0.50000000  1
  Hg  Hg75  1  0.13670133  0.50000000  0.38407921  1
  Hg  Hg76  1  0.50000000  0.61592079  0.13670133  1
  Hg  Hg77  1  0.38407921  0.86329867  0.50000000  1
  Hg  Hg78  1  0.86329867  0.50000000  0.38407921  1
  Hg  Hg79  1  0.61592079  0.86329867  0.50000000  1
  Hg  Hg80  1  0.13670133  0.50000000  0.61592079  1
  Hg  Hg81  1  0.38407921  0.13670133  0.50000000  1
  Hg  Hg82  1  0.50000000  0.61592079  0.86329867  1
  Hg  Hg83  1  0.50000000  0.38407921  0.13670133  1
  Hg  Hg84  1  0.36329867  0.11592079  0.00000000  1
  Hg  Hg85  1  -0.00000000  0.36329867  0.88407921  1
  Hg  Hg86  1  0.11592079  -0.00000000  0.63670133  1
  Hg  Hg87  1  0.63670133  0.88407921  0.00000000  1
  Hg  Hg88  1  -0.00000000  0.63670133  0.11592079  1
  Hg  Hg89  1  0.88407921  0.00000000  0.36329867  1
  Hg  Hg90  1  0.36329867  0.88407921  0.00000000  1
  Hg  Hg91  1  0.11592079  -0.00000000  0.36329867  1
  Hg  Hg92  1  0.63670133  0.11592079  0.00000000  1
  Hg  Hg93  1  0.88407921  0.00000000  0.63670133  1
  Hg  Hg94  1  -0.00000000  0.36329867  0.11592079  1
  Hg  Hg95  1  -0.00000000  0.63670133  0.88407921  1
  S  S96  1  0.63165350  0.36834650  0.63165350  1
  S  S97  1  0.36834650  0.63165350  0.36834650  1
  S  S98  1  0.63165350  0.63165350  0.36834650  1
  S  S99  1  0.36834650  0.36834650  0.63165350  1
  S  S100  1  0.36834650  0.63165350  0.63165350  1
  S  S101  1  0.63165350  0.36834650  0.36834650  1
  S  S102  1  0.36834650  0.36834650  0.36834650  1
  S  S103  1  0.63165350  0.63165350  0.63165350  1
  S  S104  1  0.13165350  0.13165350  0.86834650  1
  S  S105  1  0.86834650  0.86834650  0.13165350  1
  S  S106  1  0.13165350  0.86834650  0.13165350  1
  S  S107  1  0.86834650  0.13165350  0.86834650  1
  S  S108  1  0.86834650  0.13165350  0.13165350  1
  S  S109  1  0.13165350  0.86834650  0.86834650  1
  S  S110  1  0.86834650  0.86834650  0.86834650  1
  S  S111  1  0.13165350  0.13165350  0.13165350  1
  S  S112  1  0.86813886  0.36872807  0.88182361  1
  S  S113  1  0.63127193  0.11817639  0.86813886  1
  S  S114  1  0.88182361  0.13186114  0.63127193  1
  S  S115  1  0.13186114  0.63127193  0.11817639  1
  S  S116  1  0.36872807  0.88182361  0.13186114  1
  S  S117  1  0.11817639  0.86813886  0.36872807  1
  S  S118  1  0.86813886  0.63127193  0.11817639  1
  S  S119  1  0.63127193  0.88182361  0.13186114  1
  S  S120  1  0.88182361  0.86813886  0.36872807  1
  S  S121  1  0.13186114  0.36872807  0.88182361  1
  S  S122  1  0.36872807  0.11817639  0.86813886  1
  S  S123  1  0.11817639  0.13186114  0.63127193  1
  S  S124  1  0.13186114  0.63127193  0.88182361  1
  S  S125  1  0.36872807  0.88182361  0.86813886  1
  S  S126  1  0.11817639  0.86813886  0.63127193  1
  S  S127  1  0.86813886  0.36872807  0.11817639  1
  S  S128  1  0.63127193  0.11817639  0.13186114  1
  S  S129  1  0.88182361  0.13186114  0.36872807  1
  S  S130  1  0.13186114  0.36872807  0.11817639  1
  S  S131  1  0.36872807  0.11817639  0.13186114  1
  S  S132  1  0.11817639  0.13186114  0.36872807  1
  S  S133  1  0.86813886  0.63127193  0.88182361  1
  S  S134  1  0.63127193  0.88182361  0.86813886  1
  S  S135  1  0.88182361  0.86813886  0.63127193  1
  S  S136  1  0.36813886  0.38182361  0.86872807  1
  S  S137  1  0.13127193  0.36813886  0.61817639  1
  S  S138  1  0.38182361  0.13127193  0.63186114  1
  S  S139  1  0.63186114  0.61817639  0.13127193  1
  S  S140  1  0.86872807  0.63186114  0.38182361  1
  S  S141  1  0.61817639  0.86872807  0.36813886  1
  S  S142  1  0.36813886  0.61817639  0.13127193  1
  S  S143  1  0.13127193  0.63186114  0.38182361  1
  S  S144  1  0.38182361  0.86872807  0.36813886  1
  S  S145  1  0.63186114  0.38182361  0.86872807  1
  S  S146  1  0.86872807  0.36813886  0.61817639  1
  S  S147  1  0.61817639  0.13127193  0.63186114  1
  S  S148  1  0.63186114  0.38182361  0.13127193  1
  S  S149  1  0.86872807  0.36813886  0.38182361  1
  S  S150  1  0.61817639  0.13127193  0.36813886  1
  S  S151  1  0.36813886  0.61817639  0.86872807  1
  S  S152  1  0.13127193  0.63186114  0.61817639  1
  S  S153  1  0.38182361  0.86872807  0.63186114  1
  S  S154  1  0.63186114  0.61817639  0.86872807  1
  S  S155  1  0.86872807  0.63186114  0.61817639  1
  S  S156  1  0.61817639  0.86872807  0.63186114  1
  S  S157  1  0.36813886  0.38182361  0.13127193  1
  S  S158  1  0.13127193  0.36813886  0.38182361  1
  S  S159  1  0.38182361  0.13127193  0.36813886  1
  Cl  Cl160  1  0.50000000  0.50000000  0.50000000  1
  Cl  Cl161  1  -0.00000000  -0.00000000  0.00000000  1
  Cl  Cl162  1  0.75000000  0.50000000  0.00000000  1
  Cl  Cl163  1  0.50000000  -0.00000000  0.75000000  1
  Cl  Cl164  1  -0.00000000  0.25000000  0.50000000  1
  Cl  Cl165  1  0.25000000  0.50000000  0.00000000  1
  Cl  Cl166  1  0.50000000  0.00000000  0.25000000  1
  Cl  Cl167  1  -0.00000000  0.75000000  0.50000000  1
  Cl  Cl168  1  -0.00000000  0.50000000  0.00000000  1
  Cl  Cl169  1  0.50000000  0.00000000  0.00000000  1
  Cl  Cl170  1  -0.00000000  -0.00000000  0.50000000  1
  Cl  Cl171  1  0.50000000  0.50000000  0.00000000  1
  Cl  Cl172  1  -0.00000000  0.50000000  0.50000000  1
  Cl  Cl173  1  0.50000000  -0.00000000  0.50000000  1
  Cl  Cl174  1  -0.00000000  0.50000000  0.75000000  1
  Cl  Cl175  1  0.50000000  0.25000000  0.00000000  1
  Cl  Cl176  1  0.75000000  0.00000000  0.50000000  1
  Cl  Cl177  1  -0.00000000  0.50000000  0.25000000  1
  Cl  Cl178  1  0.50000000  0.75000000  0.00000000  1
  Cl  Cl179  1  0.25000000  0.00000000  0.50000000  1
  Cl  Cl180  1  0.75000000  0.25000000  0.75000000  1
  Cl  Cl181  1  0.25000000  0.75000000  0.25000000  1
  Cl  Cl182  1  0.75000000  0.75000000  0.25000000  1
  Cl  Cl183  1  0.25000000  0.25000000  0.75000000  1
  Cl  Cl184  1  0.25000000  0.75000000  0.75000000  1
  Cl  Cl185  1  0.75000000  0.25000000  0.25000000  1
  Cl  Cl186  1  0.25000000  0.25000000  0.25000000  1
  Cl  Cl187  1  0.75000000  0.75000000  0.75000000  1
  Cl  Cl188  1  0.74406114  0.50000000  0.50000000  1
  Cl  Cl189  1  0.50000000  0.50000000  0.74406114  1
  Cl  Cl190  1  0.50000000  0.25593886  0.50000000  1
  Cl  Cl191  1  0.25593886  0.50000000  0.50000000  1
  Cl  Cl192  1  0.50000000  0.50000000  0.25593886  1
  Cl  Cl193  1  0.50000000  0.74406114  0.50000000  1
  Cl  Cl194  1  0.24406114  0.00000000  0.00000000  1
  Cl  Cl195  1  -0.00000000  0.24406114  0.00000000  1
  Cl  Cl196  1  -0.00000000  -0.00000000  0.75593886  1
  Cl  Cl197  1  0.75593886  -0.00000000  0.00000000  1
  Cl  Cl198  1  -0.00000000  0.75593886  0.00000000  1
  Cl  Cl199  1  -0.00000000  0.00000000  0.24406114  1
  Cl  Cl200  1  -0.00000000  0.25895069  0.75504409  1
  Cl  Cl201  1  0.74104931  0.24495591  0.00000000  1
  Cl  Cl202  1  0.75504409  -0.00000000  0.74104931  1
  Cl  Cl203  1  -0.00000000  0.74104931  0.24495591  1
  Cl  Cl204  1  0.25895069  0.75504409  0.00000000  1
  Cl  Cl205  1  0.24495591  0.00000000  0.25895069  1
  Cl  Cl206  1  0.74104931  0.75504409  0.00000000  1
  Cl  Cl207  1  0.75504409  0.00000000  0.25895069  1
  Cl  Cl208  1  0.25895069  0.24495591  0.00000000  1
  Cl  Cl209  1  0.24495591  -0.00000000  0.74104931  1
  Cl  Cl210  1  -0.00000000  0.74104931  0.75504409  1
  Cl  Cl211  1  -0.00000000  0.25895069  0.24495591  1
  Cl  Cl212  1  0.50000000  0.25504409  0.75895069  1
  Cl  Cl213  1  0.24104931  0.50000000  0.74495591  1
  Cl  Cl214  1  0.25504409  0.24104931  0.50000000  1
  Cl  Cl215  1  0.50000000  0.74495591  0.24104931  1
  Cl  Cl216  1  0.75895069  0.50000000  0.25504409  1
  Cl  Cl217  1  0.74495591  0.75895069  0.50000000  1
  Cl  Cl218  1  0.24104931  0.50000000  0.25504409  1
  Cl  Cl219  1  0.25504409  0.75895069  0.50000000  1
  Cl  Cl220  1  0.75895069  0.50000000  0.74495591  1
  Cl  Cl221  1  0.74495591  0.24104931  0.50000000  1
  Cl  Cl222  1  0.50000000  0.25504409  0.24104931  1
  Cl  Cl223  1  0.50000000  0.74495591  0.75895069  1
