# generated using pymatgen
data_Bi(WBr3)3
_symmetry_space_group_name_H-M   'P 1'
_cell_length_a   13.38601800
_cell_length_b   10.02030400
_cell_length_c   13.02074892
_cell_angle_alpha   77.77146519
_cell_angle_beta   90.00000000
_cell_angle_gamma   90.00000000
_symmetry_Int_Tables_number   1
_chemical_formula_structural   Bi(WBr3)3
_chemical_formula_sum   'Bi4 W12 Br36'
_cell_volume   1706.87156612
_cell_formula_units_Z   4
loop_
 _symmetry_equiv_pos_site_id
 _symmetry_equiv_pos_as_xyz
  1  'x, y, z'
loop_
 _atom_site_type_symbol
 _atom_site_label
 _atom_site_symmetry_multiplicity
 _atom_site_fract_x
 _atom_site_fract_y
 _atom_site_fract_z
 _atom_site_occupancy
  Bi  Bi0  1  0.85789900  0.98936900  0.09942700  1
  Bi  Bi1  1  0.35789900  0.01063100  0.40057300  1
  Bi  Bi2  1  0.14210100  0.01063100  0.90057300  1
  Bi  Bi3  1  0.64210100  0.98936900  0.59942700  1
  W  W4  1  0.62207400  0.40638200  0.00448100  1
  W  W5  1  0.12207400  0.59361800  0.49551900  1
  W  W6  1  0.37792600  0.59361800  0.99551900  1
  W  W7  1  0.87792600  0.40638200  0.50448100  1
  W  W8  1  0.56388600  0.64074800  0.04894500  1
  W  W9  1  0.06388600  0.35925200  0.45105500  1
  W  W10  1  0.43611400  0.35925200  0.95105500  1
  W  W11  1  0.93611400  0.64074800  0.54894500  1
  W  W12  1  0.47307800  0.41011000  0.13880400  1
  W  W13  1  0.97307800  0.58989000  0.36119600  1
  W  W14  1  0.52692200  0.58989000  0.86119600  1
  W  W15  1  0.02692200  0.41011000  0.63880400  1
  Br  Br16  1  0.65802000  0.45724300  0.19316400  1
  Br  Br17  1  0.15802000  0.54275700  0.30683600  1
  Br  Br18  1  0.34198000  0.54275700  0.80683600  1
  Br  Br19  1  0.84198000  0.45724300  0.69316400  1
  Br  Br20  1  0.53305200  0.17830800  0.09451700  1
  Br  Br21  1  0.03305200  0.82169200  0.40548300  1
  Br  Br22  1  0.46694800  0.82169200  0.90548300  1
  Br  Br23  1  0.96694800  0.17830800  0.59451700  1
  Br  Br24  1  0.58363300  0.35686000  0.81560500  1
  Br  Br25  1  0.08363300  0.64314000  0.68439500  1
  Br  Br26  1  0.41636700  0.64314000  0.18439500  1
  Br  Br27  1  0.91636700  0.35686000  0.31560500  1
  Br  Br28  1  0.71240700  0.63693600  0.91513100  1
  Br  Br29  1  0.21240700  0.36306400  0.58486900  1
  Br  Br30  1  0.28759300  0.36306400  0.08486900  1
  Br  Br31  1  0.78759300  0.63693600  0.41513100  1
  Br  Br32  1  0.79960800  0.28203600  0.00430100  1
  Br  Br33  1  0.29960800  0.71796400  0.49569900  1
  Br  Br34  1  0.20039200  0.71796400  0.99569900  1
  Br  Br35  1  0.70039200  0.28203600  0.50430100  1
  Br  Br36  1  0.64826700  0.84080700  0.12026700  1
  Br  Br37  1  0.14826700  0.15919300  0.37973300  1
  Br  Br38  1  0.35173300  0.15919300  0.87973300  1
  Br  Br39  1  0.85173300  0.84080700  0.62026700  1
  Br  Br40  1  0.43218900  0.29231400  0.33864500  1
  Br  Br41  1  0.93218900  0.70768600  0.16135500  1
  Br  Br42  1  0.56781100  0.70768600  0.66135500  1
  Br  Br43  1  0.06781100  0.29231400  0.83864500  1
  Br  Br44  1  0.04891800  0.07745000  0.11725200  1
  Br  Br45  1  0.54891800  0.92255000  0.38274800  1
  Br  Br46  1  0.95108200  0.92255000  0.88274800  1
  Br  Br47  1  0.45108200  0.07745000  0.61725200  1
  Br  Br48  1  0.81120300  0.02377200  0.29106600  1
  Br  Br49  1  0.31120300  0.97622800  0.20893400  1
  Br  Br50  1  0.18879700  0.97622800  0.70893400  1
  Br  Br51  1  0.68879700  0.02377200  0.79106600  1
