# generated using pymatgen
data_K4Cu(IO10)2
_symmetry_space_group_name_H-M   'P 1'
_cell_length_a   8.93081500
_cell_length_b   10.63462300
_cell_length_c   12.77536262
_cell_angle_alpha   90.00000000
_cell_angle_beta   123.66623483
_cell_angle_gamma   90.00000000
_symmetry_Int_Tables_number   1
_chemical_formula_structural   K4Cu(IO10)2
_chemical_formula_sum   'K8 Cu2 I4 O40'
_cell_volume   1009.84887197
_cell_formula_units_Z   2
loop_
 _symmetry_equiv_pos_site_id
 _symmetry_equiv_pos_as_xyz
  1  'x, y, z'
loop_
 _atom_site_type_symbol
 _atom_site_label
 _atom_site_symmetry_multiplicity
 _atom_site_fract_x
 _atom_site_fract_y
 _atom_site_fract_z
 _atom_site_occupancy
  K  K0  1  0.58795400  0.81145800  0.80154700  1
  K  K1  1  0.58795400  0.68854200  0.30154700  1
  K  K2  1  0.41204600  0.18854200  0.19845300  1
  K  K3  1  0.41204600  0.31145800  0.69845300  1
  K  K4  1  0.06672300  0.55811700  0.20915000  1
  K  K5  1  0.06672300  0.94188300  0.70915000  1
  K  K6  1  0.93327700  0.44188300  0.79085000  1
  K  K7  1  0.93327700  0.05811700  0.29085000  1
  Cu  Cu8  1  0.00000000  0.50000000  0.50000000  1
  Cu  Cu9  1  0.00000000  0.00000000  0.00000000  1
  I  I10  1  0.08220400  0.76008100  0.47568200  1
  I  I11  1  0.08220400  0.73991900  0.97568200  1
  I  I12  1  0.91779600  0.23991900  0.52431800  1
  I  I13  1  0.91779600  0.26008100  0.02431800  1
  O  O14  1  0.54126200  0.54921300  0.96749900  1
  O  O15  1  0.54126200  0.95078700  0.46749900  1
  O  O16  1  0.45873800  0.45078700  0.03250100  1
  O  O17  1  0.45873800  0.04921300  0.53250100  1
  O  O18  1  0.48077800  0.63261700  0.56913600  1
  O  O19  1  0.48077800  0.86738300  0.06913600  1
  O  O20  1  0.51922200  0.36738300  0.43086400  1
  O  O21  1  0.51922200  0.13261700  0.93086400  1
  O  O22  1  0.25942000  0.85383600  0.60480400  1
  O  O23  1  0.25942000  0.64616400  0.10480400  1
  O  O24  1  0.74058000  0.14616400  0.39519600  1
  O  O25  1  0.74058000  0.35383600  0.89519600  1
  O  O26  1  0.95538200  0.60786400  0.37313700  1
  O  O27  1  0.95538200  0.89213600  0.87313700  1
  O  O28  1  0.04461800  0.39213600  0.62686300  1
  O  O29  1  0.04461800  0.10786400  0.12686300  1
  O  O30  1  0.13337700  0.86723100  0.10038500  1
  O  O31  1  0.13337700  0.63276900  0.60038500  1
  O  O32  1  0.86662300  0.13276900  0.89961500  1
  O  O33  1  0.86662300  0.36723100  0.39961500  1
  O  O34  1  0.12050100  0.80415400  0.35490500  1
  O  O35  1  0.12050100  0.69584600  0.85490500  1
  O  O36  1  0.87949900  0.19584600  0.64509500  1
  O  O37  1  0.87949900  0.30415400  0.14509500  1
  O  O38  1  0.88317600  0.65794000  0.94299000  1
  O  O39  1  0.88317600  0.84206000  0.44299000  1
  O  O40  1  0.11682400  0.34206000  0.05701000  1
  O  O41  1  0.11682400  0.15794000  0.55701000  1
  O  O42  1  0.48183500  0.01955300  0.87781500  1
  O  O43  1  0.48183500  0.48044700  0.37781500  1
  O  O44  1  0.51816500  0.98044700  0.12218500  1
  O  O45  1  0.51816500  0.51955300  0.62218500  1
  O  O46  1  0.43646200  0.56089400  0.85209300  1
  O  O47  1  0.43646200  0.93910600  0.35209300  1
  O  O48  1  0.56353800  0.43910600  0.14790700  1
  O  O49  1  0.56353800  0.06089400  0.64790700  1
  O  O50  1  0.58952400  0.82709200  0.03717400  1
  O  O51  1  0.58952400  0.67290800  0.53717400  1
  O  O52  1  0.41047600  0.17290800  0.96282600  1
  O  O53  1  0.41047600  0.32709200  0.46282600  1
