# generated using pymatgen
data_Sm2Te(Mo3O22)2
_symmetry_space_group_name_H-M   'P 1'
_cell_length_a   9.14308600
_cell_length_b   10.05362803
_cell_length_c   11.06093339
_cell_angle_alpha   80.81667068
_cell_angle_beta   85.89544790
_cell_angle_gamma   68.80164378
_symmetry_Int_Tables_number   1
_chemical_formula_structural   Sm2Te(Mo3O22)2
_chemical_formula_sum   'Sm2 Te1 Mo6 O44'
_cell_volume   935.67978902
_cell_formula_units_Z   1
loop_
 _symmetry_equiv_pos_site_id
 _symmetry_equiv_pos_as_xyz
  1  'x, y, z'
loop_
 _atom_site_type_symbol
 _atom_site_label
 _atom_site_symmetry_multiplicity
 _atom_site_fract_x
 _atom_site_fract_y
 _atom_site_fract_z
 _atom_site_occupancy
  Sm  Sm0  1  0.23532300  0.78692500  0.66381700  1
  Sm  Sm1  1  0.76467700  0.21307500  0.33618300  1
  Te  Te2  1  0.00000000  0.50000000  0.50000000  1
  Mo  Mo3  1  0.67963800  0.73018000  0.64688900  1
  Mo  Mo4  1  0.32036200  0.26982000  0.35311100  1
  Mo  Mo5  1  0.77539900  0.81417600  0.33061800  1
  Mo  Mo6  1  0.22460100  0.18582400  0.66938200  1
  Mo  Mo7  1  0.09453200  0.59248000  0.20013300  1
  Mo  Mo8  1  0.90546800  0.40752000  0.79986700  1
  O  O9  1  0.93360300  0.71433500  0.53597700  1
  O  O10  1  0.06639700  0.28566500  0.46402300  1
  O  O11  1  0.81617600  0.49910700  0.59565500  1
  O  O12  1  0.18382400  0.50089300  0.40434500  1
  O  O13  1  0.65313700  0.77035600  0.46969000  1
  O  O14  1  0.34686300  0.22964400  0.53031000  1
  O  O15  1  0.65579400  0.90030500  0.67365500  1
  O  O16  1  0.34420600  0.09969500  0.32634500  1
  O  O17  1  0.49541200  0.70539600  0.69074700  1
  O  O18  1  0.50458800  0.29460400  0.30925300  1
  O  O19  1  0.88397100  0.57850500  0.34913800  1
  O  O20  1  0.11602900  0.42149500  0.65086200  1
  O  O21  1  0.98257500  0.77726900  0.26130600  1
  O  O22  1  0.01742500  0.22273100  0.73869400  1
  O  O23  1  0.76027100  0.99364200  0.35832900  1
  O  O24  1  0.23972900  0.00635800  0.64167100  1
  O  O25  1  0.65838700  0.84100100  0.20885500  1
  O  O26  1  0.34161300  0.15899900  0.79114500  1
  O  O27  1  0.18695900  0.37642000  0.22229500  1
  O  O28  1  0.81304100  0.62358000  0.77770500  1
  O  O29  1  0.97565800  0.61250400  0.07908700  1
  O  O30  1  0.02434200  0.38749600  0.92091300  1
  O  O31  1  0.25720000  0.62839300  0.13722600  1
  O  O32  1  0.74280000  0.37160700  0.86277400  1
  O  O33  1  0.97704200  0.89562500  0.81221500  1
  O  O34  1  0.02295800  0.10437500  0.18778500  1
  O  O35  1  0.22260900  0.87802000  0.94965300  1
  O  O36  1  0.77739100  0.12198000  0.05034700  1
  O  O37  1  0.99961100  0.76419000  0.83070800  1
  O  O38  1  0.00038900  0.23581000  0.16929200  1
  O  O39  1  0.31856700  0.49922900  0.88157800  1
  O  O40  1  0.68143300  0.50077100  0.11842200  1
  O  O41  1  0.32032900  0.52591200  0.75904600  1
  O  O42  1  0.67967100  0.47408800  0.24095400  1
  O  O43  1  0.04777800  0.75771600  0.57716300  1
  O  O44  1  0.95222200  0.24228400  0.42283700  1
  O  O45  1  0.30899400  0.79082300  0.43313100  1
  O  O46  1  0.69100600  0.20917700  0.56686900  1
  O  O47  1  0.18380600  0.99785000  0.98217400  1
  O  O48  1  0.81619400  0.00215000  0.01782600  1
  O  O49  1  0.37172700  0.68990800  0.37403900  1
  O  O50  1  0.62827300  0.31009200  0.62596100  1
  O  O51  1  0.61630500  0.62915600  0.07077400  1
  O  O52  1  0.38369500  0.37084400  0.92922600  1
