# generated using pymatgen
data_Sb2PH3(CF5)4
_symmetry_space_group_name_H-M   'P 1'
_cell_length_a   14.16403423
_cell_length_b   14.54752679
_cell_length_c   18.67919364
_cell_angle_alpha   90.00000000
_cell_angle_beta   90.00000000
_cell_angle_gamma   90.00000000
_symmetry_Int_Tables_number   1
_chemical_formula_structural   Sb2PH3(CF5)4
_chemical_formula_sum   'Sb16 P8 H24 C32 F160'
_cell_volume   3848.87899550
_cell_formula_units_Z   8
loop_
 _symmetry_equiv_pos_site_id
 _symmetry_equiv_pos_as_xyz
  1  'x, y, z'
loop_
 _atom_site_type_symbol
 _atom_site_label
 _atom_site_symmetry_multiplicity
 _atom_site_fract_x
 _atom_site_fract_y
 _atom_site_fract_z
 _atom_site_occupancy
  Sb  Sb0  1  0.38430847  0.48139453  0.12183516  1
  Sb  Sb1  1  0.88430847  0.01860547  0.87816484  1
  Sb  Sb2  1  0.61569153  0.98139453  0.37816484  1
  Sb  Sb3  1  0.11569153  0.51860547  0.62183516  1
  Sb  Sb4  1  0.61569153  0.51860547  0.87816484  1
  Sb  Sb5  1  0.11569153  0.98139453  0.12183516  1
  Sb  Sb6  1  0.38430847  0.01860547  0.62183516  1
  Sb  Sb7  1  0.88430847  0.48139453  0.37816484  1
  Sb  Sb8  1  0.09890341  0.52311391  0.13019253  1
  Sb  Sb9  1  0.59890341  0.97688609  0.86980747  1
  Sb  Sb10  1  0.90109659  0.02311391  0.36980747  1
  Sb  Sb11  1  0.40109659  0.47688609  0.63019253  1
  Sb  Sb12  1  0.90109659  0.47688609  0.86980747  1
  Sb  Sb13  1  0.40109659  0.02311391  0.13019253  1
  Sb  Sb14  1  0.09890341  0.97688609  0.63019253  1
  Sb  Sb15  1  0.59890341  0.52311391  0.36980747  1
  P  P16  1  0.24690339  0.20905080  0.87440030  1
  P  P17  1  0.74690339  0.29094920  0.12559970  1
  P  P18  1  0.75309661  0.70905080  0.62559970  1
  P  P19  1  0.25309661  0.79094920  0.37440030  1
  P  P20  1  0.75309661  0.79094920  0.12559970  1
  P  P21  1  0.25309661  0.70905080  0.87440030  1
  P  P22  1  0.24690339  0.29094920  0.37440030  1
  P  P23  1  0.74690339  0.20905080  0.62559970  1
  H  H24  1  0.17466449  0.06369184  0.88107229  1
  H  H25  1  0.67466449  0.43630816  0.11892771  1
  H  H26  1  0.82533551  0.56369184  0.61892771  1
  H  H27  1  0.32533551  0.93630816  0.38107229  1
  H  H28  1  0.82533551  0.93630816  0.11892771  1
  H  H29  1  0.32533551  0.56369184  0.88107229  1
  H  H30  1  0.17466449  0.43630816  0.38107229  1
  H  H31  1  0.67466449  0.06369184  0.61892771  1
  H  H32  1  0.28077934  0.06337780  0.82622810  1
  H  H33  1  0.78077934  0.43662220  0.17377190  1
  H  H34  1  0.71922066  0.56337780  0.67377190  1
  H  H35  1  0.21922066  0.93662220  0.32622810  1
  H  H36  1  0.71922066  0.93662220  0.17377190  1
  H  H37  1  0.21922066  0.56337780  0.82622810  1
  H  H38  1  0.28077934  0.43662220  0.32622810  1
  H  H39  1  0.78077934  0.06337780  0.67377190  1
  H  H40  1  0.29120006  0.06612731  0.92270826  1
  H  H41  1  0.79120006  0.43387269  0.07729174  1
  H  H42  1  0.70879994  0.56612731  0.57729174  1
  H  H43  1  0.20879994  0.93387269  0.42270826  1
  H  H44  1  0.70879994  0.93387269  0.07729174  1
  H  H45  1  0.20879994  0.56612731  0.92270826  1
  H  H46  1  0.29120006  0.43387269  0.42270826  1
  H  H47  1  0.79120006  0.06612731  0.57729174  1
  C  C48  1  0.18471703  0.26067796  0.95532534  1
  C  C49  1  0.68471703  0.23932204  0.04467466  1
  C  C50  1  0.81528297  0.76067796  0.54467466  1
  C  C51  1  0.31528297  0.73932204  0.45532534  1
  C  C52  1  0.81528297  0.73932204  0.04467466  1
  C  C53  1  0.31528297  0.76067796  0.95532534  1
  C  C54  1  0.18471703  0.23932204  0.45532534  1
  C  C55  1  0.68471703  0.26067796  0.54467466  1
  C  C56  1  0.37097032  0.25942808  0.87449770  1
  C  C57  1  0.87097032  0.24057192  0.12550230  1
  C  C58  1  0.62902968  0.75942808  0.62550230  1
  C  C59  1  0.12902968  0.74057192  0.37449770  1
  C  C60  1  0.62902968  0.74057192  0.12550230  1
  C  C61  1  0.12902968  0.75942808  0.87449770  1
  C  C62  1  0.37097032  0.24057192  0.37449770  1
  C  C63  1  0.87097032  0.25942808  0.62550230  1
  C  C64  1  0.18610917  0.25732440  0.79159599  1
  C  C65  1  0.68610917  0.24267560  0.20840401  1
  C  C66  1  0.81389083  0.75732440  0.70840401  1
  C  C67  1  0.31389083  0.74267560  0.29159599  1
  C  C68  1  0.81389083  0.74267560  0.20840401  1
  C  C69  1  0.31389083  0.75732440  0.79159599  1
  C  C70  1  0.18610917  0.24267560  0.29159599  1
  C  C71  1  0.68610917  0.25732440  0.70840401  1
  C  C72  1  0.24826096  0.08729227  0.87634018  1
  C  C73  1  0.74826096  0.41270773  0.12365982  1
  C  C74  1  0.75173904  0.58729227  0.62365982  1
  C  C75  1  0.25173904  0.91270773  0.37634018  1
  C  C76  1  0.75173904  0.91270773  0.12365982  1
  C  C77  1  0.25173904  0.58729227  0.87634018  1
  C  C78  1  0.24826096  0.41270773  0.37634018  1
  C  C79  1  0.74826096  0.08729227  0.62365982  1
  F  F80  1  0.51309951  0.44387869  0.11815332  1
  F  F81  1  0.01309951  0.05612131  0.88184668  1
  F  F82  1  0.48690049  0.94387869  0.38184668  1
  F  F83  1  0.98690049  0.55612131  0.61815332  1
  F  F84  1  0.48690049  0.55612131  0.88184668  1
  F  F85  1  0.98690049  0.94387869  0.11815332  1
  F  F86  1  0.51309951  0.05612131  0.61815332  1
  F  F87  1  0.01309951  0.44387869  0.38184668  1
  F  F88  1  0.33741029  0.36446879  0.09441599  1
  F  F89  1  0.83741029  0.13553121  0.90558401  1
  F  F90  1  0.66258971  0.86446879  0.40558401  1
  F  F91  1  0.16258971  0.63553121  0.59441599  1
  F  F92  1  0.66258971  0.63553121  0.90558401  1
  F  F93  1  0.16258971  0.86446879  0.09441599  1
  F  F94  1  0.33741029  0.13553121  0.59441599  1
  F  F95  1  0.83741029  0.36446879  0.40558401  1
  F  F96  1  0.37788986  0.52021402  0.02457397  1
  F  F97  1  0.87788986  0.97978598  0.97542603  1
  F  F98  1  0.62211014  0.02021402  0.47542603  1
  F  F99  1  0.12211014  0.47978598  0.52457397  1
  F  F100  1  0.62211014  0.47978598  0.97542603  1
  F  F101  1  0.12211014  0.02021402  0.02457397  1
  F  F102  1  0.37788986  0.97978598  0.52457397  1
  F  F103  1  0.87788986  0.52021402  0.47542603  1
  F  F104  1  0.41346106  0.60405114  0.14899563  1
  F  F105  1  0.91346106  0.89594886  0.85100437  1
  F  F106  1  0.58653894  0.10405114  0.35100437  1
  F  F107  1  0.08653894  0.39594886  0.64899563  1
  F  F108  1  0.58653894  0.39594886  0.85100437  1
  F  F109  1  0.08653894  0.10405114  0.14899563  1
  F  F110  1  0.41346106  0.89594886  0.64899563  1
  F  F111  1  0.91346106  0.60405114  0.35100437  1
  F  F112  1  0.36797679  0.44926932  0.22002840  1
  F  F113  1  0.86797679  0.05073068  0.77997160  1
  F  F114  1  0.63202321  0.94926932  0.27997160  1
  F  F115  1  0.13202321  0.55073068  0.72002840  1
  F  F116  1  0.63202321  0.55073068  0.77997160  1
  F  F117  1  0.13202321  0.94926932  0.22002840  1
  F  F118  1  0.36797679  0.05073068  0.72002840  1
  F  F119  1  0.86797679  0.44926932  0.27997160  1
  F  F120  1  0.24532923  0.52452695  0.12749819  1
  F  F121  1  0.74532923  0.97547305  0.87250181  1
  F  F122  1  0.75467077  0.02452695  0.37250181  1
  F  F123  1  0.25467077  0.47547305  0.62749819  1
  F  F124  1  0.75467077  0.47547305  0.87250181  1
  F  F125  1  0.25467077  0.02452695  0.12749819  1
  F  F126  1  0.24532923  0.97547305  0.62749819  1
  F  F127  1  0.74532923  0.52452695  0.37250181  1
  F  F128  1  0.96452741  0.52379573  0.13147050  1
  F  F129  1  0.46452741  0.97620427  0.86852950  1
  F  F130  1  0.03547259  0.02379573  0.36852950  1
  F  F131  1  0.53547259  0.47620427  0.63147050  1
  F  F132  1  0.03547259  0.47620427  0.86852950  1
  F  F133  1  0.53547259  0.02379573  0.13147050  1
  F  F134  1  0.96452741  0.97620427  0.63147050  1
  F  F135  1  0.46452741  0.52379573  0.36852950  1
  F  F136  1  0.11417107  0.48995717  0.22811502  1
  F  F137  1  0.61417107  0.01004283  0.77188498  1
  F  F138  1  0.88582893  0.98995717  0.27188498  1
  F  F139  1  0.38582893  0.51004283  0.72811502  1
  F  F140  1  0.88582893  0.51004283  0.77188498  1
  F  F141  1  0.38582893  0.98995717  0.22811502  1
  F  F142  1  0.11417107  0.01004283  0.72811502  1
  F  F143  1  0.61417107  0.48995717  0.27188498  1
  F  F144  1  0.10666717  0.39685133  0.10466325  1
  F  F145  1  0.60666717  0.10314867  0.89533675  1
  F  F146  1  0.89333283  0.89685133  0.39533675  1
  F  F147  1  0.39333283  0.60314867  0.60466325  1
  F  F148  1  0.89333283  0.60314867  0.89533675  1
  F  F149  1  0.39333283  0.89685133  0.10466325  1
  F  F150  1  0.10666717  0.10314867  0.60466325  1
  F  F151  1  0.60666717  0.39685133  0.39533675  1
  F  F152  1  0.10938697  0.55648419  0.03170987  1
  F  F153  1  0.60938697  0.94351581  0.96829013  1
  F  F154  1  0.89061303  0.05648419  0.46829013  1
  F  F155  1  0.39061303  0.44351581  0.53170987  1
  F  F156  1  0.89061303  0.44351581  0.96829013  1
  F  F157  1  0.39061303  0.05648419  0.03170987  1
  F  F158  1  0.10938697  0.94351581  0.53170987  1
  F  F159  1  0.60938697  0.55648419  0.46829013  1
  F  F160  1  0.10919511  0.64891639  0.15603163  1
  F  F161  1  0.60919511  0.85108361  0.84396837  1
  F  F162  1  0.89080489  0.14891639  0.34396837  1
  F  F163  1  0.39080489  0.35108361  0.65603163  1
  F  F164  1  0.89080489  0.35108361  0.84396837  1
  F  F165  1  0.39080489  0.14891639  0.15603163  1
  F  F166  1  0.10919511  0.85108361  0.65603163  1
  F  F167  1  0.60919511  0.64891639  0.34396837  1
  F  F168  1  0.09193485  0.24309868  0.95042885  1
  F  F169  1  0.59193485  0.25690132  0.04957115  1
  F  F170  1  0.90806515  0.74309868  0.54957115  1
  F  F171  1  0.40806515  0.75690132  0.45042885  1
  F  F172  1  0.90806515  0.75690132  0.04957115  1
  F  F173  1  0.40806515  0.74309868  0.95042885  1
  F  F174  1  0.09193485  0.25690132  0.45042885  1
  F  F175  1  0.59193485  0.24309868  0.54957115  1
  F  F176  1  0.22053953  0.22194229  0.01454704  1
  F  F177  1  0.72053953  0.27805771  0.98545296  1
  F  F178  1  0.77946047  0.72194229  0.48545296  1
  F  F179  1  0.27946047  0.77805771  0.51454704  1
  F  F180  1  0.77946047  0.77805771  0.98545296  1
  F  F181  1  0.27946047  0.72194229  0.01454704  1
  F  F182  1  0.22053953  0.27805771  0.51454704  1
  F  F183  1  0.72053953  0.22194229  0.48545296  1
  F  F184  1  0.19963472  0.35203990  0.95608252  1
  F  F185  1  0.69963472  0.14796010  0.04391748  1
  F  F186  1  0.80036528  0.85203990  0.54391748  1
  F  F187  1  0.30036528  0.64796010  0.45608252  1
  F  F188  1  0.80036528  0.64796010  0.04391748  1
  F  F189  1  0.30036528  0.85203990  0.95608252  1
  F  F190  1  0.19963472  0.14796010  0.45608252  1
  F  F191  1  0.69963472  0.35203990  0.54391748  1
  F  F192  1  0.41251739  0.23697801  0.93679587  1
  F  F193  1  0.91251739  0.26302199  0.06320413  1
  F  F194  1  0.58748261  0.73697801  0.56320413  1
  F  F195  1  0.08748261  0.76302199  0.43679587  1
  F  F196  1  0.58748261  0.76302199  0.06320413  1
  F  F197  1  0.08748261  0.73697801  0.93679587  1
  F  F198  1  0.41251739  0.26302199  0.43679587  1
  F  F199  1  0.91251739  0.23697801  0.56320413  1
  F  F200  1  0.36636605  0.35122278  0.86787599  1
  F  F201  1  0.86636605  0.14877722  0.13212401  1
  F  F202  1  0.63363395  0.85122278  0.63212401  1
  F  F203  1  0.13363395  0.64877722  0.36787599  1
  F  F204  1  0.63363395  0.64877722  0.13212401  1
  F  F205  1  0.13363395  0.85122278  0.86787599  1
  F  F206  1  0.36636605  0.14877722  0.36787599  1
  F  F207  1  0.86636605  0.35122278  0.63212401  1
  F  F208  1  0.41902322  0.22319823  0.81945587  1
  F  F209  1  0.91902322  0.27680177  0.18054413  1
  F  F210  1  0.58097678  0.72319823  0.68054413  1
  F  F211  1  0.08097678  0.77680177  0.31945587  1
  F  F212  1  0.58097678  0.77680177  0.18054413  1
  F  F213  1  0.08097678  0.72319823  0.81945587  1
  F  F214  1  0.41902322  0.27680177  0.31945587  1
  F  F215  1  0.91902322  0.22319823  0.68054413  1
  F  F216  1  0.19192310  0.34957881  0.79295488  1
  F  F217  1  0.69192310  0.15042119  0.20704512  1
  F  F218  1  0.80807690  0.84957881  0.70704512  1
  F  F219  1  0.30807690  0.65042119  0.29295488  1
  F  F220  1  0.80807690  0.65042119  0.20704512  1
  F  F221  1  0.30807690  0.84957881  0.79295488  1
  F  F222  1  0.19192310  0.15042119  0.29295488  1
  F  F223  1  0.69192310  0.34957881  0.70704512  1
  F  F224  1  0.23014086  0.22430647  0.73342739  1
  F  F225  1  0.73014086  0.27569353  0.26657261  1
  F  F226  1  0.76985914  0.72430647  0.76657261  1
  F  F227  1  0.26985914  0.77569353  0.23342739  1
  F  F228  1  0.76985914  0.77569353  0.26657261  1
  F  F229  1  0.26985914  0.72430647  0.73342739  1
  F  F230  1  0.23014086  0.27569353  0.23342739  1
  F  F231  1  0.73014086  0.22430647  0.76657261  1
  F  F232  1  0.09538529  0.23091130  0.79208288  1
  F  F233  1  0.59538529  0.26908870  0.20791712  1
  F  F234  1  0.90461471  0.73091130  0.70791712  1
  F  F235  1  0.40461471  0.76908870  0.29208288  1
  F  F236  1  0.90461471  0.76908870  0.20791712  1
  F  F237  1  0.40461471  0.73091130  0.79208288  1
  F  F238  1  0.09538529  0.26908870  0.29208288  1
  F  F239  1  0.59538529  0.23091130  0.70791712  1
