# generated using pymatgen
data_UP2H15C5NO13
_symmetry_space_group_name_H-M   'P 1'
_cell_length_a   18.15352900
_cell_length_b   9.20763200
_cell_length_c   13.07418562
_cell_angle_alpha   57.91387184
_cell_angle_beta   90.00000000
_cell_angle_gamma   90.00000000
_symmetry_Int_Tables_number   1
_chemical_formula_structural   UP2H15C5NO13
_chemical_formula_sum   'U4 P8 H60 C20 N4 O52'
_cell_volume   1851.55034175
_cell_formula_units_Z   4
loop_
 _symmetry_equiv_pos_site_id
 _symmetry_equiv_pos_as_xyz
  1  'x, y, z'
loop_
 _atom_site_type_symbol
 _atom_site_label
 _atom_site_symmetry_multiplicity
 _atom_site_fract_x
 _atom_site_fract_y
 _atom_site_fract_z
 _atom_site_occupancy
  U  U0  1  0.08111400  0.26538000  0.73581300  1
  U  U1  1  0.41888600  0.26538000  0.23581300  1
  U  U2  1  0.91888600  0.73462000  0.26418700  1
  U  U3  1  0.58111400  0.73462000  0.76418700  1
  P  P4  1  0.20388300  0.86996000  0.84461800  1
  P  P5  1  0.29611700  0.86996000  0.34461800  1
  P  P6  1  0.79611700  0.13004000  0.15538200  1
  P  P7  1  0.70388300  0.13004000  0.65538200  1
  P  P8  1  0.05110800  0.35614400  0.42142800  1
  P  P9  1  0.44889200  0.35614400  0.92142800  1
  P  P10  1  0.94889200  0.64385600  0.57857200  1
  P  P11  1  0.55110800  0.64385600  0.07857200  1
  H  H12  1  0.21047600  0.71563600  0.64886300  1
  H  H13  1  0.28952400  0.71563600  0.14886300  1
  H  H14  1  0.78952400  0.28436400  0.35113700  1
  H  H15  1  0.71047600  0.28436400  0.85113700  1
  H  H16  1  0.16312200  0.90858100  0.61340100  1
  H  H17  1  0.33687800  0.90858100  0.11340100  1
  H  H18  1  0.83687800  0.09141900  0.38659900  1
  H  H19  1  0.66312200  0.09141900  0.88659900  1
  H  H20  1  0.26211600  0.89622700  0.62671700  1
  H  H21  1  0.23788400  0.89622700  0.12671700  1
  H  H22  1  0.73788400  0.10377300  0.37328300  1
  H  H23  1  0.76211600  0.10377300  0.87328300  1
  H  H24  1  0.39510400  0.88913000  0.87876700  1
  H  H25  1  0.10489600  0.88913000  0.37876700  1
  H  H26  1  0.60489600  0.11087000  0.12123300  1
  H  H27  1  0.89510400  0.11087000  0.62123300  1
  H  H28  1  0.34045700  0.70050300  0.97169800  1
  H  H29  1  0.15954300  0.70050300  0.47169800  1
  H  H30  1  0.65954300  0.29949700  0.02830200  1
  H  H31  1  0.84045700  0.29949700  0.52830200  1
  H  H32  1  0.35568600  0.77697300  0.81470500  1
  H  H33  1  0.14431400  0.77697300  0.31470500  1
  H  H34  1  0.64431400  0.22302700  0.18529500  1
  H  H35  1  0.85568600  0.22302700  0.68529500  1
  H  H36  1  0.11065900  0.59268100  0.11451900  1
  H  H37  1  0.38934100  0.59268100  0.61451900  1
  H  H38  1  0.88934100  0.40731900  0.88548100  1
  H  H39  1  0.61065900  0.40731900  0.38548100  1
  H  H40  1  0.07209800  0.78582300  0.99033700  1
  H  H41  1  0.42790200  0.78582300  0.49033700  1
  H  H42  1  0.92790200  0.21417700  0.00966300  1
  H  H43  1  0.57209800  0.21417700  0.50966300  1
  H  H44  1  0.09235900  0.60737500  0.97369000  1
  H  H45  1  0.40764100  0.60737500  0.47369000  1
  H  H46  1  0.90764100  0.39262500  0.02631000  1
  H  H47  1  0.59235900  0.39262500  0.52631000  1
  H  H48  1  0.23761800  0.42338100  0.33172600  1
  H  H49  1  0.26238200  0.42338100  0.83172600  1
  H  H50  1  0.76238200  0.57661900  0.66827400  1
  H  H51  1  0.73761800  0.57661900  0.16827400  1
  H  H52  1  0.20687700  0.30625600  0.48599800  1
  H  H53  1  0.29312300  0.30625600  0.98599800  1
  H  H54  1  0.79312300  0.69374400  0.51400200  1
  H  H55  1  0.70687700  0.69374400  0.01400200  1
  H  H56  1  0.19160100  0.22328200  0.38978000  1
  H  H57  1  0.30839900  0.22328200  0.88978000  1
  H  H58  1  0.80839900  0.77671800  0.61022000  1
  H  H59  1  0.69160100  0.77671800  0.11022000  1
  H  H60  1  0.00677600  0.07895400  0.32134100  1
  H  H61  1  0.49322400  0.07895400  0.82134100  1
  H  H62  1  0.99322400  0.92104600  0.67865900  1
  H  H63  1  0.50677600  0.92104600  0.17865900  1
  H  H64  1  0.96318300  0.28280600  0.26536900  1
  H  H65  1  0.53681700  0.28280600  0.76536900  1
  H  H66  1  0.03681700  0.71719400  0.73463100  1
  H  H67  1  0.46318300  0.71719400  0.23463100  1
  H  H68  1  0.05877200  0.27241700  0.23406400  1
  H  H69  1  0.44122800  0.27241700  0.73406400  1
  H  H70  1  0.94122800  0.72758300  0.76593600  1
  H  H71  1  0.55877200  0.72758300  0.26593600  1
  C  C72  1  0.21029900  0.82483800  0.66049000  1
  C  C73  1  0.28970100  0.82483800  0.16049000  1
  C  C74  1  0.78970100  0.17516200  0.33951000  1
  C  C75  1  0.71029900  0.17516200  0.83951000  1
  C  C76  1  0.34787100  0.81423800  0.88081400  1
  C  C77  1  0.15212900  0.81423800  0.38081400  1
  C  C78  1  0.65212900  0.18576200  0.11918600  1
  C  C79  1  0.84787100  0.18576200  0.61918600  1
  C  C80  1  0.10911600  0.67764100  0.01631300  1
  C  C81  1  0.39088400  0.67764100  0.51631300  1
  C  C82  1  0.89088400  0.32235900  0.98368700  1
  C  C83  1  0.60911600  0.32235900  0.48368700  1
  C  C84  1  0.19477400  0.33922900  0.39377500  1
  C  C85  1  0.30522600  0.33922900  0.89377500  1
  C  C86  1  0.80522600  0.66077100  0.60622500  1
  C  C87  1  0.69477400  0.66077100  0.10622500  1
  C  C88  1  0.01446900  0.20963900  0.30075000  1
  C  C89  1  0.48553100  0.20963900  0.80075000  1
  C  C90  1  0.98553100  0.79036100  0.69925000  1
  C  C91  1  0.51446900  0.79036100  0.19925000  1
  N  N92  1  0.11115200  0.23554200  0.96873800  1
  N  N93  1  0.38884800  0.23554200  0.46873800  1
  N  N94  1  0.88884800  0.76445800  0.03126200  1
  N  N95  1  0.61115200  0.76445800  0.53126200  1
  O  O96  1  0.16116200  0.40300300  0.67332300  1
  O  O97  1  0.33883800  0.40300300  0.17332300  1
  O  O98  1  0.83883800  0.59699700  0.32667700  1
  O  O99  1  0.66116200  0.59699700  0.82667700  1
  O  O100  1  0.00248100  0.12696500  0.80456000  1
  O  O101  1  0.49751900  0.12696500  0.30456000  1
  O  O102  1  0.99751900  0.87303500  0.19544000  1
  O  O103  1  0.50248100  0.87303500  0.69544000  1
  O  O104  1  0.15420500  0.02248900  0.77831100  1
  O  O105  1  0.34579500  0.02248900  0.27831100  1
  O  O106  1  0.84579500  0.97751100  0.22168900  1
  O  O107  1  0.65420500  0.97751100  0.72168900  1
  O  O108  1  0.20317200  0.75244400  0.78996600  1
  O  O109  1  0.29682800  0.75244400  0.28996600  1
  O  O110  1  0.79682800  0.24755600  0.21003400  1
  O  O111  1  0.70317200  0.24755600  0.71003400  1
  O  O112  1  0.28460600  0.92942600  0.84669300  1
  O  O113  1  0.21539400  0.92942600  0.34669300  1
  O  O114  1  0.71539400  0.07057400  0.15330700  1
  O  O115  1  0.78460600  0.07057400  0.65330700  1
  O  O116  1  0.18436100  0.74112400  0.98098500  1
  O  O117  1  0.31563900  0.74112400  0.48098500  1
  O  O118  1  0.81563900  0.25887600  0.01901500  1
  O  O119  1  0.68436100  0.25887600  0.51901500  1
  O  O120  1  0.05895500  0.28509800  0.55536400  1
  O  O121  1  0.44104500  0.28509800  0.05536400  1
  O  O122  1  0.94104500  0.71490200  0.44463600  1
  O  O123  1  0.55895500  0.71490200  0.94463600  1
  O  O124  1  0.99379600  0.49446800  0.35483900  1
  O  O125  1  0.50620400  0.49446800  0.85483900  1
  O  O126  1  0.00620400  0.50553200  0.64516100  1
  O  O127  1  0.49379600  0.50553200  0.14516100  1
  O  O128  1  0.12648600  0.43647200  0.35114700  1
  O  O129  1  0.37351400  0.43647200  0.85114700  1
  O  O130  1  0.87351400  0.56352800  0.64885300  1
  O  O131  1  0.62648600  0.56352800  0.14885300  1
  O  O132  1  0.03356600  0.19242300  0.41455700  1
  O  O133  1  0.46643400  0.19242300  0.91455700  1
  O  O134  1  0.96643400  0.80757700  0.58544300  1
  O  O135  1  0.53356600  0.80757700  0.08544300  1
  O  O136  1  0.06858500  0.35242700  0.88681800  1
  O  O137  1  0.43141500  0.35242700  0.38681800  1
  O  O138  1  0.93141500  0.64757300  0.11318200  1
  O  O139  1  0.56858500  0.64757300  0.61318200  1
  O  O140  1  0.13936300  0.13251100  0.94061500  1
  O  O141  1  0.36063700  0.13251100  0.44061500  1
  O  O142  1  0.86063700  0.86748900  0.05938500  1
  O  O143  1  0.63936300  0.86748900  0.55938500  1
  O  O144  1  0.12399700  0.22439000  0.06457400  1
  O  O145  1  0.37600300  0.22439000  0.56457400  1
  O  O146  1  0.87600300  0.77561000  0.93542600  1
  O  O147  1  0.62399700  0.77561000  0.43542600  1
