# generated using pymatgen
data_K2TaHgF6
_symmetry_space_group_name_H-M   'P 1'
_cell_length_a   6.99508777
_cell_length_b   6.99508777
_cell_length_c   6.99508777
_cell_angle_alpha   60.00000000
_cell_angle_beta   60.00000000
_cell_angle_gamma   60.00000000
_symmetry_Int_Tables_number   1
_chemical_formula_structural   K2TaHgF6
_chemical_formula_sum   'K2 Ta1 Hg1 F6'
_cell_volume   242.02738433
_cell_formula_units_Z   1
loop_
 _symmetry_equiv_pos_site_id
 _symmetry_equiv_pos_as_xyz
  1  'x, y, z'
loop_
 _atom_site_type_symbol
 _atom_site_label
 _atom_site_symmetry_multiplicity
 _atom_site_fract_x
 _atom_site_fract_y
 _atom_site_fract_z
 _atom_site_occupancy
  K  K0  1  0.75000000  0.75000000  0.75000000  1
  K  K1  1  0.25000000  0.25000000  0.25000000  1
  Ta  Ta2  1  0.00000000  0.00000000  0.00000000  1
  Hg  Hg3  1  0.50000000  0.50000000  0.50000000  1
  F  F4  1  0.79867500  0.20132500  0.20132500  1
  F  F5  1  0.20132500  0.20132500  0.79867500  1
  F  F6  1  0.20132500  0.79867500  0.79867500  1
  F  F7  1  0.20132500  0.79867500  0.20132500  1
  F  F8  1  0.79867500  0.20132500  0.79867500  1
  F  F9  1  0.79867500  0.79867500  0.20132500  1
