# generated using pymatgen
data_ReH12C3S3(NCl)6
_symmetry_space_group_name_H-M   'P 1'
_cell_length_a   11.36246300
_cell_length_b   16.10165609
_cell_length_c   20.51387606
_cell_angle_alpha   90.00000000
_cell_angle_beta   90.00000000
_cell_angle_gamma   90.00000000
_symmetry_Int_Tables_number   1
_chemical_formula_structural   ReH12C3S3(NCl)6
_chemical_formula_sum   'Re8 H96 C24 S24 N48 Cl48'
_cell_volume   3753.10535423
_cell_formula_units_Z   8
loop_
 _symmetry_equiv_pos_site_id
 _symmetry_equiv_pos_as_xyz
  1  'x, y, z'
loop_
 _atom_site_type_symbol
 _atom_site_label
 _atom_site_symmetry_multiplicity
 _atom_site_fract_x
 _atom_site_fract_y
 _atom_site_fract_z
 _atom_site_occupancy
  Re  Re0  1  0.69734063  0.15841237  0.38619482  1
  Re  Re1  1  0.19734063  0.34158763  0.61380518  1
  Re  Re2  1  0.30265937  0.65841237  0.11380518  1
  Re  Re3  1  0.80265937  0.84158763  0.88619482  1
  Re  Re4  1  0.30265937  0.84158763  0.61380518  1
  Re  Re5  1  0.80265937  0.65841237  0.38619482  1
  Re  Re6  1  0.69734063  0.34158763  0.88619482  1
  Re  Re7  1  0.19734063  0.15841237  0.11380518  1
  H  H8  1  0.56073862  0.38932106  0.29635157  1
  H  H9  1  0.06073862  0.11067894  0.70364843  1
  H  H10  1  0.43926138  0.88932106  0.20364843  1
  H  H11  1  0.93926138  0.61067894  0.79635157  1
  H  H12  1  0.43926138  0.61067894  0.70364843  1
  H  H13  1  0.93926138  0.88932106  0.29635157  1
  H  H14  1  0.56073862  0.11067894  0.79635157  1
  H  H15  1  0.06073862  0.38932106  0.20364843  1
  H  H16  1  0.66386475  0.32242171  0.25900955  1
  H  H17  1  0.16386475  0.17757829  0.74099045  1
  H  H18  1  0.33613525  0.82242171  0.24099045  1
  H  H19  1  0.83613525  0.67757829  0.75900955  1
  H  H20  1  0.33613525  0.67757829  0.74099045  1
  H  H21  1  0.83613525  0.82242171  0.25900955  1
  H  H22  1  0.66386475  0.17757829  0.75900955  1
  H  H23  1  0.16386475  0.32242171  0.24099045  1
  H  H24  1  0.44089212  0.47246653  0.23661482  1
  H  H25  1  0.94089212  0.02753347  0.76338518  1
  H  H26  1  0.55910788  0.97246653  0.26338518  1
  H  H27  1  0.05910788  0.52753347  0.73661482  1
  H  H28  1  0.55910788  0.52753347  0.76338518  1
  H  H29  1  0.05910788  0.97246653  0.23661482  1
  H  H30  1  0.44089212  0.02753347  0.73661482  1
  H  H31  1  0.94089212  0.47246653  0.26338518  1
  H  H32  1  0.45008732  0.47453050  0.15060004  1
  H  H33  1  0.95008732  0.02546950  0.84939996  1
  H  H34  1  0.54991268  0.97453050  0.34939996  1
  H  H35  1  0.04991268  0.52546950  0.65060004  1
  H  H36  1  0.54991268  0.52546950  0.84939996  1
  H  H37  1  0.04991268  0.97453050  0.15060004  1
  H  H38  1  0.45008732  0.02546950  0.65060004  1
  H  H39  1  0.95008732  0.47453050  0.34939996  1
  H  H40  1  0.55215059  0.10480346  0.13359770  1
  H  H41  1  0.05215059  0.39519654  0.86640230  1
  H  H42  1  0.44784941  0.60480346  0.36640230  1
  H  H43  1  0.94784941  0.89519654  0.63359770  1
  H  H44  1  0.44784941  0.89519654  0.86640230  1
  H  H45  1  0.94784941  0.60480346  0.13359770  1
  H  H46  1  0.55215059  0.39519654  0.63359770  1
  H  H47  1  0.05215059  0.10480346  0.36640230  1
  H  H48  1  0.52418371  0.21133070  0.12000191  1
  H  H49  1  0.02418371  0.28866930  0.87999809  1
  H  H50  1  0.47581629  0.71133070  0.37999809  1
  H  H51  1  0.97581629  0.78866930  0.62000191  1
  H  H52  1  0.47581629  0.78866930  0.87999809  1
  H  H53  1  0.97581629  0.71133070  0.12000191  1
  H  H54  1  0.52418371  0.28866930  0.62000191  1
  H  H55  1  0.02418371  0.21133070  0.37999809  1
  H  H56  1  0.73765948  0.06168117  0.16230743  1
  H  H57  1  0.23765948  0.43831883  0.83769257  1
  H  H58  1  0.26234052  0.56168117  0.33769257  1
  H  H59  1  0.76234052  0.93831883  0.66230743  1
  H  H60  1  0.26234052  0.93831883  0.83769257  1
  H  H61  1  0.76234052  0.56168117  0.16230743  1
  H  H62  1  0.73765948  0.43831883  0.66230743  1
  H  H63  1  0.23765948  0.06168117  0.33769257  1
  H  H64  1  0.85444622  0.13510899  0.17155312  1
  H  H65  1  0.35444622  0.36489101  0.82844688  1
  H  H66  1  0.14555378  0.63510899  0.32844688  1
  H  H67  1  0.64555378  0.86489101  0.67155312  1
  H  H68  1  0.14555378  0.86489101  0.82844688  1
  H  H69  1  0.64555378  0.63510899  0.17155312  1
  H  H70  1  0.85444622  0.36489101  0.67155312  1
  H  H71  1  0.35444622  0.13510899  0.32844688  1
  H  H72  1  0.84274268  0.39826212  0.49303461  1
  H  H73  1  0.34274268  0.10173788  0.50696539  1
  H  H74  1  0.15725732  0.89826212  0.00696539  1
  H  H75  1  0.65725732  0.60173788  0.99303461  1
  H  H76  1  0.15725732  0.60173788  0.50696539  1
  H  H77  1  0.65725732  0.89826212  0.49303461  1
  H  H78  1  0.84274268  0.10173788  0.99303461  1
  H  H79  1  0.34274268  0.39826212  0.00696539  1
  H  H80  1  0.83070318  0.28974988  0.48761709  1
  H  H81  1  0.33070318  0.21025012  0.51238291  1
  H  H82  1  0.16929682  0.78974988  0.01238291  1
  H  H83  1  0.66929682  0.71025012  0.98761709  1
  H  H84  1  0.16929682  0.71025012  0.51238291  1
  H  H85  1  0.66929682  0.78974988  0.48761709  1
  H  H86  1  0.83070318  0.21025012  0.98761709  1
  H  H87  1  0.33070318  0.28974988  0.01238291  1
  H  H88  1  0.67279623  0.48095023  0.47072803  1
  H  H89  1  0.17279623  0.01904977  0.52927197  1
  H  H90  1  0.32720377  0.98095023  0.02927197  1
  H  H91  1  0.82720377  0.51904977  0.97072803  1
  H  H92  1  0.32720377  0.51904977  0.52927197  1
  H  H93  1  0.82720377  0.98095023  0.47072803  1
  H  H94  1  0.67279623  0.01904977  0.97072803  1
  H  H95  1  0.17279623  0.48095023  0.02927197  1
  H  H96  1  0.54578369  0.43178384  0.44281903  1
  H  H97  1  0.04578369  0.06821616  0.55718097  1
  H  H98  1  0.45421631  0.93178384  0.05718097  1
  H  H99  1  0.95421631  0.56821616  0.94281903  1
  H  H100  1  0.45421631  0.56821616  0.55718097  1
  H  H101  1  0.95421631  0.93178384  0.44281903  1
  H  H102  1  0.54578369  0.06821616  0.94281903  1
  H  H103  1  0.04578369  0.43178384  0.05718097  1
  C  C104  1  0.56108360  0.39330023  0.19813007  1
  C  C105  1  0.06108360  0.10669977  0.80186993  1
  C  C106  1  0.43891640  0.89330023  0.30186993  1
  C  C107  1  0.93891640  0.60669977  0.69813007  1
  C  C108  1  0.43891640  0.60669977  0.80186993  1
  C  C109  1  0.93891640  0.89330023  0.19813007  1
  C  C110  1  0.56108360  0.10669977  0.69813007  1
  C  C111  1  0.06108360  0.39330023  0.30186993  1
  C  C112  1  0.69261638  0.18123987  0.14525685  1
  C  C113  1  0.19261638  0.31876013  0.85474315  1
  C  C114  1  0.30738362  0.68123987  0.35474315  1
  C  C115  1  0.80738362  0.81876013  0.64525685  1
  C  C116  1  0.30738362  0.81876013  0.85474315  1
  C  C117  1  0.80738362  0.68123987  0.14525685  1
  C  C118  1  0.69261638  0.31876013  0.64525685  1
  C  C119  1  0.19261638  0.18123987  0.35474315  1
  C  C120  1  0.68112461  0.35314147  0.46447395  1
  C  C121  1  0.18112461  0.14685853  0.53552605  1
  C  C122  1  0.31887539  0.85314147  0.03552605  1
  C  C123  1  0.81887539  0.64685853  0.96447395  1
  C  C124  1  0.31887539  0.64685853  0.53552605  1
  C  C125  1  0.81887539  0.85314147  0.46447395  1
  C  C126  1  0.68112461  0.14685853  0.96447395  1
  C  C127  1  0.18112461  0.35314147  0.03552605  1
  S  S128  1  0.61530163  0.35712856  0.12149440  1
  S  S129  1  0.11530163  0.14287144  0.87850560  1
  S  S130  1  0.38469837  0.85712856  0.37850560  1
  S  S131  1  0.88469837  0.64287144  0.62149440  1
  S  S132  1  0.38469837  0.64287144  0.87850560  1
  S  S133  1  0.88469837  0.85712856  0.12149440  1
  S  S134  1  0.61530163  0.14287144  0.62149440  1
  S  S135  1  0.11530163  0.35712856  0.37850560  1
  S  S136  1  0.75415681  0.28360389  0.14486208  1
  S  S137  1  0.25415681  0.21639611  0.85513792  1
  S  S138  1  0.24584319  0.78360389  0.35513792  1
  S  S139  1  0.74584319  0.71639611  0.64486208  1
  S  S140  1  0.24584319  0.71639611  0.85513792  1
  S  S141  1  0.74584319  0.78360389  0.14486208  1
  S  S142  1  0.75415681  0.21639611  0.64486208  1
  S  S143  1  0.25415681  0.28360389  0.35513792  1
  S  S144  1  0.59389782  0.26728705  0.44592222  1
  S  S145  1  0.09389782  0.23271295  0.55407778  1
  S  S146  1  0.40610218  0.76728705  0.05407778  1
  S  S147  1  0.90610218  0.73271295  0.94592222  1
  S  S148  1  0.40610218  0.73271295  0.55407778  1
  S  S149  1  0.90610218  0.76728705  0.44592222  1
  S  S150  1  0.59389782  0.23271295  0.94592222  1
  S  S151  1  0.09389782  0.26728705  0.05407778  1
  N  N152  1  0.59960831  0.36633559  0.25477495  1
  N  N153  1  0.09960831  0.13366441  0.74522505  1
  N  N154  1  0.40039169  0.86633559  0.24522505  1
  N  N155  1  0.90039169  0.63366441  0.75477495  1
  N  N156  1  0.40039169  0.63366441  0.74522505  1
  N  N157  1  0.90039169  0.86633559  0.25477495  1
  N  N158  1  0.59960831  0.13366441  0.75477495  1
  N  N159  1  0.09960831  0.36633559  0.24522505  1
  N  N160  1  0.47802445  0.45053769  0.19411179  1
  N  N161  1  0.97802445  0.04946231  0.80588821  1
  N  N162  1  0.52197555  0.95053769  0.30588821  1
  N  N163  1  0.02197555  0.54946231  0.69411179  1
  N  N164  1  0.52197555  0.54946231  0.80588821  1
  N  N165  1  0.02197555  0.95053769  0.19411179  1
  N  N166  1  0.47802445  0.04946231  0.69411179  1
  N  N167  1  0.97802445  0.45053769  0.30588821  1
  N  N168  1  0.58223522  0.16514228  0.13074662  1
  N  N169  1  0.08223522  0.33485772  0.86925338  1
  N  N170  1  0.41776478  0.66514228  0.36925338  1
  N  N171  1  0.91776478  0.83485772  0.63074662  1
  N  N172  1  0.41776478  0.83485772  0.86925338  1
  N  N173  1  0.91776478  0.66514228  0.13074662  1
  N  N174  1  0.58223522  0.33485772  0.63074662  1
  N  N175  1  0.08223522  0.16514228  0.36925338  1
  N  N176  1  0.76882526  0.12191290  0.15971720  1
  N  N177  1  0.26882526  0.37808710  0.84028280  1
  N  N178  1  0.23117474  0.62191290  0.34028280  1
  N  N179  1  0.73117474  0.87808710  0.65971720  1
  N  N180  1  0.23117474  0.87808710  0.84028280  1
  N  N181  1  0.73117474  0.62191290  0.15971720  1
  N  N182  1  0.76882526  0.37808710  0.65971720  1
  N  N183  1  0.26882526  0.12191290  0.34028280  1
  N  N184  1  0.79272261  0.34696610  0.48346348  1
  N  N185  1  0.29272261  0.15303390  0.51653652  1
  N  N186  1  0.20727739  0.84696610  0.01653652  1
  N  N187  1  0.70727739  0.65303390  0.98346348  1
  N  N188  1  0.20727739  0.65303390  0.51653652  1
  N  N189  1  0.70727739  0.84696610  0.48346348  1
  N  N190  1  0.79272261  0.15303390  0.98346348  1
  N  N191  1  0.29272261  0.34696610  0.01653652  1
  N  N192  1  0.62836448  0.42688630  0.46218595  1
  N  N193  1  0.12836448  0.07311370  0.53781405  1
  N  N194  1  0.37163552  0.92688630  0.03781405  1
  N  N195  1  0.87163552  0.57311370  0.96218595  1
  N  N196  1  0.37163552  0.57311370  0.53781405  1
  N  N197  1  0.87163552  0.92688630  0.46218595  1
  N  N198  1  0.62836448  0.07311370  0.96218595  1
  N  N199  1  0.12836448  0.42688630  0.03781405  1
  Cl  Cl200  1  0.54946604  0.16864123  0.30406928  1
  Cl  Cl201  1  0.04946604  0.33135877  0.69593072  1
  Cl  Cl202  1  0.45053396  0.66864123  0.19593072  1
  Cl  Cl203  1  0.95053396  0.83135877  0.80406928  1
  Cl  Cl204  1  0.45053396  0.83135877  0.69593072  1
  Cl  Cl205  1  0.95053396  0.66864123  0.30406928  1
  Cl  Cl206  1  0.54946604  0.33135877  0.80406928  1
  Cl  Cl207  1  0.04946604  0.16864123  0.19593072  1
  Cl  Cl208  1  0.81486003  0.25690804  0.33096604  1
  Cl  Cl209  1  0.31486003  0.24309196  0.66903396  1
  Cl  Cl210  1  0.18513997  0.75690804  0.16903396  1
  Cl  Cl211  1  0.68513997  0.74309196  0.83096604  1
  Cl  Cl212  1  0.18513997  0.74309196  0.66903396  1
  Cl  Cl213  1  0.68513997  0.75690804  0.33096604  1
  Cl  Cl214  1  0.81486003  0.24309196  0.83096604  1
  Cl  Cl215  1  0.31486003  0.25690804  0.16903396  1
  Cl  Cl216  1  0.84062210  0.14415256  0.46989382  1
  Cl  Cl217  1  0.34062210  0.35584744  0.53010618  1
  Cl  Cl218  1  0.15937790  0.64415256  0.03010618  1
  Cl  Cl219  1  0.65937790  0.85584744  0.96989382  1
  Cl  Cl220  1  0.15937790  0.85584744  0.53010618  1
  Cl  Cl221  1  0.65937790  0.64415256  0.46989382  1
  Cl  Cl222  1  0.84062210  0.35584744  0.96989382  1
  Cl  Cl223  1  0.34062210  0.14415256  0.03010618  1
  Cl  Cl224  1  0.78659757  0.04979451  0.32678868  1
  Cl  Cl225  1  0.28659757  0.45020549  0.67321132  1
  Cl  Cl226  1  0.21340243  0.54979451  0.17321132  1
  Cl  Cl227  1  0.71340243  0.95020549  0.82678868  1
  Cl  Cl228  1  0.21340243  0.95020549  0.67321132  1
  Cl  Cl229  1  0.71340243  0.54979451  0.32678868  1
  Cl  Cl230  1  0.78659757  0.45020549  0.82678868  1
  Cl  Cl231  1  0.28659757  0.04979451  0.17321132  1
  Cl  Cl232  1  0.57464307  0.06064052  0.44277594  1
  Cl  Cl233  1  0.07464307  0.43935948  0.55722406  1
  Cl  Cl234  1  0.42535693  0.56064052  0.05722406  1
  Cl  Cl235  1  0.92535693  0.93935948  0.94277594  1
  Cl  Cl236  1  0.42535693  0.93935948  0.55722406  1
  Cl  Cl237  1  0.92535693  0.56064052  0.44277594  1
  Cl  Cl238  1  0.57464307  0.43935948  0.94277594  1
  Cl  Cl239  1  0.07464307  0.06064052  0.05722406  1
  Cl  Cl240  1  0.90407646  0.46369766  0.14984091  1
  Cl  Cl241  1  0.40407646  0.03630234  0.85015909  1
  Cl  Cl242  1  0.09592354  0.96369766  0.35015909  1
  Cl  Cl243  1  0.59592354  0.53630234  0.64984091  1
  Cl  Cl244  1  0.09592354  0.53630234  0.85015909  1
  Cl  Cl245  1  0.59592354  0.96369766  0.14984091  1
  Cl  Cl246  1  0.90407646  0.03630234  0.64984091  1
  Cl  Cl247  1  0.40407646  0.46369766  0.35015909  1
