# generated using pymatgen
data_KP(HO2)2
_symmetry_space_group_name_H-M   'P 1'
_cell_length_a   6.82505400
_cell_length_b   7.35428957
_cell_length_c   7.90355673
_cell_angle_alpha   86.88434232
_cell_angle_beta   83.62301488
_cell_angle_gamma   87.19911354
_symmetry_Int_Tables_number   1
_chemical_formula_structural   KP(HO2)2
_chemical_formula_sum   'K4 P4 H8 O16'
_cell_volume   393.30241955
_cell_formula_units_Z   4
loop_
 _symmetry_equiv_pos_site_id
 _symmetry_equiv_pos_as_xyz
  1  'x, y, z'
loop_
 _atom_site_type_symbol
 _atom_site_label
 _atom_site_symmetry_multiplicity
 _atom_site_fract_x
 _atom_site_fract_y
 _atom_site_fract_z
 _atom_site_occupancy
  K  K0  1  0.79052100  0.83168400  0.06464900  1
  K  K1  1  0.20947900  0.16831600  0.93535100  1
  K  K2  1  0.19555800  0.33344900  0.40335000  1
  K  K3  1  0.80444200  0.66655100  0.59665000  1
  P  P4  1  0.32099100  0.84069000  0.35394800  1
  P  P5  1  0.67900900  0.15931000  0.64605200  1
  P  P6  1  0.74180700  0.34660300  0.13801700  1
  P  P7  1  0.25819300  0.65339700  0.86198300  1
  H  H8  1  0.61000800  0.57659200  0.31584400  1
  H  H9  1  0.38999200  0.42340800  0.68415600  1
  H  H10  1  0.16317400  0.67435600  0.18925700  1
  H  H11  1  0.83682600  0.32564400  0.81074300  1
  H  H12  1  0.49212100  0.14795900  0.18310500  1
  H  H13  1  0.50787900  0.85204100  0.81689500  1
  H  H14  1  0.80743100  0.10320900  0.37695000  1
  H  H15  1  0.19256900  0.89679100  0.62305000  1
  O  O16  1  0.47404400  0.69790800  0.40851300  1
  O  O17  1  0.52595600  0.30209200  0.59148700  1
  O  O18  1  0.23848800  0.96227000  0.50782000  1
  O  O19  1  0.76151200  0.03773000  0.49218000  1
  O  O20  1  0.13246100  0.74078400  0.30821500  1
  O  O21  1  0.86753900  0.25921600  0.69178500  1
  O  O22  1  0.39384800  0.97016600  0.20504300  1
  O  O23  1  0.60615200  0.02983400  0.79495700  1
  O  O24  1  0.80384400  0.42257000  0.95790500  1
  O  O25  1  0.19615600  0.57743000  0.04209500  1
  O  O26  1  0.52029900  0.28395500  0.15413800  1
  O  O27  1  0.47970100  0.71604500  0.84586200  1
  O  O28  1  0.87821800  0.18927800  0.19758600  1
  O  O29  1  0.12178200  0.81072200  0.80241400  1
  O  O30  1  0.74109500  0.50832700  0.26253000  1
  O  O31  1  0.25890500  0.49167300  0.73747000  1
