# generated using pymatgen
data_K5TbH8(CO2)8
_symmetry_space_group_name_H-M   'P 1'
_cell_length_a   8.49130067
_cell_length_b   8.49130067
_cell_length_c   15.58807336
_cell_angle_alpha   103.00992378
_cell_angle_beta   103.00992378
_cell_angle_gamma   90.07504244
_symmetry_Int_Tables_number   1
_chemical_formula_structural   K5TbH8(CO2)8
_chemical_formula_sum   'K10 Tb2 H16 C16 O32'
_cell_volume   1065.37321624
_cell_formula_units_Z   2
loop_
 _symmetry_equiv_pos_site_id
 _symmetry_equiv_pos_as_xyz
  1  'x, y, z'
loop_
 _atom_site_type_symbol
 _atom_site_label
 _atom_site_symmetry_multiplicity
 _atom_site_fract_x
 _atom_site_fract_y
 _atom_site_fract_z
 _atom_site_occupancy
  K  K0  1  0.00000000  0.00000000  0.50000000  1
  K  K1  1  0.00000000  0.00000000  0.00000000  1
  K  K2  1  0.59891800  0.20240900  0.51216000  1
  K  K3  1  0.79759100  0.40108200  0.98784000  1
  K  K4  1  0.40108200  0.79759100  0.48784000  1
  K  K5  1  0.20240900  0.59891800  0.01216000  1
  K  K6  1  0.79035100  0.59682600  0.49763800  1
  K  K7  1  0.40317400  0.20964900  0.00236200  1
  K  K8  1  0.20964900  0.40317400  0.50236200  1
  K  K9  1  0.59682600  0.79035100  0.99763800  1
  Tb  Tb10  1  0.19761400  0.80238600  0.75000000  1
  Tb  Tb11  1  0.80238600  0.19761400  0.25000000  1
  H  H12  1  0.99350200  0.39694900  0.71491500  1
  H  H13  1  0.60305100  0.00649800  0.78508500  1
  H  H14  1  0.00649800  0.60305100  0.28508500  1
  H  H15  1  0.39694900  0.99350200  0.21491500  1
  H  H16  1  0.33230100  0.40407300  0.77423400  1
  H  H17  1  0.59592700  0.66769900  0.72576600  1
  H  H18  1  0.66769900  0.59592700  0.22576600  1
  H  H19  1  0.40407300  0.33230100  0.27423400  1
  H  H20  1  0.81088200  0.96564800  0.73956500  1
  H  H21  1  0.03435200  0.18911800  0.76043500  1
  H  H22  1  0.18911800  0.03435200  0.26043500  1
  H  H23  1  0.96564800  0.81088200  0.23956500  1
  H  H24  1  0.83400200  0.60155800  0.76979600  1
  H  H25  1  0.39844200  0.16599800  0.73020400  1
  H  H26  1  0.16599800  0.39844200  0.23020400  1
  H  H27  1  0.60155800  0.83400200  0.26979600  1
  C  C28  1  0.99489600  0.42419300  0.64854100  1
  C  C29  1  0.57580700  0.00510400  0.85145900  1
  C  C30  1  0.00510400  0.57580700  0.35145900  1
  C  C31  1  0.42419300  0.99489600  0.14854100  1
  C  C32  1  0.37826400  0.48982600  0.84071800  1
  C  C33  1  0.51017400  0.62173600  0.65928200  1
  C  C34  1  0.62173600  0.51017400  0.15928200  1
  C  C35  1  0.48982600  0.37826400  0.34071800  1
  C  C36  1  0.81794300  0.92651300  0.66731900  1
  C  C37  1  0.07348700  0.18205700  0.83268100  1
  C  C38  1  0.18205700  0.07348700  0.33268100  1
  C  C39  1  0.92651300  0.81794300  0.16731900  1
  C  C40  1  0.89723100  0.67035700  0.83874600  1
  C  C41  1  0.32964300  0.10276900  0.66125400  1
  C  C42  1  0.10276900  0.32964300  0.16125400  1
  C  C43  1  0.67035700  0.89723100  0.33874600  1
  O  O44  1  0.06288300  0.55920000  0.65075800  1
  O  O45  1  0.44080000  0.93711700  0.84924200  1
  O  O46  1  0.93711700  0.44080000  0.34924200  1
  O  O47  1  0.55920000  0.06288300  0.15075800  1
  O  O48  1  0.93025600  0.32100500  0.57693600  1
  O  O49  1  0.67899500  0.06974400  0.92306400  1
  O  O50  1  0.06974400  0.67899500  0.42306400  1
  O  O51  1  0.32100500  0.93025600  0.07693600  1
  O  O52  1  0.33344700  0.63478500  0.84768400  1
  O  O53  1  0.36521500  0.66655300  0.65231600  1
  O  O54  1  0.66655300  0.36521500  0.15231600  1
  O  O55  1  0.63478500  0.33344700  0.34768400  1
  O  O56  1  0.70078500  0.95040300  0.60716800  1
  O  O57  1  0.04959700  0.29921500  0.89283200  1
  O  O58  1  0.29921500  0.04959700  0.39283200  1
  O  O59  1  0.95040300  0.70078500  0.10716800  1
  O  O60  1  0.94772400  0.85948900  0.65346000  1
  O  O61  1  0.14051100  0.05227600  0.84654000  1
  O  O62  1  0.05227600  0.14051100  0.34654000  1
  O  O63  1  0.85948900  0.94772300  0.15346000  1
  O  O64  1  0.02968700  0.74838500  0.84478900  1
  O  O65  1  0.25161500  0.97031300  0.65521100  1
  O  O66  1  0.97031300  0.25161500  0.15521100  1
  O  O67  1  0.74838500  0.02968700  0.34478900  1
  O  O68  1  0.83496100  0.66727200  0.90426500  1
  O  O69  1  0.33272800  0.16503900  0.59573500  1
  O  O70  1  0.16503900  0.33272800  0.09573500  1
  O  O71  1  0.66727200  0.83496100  0.40426500  1
  O  O72  1  0.46790300  0.43689300  0.90277200  1
  O  O73  1  0.56310700  0.53209700  0.59722800  1
  O  O74  1  0.53209700  0.56310700  0.09722800  1
  O  O75  1  0.43689300  0.46790300  0.40277200  1
