# generated using pymatgen
data_Cd3H14S3(NO8)2
_symmetry_space_group_name_H-M   'P 1'
_cell_length_a   8.06700800
_cell_length_b   10.23060300
_cell_length_c   10.33143309
_cell_angle_alpha   90.00000000
_cell_angle_beta   112.98006867
_cell_angle_gamma   90.00000000
_symmetry_Int_Tables_number   1
_chemical_formula_structural   Cd3H14S3(NO8)2
_chemical_formula_sum   'Cd6 H28 S6 N4 O32'
_cell_volume   784.99061959
_cell_formula_units_Z   2
loop_
 _symmetry_equiv_pos_site_id
 _symmetry_equiv_pos_as_xyz
  1  'x, y, z'
loop_
 _atom_site_type_symbol
 _atom_site_label
 _atom_site_symmetry_multiplicity
 _atom_site_fract_x
 _atom_site_fract_y
 _atom_site_fract_z
 _atom_site_occupancy
  Cd  Cd0  1  0.12678500  0.79928400  0.17850300  1
  Cd  Cd1  1  0.94828200  0.79928400  0.82149700  1
  Cd  Cd2  1  0.87321500  0.29928400  0.82149700  1
  Cd  Cd3  1  0.05171800  0.29928400  0.17850300  1
  Cd  Cd4  1  0.31072800  0.08533300  0.00000000  1
  Cd  Cd5  1  0.68927200  0.58533300  0.00000000  1
  H  H6  1  0.02423700  0.58230900  0.00000000  1
  H  H7  1  0.97576300  0.08230900  0.00000000  1
  H  H8  1  0.30588700  0.82315600  0.00000000  1
  H  H9  1  0.69411300  0.32315600  0.00000000  1
  H  H10  1  0.41826600  0.63290400  0.34994800  1
  H  H11  1  0.06831800  0.63290400  0.65005200  1
  H  H12  1  0.58173400  0.13290400  0.65005200  1
  H  H13  1  0.93168200  0.13290400  0.34994800  1
  H  H14  1  0.40064200  0.61852100  0.19326900  1
  H  H15  1  0.20737200  0.61852100  0.80673100  1
  H  H16  1  0.59935800  0.11852100  0.80673100  1
  H  H17  1  0.79262800  0.11852100  0.19326900  1
  H  H18  1  0.75128300  0.94286400  0.39646300  1
  H  H19  1  0.35482000  0.94286400  0.60353700  1
  H  H20  1  0.24871700  0.44286400  0.60353700  1
  H  H21  1  0.64518000  0.44286400  0.39646300  1
  H  H22  1  0.61642300  0.81856500  0.30434900  1
  H  H23  1  0.31207400  0.81856500  0.69565100  1
  H  H24  1  0.38357700  0.31856500  0.69565100  1
  H  H25  1  0.68792600  0.31856500  0.30434900  1
  H  H26  1  0.72610300  0.80742700  0.47818200  1
  H  H27  1  0.24792000  0.80742700  0.52181800  1
  H  H28  1  0.27389700  0.30742700  0.52181800  1
  H  H29  1  0.75208000  0.30742700  0.47818200  1
  H  H30  1  0.84322200  0.80264200  0.37200700  1
  H  H31  1  0.47121400  0.80264200  0.62799300  1
  H  H32  1  0.15677800  0.30264200  0.62799300  1
  H  H33  1  0.52878600  0.30264200  0.37200700  1
  S  S34  1  0.37833400  0.07454700  0.35697900  1
  S  S35  1  0.02135500  0.07454700  0.64302100  1
  S  S36  1  0.62166600  0.57454700  0.64302100  1
  S  S37  1  0.97864500  0.57454700  0.35697900  1
  S  S38  1  0.68751000  0.91792400  0.00000000  1
  S  S39  1  0.31249000  0.41792400  0.00000000  1
  N  N40  1  0.73414800  0.84334100  0.38707000  1
  N  N41  1  0.34707800  0.84334100  0.61293000  1
  N  N42  1  0.26585200  0.34334100  0.61293000  1
  N  N43  1  0.65292200  0.34334100  0.38707000  1
  O  O44  1  0.22962900  0.97826800  0.32170700  1
  O  O45  1  0.90792200  0.97826800  0.67829300  1
  O  O46  1  0.77037100  0.47826800  0.67829300  1
  O  O47  1  0.09207800  0.47826800  0.32170700  1
  O  O48  1  0.46105400  0.07243000  0.25026000  1
  O  O49  1  0.21079400  0.07243000  0.74974000  1
  O  O50  1  0.53894600  0.57243000  0.74974000  1
  O  O51  1  0.78920600  0.57243000  0.25026000  1
  O  O52  1  0.51862000  0.04649000  0.49783600  1
  O  O53  1  0.02078300  0.04649000  0.50216400  1
  O  O54  1  0.48138000  0.54649000  0.50216400  1
  O  O55  1  0.97921700  0.54649000  0.49783600  1
  O  O56  1  0.30563900  0.21111200  0.36068600  1
  O  O57  1  0.94495300  0.21111200  0.63931400  1
  O  O58  1  0.69436100  0.71111200  0.63931400  1
  O  O59  1  0.05504700  0.71111200  0.36068600  1
  O  O60  1  0.85720100  0.91844200  0.12884400  1
  O  O61  1  0.72835700  0.91844200  0.87115600  1
  O  O62  1  0.14279900  0.41844200  0.87115600  1
  O  O63  1  0.27164300  0.41844200  0.12884400  1
  O  O64  1  0.57211800  0.80363700  0.00000000  1
  O  O65  1  0.42788200  0.30363700  0.00000000  1
  O  O66  1  0.59069600  0.04380100  0.00000000  1
  O  O67  1  0.40930400  0.54380100  0.00000000  1
  O  O68  1  0.95387100  0.66020200  0.00000000  1
  O  O69  1  0.04612900  0.16020200  0.00000000  1
  O  O70  1  0.20543900  0.87679800  0.00000000  1
  O  O71  1  0.79456100  0.37679800  0.00000000  1
  O  O72  1  0.40256100  0.68401900  0.26328000  1
  O  O73  1  0.13928200  0.68401900  0.73672000  1
  O  O74  1  0.59743900  0.18401900  0.73672000  1
  O  O75  1  0.86071800  0.18401900  0.26328000  1
