# generated using pymatgen
data_Mn5(SiO5)2
_symmetry_space_group_name_H-M   'P 1'
_cell_length_a   4.87439700
_cell_length_b   8.02823300
_cell_length_c   10.68994949
_cell_angle_alpha   72.62875557
_cell_angle_beta   90.00000000
_cell_angle_gamma   90.00000000
_symmetry_Int_Tables_number   1
_chemical_formula_structural   Mn5(SiO5)2
_chemical_formula_sum   'Mn10 Si4 O20'
_cell_volume   399.24780006
_cell_formula_units_Z   2
loop_
 _symmetry_equiv_pos_site_id
 _symmetry_equiv_pos_as_xyz
  1  'x, y, z'
loop_
 _atom_site_type_symbol
 _atom_site_label
 _atom_site_symmetry_multiplicity
 _atom_site_fract_x
 _atom_site_fract_y
 _atom_site_fract_z
 _atom_site_occupancy
  Mn  Mn0  1  0.02591300  0.71384300  0.16428400  1
  Mn  Mn1  1  0.52591300  0.28615700  0.33571600  1
  Mn  Mn2  1  0.97408700  0.28615700  0.83571600  1
  Mn  Mn3  1  0.47408700  0.71384300  0.66428400  1
  Mn  Mn4  1  0.01179500  0.92244200  0.39486000  1
  Mn  Mn5  1  0.51179500  0.07755800  0.10514000  1
  Mn  Mn6  1  0.98820500  0.07755800  0.60514000  1
  Mn  Mn7  1  0.48820500  0.92244200  0.89486000  1
  Mn  Mn8  1  0.00000000  0.50000000  0.50000000  1
  Mn  Mn9  1  0.50000000  0.50000000  0.00000000  1
  Si  Si10  1  0.57688500  0.70728100  0.35656100  1
  Si  Si11  1  0.07688500  0.29271900  0.14343900  1
  Si  Si12  1  0.42311500  0.29271900  0.64343900  1
  Si  Si13  1  0.92311500  0.70728100  0.85656100  1
  O  O14  1  0.70670200  0.69875800  0.50129800  1
  O  O15  1  0.20670200  0.30124200  0.99870200  1
  O  O16  1  0.29329800  0.30124200  0.49870200  1
  O  O17  1  0.79329800  0.69875800  0.00129800  1
  O  O18  1  0.73682700  0.87958600  0.25557000  1
  O  O19  1  0.23682700  0.12041400  0.24443000  1
  O  O20  1  0.26317300  0.12041400  0.74443000  1
  O  O21  1  0.76317300  0.87958600  0.75557000  1
  O  O22  1  0.71073400  0.53668000  0.32426500  1
  O  O23  1  0.21073400  0.46332000  0.17573500  1
  O  O24  1  0.28926600  0.46332000  0.67573500  1
  O  O25  1  0.78926600  0.53668000  0.82426500  1
  O  O26  1  0.23812400  0.72153000  0.35459000  1
  O  O27  1  0.73812400  0.27847000  0.14541000  1
  O  O28  1  0.76187600  0.27847000  0.64541000  1
  O  O29  1  0.26187600  0.72153000  0.85459000  1
  O  O30  1  0.29778100  0.90382200  0.05617000  1
  O  O31  1  0.79778100  0.09617800  0.44383000  1
  O  O32  1  0.70221900  0.09617800  0.94383000  1
  O  O33  1  0.20221900  0.90382200  0.55617000  1
