# generated using pymatgen
data_NiBPO6
_symmetry_space_group_name_H-M   'P 1'
_cell_length_a   7.41615334
_cell_length_b   7.41615334
_cell_length_c   12.85841600
_cell_angle_alpha   90.00000000
_cell_angle_beta   90.00000000
_cell_angle_gamma   119.99999411
_symmetry_Int_Tables_number   1
_chemical_formula_structural   NiBPO6
_chemical_formula_sum   'Ni6 B6 P6 O36'
_cell_volume   612.45689938
_cell_formula_units_Z   6
loop_
 _symmetry_equiv_pos_site_id
 _symmetry_equiv_pos_as_xyz
  1  'x, y, z'
loop_
 _atom_site_type_symbol
 _atom_site_label
 _atom_site_symmetry_multiplicity
 _atom_site_fract_x
 _atom_site_fract_y
 _atom_site_fract_z
 _atom_site_occupancy
  Ni  Ni0  1  0.00000000  0.86454500  0.66666700  1
  Ni  Ni1  1  0.86454500  0.00000000  0.33333300  1
  Ni  Ni2  1  0.13545500  0.13545500  0.00000000  1
  Ni  Ni3  1  0.00000000  0.76269600  0.16666700  1
  Ni  Ni4  1  0.76269600  0.00000000  0.83333300  1
  Ni  Ni5  1  0.23730400  0.23730400  0.50000000  1
  B  B6  1  0.44188700  0.74776300  0.44969400  1
  B  B7  1  0.30587500  0.55811300  0.11636100  1
  B  B8  1  0.25223700  0.69412500  0.78302800  1
  B  B9  1  0.55811300  0.30587500  0.88363900  1
  B  B10  1  0.74776300  0.44188700  0.55030600  1
  B  B11  1  0.69412500  0.25223700  0.21697200  1
  P  P12  1  0.31910000  0.25327800  0.23792900  1
  P  P13  1  0.93417800  0.68090000  0.90459500  1
  P  P14  1  0.74672200  0.06582200  0.57126200  1
  P  P15  1  0.68090000  0.93417800  0.09540500  1
  P  P16  1  0.25327800  0.31910000  0.76207100  1
  P  P17  1  0.06582200  0.74672200  0.42873800  1
  O  O18  1  0.19997700  0.65498000  0.16810100  1
  O  O19  1  0.45500300  0.80002300  0.83476800  1
  O  O20  1  0.34502000  0.54499700  0.50143500  1
  O  O21  1  0.80002300  0.45500300  0.16523200  1
  O  O22  1  0.65498000  0.19997700  0.83189900  1
  O  O23  1  0.54499700  0.34502000  0.49856500  1
  O  O24  1  0.52395800  0.25800300  0.27394500  1
  O  O25  1  0.73404500  0.47604200  0.94061200  1
  O  O26  1  0.74199700  0.26595500  0.60727900  1
  O  O27  1  0.47604200  0.73404500  0.05938800  1
  O  O28  1  0.25800300  0.52395800  0.72605500  1
  O  O29  1  0.26595500  0.74199700  0.39272100  1
  O  O30  1  0.11740800  0.91335000  0.51224400  1
  O  O31  1  0.79594200  0.88259200  0.17891000  1
  O  O32  1  0.08665000  0.20405800  0.84557700  1
  O  O33  1  0.88259200  0.79594200  0.82109000  1
  O  O34  1  0.91335000  0.11740800  0.48775600  1
  O  O35  1  0.20405800  0.08665000  0.15442300  1
  O  O36  1  0.97664300  0.78775400  0.32978200  1
  O  O37  1  0.81111100  0.02335700  0.99644900  1
  O  O38  1  0.21224600  0.18888900  0.66311600  1
  O  O39  1  0.02335700  0.81111100  0.00355100  1
  O  O40  1  0.78775400  0.97664300  0.67021800  1
  O  O41  1  0.18888900  0.21224600  0.33688400  1
  O  O42  1  0.76768100  0.58897000  0.62873800  1
  O  O43  1  0.82128900  0.23231900  0.29540500  1
  O  O44  1  0.41103000  0.17871100  0.96207100  1
  O  O45  1  0.23231900  0.82128900  0.70459500  1
  O  O46  1  0.58897000  0.76768100  0.37126200  1
  O  O47  1  0.17871100  0.41103000  0.03792900  1
  O  O48  1  0.91540000  0.52561600  0.47231100  1
  O  O49  1  0.61021600  0.08460000  0.13897800  1
  O  O50  1  0.47438400  0.38978400  0.80564400  1
  O  O51  1  0.08460000  0.61021600  0.86102200  1
  O  O52  1  0.52561600  0.91540000  0.52768900  1
  O  O53  1  0.38978400  0.47438400  0.19435600  1
