# generated using pymatgen
data_ZnP2H3C4NO8
_symmetry_space_group_name_H-M   'P 1'
_cell_length_a   8.95110856
_cell_length_b   8.95110856
_cell_length_c   9.44618447
_cell_angle_alpha   107.17926744
_cell_angle_beta   107.17926744
_cell_angle_gamma   112.12341933
_symmetry_Int_Tables_number   1
_chemical_formula_structural   ZnP2H3C4NO8
_chemical_formula_sum   'Zn2 P4 H6 C8 N2 O16'
_cell_volume   594.97471612
_cell_formula_units_Z   2
loop_
 _symmetry_equiv_pos_site_id
 _symmetry_equiv_pos_as_xyz
  1  'x, y, z'
loop_
 _atom_site_type_symbol
 _atom_site_label
 _atom_site_symmetry_multiplicity
 _atom_site_fract_x
 _atom_site_fract_y
 _atom_site_fract_z
 _atom_site_occupancy
  Zn  Zn0  1  0.51542300  0.48457700  0.00000000  1
  Zn  Zn1  1  0.26542300  0.73457700  0.50000000  1
  P  P2  1  0.25836600  0.54849800  0.74308400  1
  P  P3  1  0.45150200  0.74163400  0.25691600  1
  P  P4  1  0.26528200  0.05541400  0.75691600  1
  P  P5  1  0.94458600  0.73471800  0.24308400  1
  H  H6  1  0.27500400  0.72499600  0.00000000  1
  H  H7  1  0.02500400  0.97499600  0.50000000  1
  H  H8  1  0.11107900  0.25880100  0.67774600  1
  H  H9  1  0.74119900  0.88892100  0.32225400  1
  H  H10  1  0.18333200  0.83105400  0.82225400  1
  H  H11  1  0.16894600  0.81666800  0.17774600  1
  C  C12  1  0.61864000  0.49619000  0.47648300  1
  C  C13  1  0.50381000  0.38136000  0.52351700  1
  C  C14  1  0.89215700  0.26970800  0.02351700  1
  C  C15  1  0.73029200  0.10784300  0.97648300  1
  C  C16  1  0.61941700  0.32997100  0.62227600  1
  C  C17  1  0.67002900  0.38058300  0.37772400  1
  C  C18  1  0.74714200  0.95769600  0.87772400  1
  C  C19  1  0.04230400  0.25285800  0.12227600  1
  N  N20  1  0.66884700  0.33115300  0.50000000  1
  N  N21  1  0.91884700  0.08115300  0.00000000  1
  O  O22  1  0.43920400  0.55478000  0.82633800  1
  O  O23  1  0.44522000  0.56079600  0.17366200  1
  O  O24  1  0.36286500  0.97844200  0.67366200  1
  O  O25  1  0.02155800  0.63713500  0.32633800  1
  O  O26  1  0.40748100  0.22671300  0.91932700  1
  O  O27  1  0.77328700  0.59251900  0.08067300  1
  O  O28  1  0.23815400  0.55738600  0.58067300  1
  O  O29  1  0.44261400  0.76184600  0.41932700  1
  O  O30  1  0.24883700  0.70452300  0.86124500  1
  O  O31  1  0.29547700  0.75116300  0.13875500  1
  O  O32  1  0.13759200  0.09327800  0.63875500  1
  O  O33  1  0.90672200  0.86240800  0.36124500  1
  O  O34  1  0.09339400  0.36808500  0.70789700  1
  O  O35  1  0.63191500  0.90660600  0.29210300  1
  O  O36  1  0.13549700  0.91018800  0.79210300  1
  O  O37  1  0.08981200  0.86450300  0.20789700  1
