# generated using pymatgen
data_NaNbO3
_symmetry_space_group_name_H-M   'P 1'
_cell_length_a   5.69195100
_cell_length_b   5.70324300
_cell_length_c   15.99121800
_cell_angle_alpha   90.00000000
_cell_angle_beta   90.00000000
_cell_angle_gamma   90.00000000
_symmetry_Int_Tables_number   1
_chemical_formula_structural   NaNbO3
_chemical_formula_sum   'Na8 Nb8 O24'
_cell_volume   519.11618878
_cell_formula_units_Z   8
loop_
 _symmetry_equiv_pos_site_id
 _symmetry_equiv_pos_as_xyz
  1  'x, y, z'
loop_
 _atom_site_type_symbol
 _atom_site_label
 _atom_site_symmetry_multiplicity
 _atom_site_fract_x
 _atom_site_fract_y
 _atom_site_fract_z
 _atom_site_occupancy
  Na  Na0  1  0.51224800  0.00000000  0.50000000  1
  Na  Na1  1  0.48775200  0.00000000  0.00000000  1
  Na  Na2  1  0.99329100  0.50000000  0.50000000  1
  Na  Na3  1  0.00670900  0.50000000  0.00000000  1
  Na  Na4  1  0.00000000  0.52064400  0.25000000  1
  Na  Na5  1  0.00000000  0.47935600  0.75000000  1
  Na  Na6  1  0.50000000  0.00240000  0.25000000  1
  Na  Na7  1  0.50000000  0.99760000  0.75000000  1
  Nb  Nb8  1  0.00319700  0.02354200  0.37509800  1
  Nb  Nb9  1  0.99680300  0.02354200  0.12490200  1
  Nb  Nb10  1  0.99680300  0.97645800  0.87509800  1
  Nb  Nb11  1  0.00319700  0.97645800  0.62490200  1
  Nb  Nb12  1  0.50102000  0.52043700  0.37479600  1
  Nb  Nb13  1  0.49898000  0.52043700  0.12520400  1
  Nb  Nb14  1  0.49898000  0.47956300  0.87479600  1
  Nb  Nb15  1  0.50102000  0.47956300  0.62520400  1
  O  O16  1  0.25211100  0.24638700  0.37493600  1
  O  O17  1  0.74788900  0.24638700  0.12506400  1
  O  O18  1  0.74788900  0.75361300  0.87493600  1
  O  O19  1  0.25211100  0.75361300  0.62506400  1
  O  O20  1  0.24861200  0.74573400  0.37131100  1
  O  O21  1  0.75138800  0.74573400  0.12868900  1
  O  O22  1  0.75138800  0.25426600  0.87131100  1
  O  O23  1  0.24861200  0.25426600  0.62868900  1
  O  O24  1  0.74907900  0.24522200  0.37866200  1
  O  O25  1  0.25092100  0.24522200  0.12133800  1
  O  O26  1  0.25092100  0.75477800  0.87866200  1
  O  O27  1  0.74907900  0.75477800  0.62133800  1
  O  O28  1  0.75176500  0.74604200  0.37503700  1
  O  O29  1  0.24823500  0.74604200  0.12496300  1
  O  O30  1  0.24823500  0.25395800  0.87503700  1
  O  O31  1  0.75176500  0.25395800  0.62496300  1
  O  O32  1  0.00920600  0.00000000  0.50000000  1
  O  O33  1  0.99079400  0.00000000  0.00000000  1
  O  O34  1  0.49083200  0.50000000  0.50000000  1
  O  O35  1  0.50916800  0.50000000  0.00000000  1
  O  O36  1  0.00000000  0.00213200  0.25000000  1
  O  O37  1  0.00000000  0.99786800  0.75000000  1
  O  O38  1  0.50000000  0.48491000  0.25000000  1
  O  O39  1  0.50000000  0.51509000  0.75000000  1
