# generated using pymatgen
data_Ba5Y8Mn4O21
_symmetry_space_group_name_H-M   'P 1'
_cell_length_a   10.34835057
_cell_length_b   10.34835057
_cell_length_c   10.34835057
_cell_angle_alpha   94.52592065
_cell_angle_beta   94.52592065
_cell_angle_gamma   147.37102336
_symmetry_Int_Tables_number   1
_chemical_formula_structural   Ba5Y8Mn4O21
_chemical_formula_sum   'Ba5 Y8 Mn4 O21'
_cell_volume   573.47131182
_cell_formula_units_Z   1
loop_
 _symmetry_equiv_pos_site_id
 _symmetry_equiv_pos_as_xyz
  1  'x, y, z'
loop_
 _atom_site_type_symbol
 _atom_site_label
 _atom_site_symmetry_multiplicity
 _atom_site_fract_x
 _atom_site_fract_y
 _atom_site_fract_z
 _atom_site_occupancy
  Ba  Ba0  1  0.00000000  0.00000000  0.00000000  1
  Ba  Ba1  1  0.13923200  0.53371300  0.67294500  1
  Ba  Ba2  1  0.86076800  0.46628700  0.32705500  1
  Ba  Ba3  1  0.46628700  0.13923200  0.60551900  1
  Ba  Ba4  1  0.53371300  0.86076800  0.39448100  1
  Y  Y5  1  0.16984900  0.24874600  0.41859500  1
  Y  Y6  1  0.83015100  0.75125400  0.58140500  1
  Y  Y7  1  0.75125400  0.16984900  0.92110200  1
  Y  Y8  1  0.24874600  0.83015100  0.07889800  1
  Y  Y9  1  0.35930000  0.41032600  0.76962600  1
  Y  Y10  1  0.64070000  0.58967400  0.23037400  1
  Y  Y11  1  0.58967400  0.35930000  0.94897400  1
  Y  Y12  1  0.41032600  0.64070000  0.05102600  1
  Mn  Mn13  1  0.24813100  0.04026100  0.28839300  1
  Mn  Mn14  1  0.75186900  0.95973900  0.71160700  1
  Mn  Mn15  1  0.95973900  0.24813100  0.20787000  1
  Mn  Mn16  1  0.04026100  0.75186900  0.79213000  1
  O  O17  1  0.50000000  0.50000000  0.00000000  1
  O  O18  1  0.96158500  0.62728000  0.58886500  1
  O  O19  1  0.03841500  0.37272000  0.41113500  1
  O  O20  1  0.37272000  0.96158500  0.33430600  1
  O  O21  1  0.62728000  0.03841500  0.66569400  1
  O  O22  1  0.29908600  0.42843700  0.22536100  1
  O  O23  1  0.20307600  0.07372400  0.77463900  1
  O  O24  1  0.07372400  0.29908600  0.87064900  1
  O  O25  1  0.42843700  0.20307600  0.12935100  1
  O  O26  1  0.70091400  0.57156300  0.77463900  1
  O  O27  1  0.79692400  0.92627600  0.22536100  1
  O  O28  1  0.92627600  0.70091400  0.12935100  1
  O  O29  1  0.57156300  0.79692400  0.87064900  1
  O  O30  1  0.49300300  0.59963500  0.59436400  1
  O  O31  1  0.00527100  0.89863900  0.40563600  1
  O  O32  1  0.89863900  0.49300300  0.89336800  1
  O  O33  1  0.59963500  0.00527100  0.10663200  1
  O  O34  1  0.50699700  0.40036500  0.40563600  1
  O  O35  1  0.99472900  0.10136100  0.59436400  1
  O  O36  1  0.10136100  0.50699700  0.10663200  1
  O  O37  1  0.40036500  0.99472900  0.89336800  1
