# generated using pymatgen
data_PrErS3
_symmetry_space_group_name_H-M   'P 1'
_cell_length_a   3.97553900
_cell_length_b   11.05040000
_cell_length_c   21.58709504
_cell_angle_alpha   78.50233353
_cell_angle_beta   90.00000000
_cell_angle_gamma   90.00000000
_symmetry_Int_Tables_number   1
_chemical_formula_structural   PrErS3
_chemical_formula_sum   'Pr8 Er8 S24'
_cell_volume   929.31837775
_cell_formula_units_Z   8
loop_
 _symmetry_equiv_pos_site_id
 _symmetry_equiv_pos_as_xyz
  1  'x, y, z'
loop_
 _atom_site_type_symbol
 _atom_site_label
 _atom_site_symmetry_multiplicity
 _atom_site_fract_x
 _atom_site_fract_y
 _atom_site_fract_z
 _atom_site_occupancy
  Pr  Pr0  1  0.25000000  0.30316900  0.76502300  1
  Pr  Pr1  1  0.75000000  0.69683100  0.23497700  1
  Pr  Pr2  1  0.25000000  0.90782900  0.86308800  1
  Pr  Pr3  1  0.75000000  0.09217100  0.13691200  1
  Pr  Pr4  1  0.25000000  0.69241400  0.73112100  1
  Pr  Pr5  1  0.75000000  0.30758600  0.26887900  1
  Pr  Pr6  1  0.25000000  0.79913500  0.53517300  1
  Pr  Pr7  1  0.75000000  0.20086500  0.46482700  1
  Er  Er8  1  0.25000000  0.55216700  0.41706100  1
  Er  Er9  1  0.75000000  0.44783300  0.58293900  1
  Er  Er10  1  0.25000000  0.97097300  0.35141700  1
  Er  Er11  1  0.75000000  0.02902700  0.64858300  1
  Er  Er12  1  0.25000000  0.82113100  0.04685200  1
  Er  Er13  1  0.75000000  0.17886900  0.95314800  1
  Er  Er14  1  0.25000000  0.47670600  0.08878100  1
  Er  Er15  1  0.75000000  0.52329400  0.91121900  1
  S  S16  1  0.25000000  0.08507400  0.03712300  1
  S  S17  1  0.75000000  0.91492600  0.96287700  1
  S  S18  1  0.25000000  0.20465700  0.36719200  1
  S  S19  1  0.75000000  0.79534300  0.63280800  1
  S  S20  1  0.25000000  0.74579300  0.32424500  1
  S  S21  1  0.75000000  0.25420700  0.67575500  1
  S  S22  1  0.25000000  0.63631700  0.96371600  1
  S  S23  1  0.75000000  0.36368300  0.03628400  1
  S  S24  1  0.25000000  0.50503000  0.22164800  1
  S  S25  1  0.75000000  0.49497000  0.77835200  1
  S  S26  1  0.25000000  0.25230700  0.17512300  1
  S  S27  1  0.75000000  0.74769300  0.82487700  1
  S  S28  1  0.25000000  0.87600900  0.16416800  1
  S  S29  1  0.75000000  0.12399100  0.83583200  1
  S  S30  1  0.25000000  0.35565100  0.51500600  1
  S  S31  1  0.75000000  0.64434900  0.48499400  1
  S  S32  1  0.25000000  0.05758600  0.55552200  1
  S  S33  1  0.75000000  0.94241400  0.44447800  1
  S  S34  1  0.25000000  0.96184100  0.72851200  1
  S  S35  1  0.75000000  0.03815900  0.27148800  1
  S  S36  1  0.25000000  0.54758900  0.63332100  1
  S  S37  1  0.75000000  0.45241100  0.36667900  1
  S  S38  1  0.25000000  0.34140700  0.90004600  1
  S  S39  1  0.75000000  0.65859300  0.09995400  1
