# generated using pymatgen
data_Se2NO6
_symmetry_space_group_name_H-M   'P 1'
_cell_length_a   6.29001000
_cell_length_b   6.63097500
_cell_length_c   18.57869900
_cell_angle_alpha   90.00000000
_cell_angle_beta   90.00000000
_cell_angle_gamma   90.00000000
_symmetry_Int_Tables_number   1
_chemical_formula_structural   Se2NO6
_chemical_formula_sum   'Se8 N4 O24'
_cell_volume   774.89708125
_cell_formula_units_Z   4
loop_
 _symmetry_equiv_pos_site_id
 _symmetry_equiv_pos_as_xyz
  1  'x, y, z'
loop_
 _atom_site_type_symbol
 _atom_site_label
 _atom_site_symmetry_multiplicity
 _atom_site_fract_x
 _atom_site_fract_y
 _atom_site_fract_z
 _atom_site_occupancy
  Se  Se0  1  0.99812800  0.52902300  0.81783100  1
  Se  Se1  1  0.00187200  0.02902300  0.68216900  1
  Se  Se2  1  0.49812800  0.97097700  0.18216900  1
  Se  Se3  1  0.50187200  0.47097700  0.31783100  1
  Se  Se4  1  0.48811400  0.50156800  0.00425900  1
  Se  Se5  1  0.51188600  0.00156800  0.49574100  1
  Se  Se6  1  0.98811400  0.99843200  0.99574100  1
  Se  Se7  1  0.01188600  0.49843200  0.50425900  1
  N  N8  1  0.98071500  0.47119100  0.17279000  1
  N  N9  1  0.01928500  0.97119100  0.32721000  1
  N  N10  1  0.48071500  0.02880900  0.82721000  1
  N  N11  1  0.51928500  0.52880900  0.67279000  1
  O  O12  1  0.93977300  0.30202800  0.84548700  1
  O  O13  1  0.06022700  0.80202800  0.65451300  1
  O  O14  1  0.43977300  0.19797200  0.15451300  1
  O  O15  1  0.56022700  0.69797200  0.34548700  1
  O  O16  1  0.24456800  0.52576800  0.03264900  1
  O  O17  1  0.75543200  0.02576800  0.46735100  1
  O  O18  1  0.74456800  0.97423200  0.96735100  1
  O  O19  1  0.25543200  0.47423200  0.53264900  1
  O  O20  1  0.24366700  0.60679800  0.81654100  1
  O  O21  1  0.75633300  0.10679800  0.68345900  1
  O  O22  1  0.74366700  0.89320200  0.18345900  1
  O  O23  1  0.25633300  0.39320200  0.31654100  1
  O  O24  1  0.53644600  0.39865700  0.92664500  1
  O  O25  1  0.46355400  0.89865700  0.57335500  1
  O  O26  1  0.03644600  0.10134300  0.07335500  1
  O  O27  1  0.96355400  0.60134300  0.42664500  1
  O  O28  1  0.80676600  0.68431900  0.79642800  1
  O  O29  1  0.19323400  0.18431900  0.70357200  1
  O  O30  1  0.30676600  0.81568100  0.20357200  1
  O  O31  1  0.69323400  0.31568100  0.29642800  1
  O  O32  1  0.68510300  0.57585100  0.05503100  1
  O  O33  1  0.31489700  0.07585100  0.44496900  1
  O  O34  1  0.18510300  0.92414900  0.94496900  1
  O  O35  1  0.81489700  0.42414900  0.55503100  1
