# generated using pymatgen
data_CeB2O4F
_symmetry_space_group_name_H-M   'P 1'
_cell_length_a   7.32593000
_cell_length_b   8.30488000
_cell_length_c   12.72593600
_cell_angle_alpha   90.00000000
_cell_angle_beta   90.00000000
_cell_angle_gamma   90.00000000
_symmetry_Int_Tables_number   1
_chemical_formula_structural   CeB2O4F
_chemical_formula_sum   'Ce8 B16 O32 F8'
_cell_volume   774.25828452
_cell_formula_units_Z   8
loop_
 _symmetry_equiv_pos_site_id
 _symmetry_equiv_pos_as_xyz
  1  'x, y, z'
loop_
 _atom_site_type_symbol
 _atom_site_label
 _atom_site_symmetry_multiplicity
 _atom_site_fract_x
 _atom_site_fract_y
 _atom_site_fract_z
 _atom_site_occupancy
  Ce  Ce0  1  0.24762300  0.61151900  0.47501800  1
  Ce  Ce1  1  0.75237700  0.11151900  0.02498200  1
  Ce  Ce2  1  0.25237700  0.38848100  0.97501800  1
  Ce  Ce3  1  0.74762300  0.88848100  0.52498200  1
  Ce  Ce4  1  0.75237700  0.38848100  0.52498200  1
  Ce  Ce5  1  0.24762300  0.88848100  0.97501800  1
  Ce  Ce6  1  0.74762300  0.61151900  0.02498200  1
  Ce  Ce7  1  0.25237700  0.11151900  0.47501800  1
  B  B8  1  0.34587000  0.65839400  0.17202400  1
  B  B9  1  0.65413000  0.15839400  0.32797600  1
  B  B10  1  0.15413000  0.34160600  0.67202400  1
  B  B11  1  0.84587000  0.84160600  0.82797600  1
  B  B12  1  0.65413000  0.34160600  0.82797600  1
  B  B13  1  0.34587000  0.84160600  0.67202400  1
  B  B14  1  0.84587000  0.65839400  0.32797600  1
  B  B15  1  0.15413000  0.15839400  0.17202400  1
  B  B16  1  0.26103900  0.90875600  0.27138600  1
  B  B17  1  0.73896100  0.40875600  0.22861400  1
  B  B18  1  0.23896100  0.09124400  0.77138600  1
  B  B19  1  0.76103900  0.59124400  0.72861400  1
  B  B20  1  0.73896100  0.09124400  0.72861400  1
  B  B21  1  0.26103900  0.59124400  0.77138600  1
  B  B22  1  0.76103900  0.90875600  0.22861400  1
  B  B23  1  0.23896100  0.40875600  0.27138600  1
  O  O24  1  0.42637700  0.59920900  0.08526100  1
  O  O25  1  0.57362300  0.09920900  0.41473900  1
  O  O26  1  0.07362300  0.40079100  0.58526100  1
  O  O27  1  0.92637700  0.90079100  0.91473900  1
  O  O28  1  0.57362300  0.40079100  0.91473900  1
  O  O29  1  0.42637700  0.90079100  0.58526100  1
  O  O30  1  0.92637700  0.59920900  0.41473900  1
  O  O31  1  0.07362300  0.09920900  0.08526100  1
  O  O32  1  0.31059500  0.82556800  0.17928100  1
  O  O33  1  0.68940500  0.32556800  0.32071900  1
  O  O34  1  0.18940500  0.17443200  0.67928100  1
  O  O35  1  0.81059500  0.67443200  0.82071900  1
  O  O36  1  0.68940500  0.17443200  0.82071900  1
  O  O37  1  0.31059500  0.67443200  0.67928100  1
  O  O38  1  0.81059500  0.82556800  0.32071900  1
  O  O39  1  0.18940500  0.32556800  0.17928100  1
  O  O40  1  0.29447200  0.56871400  0.25956400  1
  O  O41  1  0.70552800  0.06871400  0.24043600  1
  O  O42  1  0.20552800  0.43128600  0.75956400  1
  O  O43  1  0.79447200  0.93128600  0.74043600  1
  O  O44  1  0.70552800  0.43128600  0.74043600  1
  O  O45  1  0.29447200  0.93128600  0.75956400  1
  O  O46  1  0.79447200  0.56871400  0.24043600  1
  O  O47  1  0.20552800  0.06871400  0.25956400  1
  O  O48  1  0.27208700  0.85499000  0.37022400  1
  O  O49  1  0.72791300  0.35499000  0.12977600  1
  O  O50  1  0.22791300  0.14501000  0.87022400  1
  O  O51  1  0.77208700  0.64501000  0.62977600  1
  O  O52  1  0.72791300  0.14501000  0.62977600  1
  O  O53  1  0.27208700  0.64501000  0.87022400  1
  O  O54  1  0.77208700  0.85499000  0.12977600  1
  O  O55  1  0.22791300  0.35499000  0.37022400  1
  F  F56  1  0.06478600  0.63490800  0.04781000  1
  F  F57  1  0.93521400  0.13490800  0.45219000  1
  F  F58  1  0.43521400  0.36509200  0.54781000  1
  F  F59  1  0.56478600  0.86509200  0.95219000  1
  F  F60  1  0.93521400  0.36509200  0.95219000  1
  F  F61  1  0.06478600  0.86509200  0.54781000  1
  F  F62  1  0.56478600  0.63490800  0.45219000  1
  F  F63  1  0.43521400  0.13490800  0.04781000  1
