# generated using pymatgen
data_KCu2SbSe3
_symmetry_space_group_name_H-M   'P 1'
_cell_length_a   10.99822400
_cell_length_b   6.79020600
_cell_length_c   19.92595477
_cell_angle_alpha   71.06366376
_cell_angle_beta   90.00000000
_cell_angle_gamma   90.00000000
_symmetry_Int_Tables_number   1
_chemical_formula_structural   KCu2SbSe3
_chemical_formula_sum   'K8 Cu16 Sb8 Se24'
_cell_volume   1407.53945055
_cell_formula_units_Z   8
loop_
 _symmetry_equiv_pos_site_id
 _symmetry_equiv_pos_as_xyz
  1  'x, y, z'
loop_
 _atom_site_type_symbol
 _atom_site_label
 _atom_site_symmetry_multiplicity
 _atom_site_fract_x
 _atom_site_fract_y
 _atom_site_fract_z
 _atom_site_occupancy
  K  K0  1  0.36749600  0.51468500  0.78603600  1
  K  K1  1  0.13250400  0.51468500  0.28603600  1
  K  K2  1  0.63250400  0.48531500  0.21396400  1
  K  K3  1  0.86749600  0.48531500  0.71396400  1
  K  K4  1  0.37109300  0.01055800  0.28899700  1
  K  K5  1  0.12890700  0.01055800  0.78899700  1
  K  K6  1  0.62890700  0.98944200  0.71100300  1
  K  K7  1  0.87109300  0.98944200  0.21100300  1
  Cu  Cu8  1  0.36318200  0.35272200  0.62953900  1
  Cu  Cu9  1  0.13681800  0.35272200  0.12953900  1
  Cu  Cu10  1  0.63681800  0.64727800  0.37046100  1
  Cu  Cu11  1  0.86318200  0.64727800  0.87046100  1
  Cu  Cu12  1  0.16897000  0.05666900  0.44498900  1
  Cu  Cu13  1  0.33103000  0.05666900  0.94498900  1
  Cu  Cu14  1  0.83103000  0.94333100  0.55501100  1
  Cu  Cu15  1  0.66897000  0.94333100  0.05501100  1
  Cu  Cu16  1  0.03687700  0.33915300  0.58211100  1
  Cu  Cu17  1  0.46312300  0.33915300  0.08211100  1
  Cu  Cu18  1  0.96312300  0.66084700  0.41788900  1
  Cu  Cu19  1  0.53687700  0.66084700  0.91788900  1
  Cu  Cu20  1  0.44980400  0.83238800  0.58522500  1
  Cu  Cu21  1  0.05019600  0.83238800  0.08522500  1
  Cu  Cu22  1  0.55019600  0.16761200  0.41477500  1
  Cu  Cu23  1  0.94980400  0.16761200  0.91477500  1
  Sb  Sb24  1  0.14420600  0.87976100  0.58983600  1
  Sb  Sb25  1  0.35579400  0.87976100  0.08983600  1
  Sb  Sb26  1  0.85579400  0.12023900  0.41016400  1
  Sb  Sb27  1  0.64420600  0.12023900  0.91016400  1
  Sb  Sb28  1  0.35433000  0.49372900  0.48248800  1
  Sb  Sb29  1  0.14567000  0.49372900  0.98248800  1
  Sb  Sb30  1  0.64567000  0.50627100  0.51751200  1
  Sb  Sb31  1  0.85433000  0.50627100  0.01751200  1
  Se  Se32  1  0.36758700  0.89991100  0.46437800  1
  Se  Se33  1  0.13241300  0.89991100  0.96437800  1
  Se  Se34  1  0.63241300  0.10008900  0.53562200  1
  Se  Se35  1  0.86758700  0.10008900  0.03562200  1
  Se  Se36  1  0.44249600  0.49145100  0.35741500  1
  Se  Se37  1  0.05750400  0.49145100  0.85741500  1
  Se  Se38  1  0.55750400  0.50854900  0.64258500  1
  Se  Se39  1  0.94249600  0.50854900  0.14258500  1
  Se  Se40  1  0.95175800  0.00009000  0.64846800  1
  Se  Se41  1  0.54824200  0.00009000  0.14846800  1
  Se  Se42  1  0.04824200  0.99991000  0.35153200  1
  Se  Se43  1  0.45175800  0.99991000  0.85153200  1
  Se  Se44  1  0.32830000  0.97876300  0.65912700  1
  Se  Se45  1  0.17170000  0.97876300  0.15912700  1
  Se  Se46  1  0.67170000  0.02123700  0.34087300  1
  Se  Se47  1  0.82830000  0.02123700  0.84087300  1
  Se  Se48  1  0.12755700  0.38766400  0.46405100  1
  Se  Se49  1  0.37244300  0.38766400  0.96405100  1
  Se  Se50  1  0.87244300  0.61233600  0.53594900  1
  Se  Se51  1  0.62755700  0.61233600  0.03594900  1
  Se  Se52  1  0.16748900  0.47207700  0.65778300  1
  Se  Se53  1  0.33251100  0.47207700  0.15778300  1
  Se  Se54  1  0.83251100  0.52792300  0.34221700  1
  Se  Se55  1  0.66748900  0.52792300  0.84221700  1
