# generated using pymatgen
data_Os4C12SO12
_symmetry_space_group_name_H-M   'P 1'
_cell_length_a   17.25247900
_cell_length_b   7.39192000
_cell_length_c   8.24733649
_cell_angle_alpha   75.17962160
_cell_angle_beta   90.00000000
_cell_angle_gamma   90.00000000
_symmetry_Int_Tables_number   1
_chemical_formula_structural   Os4C12SO12
_chemical_formula_sum   'Os8 C24 S2 O24'
_cell_volume   1016.78419413
_cell_formula_units_Z   2
loop_
 _symmetry_equiv_pos_site_id
 _symmetry_equiv_pos_as_xyz
  1  'x, y, z'
loop_
 _atom_site_type_symbol
 _atom_site_label
 _atom_site_symmetry_multiplicity
 _atom_site_fract_x
 _atom_site_fract_y
 _atom_site_fract_z
 _atom_site_occupancy
  Os  Os0  1  0.63352400  0.32313600  0.82985600  1
  Os  Os1  1  0.13352400  0.67686400  0.17014400  1
  Os  Os2  1  0.36647600  0.67686400  0.17014400  1
  Os  Os3  1  0.86647600  0.32313600  0.82985600  1
  Os  Os4  1  0.75000000  0.06443500  0.78261000  1
  Os  Os5  1  0.25000000  0.93556500  0.21739000  1
  Os  Os6  1  0.75000000  0.42771100  0.54169200  1
  Os  Os7  1  0.25000000  0.57228900  0.45830800  1
  C  C8  1  0.58750800  0.14435700  0.00868600  1
  C  C9  1  0.08750800  0.85564300  0.99131400  1
  C  C10  1  0.41249200  0.85564300  0.99131400  1
  C  C11  1  0.91249200  0.14435700  0.00868600  1
  C  C12  1  0.59396200  0.53105800  0.90000400  1
  C  C13  1  0.09396200  0.46894200  0.09999600  1
  C  C14  1  0.40603800  0.46894200  0.09999600  1
  C  C15  1  0.90603800  0.53105800  0.90000400  1
  C  C16  1  0.54720200  0.31469800  0.68315300  1
  C  C17  1  0.04720200  0.68530200  0.31684700  1
  C  C18  1  0.45279800  0.68530200  0.31684700  1
  C  C19  1  0.95279800  0.31469800  0.68315300  1
  C  C20  1  0.75000000  0.83662900  0.95593100  1
  C  C21  1  0.25000000  0.16337100  0.04406900  1
  C  C22  1  0.83403100  0.98851300  0.66442400  1
  C  C23  1  0.33403100  0.01148700  0.33557600  1
  C  C24  1  0.16596900  0.01148700  0.33557600  1
  C  C25  1  0.66596900  0.98851300  0.66442400  1
  C  C26  1  0.82881000  0.37779100  0.40207700  1
  C  C27  1  0.32881000  0.62220900  0.59792300  1
  C  C28  1  0.17119000  0.62220900  0.59792300  1
  C  C29  1  0.67119000  0.37779100  0.40207700  1
  C  C30  1  0.75000000  0.69163800  0.43457900  1
  C  C31  1  0.25000000  0.30836200  0.56542100  1
  S  S32  1  0.75000000  0.25225500  0.98761100  1
  S  S33  1  0.25000000  0.74774500  0.01238900  1
  O  O34  1  0.43572700  0.97158000  0.87929100  1
  O  O35  1  0.93572700  0.02842000  0.12070900  1
  O  O36  1  0.56427300  0.02842000  0.12070900  1
  O  O37  1  0.06427300  0.97158000  0.87929100  1
  O  O38  1  0.56969200  0.65226600  0.95179800  1
  O  O39  1  0.06969200  0.34773400  0.04820200  1
  O  O40  1  0.43030800  0.34773400  0.04820200  1
  O  O41  1  0.93030800  0.65226600  0.95179800  1
  O  O42  1  0.49315500  0.30097300  0.60361800  1
  O  O43  1  0.99315500  0.69902700  0.39638200  1
  O  O44  1  0.50684500  0.69902700  0.39638200  1
  O  O45  1  0.00684500  0.30097300  0.60361800  1
  O  O46  1  0.75000000  0.69288300  0.05590500  1
  O  O47  1  0.25000000  0.30711700  0.94409500  1
  O  O48  1  0.88351000  0.93581200  0.59184300  1
  O  O49  1  0.38351000  0.06418800  0.40815700  1
  O  O50  1  0.11649000  0.06418800  0.40815700  1
  O  O51  1  0.61649000  0.93581200  0.59184300  1
  O  O52  1  0.87567000  0.34465100  0.31189800  1
  O  O53  1  0.37567000  0.65534900  0.68810200  1
  O  O54  1  0.12433000  0.65534900  0.68810200  1
  O  O55  1  0.62433000  0.34465100  0.31189800  1
  O  O56  1  0.75000000  0.84890100  0.36209200  1
  O  O57  1  0.25000000  0.15109900  0.63790800  1
