# generated using pymatgen
data_S3N3Cl3O2
_symmetry_space_group_name_H-M   'P 1'
_cell_length_a   7.67730200
_cell_length_b   10.78673300
_cell_length_c   25.25372224
_cell_angle_alpha   66.21350071
_cell_angle_beta   90.00000000
_cell_angle_gamma   90.00000000
_symmetry_Int_Tables_number   1
_chemical_formula_structural   S3N3Cl3O2
_chemical_formula_sum   'S24 N24 Cl24 O16'
_cell_volume   1913.68751533
_cell_formula_units_Z   8
loop_
 _symmetry_equiv_pos_site_id
 _symmetry_equiv_pos_as_xyz
  1  'x, y, z'
loop_
 _atom_site_type_symbol
 _atom_site_label
 _atom_site_symmetry_multiplicity
 _atom_site_fract_x
 _atom_site_fract_y
 _atom_site_fract_z
 _atom_site_occupancy
  S  S0  1  0.70729200  0.98352300  0.43986400  1
  S  S1  1  0.79270800  0.98352300  0.93986400  1
  S  S2  1  0.29270800  0.01647700  0.56013600  1
  S  S3  1  0.20729200  0.01647700  0.06013600  1
  S  S4  1  0.97701900  0.48556400  0.31108500  1
  S  S5  1  0.52298100  0.48556400  0.81108500  1
  S  S6  1  0.02298100  0.51443600  0.68891500  1
  S  S7  1  0.47701900  0.51443600  0.18891500  1
  S  S8  1  0.47235100  0.18240400  0.37146200  1
  S  S9  1  0.02764900  0.18240400  0.87146200  1
  S  S10  1  0.52764900  0.81759600  0.62853800  1
  S  S11  1  0.97235100  0.81759600  0.12853800  1
  S  S12  1  0.74785100  0.10609800  0.31911100  1
  S  S13  1  0.75214900  0.10609800  0.81911100  1
  S  S14  1  0.25214900  0.89390200  0.68088900  1
  S  S15  1  0.24785100  0.89390200  0.18088900  1
  S  S16  1  0.17445100  0.57483400  0.38228400  1
  S  S17  1  0.32554900  0.57483400  0.88228400  1
  S  S18  1  0.82554900  0.42516600  0.61771600  1
  S  S19  1  0.67445100  0.42516600  0.11771600  1
  S  S20  1  0.95390000  0.35291700  0.43161000  1
  S  S21  1  0.54610000  0.35291700  0.93161000  1
  S  S22  1  0.04610000  0.64708300  0.56839000  1
  S  S23  1  0.45390000  0.64708300  0.06839000  1
  N  N24  1  0.55890500  0.09552700  0.43211900  1
  N  N25  1  0.94109500  0.09552700  0.93211900  1
  N  N26  1  0.44109500  0.90447300  0.56788100  1
  N  N27  1  0.05890500  0.90447300  0.06788100  1
  N  N28  1  0.59835200  0.20823000  0.31839100  1
  N  N29  1  0.90164800  0.20823000  0.81839100  1
  N  N30  1  0.40164800  0.79177000  0.68160900  1
  N  N31  1  0.09835200  0.79177000  0.18160900  1
  N  N32  1  0.82190700  0.02003600  0.38179400  1
  N  N33  1  0.67809300  0.02003600  0.88179400  1
  N  N34  1  0.17809300  0.97996400  0.61820600  1
  N  N35  1  0.32190700  0.97996400  0.11820600  1
  N  N36  1  0.92606300  0.35536600  0.36912100  1
  N  N37  1  0.57393700  0.35536600  0.86912100  1
  N  N38  1  0.07393700  0.64463400  0.63087900  1
  N  N39  1  0.42606300  0.64463400  0.13087900  1
  N  N40  1  0.11313300  0.44217700  0.43539500  1
  N  N41  1  0.38686700  0.44217700  0.93539500  1
  N  N42  1  0.88686700  0.55782300  0.56460500  1
  N  N43  1  0.61313300  0.55782300  0.06460500  1
  N  N44  1  0.13397400  0.57204800  0.32143000  1
  N  N45  1  0.36602600  0.57204800  0.82143000  1
  N  N46  1  0.86602600  0.42795200  0.67857000  1
  N  N47  1  0.63397400  0.42795200  0.17857000  1
  Cl  Cl48  1  0.57098500  0.80471700  0.44814000  1
  Cl  Cl49  1  0.92901500  0.80471700  0.94814000  1
  Cl  Cl50  1  0.42901500  0.19528300  0.55186000  1
  Cl  Cl51  1  0.07098500  0.19528300  0.05186000  1
  Cl  Cl52  1  0.26715600  0.07036400  0.36320300  1
  Cl  Cl53  1  0.23284400  0.07036400  0.86320300  1
  Cl  Cl54  1  0.73284400  0.92963600  0.63679700  1
  Cl  Cl55  1  0.76715600  0.92963600  0.13679700  1
  Cl  Cl56  1  0.63565200  0.97249800  0.29002200  1
  Cl  Cl57  1  0.86434800  0.97249800  0.79002200  1
  Cl  Cl58  1  0.36434800  0.02750200  0.70997800  1
  Cl  Cl59  1  0.13565200  0.02750200  0.20997800  1
  Cl  Cl60  1  0.73533800  0.43752400  0.44927400  1
  Cl  Cl61  1  0.76466200  0.43752400  0.94927400  1
  Cl  Cl62  1  0.26466200  0.56247600  0.55072600  1
  Cl  Cl63  1  0.23533800  0.56247600  0.05072600  1
  Cl  Cl64  1  0.03140900  0.73279300  0.38559900  1
  Cl  Cl65  1  0.46859100  0.73279300  0.88559900  1
  Cl  Cl66  1  0.96859100  0.26720700  0.61440100  1
  Cl  Cl67  1  0.53140900  0.26720700  0.11440100  1
  Cl  Cl68  1  0.75204900  0.61530300  0.29305500  1
  Cl  Cl69  1  0.74795100  0.61530300  0.79305500  1
  Cl  Cl70  1  0.24795100  0.38469700  0.70694500  1
  Cl  Cl71  1  0.25204900  0.38469700  0.20694500  1
  O  O72  1  0.40022800  0.30642800  0.36915800  1
  O  O73  1  0.09977200  0.30642800  0.86915800  1
  O  O74  1  0.59977200  0.69357200  0.63084200  1
  O  O75  1  0.90022800  0.69357200  0.13084200  1
  O  O76  1  0.88281600  0.17307400  0.27878100  1
  O  O77  1  0.61718400  0.17307400  0.77878100  1
  O  O78  1  0.11718400  0.82692600  0.72121900  1
  O  O79  1  0.38281600  0.82692600  0.22121900  1
  O  O80  1  0.35240700  0.60595200  0.38826100  1
  O  O81  1  0.14759300  0.60595200  0.88826100  1
  O  O82  1  0.64759300  0.39404800  0.61173900  1
  O  O83  1  0.85240700  0.39404800  0.11173900  1
  O  O84  1  0.96506500  0.21740600  0.47508000  1
  O  O85  1  0.53493500  0.21740600  0.97508000  1
  O  O86  1  0.03493500  0.78259400  0.52492000  1
  O  O87  1  0.46506500  0.78259400  0.02492000  1
