# generated using pymatgen
data_Cs2TePO10
_symmetry_space_group_name_H-M   'P 1'
_cell_length_a   18.75125500
_cell_length_b   7.29995700
_cell_length_c   11.02918767
_cell_angle_alpha   49.63435869
_cell_angle_beta   90.00000000
_cell_angle_gamma   90.00000000
_symmetry_Int_Tables_number   1
_chemical_formula_structural   Cs2TePO10
_chemical_formula_sum   'Cs8 Te4 P4 O40'
_cell_volume   1150.29024109
_cell_formula_units_Z   4
loop_
 _symmetry_equiv_pos_site_id
 _symmetry_equiv_pos_as_xyz
  1  'x, y, z'
loop_
 _atom_site_type_symbol
 _atom_site_label
 _atom_site_symmetry_multiplicity
 _atom_site_fract_x
 _atom_site_fract_y
 _atom_site_fract_z
 _atom_site_occupancy
  Cs  Cs0  1  0.84140200  0.22585500  0.01876700  1
  Cs  Cs1  1  0.65859800  0.22585500  0.51876700  1
  Cs  Cs2  1  0.15859800  0.77414500  0.98123300  1
  Cs  Cs3  1  0.34140200  0.77414500  0.48123300  1
  Cs  Cs4  1  0.05231200  0.57281500  0.66108600  1
  Cs  Cs5  1  0.44768800  0.57281500  0.16108600  1
  Cs  Cs6  1  0.94768800  0.42718500  0.33891400  1
  Cs  Cs7  1  0.55231200  0.42718500  0.83891400  1
  Te  Te8  1  0.68925800  0.73166000  0.01444000  1
  Te  Te9  1  0.81074200  0.73166000  0.51444000  1
  Te  Te10  1  0.31074200  0.26834000  0.98556000  1
  Te  Te11  1  0.18925800  0.26834000  0.48556000  1
  P  P12  1  0.95087100  0.91807600  0.82273600  1
  P  P13  1  0.54912900  0.91807600  0.32273600  1
  P  P14  1  0.04912900  0.08192400  0.17726400  1
  P  P15  1  0.45087100  0.08192400  0.67726400  1
  O  O16  1  0.51206200  0.90533500  0.78564500  1
  O  O17  1  0.98793800  0.90533500  0.28564500  1
  O  O18  1  0.48793800  0.09466500  0.21435500  1
  O  O19  1  0.01206200  0.09466500  0.71435500  1
  O  O20  1  0.88186200  0.03923300  0.72094100  1
  O  O21  1  0.61813800  0.03923300  0.22094100  1
  O  O22  1  0.11813800  0.96076700  0.27905900  1
  O  O23  1  0.38186200  0.96076700  0.77905900  1
  O  O24  1  0.62080900  0.99063000  0.90319800  1
  O  O25  1  0.87919100  0.99063000  0.40319800  1
  O  O26  1  0.37919100  0.00937000  0.09680200  1
  O  O27  1  0.12080900  0.00937000  0.59680200  1
  O  O28  1  0.75913300  0.99696100  0.89736400  1
  O  O29  1  0.74086700  0.99696100  0.39736400  1
  O  O30  1  0.24086700  0.00303900  0.10263600  1
  O  O31  1  0.25913300  0.00303900  0.60263600  1
  O  O32  1  0.77552300  0.54173500  0.12117800  1
  O  O33  1  0.72447700  0.54173500  0.62117800  1
  O  O34  1  0.22447700  0.45826500  0.87882200  1
  O  O35  1  0.27552300  0.45826500  0.37882200  1
  O  O36  1  0.62065800  0.48522300  0.14713000  1
  O  O37  1  0.87934200  0.48522300  0.64713000  1
  O  O38  1  0.37934200  0.51477700  0.85287000  1
  O  O39  1  0.12065800  0.51477700  0.35287000  1
  O  O40  1  0.71938600  0.80899400  0.14974900  1
  O  O41  1  0.78061400  0.80899400  0.64974900  1
  O  O42  1  0.28061400  0.19100600  0.85025100  1
  O  O43  1  0.21938600  0.19100600  0.35025100  1
  O  O44  1  0.54309500  0.67516600  0.36267700  1
  O  O45  1  0.95690500  0.67516600  0.86267700  1
  O  O46  1  0.45690500  0.32483400  0.63732300  1
  O  O47  1  0.04309500  0.32483400  0.13732300  1
  O  O48  1  0.81877200  0.64103600  0.38651200  1
  O  O49  1  0.68122800  0.64103600  0.88651200  1
  O  O50  1  0.18122800  0.35896400  0.61348800  1
  O  O51  1  0.31877200  0.35896400  0.11348800  1
  O  O52  1  0.94718700  0.89136700  0.97268300  1
  O  O53  1  0.55281300  0.89136700  0.47268300  1
  O  O54  1  0.05281300  0.10863300  0.02731700  1
  O  O55  1  0.44718700  0.10863300  0.52731700  1
