# generated using pymatgen
data_Zn3Fe16Ni5O32
_symmetry_space_group_name_H-M   'P 1'
_cell_length_a   8.37499700
_cell_length_b   8.39951000
_cell_length_c   8.42774226
_cell_angle_alpha   89.88423341
_cell_angle_beta   89.93725688
_cell_angle_gamma   89.99807639
_symmetry_Int_Tables_number   1
_chemical_formula_structural   Zn3Fe16Ni5O32
_chemical_formula_sum   'Zn3 Fe16 Ni5 O32'
_cell_volume   592.85530438
_cell_formula_units_Z   1
loop_
 _symmetry_equiv_pos_site_id
 _symmetry_equiv_pos_as_xyz
  1  'x, y, z'
loop_
 _atom_site_type_symbol
 _atom_site_label
 _atom_site_symmetry_multiplicity
 _atom_site_fract_x
 _atom_site_fract_y
 _atom_site_fract_z
 _atom_site_occupancy
  Zn  Zn0  1  0.00463800  0.99986500  0.99896200  1
  Zn  Zn1  1  0.49640300  0.50215400  0.99978400  1
  Zn  Zn2  1  0.24911700  0.74755800  0.74920900  1
  Fe  Fe3  1  0.49964600  0.00140800  0.50533100  1
  Fe  Fe4  1  0.00161200  0.50165700  0.50644600  1
  Fe  Fe5  1  0.74980400  0.25036200  0.74671500  1
  Fe  Fe6  1  0.24828900  0.25066900  0.24496400  1
  Fe  Fe7  1  0.74985200  0.74640800  0.24811700  1
  Fe  Fe8  1  0.87423200  0.12715400  0.37528500  1
  Fe  Fe9  1  0.12499500  0.37454300  0.87480600  1
  Fe  Fe10  1  0.62345300  0.12419000  0.12627600  1
  Fe  Fe11  1  0.87454200  0.37466400  0.12687100  1
  Fe  Fe12  1  0.87449700  0.87524600  0.62398500  1
  Fe  Fe13  1  0.37606600  0.62363700  0.37508000  1
  Fe  Fe14  1  0.37311700  0.12651500  0.87371400  1
  Fe  Fe15  1  0.87610200  0.62414900  0.87477500  1
  Fe  Fe16  1  0.62439500  0.87189100  0.87334200  1
  Fe  Fe17  1  0.62656500  0.37364900  0.37499900  1
  Fe  Fe18  1  0.12499800  0.87644000  0.37317100  1
  Ni  Ni19  1  0.62400100  0.62487200  0.62593300  1
  Ni  Ni20  1  0.37294200  0.87224900  0.12302900  1
  Ni  Ni21  1  0.12554300  0.12572400  0.62627400  1
  Ni  Ni22  1  0.12687200  0.62560800  0.12255800  1
  Ni  Ni23  1  0.37407000  0.37600000  0.62623700  1
  O  O24  1  0.38893600  0.37850500  0.37469100  1
  O  O25  1  0.61662600  0.11871600  0.88285300  1
  O  O26  1  0.10443100  0.88227400  0.61336500  1
  O  O27  1  0.87597300  0.60993200  0.11374000  1
  O  O28  1  0.13058700  0.63029300  0.37164700  1
  O  O29  1  0.86157800  0.86093500  0.85951700  1
  O  O30  1  0.64161000  0.36473400  0.14220800  1
  O  O31  1  0.37112000  0.12895900  0.63770000  1
  O  O32  1  0.87821600  0.88909200  0.38555100  1
  O  O33  1  0.88336300  0.38240600  0.88701900  1
  O  O34  1  0.39026900  0.89205300  0.88071100  1
  O  O35  1  0.10765000  0.60687200  0.88152900  1
  O  O36  1  0.11139600  0.12134800  0.37832700  1
  O  O37  1  0.62221400  0.61081500  0.37809700  1
  O  O38  1  0.62480400  0.37824000  0.61005100  1
  O  O39  1  0.62549900  0.88697100  0.12314600  1
  O  O40  1  0.10902700  0.37700500  0.11297800  1
  O  O41  1  0.38424800  0.12403800  0.11391400  1
  O  O42  1  0.38388900  0.61634700  0.61033600  1
  O  O43  1  0.87650300  0.11440100  0.61036400  1
  O  O44  1  0.63577500  0.13747900  0.36917100  1
  O  O45  1  0.64249900  0.63771200  0.86847000  1
  O  O46  1  0.13883100  0.14186300  0.86707600  1
  O  O47  1  0.36124300  0.35840300  0.86854000  1
  O  O48  1  0.36943700  0.86952300  0.37327800  1
  O  O49  1  0.86430100  0.36391100  0.36695300  1
  O  O50  1  0.13023500  0.86737700  0.13980000  1
  O  O51  1  0.12717700  0.37047700  0.63712900  1
  O  O52  1  0.64130900  0.87170400  0.62630600  1
  O  O53  1  0.87176200  0.63776900  0.63717300  1
  O  O54  1  0.86586900  0.14049500  0.14157100  1
  O  O55  1  0.36787000  0.63273900  0.14092600  1
