# generated using pymatgen
data_PrSbMo2O9
_symmetry_space_group_name_H-M   'P 1'
_cell_length_a   9.92219111
_cell_length_b   9.92219111
_cell_length_c   11.08322511
_cell_angle_alpha   68.32008103
_cell_angle_beta   68.32008103
_cell_angle_gamma   95.75725133
_symmetry_Int_Tables_number   1
_chemical_formula_structural   PrSbMo2O9
_chemical_formula_sum   'Pr4 Sb4 Mo8 O36'
_cell_volume   906.11660796
_cell_formula_units_Z   4
loop_
 _symmetry_equiv_pos_site_id
 _symmetry_equiv_pos_as_xyz
  1  'x, y, z'
loop_
 _atom_site_type_symbol
 _atom_site_label
 _atom_site_symmetry_multiplicity
 _atom_site_fract_x
 _atom_site_fract_y
 _atom_site_fract_z
 _atom_site_occupancy
  Pr  Pr0  1  0.67504400  0.32495600  0.75000000  1
  Pr  Pr1  1  0.32495600  0.67504400  0.25000000  1
  Pr  Pr2  1  0.12437400  0.87562600  0.75000000  1
  Pr  Pr3  1  0.87562600  0.12437400  0.25000000  1
  Sb  Sb4  1  0.64709000  0.62032100  0.96267600  1
  Sb  Sb5  1  0.37967900  0.35291000  0.53732400  1
  Sb  Sb6  1  0.35291000  0.37967900  0.03732400  1
  Sb  Sb7  1  0.62032100  0.64709000  0.46267600  1
  Mo  Mo8  1  0.04918700  0.25999800  0.47218700  1
  Mo  Mo9  1  0.74000200  0.95081300  0.02781300  1
  Mo  Mo10  1  0.95081300  0.74000200  0.52781300  1
  Mo  Mo11  1  0.25999800  0.04918700  0.97218700  1
  Mo  Mo12  1  0.06285600  0.43496900  0.80265300  1
  Mo  Mo13  1  0.56503100  0.93714400  0.69734700  1
  Mo  Mo14  1  0.93714400  0.56503100  0.19734700  1
  Mo  Mo15  1  0.43496900  0.06285600  0.30265300  1
  O  O16  1  0.06149400  0.09553600  0.59896300  1
  O  O17  1  0.90446400  0.93850600  0.90103700  1
  O  O18  1  0.93850600  0.90446400  0.40103700  1
  O  O19  1  0.09553600  0.06149400  0.09896300  1
  O  O20  1  0.87564500  0.29789000  0.55875700  1
  O  O21  1  0.70211000  0.12435500  0.94124300  1
  O  O22  1  0.12435500  0.70211000  0.44124300  1
  O  O23  1  0.29789000  0.87564500  0.05875700  1
  O  O24  1  0.05317600  0.22829300  0.32136500  1
  O  O25  1  0.77170700  0.94682400  0.17863500  1
  O  O26  1  0.94682400  0.77170700  0.67863500  1
  O  O27  1  0.22829300  0.05317600  0.82136500  1
  O  O28  1  0.78145400  0.59739500  0.57487800  1
  O  O29  1  0.40260500  0.21854600  0.92512200  1
  O  O30  1  0.21854600  0.40260500  0.42512200  1
  O  O31  1  0.59739500  0.78145400  0.07487800  1
  O  O32  1  0.98600100  0.30586300  0.98836600  1
  O  O33  1  0.69413700  0.01399900  0.51163400  1
  O  O34  1  0.01399900  0.69413700  0.01163400  1
  O  O35  1  0.30586300  0.98600100  0.48836600  1
  O  O36  1  0.14255300  0.61672600  0.77695300  1
  O  O37  1  0.38327400  0.85744700  0.72304700  1
  O  O38  1  0.85744700  0.38327400  0.22304700  1
  O  O39  1  0.61672600  0.14255300  0.27695300  1
  O  O40  1  0.91516700  0.44289800  0.74719500  1
  O  O41  1  0.55710200  0.08483300  0.75280500  1
  O  O42  1  0.08483300  0.55710200  0.25280500  1
  O  O43  1  0.44289800  0.91516700  0.24719500  1
  O  O44  1  0.21445100  0.37292300  0.69715400  1
  O  O45  1  0.62707700  0.78554900  0.80284600  1
  O  O46  1  0.78554900  0.62707700  0.30284600  1
  O  O47  1  0.37292300  0.21445100  0.19715400  1
  O  O48  1  0.57497600  0.45995700  0.90146500  1
  O  O49  1  0.54004300  0.42502400  0.59853500  1
  O  O50  1  0.42502400  0.54004300  0.09853500  1
  O  O51  1  0.45995700  0.57497600  0.40146500  1
