# generated using pymatgen
data_GdPH(CO3)2
_symmetry_space_group_name_H-M   'P 1'
_cell_length_a   8.20012040
_cell_length_b   9.48457093
_cell_length_c   9.48457093
_cell_angle_alpha   65.00064109
_cell_angle_beta   77.62010210
_cell_angle_gamma   77.62010210
_symmetry_Int_Tables_number   1
_chemical_formula_structural   GdPH(CO3)2
_chemical_formula_sum   'Gd4 P4 H4 C8 O24'
_cell_volume   646.58810192
_cell_formula_units_Z   4
loop_
 _symmetry_equiv_pos_site_id
 _symmetry_equiv_pos_as_xyz
  1  'x, y, z'
loop_
 _atom_site_type_symbol
 _atom_site_label
 _atom_site_symmetry_multiplicity
 _atom_site_fract_x
 _atom_site_fract_y
 _atom_site_fract_z
 _atom_site_occupancy
  Gd  Gd0  1  0.25821200  0.01124400  0.40261100  1
  Gd  Gd1  1  0.25821200  0.40261100  0.01124400  1
  Gd  Gd2  1  0.74178800  0.98875600  0.59738900  1
  Gd  Gd3  1  0.74178800  0.59738900  0.98875600  1
  P  P4  1  0.47563200  0.31455900  0.31455900  1
  P  P5  1  0.52436800  0.68544100  0.68544100  1
  P  P6  1  0.97127400  0.19953500  0.19953500  1
  P  P7  1  0.02872600  0.80046500  0.80046500  1
  H  H8  1  0.41277400  0.40516300  0.40516300  1
  H  H9  1  0.58722600  0.59483700  0.59483700  1
  H  H10  1  0.85710100  0.14702400  0.14702400  1
  H  H11  1  0.14289900  0.85297600  0.85297600  1
  C  C12  1  0.09670400  0.75625600  0.30957000  1
  C  C13  1  0.09670400  0.30957000  0.75625600  1
  C  C14  1  0.90329600  0.24374400  0.69043000  1
  C  C15  1  0.90329600  0.69043000  0.24374400  1
  C  C16  1  0.09229900  0.21543500  0.66423000  1
  C  C17  1  0.09229900  0.66423000  0.21543500  1
  C  C18  1  0.90770100  0.78456500  0.33577000  1
  C  C19  1  0.90770100  0.33577000  0.78456500  1
  O  O20  1  0.31976100  0.27513300  0.27513300  1
  O  O21  1  0.68023900  0.72486700  0.72486700  1
  O  O22  1  0.57410100  0.41615500  0.16153500  1
  O  O23  1  0.57410100  0.16153500  0.41615500  1
  O  O24  1  0.42589900  0.58384500  0.83846500  1
  O  O25  1  0.42589900  0.83846500  0.58384500  1
  O  O26  1  0.20877600  0.79337800  0.35012400  1
  O  O27  1  0.20877600  0.35012400  0.79337800  1
  O  O28  1  0.79122400  0.20662200  0.64987600  1
  O  O29  1  0.79122400  0.64987600  0.20662200  1
  O  O30  1  0.15464900  0.14196700  0.14196700  1
  O  O31  1  0.84535100  0.85803300  0.85803300  1
  O  O32  1  0.95055900  0.38032800  0.12540700  1
  O  O33  1  0.95055900  0.12540700  0.38032800  1
  O  O34  1  0.04944100  0.61967200  0.87459300  1
  O  O35  1  0.04944100  0.87459300  0.61967200  1
  O  O36  1  0.19835600  0.14376600  0.59662400  1
  O  O37  1  0.19835600  0.59662400  0.14376600  1
  O  O38  1  0.80164400  0.85623400  0.40337600  1
  O  O39  1  0.80164400  0.40337600  0.85623400  1
  O  O40  1  0.49198200  0.99288300  0.20922900  1
  O  O41  1  0.49198200  0.20922900  0.99288300  1
  O  O42  1  0.50801800  0.00711700  0.79077100  1
  O  O43  1  0.50801800  0.79077100  0.00711700  1
