# generated using pymatgen
data_La(SeO3)2
_symmetry_space_group_name_H-M   'P 1'
_cell_length_a   7.21092600
_cell_length_b   8.62083600
_cell_length_c   19.33891300
_cell_angle_alpha   90.00000000
_cell_angle_beta   90.00000000
_cell_angle_gamma   90.00000000
_symmetry_Int_Tables_number   1
_chemical_formula_structural   La(SeO3)2
_chemical_formula_sum   'La8 Se16 O48'
_cell_volume   1202.18825769
_cell_formula_units_Z   8
loop_
 _symmetry_equiv_pos_site_id
 _symmetry_equiv_pos_as_xyz
  1  'x, y, z'
loop_
 _atom_site_type_symbol
 _atom_site_label
 _atom_site_symmetry_multiplicity
 _atom_site_fract_x
 _atom_site_fract_y
 _atom_site_fract_z
 _atom_site_occupancy
  La  La0  1  0.41261800  0.65935200  0.41331000  1
  La  La1  1  0.58738200  0.34064800  0.91331000  1
  La  La2  1  0.41261800  0.84064800  0.91331000  1
  La  La3  1  0.58738200  0.15935200  0.41331000  1
  La  La4  1  0.91147300  0.55100100  0.50179200  1
  La  La5  1  0.08852700  0.44899900  0.00179200  1
  La  La6  1  0.91147300  0.94899900  0.00179200  1
  La  La7  1  0.08852700  0.05100100  0.50179200  1
  Se  Se8  1  0.92969300  0.80774200  0.36087000  1
  Se  Se9  1  0.07030700  0.19225800  0.86087000  1
  Se  Se10  1  0.92969300  0.69225800  0.86087000  1
  Se  Se11  1  0.07030700  0.30774200  0.36087000  1
  Se  Se12  1  0.43088700  0.40461300  0.55304700  1
  Se  Se13  1  0.56911300  0.59538700  0.05304700  1
  Se  Se14  1  0.43088700  0.09538700  0.05304700  1
  Se  Se15  1  0.56911300  0.90461300  0.55304700  1
  Se  Se16  1  0.47153200  0.86500000  0.26414000  1
  Se  Se17  1  0.52846800  0.13500000  0.76414000  1
  Se  Se18  1  0.47153200  0.63500000  0.76414000  1
  Se  Se19  1  0.52846800  0.36500000  0.26414000  1
  Se  Se20  1  0.94148000  0.35142100  0.65169600  1
  Se  Se21  1  0.05852000  0.64857900  0.15169600  1
  Se  Se22  1  0.94148000  0.14857900  0.15169600  1
  Se  Se23  1  0.05852000  0.85142100  0.65169600  1
  O  O24  1  0.76206600  0.68607700  0.39569700  1
  O  O25  1  0.23793400  0.31392300  0.89569700  1
  O  O26  1  0.76206600  0.81392300  0.89569700  1
  O  O27  1  0.23793400  0.18607700  0.39569700  1
  O  O28  1  0.86560700  0.99267500  0.38261700  1
  O  O29  1  0.13439300  0.00732500  0.88261700  1
  O  O30  1  0.86560700  0.50732500  0.88261700  1
  O  O31  1  0.13439300  0.49267500  0.38261700  1
  O  O32  1  0.09473600  0.78624700  0.42830700  1
  O  O33  1  0.90526400  0.21375300  0.92830700  1
  O  O34  1  0.09473600  0.71375300  0.92830700  1
  O  O35  1  0.90526400  0.28624700  0.42830700  1
  O  O36  1  0.36800100  0.22013300  0.52982700  1
  O  O37  1  0.63199900  0.77986700  0.02982700  1
  O  O38  1  0.36800100  0.27986700  0.02982700  1
  O  O39  1  0.63199900  0.72013300  0.52982700  1
  O  O40  1  0.59562000  0.42606400  0.48589000  1
  O  O41  1  0.40438000  0.57393600  0.98589000  1
  O  O42  1  0.59562000  0.07393600  0.98589000  1
  O  O43  1  0.40438000  0.92606400  0.48589000  1
  O  O44  1  0.26374900  0.52862600  0.51902700  1
  O  O45  1  0.73625100  0.47137400  0.01902700  1
  O  O46  1  0.26374900  0.97137400  0.01902700  1
  O  O47  1  0.73625100  0.02862600  0.51902700  1
  O  O48  1  0.34896000  0.69700600  0.27491400  1
  O  O49  1  0.65104000  0.30299400  0.77491400  1
  O  O50  1  0.34896000  0.80299400  0.77491400  1
  O  O51  1  0.65104000  0.19700600  0.27491400  1
  O  O52  1  0.47294100  0.92519700  0.34949600  1
  O  O53  1  0.52705900  0.07480300  0.84949600  1
  O  O54  1  0.47294100  0.57480300  0.84949600  1
  O  O55  1  0.52705900  0.42519700  0.34949600  1
  O  O56  1  0.68849600  0.82413400  0.23942800  1
  O  O57  1  0.31150400  0.17586600  0.73942800  1
  O  O58  1  0.68849600  0.67586600  0.73942800  1
  O  O59  1  0.31150400  0.32413400  0.23942800  1
  O  O60  1  0.99127900  0.28162900  0.56944400  1
  O  O61  1  0.00872100  0.71837100  0.06944400  1
  O  O62  1  0.99127900  0.21837100  0.06944400  1
  O  O63  1  0.00872100  0.78162900  0.56944400  1
  O  O64  1  0.79981300  0.49842600  0.62630000  1
  O  O65  1  0.20018700  0.50157400  0.12630000  1
  O  O66  1  0.79981300  0.00157400  0.12630000  1
  O  O67  1  0.20018700  0.99842600  0.62630000  1
  O  O68  1  0.13256200  0.42880800  0.68759900  1
  O  O69  1  0.86743800  0.57119200  0.18759900  1
  O  O70  1  0.13256200  0.07119200  0.18759900  1
  O  O71  1  0.86743800  0.92880800  0.68759900  1
