# generated using pymatgen
data_Co2SnC8SeO8
_symmetry_space_group_name_H-M   'P 1'
_cell_length_a   15.56742253
_cell_length_b   12.83966206
_cell_length_c   12.64485179
_cell_angle_alpha   75.29881504
_cell_angle_beta   52.91829418
_cell_angle_gamma   51.78289077
_symmetry_Int_Tables_number   1
_chemical_formula_structural   Co2SnC8SeO8
_chemical_formula_sum   'Co8 Sn4 C32 Se4 O32'
_cell_volume   1555.25958449
_cell_formula_units_Z   4
loop_
 _symmetry_equiv_pos_site_id
 _symmetry_equiv_pos_as_xyz
  1  'x, y, z'
loop_
 _atom_site_type_symbol
 _atom_site_label
 _atom_site_symmetry_multiplicity
 _atom_site_fract_x
 _atom_site_fract_y
 _atom_site_fract_z
 _atom_site_occupancy
  Co  Co0  1  0.64811300  0.14802300  0.35758500  1
  Co  Co1  1  0.84627900  0.35758500  0.14802300  1
  Co  Co2  1  0.35758500  0.84627900  0.64811300  1
  Co  Co3  1  0.14802300  0.64811300  0.84627900  1
  Co  Co4  1  0.60188700  0.10197700  0.89241500  1
  Co  Co5  1  0.40372100  0.89241500  0.10197700  1
  Co  Co6  1  0.89241500  0.40372100  0.60188700  1
  Co  Co7  1  0.10197700  0.60188700  0.40372100  1
  Sn  Sn8  1  0.63732300  0.36267700  0.36267700  1
  Sn  Sn9  1  0.36267700  0.63732300  0.63732300  1
  Sn  Sn10  1  0.61267700  0.88732300  0.88732300  1
  Sn  Sn11  1  0.88732300  0.61267700  0.61267700  1
  C  C12  1  0.82248900  0.05176600  0.28527200  1
  C  C13  1  0.84047200  0.28527200  0.05176600  1
  C  C14  1  0.28527200  0.84047200  0.82248900  1
  C  C15  1  0.05176600  0.82248900  0.84047200  1
  C  C16  1  0.42751100  0.19823400  0.96472800  1
  C  C17  1  0.40952800  0.96472800  0.19823400  1
  C  C18  1  0.96472800  0.40952800  0.42751100  1
  C  C19  1  0.19823400  0.42751100  0.40952800  1
  C  C20  1  0.53708400  0.19298300  0.53711300  1
  C  C21  1  0.73282100  0.53711300  0.19298300  1
  C  C22  1  0.53711300  0.73282100  0.53708400  1
  C  C23  1  0.19298300  0.53708400  0.73282100  1
  C  C24  1  0.71291600  0.05701700  0.71288700  1
  C  C25  1  0.51717900  0.71288700  0.05701700  1
  C  C26  1  0.71288700  0.51717900  0.71291600  1
  C  C27  1  0.05701700  0.71291600  0.51717900  1
  C  C28  1  0.58309200  0.23793200  0.26193000  1
  C  C29  1  0.91704600  0.26193000  0.23793200  1
  C  C30  1  0.26193000  0.91704600  0.58309200  1
  C  C31  1  0.23793200  0.58309200  0.91704600  1
  C  C32  1  0.66690800  0.01206800  0.98807000  1
  C  C33  1  0.33295400  0.98807000  0.01206800  1
  C  C34  1  0.98807000  0.33295400  0.66690800  1
  C  C35  1  0.01206800  0.66690800  0.33295400  1
  C  C36  1  0.64955600  0.01113600  0.34940200  1
  C  C37  1  0.98990500  0.34940200  0.01113600  1
  C  C38  1  0.34940200  0.98990500  0.64955600  1
  C  C39  1  0.01113600  0.64955600  0.98990500  1
  C  C40  1  0.60044400  0.23886400  0.90059800  1
  C  C41  1  0.26009500  0.90059800  0.23886400  1
  C  C42  1  0.90059800  0.26009500  0.60044400  1
  C  C43  1  0.23886400  0.60044400  0.26009500  1
  Se  Se44  1  0.41234000  0.58766000  0.41234000  1
  Se  Se45  1  0.58766000  0.41234000  0.58766000  1
  Se  Se46  1  0.83766000  0.66234000  0.83766000  1
  Se  Se47  1  0.66234000  0.83766000  0.66234000  1
  O  O48  1  0.93646400  0.98539800  0.23800900  1
  O  O49  1  0.84012800  0.23800900  0.98539800  1
  O  O50  1  0.23800900  0.84012800  0.93646400  1
  O  O51  1  0.98539800  0.93646400  0.84012800  1
  O  O52  1  0.31353600  0.26460200  0.01199100  1
  O  O53  1  0.40987200  0.01199100  0.26460200  1
  O  O54  1  0.01199100  0.40987200  0.31353600  1
  O  O55  1  0.26460200  0.31353600  0.40987200  1
  O  O56  1  0.46670000  0.21325600  0.65391700  1
  O  O57  1  0.66612800  0.65391700  0.21325600  1
  O  O58  1  0.65391600  0.66612800  0.46670000  1
  O  O59  1  0.21325600  0.46670000  0.66612800  1
  O  O60  1  0.78330000  0.03674400  0.59608400  1
  O  O61  1  0.58387200  0.59608400  0.03674400  1
  O  O62  1  0.59608400  0.58387200  0.78330000  1
  O  O63  1  0.03674400  0.78330000  0.58387200  1
  O  O64  1  0.53874900  0.29253000  0.20037000  1
  O  O65  1  0.96835000  0.20037000  0.29253000  1
  O  O66  1  0.20037000  0.96835000  0.53874900  1
  O  O67  1  0.29253000  0.53874900  0.96835000  1
  O  O68  1  0.71125100  0.95747000  0.04963000  1
  O  O69  1  0.28165000  0.04963000  0.95747000  1
  O  O70  1  0.04963000  0.28165000  0.71125100  1
  O  O71  1  0.95747000  0.71125100  0.28165000  1
  O  O72  1  0.64924600  0.92274500  0.34457500  1
  O  O73  1  0.08343300  0.34457500  0.92274500  1
  O  O74  1  0.34457500  0.08343300  0.64924600  1
  O  O75  1  0.92274500  0.64924600  0.08343300  1
  O  O76  1  0.60075400  0.32725500  0.90542500  1
  O  O77  1  0.16656700  0.90542500  0.32725500  1
  O  O78  1  0.90542500  0.16656700  0.60075400  1
  O  O79  1  0.32725500  0.60075400  0.16656700  1
