# generated using pymatgen
data_Ba3U2As4O19
_symmetry_space_group_name_H-M   'P 1'
_cell_length_a   10.95086681
_cell_length_b   10.95086681
_cell_length_c   9.84020157
_cell_angle_alpha   84.46103302
_cell_angle_beta   84.46103302
_cell_angle_gamma   52.61167741
_symmetry_Int_Tables_number   1
_chemical_formula_structural   Ba3U2As4O19
_chemical_formula_sum   'Ba6 U4 As8 O38'
_cell_volume   932.14541616
_cell_formula_units_Z   2
loop_
 _symmetry_equiv_pos_site_id
 _symmetry_equiv_pos_as_xyz
  1  'x, y, z'
loop_
 _atom_site_type_symbol
 _atom_site_label
 _atom_site_symmetry_multiplicity
 _atom_site_fract_x
 _atom_site_fract_y
 _atom_site_fract_z
 _atom_site_occupancy
  Ba  Ba0  1  0.82307700  0.91205700  0.10545300  1
  Ba  Ba1  1  0.08794300  0.17692300  0.39454700  1
  Ba  Ba2  1  0.17692300  0.08794300  0.89454700  1
  Ba  Ba3  1  0.91205700  0.82307700  0.60545300  1
  Ba  Ba4  1  0.61926500  0.38073500  0.75000000  1
  Ba  Ba5  1  0.38073500  0.61926500  0.25000000  1
  U  U6  1  0.71269600  0.64914600  0.92322800  1
  U  U7  1  0.35085400  0.28730400  0.57677200  1
  U  U8  1  0.28730400  0.35085400  0.07677200  1
  U  U9  1  0.64914600  0.71269600  0.42322800  1
  As  As10  1  0.93825500  0.44162700  0.67510000  1
  As  As11  1  0.55837300  0.06174500  0.82490000  1
  As  As12  1  0.06174500  0.55837300  0.32490000  1
  As  As13  1  0.44162700  0.93825500  0.17510000  1
  As  As14  1  0.79174300  0.29167600  0.09439700  1
  As  As15  1  0.70832400  0.20825700  0.40560300  1
  As  As16  1  0.20825700  0.70832400  0.90560300  1
  As  As17  1  0.29167600  0.79174300  0.59439700  1
  O  O18  1  0.66877800  0.47930400  0.02818900  1
  O  O19  1  0.52069600  0.33122200  0.47181100  1
  O  O20  1  0.33122200  0.52069600  0.97181100  1
  O  O21  1  0.47930400  0.66877800  0.52818900  1
  O  O22  1  0.12675600  0.30031200  0.62807500  1
  O  O23  1  0.69968800  0.87324400  0.87192500  1
  O  O24  1  0.87324400  0.69968800  0.37192500  1
  O  O25  1  0.30031200  0.12675600  0.12807500  1
  O  O26  1  0.89782000  0.60400400  0.73643300  1
  O  O27  1  0.39599600  0.10218000  0.76356700  1
  O  O28  1  0.10218000  0.39599600  0.26356700  1
  O  O29  1  0.60400400  0.89782000  0.23643300  1
  O  O30  1  0.83703200  0.48127800  0.53251400  1
  O  O31  1  0.51872200  0.16296800  0.96748600  1
  O  O32  1  0.16296800  0.51872200  0.46748600  1
  O  O33  1  0.48127800  0.83703200  0.03251400  1
  O  O34  1  0.83694400  0.62131700  0.05162800  1
  O  O35  1  0.37868300  0.16305600  0.44837200  1
  O  O36  1  0.16305600  0.37868300  0.94837200  1
  O  O37  1  0.62131700  0.83694400  0.55162800  1
  O  O38  1  0.97025600  0.22203900  0.13617000  1
  O  O39  1  0.77796100  0.02974400  0.36383000  1
  O  O40  1  0.02974400  0.77796100  0.86383000  1
  O  O41  1  0.22203900  0.97025600  0.63617000  1
  O  O42  1  0.58922000  0.67623500  0.79415400  1
  O  O43  1  0.32376500  0.41078000  0.70584600  1
  O  O44  1  0.41078000  0.32376500  0.20584600  1
  O  O45  1  0.67623500  0.58922000  0.29415400  1
  O  O46  1  0.88272500  0.36966800  0.80956000  1
  O  O47  1  0.63033200  0.11727500  0.69044000  1
  O  O48  1  0.11727500  0.63033200  0.19044000  1
  O  O49  1  0.36966800  0.88272500  0.30956000  1
  O  O50  1  0.79002700  0.17571400  0.99306200  1
  O  O51  1  0.82428600  0.20997300  0.50693800  1
  O  O52  1  0.20997300  0.82428600  0.00693800  1
  O  O53  1  0.17571400  0.79002700  0.49306200  1
  O  O54  1  0.67479100  0.32520900  0.25000000  1
  O  O55  1  0.32520900  0.67479100  0.75000000  1
