# generated using pymatgen
data_Si4Ge(H3C)11
_symmetry_space_group_name_H-M   'P 1'
_cell_length_a   9.62343600
_cell_length_b   9.64947383
_cell_length_c   14.31151785
_cell_angle_alpha   103.08828314
_cell_angle_beta   92.01836013
_cell_angle_gamma   114.35425453
_symmetry_Int_Tables_number   1
_chemical_formula_structural   Si4Ge(H3C)11
_chemical_formula_sum   'Si8 Ge2 H66 C22'
_cell_volume   1166.81860404
_cell_formula_units_Z   2
loop_
 _symmetry_equiv_pos_site_id
 _symmetry_equiv_pos_as_xyz
  1  'x, y, z'
loop_
 _atom_site_type_symbol
 _atom_site_label
 _atom_site_symmetry_multiplicity
 _atom_site_fract_x
 _atom_site_fract_y
 _atom_site_fract_z
 _atom_site_occupancy
  Si  Si0  1  0.47295000  0.04214700  0.93092700  1
  Si  Si1  1  0.52705000  0.95785300  0.06907300  1
  Si  Si2  1  0.08026100  0.63027000  0.81172200  1
  Si  Si3  1  0.91973900  0.36973000  0.18827800  1
  Si  Si4  1  0.20665300  0.98045700  0.68990700  1
  Si  Si5  1  0.79334700  0.01954300  0.31009300  1
  Si  Si6  1  0.44521800  0.73507200  0.67495200  1
  Si  Si7  1  0.55478200  0.26492800  0.32504800  1
  Ge  Ge8  1  0.30354100  0.84543400  0.78214000  1
  Ge  Ge9  1  0.69645900  0.15456600  0.21786000  1
  H  H10  1  0.74008200  0.25744600  0.94765400  1
  H  H11  1  0.25991800  0.74255400  0.05234600  1
  H  H12  1  0.72265000  0.08261600  0.86335000  1
  H  H13  1  0.27735000  0.91738400  0.13665000  1
  H  H14  1  0.64085700  0.20153800  0.82854400  1
  H  H15  1  0.35914300  0.79846200  0.17145600  1
  H  H16  1  0.36975700  0.23761500  0.91521400  1
  H  H17  1  0.63024300  0.76238500  0.08478600  1
  H  H18  1  0.27769600  0.13426600  0.00014500  1
  H  H19  1  0.72230400  0.86573400  0.99985500  1
  H  H20  1  0.46840600  0.28686200  0.03364000  1
  H  H21  1  0.53159400  0.71313800  0.96636000  1
  H  H22  1  0.03782000  0.39590800  0.87252100  1
  H  H23  1  0.96218000  0.60409200  0.12747900  1
  H  H24  1  0.18037000  0.42566100  0.79409500  1
  H  H25  1  0.81963000  0.57433900  0.20590500  1
  H  H26  1  0.22932100  0.54403300  0.91558100  1
  H  H27  1  0.77067900  0.45596700  0.08441900  1
  H  H28  1  0.88757900  0.58509800  0.67193400  1
  H  H29  1  0.11242100  0.41490200  0.32806600  1
  H  H30  1  0.98094000  0.45891900  0.64084300  1
  H  H31  1  0.01906000  0.54108100  0.35915700  1
  H  H32  1  0.83537100  0.41613600  0.71709500  1
  H  H33  1  0.16462900  0.58386400  0.28290500  1
  H  H34  1  0.05232500  0.77505600  0.97490300  1
  H  H35  1  0.94767500  0.22494400  0.02509700  1
  H  H36  1  0.93101700  0.77919900  0.88012600  1
  H  H37  1  0.06898300  0.22080100  0.11987400  1
  H  H38  1  0.87895100  0.60501700  0.91971300  1
  H  H39  1  0.12104900  0.39498300  0.08028700  1
  H  H40  1  0.07672100  0.91851700  0.52274800  1
  H  H41  1  0.92327900  0.08148300  0.47725200  1
  H  H42  1  0.22059200  0.84849900  0.51927100  1
  H  H43  1  0.77940800  0.15150100  0.48072900  1
  H  H44  1  0.04021700  0.74038000  0.55479600  1
  H  H45  1  0.95978300  0.25962000  0.44520400  1
  H  H46  1  0.94000900  0.90572500  0.73399100  1
  H  H47  1  0.05999100  0.09427500  0.26600900  1
  H  H48  1  0.07495200  0.07958700  0.81976700  1
  H  H49  1  0.92504800  0.92041300  0.18023300  1
  H  H50  1  0.01189200  0.08943500  0.70438200  1
  H  H51  1  0.98810800  0.91056500  0.29561800  1
  H  H52  1  0.40821100  0.25909300  0.75829200  1
  H  H53  1  0.59178900  0.74090700  0.24170800  1
  H  H54  1  0.45962500  0.16462100  0.65276100  1
  H  H55  1  0.54037500  0.83537900  0.34723900  1
  H  H56  1  0.31599900  0.23284800  0.64189700  1
  H  H57  1  0.68400100  0.76715200  0.35810300  1
  H  H58  1  0.64492700  0.83099100  0.56960000  1
  H  H59  1  0.35507300  0.16900900  0.43040000  1
  H  H60  1  0.50874900  0.90940000  0.56136100  1
  H  H61  1  0.49125100  0.09060000  0.43863900  1
  H  H62  1  0.65540900  0.99230700  0.66360300  1
  H  H63  1  0.34459100  0.00769300  0.33639700  1
  H  H64  1  0.66218100  0.77062400  0.79406200  1
  H  H65  1  0.33781900  0.22937600  0.20593800  1
  H  H66  1  0.50351000  0.58342100  0.77928300  1
  H  H67  1  0.49649000  0.41657900  0.22071700  1
  H  H68  1  0.62602800  0.61464900  0.68872300  1
  H  H69  1  0.37397200  0.38535100  0.31127700  1
  H  H70  1  0.23801700  0.45884800  0.60741800  1
  H  H71  1  0.76198300  0.54115200  0.39258200  1
  H  H72  1  0.23156200  0.58286400  0.53393600  1
  H  H73  1  0.76843800  0.41713600  0.46606400  1
  H  H74  1  0.37584200  0.51253200  0.52729800  1
  H  H75  1  0.62415800  0.48746800  0.47270200  1
  C  C76  1  0.66225300  0.15585600  0.88858700  1
  C  C77  1  0.33774700  0.84414400  0.11141300  1
  C  C78  1  0.38833000  0.18801800  0.97388700  1
  C  C79  1  0.61167000  0.81198200  0.02611300  1
  C  C80  1  0.13820900  0.48639500  0.85262400  1
  C  C81  1  0.86179100  0.51360500  0.14737600  1
  C  C82  1  0.93306800  0.51234600  0.69933100  1
  C  C83  1  0.06693200  0.48765400  0.30066900  1
  C  C84  1  0.97689700  0.70520700  0.90567500  1
  C  C85  1  0.02310300  0.29479300  0.09432500  1
  C  C86  1  0.12924700  0.85955900  0.55976300  1
  C  C87  1  0.87075300  0.14044100  0.44023700  1
  C  C88  1  0.04336200  0.01686600  0.74237200  1
  C  C89  1  0.95663800  0.98313400  0.25762800  1
  C  C90  1  0.36266900  0.17725200  0.68559500  1
  C  C91  1  0.63733100  0.82274800  0.31440500  1
  C  C92  1  0.57537800  0.88135300  0.61182800  1
  C  C93  1  0.42462200  0.11864700  0.38817200  1
  C  C94  1  0.57063800  0.67013400  0.74101400  1
  C  C95  1  0.42936200  0.32986600  0.25898600  1
  C  C96  1  0.30892800  0.55568700  0.57701700  1
  C  C97  1  0.69107200  0.44431300  0.42298300  1
