# generated using pymatgen
data_Zn3As2(HO)16
_symmetry_space_group_name_H-M   'P 1'
_cell_length_a   4.80182249
_cell_length_b   8.71241719
_cell_length_c   8.71241719
_cell_angle_alpha   106.38182693
_cell_angle_beta   99.20974448
_cell_angle_gamma   99.20974448
_symmetry_Int_Tables_number   1
_chemical_formula_structural   Zn3As2(HO)16
_chemical_formula_sum   'Zn3 As2 H16 O16'
_cell_volume   336.98393539
_cell_formula_units_Z   1
loop_
 _symmetry_equiv_pos_site_id
 _symmetry_equiv_pos_as_xyz
  1  'x, y, z'
loop_
 _atom_site_type_symbol
 _atom_site_label
 _atom_site_symmetry_multiplicity
 _atom_site_fract_x
 _atom_site_fract_y
 _atom_site_fract_z
 _atom_site_occupancy
  Zn  Zn0  1  0.00000000  0.00000000  0.00000000  1
  Zn  Zn1  1  0.00000000  0.61162200  0.38837800  1
  Zn  Zn2  1  0.00000000  0.38837800  0.61162200  1
  As  As3  1  0.37686700  0.31323300  0.31323300  1
  As  As4  1  0.62313300  0.68676700  0.68676700  1
  H  H5  1  0.36564000  0.96302100  0.80344200  1
  H  H6  1  0.36564000  0.80344200  0.96302100  1
  H  H7  1  0.63436000  0.03697900  0.19655800  1
  H  H8  1  0.63436000  0.19655800  0.03697900  1
  H  H9  1  0.05699400  0.93825800  0.69108900  1
  H  H10  1  0.05699400  0.69108900  0.93825800  1
  H  H11  1  0.94300600  0.06174200  0.30891100  1
  H  H12  1  0.94300600  0.30891100  0.06174200  1
  H  H13  1  0.48574000  0.81418700  0.43432400  1
  H  H14  1  0.48574000  0.43432400  0.81418700  1
  H  H15  1  0.51426000  0.18581300  0.56567600  1
  H  H16  1  0.51426000  0.56567600  0.18581300  1
  H  H17  1  0.28864000  0.81474700  0.26665000  1
  H  H18  1  0.28864000  0.26665000  0.81474700  1
  H  H19  1  0.71136000  0.18525300  0.73335000  1
  H  H20  1  0.71136000  0.73335000  0.18525300  1
  O  O21  1  0.38350600  0.14700000  0.14700000  1
  O  O22  1  0.61649400  0.85300000  0.85300000  1
  O  O23  1  0.73226200  0.40620800  0.40620800  1
  O  O24  1  0.26773800  0.59379200  0.59379200  1
  O  O25  1  0.21319800  0.23314900  0.44450000  1
  O  O26  1  0.21319800  0.44450000  0.23314900  1
  O  O27  1  0.78680200  0.76685100  0.55550000  1
  O  O28  1  0.78680200  0.55550000  0.76685100  1
  O  O29  1  0.80306300  0.98349800  0.20935800  1
  O  O30  1  0.80306300  0.20935800  0.98349800  1
  O  O31  1  0.19693700  0.01650200  0.79064200  1
  O  O32  1  0.19693700  0.79064200  0.01650200  1
  O  O33  1  0.71218600  0.18363500  0.62034400  1
  O  O34  1  0.71218600  0.62034400  0.18363500  1
  O  O35  1  0.28781400  0.81636500  0.37965600  1
  O  O36  1  0.28781400  0.37965600  0.81636500  1
