# generated using pymatgen
data_Np3OF12
_symmetry_space_group_name_H-M   'P 1'
_cell_length_a   8.46029070
_cell_length_b   8.46029070
_cell_length_c   8.49338774
_cell_angle_alpha   64.20220750
_cell_angle_beta   64.20220750
_cell_angle_gamma   90.54405216
_symmetry_Int_Tables_number   1
_chemical_formula_structural   Np3OF12
_chemical_formula_sum   'Np6 O2 F24'
_cell_volume   477.72445404
_cell_formula_units_Z   2
loop_
 _symmetry_equiv_pos_site_id
 _symmetry_equiv_pos_as_xyz
  1  'x, y, z'
loop_
 _atom_site_type_symbol
 _atom_site_label
 _atom_site_symmetry_multiplicity
 _atom_site_fract_x
 _atom_site_fract_y
 _atom_site_fract_z
 _atom_site_occupancy
  Np  Np0  1  0.83316600  0.83316600  0.33520500  1
  Np  Np1  1  0.18194400  0.18194400  0.65940900  1
  Np  Np2  1  0.27904700  0.61478500  0.78802500  1
  Np  Np3  1  0.61478500  0.27904700  0.78802500  1
  Np  Np4  1  0.76653300  0.40209100  0.17725300  1
  Np  Np5  1  0.40209100  0.76653300  0.17725300  1
  O  O6  1  0.12216200  0.12216200  0.51085000  1
  O  O7  1  0.91394200  0.91394200  0.45690500  1
  F  F8  1  0.41396900  0.05740900  0.11210800  1
  F  F9  1  0.05740900  0.41396900  0.11210800  1
  F  F10  1  0.36454900  0.14770200  0.78727000  1
  F  F11  1  0.14770200  0.36454900  0.78727000  1
  F  F12  1  0.12780500  0.78900400  0.23853400  1
  F  F13  1  0.78900400  0.12780500  0.23853400  1
  F  F14  1  0.33965400  0.68058700  0.99351100  1
  F  F15  1  0.68058700  0.33965400  0.99351100  1
  F  F16  1  0.28796100  0.73766500  0.49053500  1
  F  F17  1  0.73766500  0.28796100  0.49053500  1
  F  F18  1  0.60228800  0.97329800  0.86487200  1
  F  F19  1  0.97329800  0.60228800  0.86487200  1
  F  F20  1  0.63752300  0.85030000  0.22211500  1
  F  F21  1  0.85030000  0.63752300  0.22211500  1
  F  F22  1  0.88434000  0.22800200  0.74409900  1
  F  F23  1  0.22800200  0.88434000  0.74409900  1
  F  F24  1  0.47973900  0.25986800  0.39649000  1
  F  F25  1  0.25986800  0.47973900  0.39649000  1
  F  F26  1  0.55554600  0.79452400  0.59566800  1
  F  F27  1  0.79452400  0.55554600  0.59566800  1
  F  F28  1  0.00300800  0.00300800  0.99777000  1
  F  F29  1  0.40227000  0.40227000  0.93778000  1
  F  F30  1  0.61656400  0.61656400  0.09399200  1
  F  F31  1  0.49855400  0.49855400  0.58812900  1
