# generated using pymatgen
data_Ba(GaO3)2
_symmetry_space_group_name_H-M   'P 1'
_cell_length_a   7.34920300
_cell_length_b   12.60580100
_cell_length_c   12.77381100
_cell_angle_alpha   90.00000000
_cell_angle_beta   90.00000000
_cell_angle_gamma   90.00000000
_symmetry_Int_Tables_number   1
_chemical_formula_structural   Ba(GaO3)2
_chemical_formula_sum   'Ba8 Ga16 O48'
_cell_volume   1183.39894194
_cell_formula_units_Z   8
loop_
 _symmetry_equiv_pos_site_id
 _symmetry_equiv_pos_as_xyz
  1  'x, y, z'
loop_
 _atom_site_type_symbol
 _atom_site_label
 _atom_site_symmetry_multiplicity
 _atom_site_fract_x
 _atom_site_fract_y
 _atom_site_fract_z
 _atom_site_occupancy
  Ba  Ba0  1  0.88715500  0.15500400  0.07396900  1
  Ba  Ba1  1  0.61284500  0.65500400  0.92603100  1
  Ba  Ba2  1  0.38715500  0.84499600  0.42603100  1
  Ba  Ba3  1  0.11284500  0.34499600  0.57396900  1
  Ba  Ba4  1  0.11284500  0.84499600  0.92603100  1
  Ba  Ba5  1  0.38715500  0.34499600  0.07396900  1
  Ba  Ba6  1  0.61284500  0.15500400  0.57396900  1
  Ba  Ba7  1  0.88715500  0.65500400  0.42603100  1
  Ga  Ga8  1  0.23607100  0.15200600  0.33435800  1
  Ga  Ga9  1  0.26392900  0.65200600  0.66564200  1
  Ga  Ga10  1  0.73607100  0.84799400  0.16564200  1
  Ga  Ga11  1  0.76392900  0.34799400  0.83435800  1
  Ga  Ga12  1  0.76392900  0.84799400  0.66564200  1
  Ga  Ga13  1  0.73607100  0.34799400  0.33435800  1
  Ga  Ga14  1  0.26392900  0.15200600  0.83435800  1
  Ga  Ga15  1  0.23607100  0.65200600  0.16564200  1
  Ga  Ga16  1  0.87623300  0.49086600  0.14599900  1
  Ga  Ga17  1  0.62376700  0.99086600  0.85400100  1
  Ga  Ga18  1  0.37623300  0.50913400  0.35400100  1
  Ga  Ga19  1  0.12376700  0.00913400  0.64599900  1
  Ga  Ga20  1  0.12376700  0.50913400  0.85400100  1
  Ga  Ga21  1  0.37623300  0.00913400  0.14599900  1
  Ga  Ga22  1  0.62376700  0.49086600  0.64599900  1
  Ga  Ga23  1  0.87623300  0.99086600  0.35400100  1
  O  O24  1  0.00593100  0.61409000  0.11212600  1
  O  O25  1  0.49406900  0.11409000  0.88787400  1
  O  O26  1  0.50593100  0.38591000  0.38787400  1
  O  O27  1  0.99406900  0.88591000  0.61212600  1
  O  O28  1  0.99406900  0.38591000  0.88787400  1
  O  O29  1  0.50593100  0.88591000  0.11212600  1
  O  O30  1  0.49406900  0.61409000  0.61212600  1
  O  O31  1  0.00593100  0.11409000  0.38787400  1
  O  O32  1  0.35998600  0.02882000  0.29064600  1
  O  O33  1  0.14001400  0.52882000  0.70935400  1
  O  O34  1  0.85998600  0.97118000  0.20935400  1
  O  O35  1  0.64001400  0.47118000  0.79064600  1
  O  O36  1  0.64001400  0.97118000  0.70935400  1
  O  O37  1  0.85998600  0.47118000  0.29064600  1
  O  O38  1  0.14001400  0.02882000  0.79064600  1
  O  O39  1  0.35998600  0.52882000  0.20935400  1
  O  O40  1  0.19404500  0.22278100  0.20885700  1
  O  O41  1  0.30595500  0.72278100  0.79114300  1
  O  O42  1  0.69404500  0.77721900  0.29114300  1
  O  O43  1  0.80595500  0.27721900  0.70885700  1
  O  O44  1  0.80595500  0.77721900  0.79114300  1
  O  O45  1  0.69404500  0.27721900  0.20885700  1
  O  O46  1  0.30595500  0.22278100  0.70885700  1
  O  O47  1  0.19404500  0.72278100  0.29114300  1
  O  O48  1  0.33598400  0.22313600  0.44524800  1
  O  O49  1  0.16401600  0.72313600  0.55475200  1
  O  O50  1  0.83598400  0.77686400  0.05475200  1
  O  O51  1  0.66401600  0.27686400  0.94524800  1
  O  O52  1  0.66401600  0.77686400  0.55475200  1
  O  O53  1  0.83598400  0.27686400  0.44524800  1
  O  O54  1  0.16401600  0.22313600  0.94524800  1
  O  O55  1  0.33598400  0.72313600  0.05475200  1
  O  O56  1  0.99153200  0.37331500  0.08702300  1
  O  O57  1  0.50846800  0.87331500  0.91297700  1
  O  O58  1  0.49153200  0.62668500  0.41297700  1
  O  O59  1  0.00846800  0.12668500  0.58702300  1
  O  O60  1  0.00846800  0.62668500  0.91297700  1
  O  O61  1  0.49153200  0.12668500  0.08702300  1
  O  O62  1  0.50846800  0.37331500  0.58702300  1
  O  O63  1  0.99153200  0.87331500  0.41297700  1
  O  O64  1  0.14805900  0.99878300  0.08371600  1
  O  O65  1  0.35194100  0.49878300  0.91628400  1
  O  O66  1  0.64805900  0.00121700  0.41628400  1
  O  O67  1  0.85194100  0.50121700  0.58371600  1
  O  O68  1  0.85194100  0.00121700  0.91628400  1
  O  O69  1  0.64805900  0.50121700  0.08371600  1
  O  O70  1  0.35194100  0.99878300  0.58371600  1
  O  O71  1  0.14805900  0.49878300  0.41628400  1
