# generated using pymatgen
data_UP2H2CO9
_symmetry_space_group_name_H-M   'P 1'
_cell_length_a   18.71322000
_cell_length_b   8.21220400
_cell_length_c   5.72127200
_cell_angle_alpha   90.00000000
_cell_angle_beta   90.00000000
_cell_angle_gamma   90.00000000
_symmetry_Int_Tables_number   1
_chemical_formula_structural   UP2H2CO9
_chemical_formula_sum   'U4 P8 H8 C4 O36'
_cell_volume   879.22665925
_cell_formula_units_Z   4
loop_
 _symmetry_equiv_pos_site_id
 _symmetry_equiv_pos_as_xyz
  1  'x, y, z'
loop_
 _atom_site_type_symbol
 _atom_site_label
 _atom_site_symmetry_multiplicity
 _atom_site_fract_x
 _atom_site_fract_y
 _atom_site_fract_z
 _atom_site_occupancy
  U  U0  1  0.89318400  0.25756300  0.50441000  1
  U  U1  1  0.10681600  0.74243700  0.00441000  1
  U  U2  1  0.60681600  0.75756300  0.00441000  1
  U  U3  1  0.39318400  0.24243700  0.50441000  1
  P  P4  1  0.77256900  0.57888300  0.29687700  1
  P  P5  1  0.22743100  0.42111700  0.79687700  1
  P  P6  1  0.72743100  0.07888300  0.79687700  1
  P  P7  1  0.27256900  0.92111700  0.29687700  1
  P  P8  1  0.93132600  0.66383200  0.27956000  1
  P  P9  1  0.06867400  0.33616800  0.77956000  1
  P  P10  1  0.56867400  0.16383200  0.77956000  1
  P  P11  1  0.43132600  0.83616800  0.27956000  1
  H  H12  1  0.82969500  0.82961600  0.19307300  1
  H  H13  1  0.17030500  0.17038400  0.69307300  1
  H  H14  1  0.67030500  0.32961600  0.69307300  1
  H  H15  1  0.32969500  0.67038400  0.19307300  1
  H  H16  1  0.84300800  0.67780600  0.97436900  1
  H  H17  1  0.15699200  0.32219400  0.47436900  1
  H  H18  1  0.65699200  0.17780600  0.47436900  1
  H  H19  1  0.34300800  0.82219400  0.97436900  1
  C  C20  1  0.84249200  0.70039800  0.16399900  1
  C  C21  1  0.15750800  0.29960200  0.66399900  1
  C  C22  1  0.65750800  0.20039800  0.66399900  1
  C  C23  1  0.34249200  0.79960200  0.16399900  1
  O  O24  1  0.94183900  0.74254100  0.52290100  1
  O  O25  1  0.05816100  0.25745900  0.02290100  1
  O  O26  1  0.55816100  0.24254100  0.02290100  1
  O  O27  1  0.44183900  0.75745900  0.52290100  1
  O  O28  1  0.90589900  0.02538300  0.76045400  1
  O  O29  1  0.09410100  0.97461700  0.26045400  1
  O  O30  1  0.59410100  0.52538300  0.26045400  1
  O  O31  1  0.40589900  0.47461700  0.76045400  1
  O  O32  1  0.94108700  0.47856900  0.30379900  1
  O  O33  1  0.05891300  0.52143100  0.80379900  1
  O  O34  1  0.55891300  0.97856900  0.80379900  1
  O  O35  1  0.44108700  0.02143100  0.30379900  1
  O  O36  1  0.90524700  0.11717600  0.26542800  1
  O  O37  1  0.09475300  0.88282400  0.76542800  1
  O  O38  1  0.59475300  0.61717600  0.76542800  1
  O  O39  1  0.40524700  0.38282400  0.26542800  1
  O  O40  1  0.79587600  0.39892700  0.32041100  1
  O  O41  1  0.20412400  0.60107300  0.82041100  1
  O  O42  1  0.70412400  0.89892700  0.82041100  1
  O  O43  1  0.29587600  0.10107300  0.32041100  1
  O  O44  1  0.87892000  0.38565200  0.75565100  1
  O  O45  1  0.12108000  0.61434800  0.25565100  1
  O  O46  1  0.62108000  0.88565200  0.25565100  1
  O  O47  1  0.37892000  0.11434800  0.75565100  1
  O  O48  1  0.98496000  0.74621900  0.11481800  1
  O  O49  1  0.01504000  0.25378100  0.61481800  1
  O  O50  1  0.51504000  0.24621900  0.61481800  1
  O  O51  1  0.48496000  0.75378100  0.11481800  1
  O  O52  1  0.75956000  0.62539900  0.55418800  1
  O  O53  1  0.24044000  0.37460100  0.05418800  1
  O  O54  1  0.74044000  0.12539900  0.05418800  1
  O  O55  1  0.25956000  0.87460100  0.55418800  1
  O  O56  1  0.70678800  0.60185200  0.13827300  1
  O  O57  1  0.29321200  0.39814800  0.63827300  1
  O  O58  1  0.79321200  0.10185200  0.63827300  1
  O  O59  1  0.20678800  0.89814800  0.13827300  1
