# generated using pymatgen
data_H9PtC3Br
_symmetry_space_group_name_H-M   'P 1'
_cell_length_a   10.37800616
_cell_length_b   10.37800616
_cell_length_c   13.42141705
_cell_angle_alpha   86.10975894
_cell_angle_beta   86.10975894
_cell_angle_gamma   91.21580046
_symmetry_Int_Tables_number   1
_chemical_formula_structural   H9PtC3Br
_chemical_formula_sum   'H72 Pt8 C24 Br8'
_cell_volume   1438.38909123
_cell_formula_units_Z   8
loop_
 _symmetry_equiv_pos_site_id
 _symmetry_equiv_pos_as_xyz
  1  'x, y, z'
loop_
 _atom_site_type_symbol
 _atom_site_label
 _atom_site_symmetry_multiplicity
 _atom_site_fract_x
 _atom_site_fract_y
 _atom_site_fract_z
 _atom_site_occupancy
  H  H0  1  0.62315900  0.62315900  0.09236400  1
  H  H1  1  0.37684100  0.37684100  0.90763600  1
  H  H2  1  0.53758600  0.65971600  0.98241400  1
  H  H3  1  0.65971600  0.53758600  0.98241400  1
  H  H4  1  0.46241400  0.34028400  0.01758600  1
  H  H5  1  0.34028400  0.46241400  0.01758600  1
  H  H6  1  0.97368700  0.74778800  0.04959900  1
  H  H7  1  0.74778800  0.97368700  0.04959900  1
  H  H8  1  0.02631300  0.25221200  0.95040100  1
  H  H9  1  0.25221200  0.02631300  0.95040100  1
  H  H10  1  0.83800300  0.69793800  0.13464200  1
  H  H11  1  0.69793800  0.83800300  0.13464200  1
  H  H12  1  0.16199700  0.30206200  0.86535800  1
  H  H13  1  0.30206200  0.16199700  0.86535800  1
  H  H14  1  0.89817400  0.58956600  0.04512000  1
  H  H15  1  0.58956600  0.89817400  0.04512000  1
  H  H16  1  0.10182600  0.41043400  0.95488000  1
  H  H17  1  0.41043400  0.10182600  0.95488000  1
  H  H18  1  0.51951400  0.51951400  0.63757400  1
  H  H19  1  0.48048700  0.48048700  0.36242600  1
  H  H20  1  0.60458200  0.48236900  0.74746800  1
  H  H21  1  0.48236900  0.60458200  0.74746800  1
  H  H22  1  0.39541800  0.51763100  0.25253200  1
  H  H23  1  0.51763100  0.39541800  0.25253200  1
  H  H24  1  0.84234200  0.52113000  0.58955800  1
  H  H25  1  0.52113000  0.84234200  0.58955800  1
  H  H26  1  0.15765800  0.47887000  0.41044200  1
  H  H27  1  0.47887000  0.15765800  0.41044200  1
  H  H28  1  0.69046100  0.51641000  0.53290100  1
  H  H29  1  0.51641000  0.69046100  0.53290100  1
  H  H30  1  0.30953900  0.48359000  0.46709900  1
  H  H31  1  0.48359000  0.30953900  0.46709900  1
  H  H32  1  0.80882300  0.63990400  0.49042600  1
  H  H33  1  0.63990400  0.80882300  0.49042600  1
  H  H34  1  0.19117700  0.36009600  0.50957400  1
  H  H35  1  0.36009600  0.19117700  0.50957400  1
  H  H36  1  0.17143800  0.76746100  0.90641200  1
  H  H37  1  0.76746100  0.17143800  0.90641200  1
  H  H38  1  0.82856200  0.23253900  0.09358800  1
  H  H39  1  0.23253900  0.82856200  0.09358800  1
  H  H40  1  0.16772500  0.61238200  0.85275500  1
  H  H41  1  0.61238200  0.16772500  0.85275500  1
  H  H42  1  0.83227500  0.38761800  0.14724500  1
  H  H43  1  0.38761800  0.83227500  0.14724500  1
  H  H44  1  0.29031000  0.73169700  0.80931800  1
  H  H45  1  0.73169700  0.29031000  0.80931800  1
  H  H46  1  0.70969000  0.26830300  0.19068200  1
  H  H47  1  0.26830300  0.70969000  0.19068200  1
  H  H48  1  0.09483700  0.67876600  0.57111200  1
  H  H49  1  0.67876600  0.09483700  0.57111200  1
  H  H50  1  0.90516300  0.32123400  0.42888800  1
  H  H51  1  0.32123400  0.90516300  0.42888800  1
  H  H52  1  0.24818100  0.68199800  0.62573600  1
  H  H53  1  0.68199800  0.24818100  0.62573600  1
  H  H54  1  0.75181900  0.31800200  0.37426400  1
  H  H55  1  0.31800200  0.75181900  0.37426400  1
  H  H56  1  0.12648100  0.56466600  0.67425000  1
  H  H57  1  0.56466600  0.12648100  0.67425000  1
  H  H58  1  0.87351900  0.43533400  0.32575000  1
  H  H59  1  0.43533400  0.87351900  0.32575000  1
  H  H60  1  0.16683600  0.97801000  0.62364800  1
  H  H61  1  0.97801000  0.16683600  0.62364800  1
  H  H62  1  0.83316400  0.02199000  0.37635200  1
  H  H63  1  0.02199000  0.83316400  0.37635200  1
  H  H64  1  0.22716500  0.98053000  0.74719200  1
  H  H65  1  0.98053000  0.22716500  0.74719200  1
  H  H66  1  0.77283500  0.01947000  0.25280800  1
  H  H67  1  0.01947000  0.77283500  0.25280800  1
  H  H68  1  0.29381400  0.87313200  0.65936400  1
  H  H69  1  0.87313200  0.29381400  0.65936400  1
  H  H70  1  0.70618600  0.12686800  0.34063600  1
  H  H71  1  0.12686800  0.70618600  0.34063600  1
  Pt  Pt72  1  0.76655800  0.76655800  0.95254100  1
  Pt  Pt73  1  0.23344200  0.23344200  0.04745900  1
  Pt  Pt74  1  0.69927500  0.69927500  0.66177800  1
  Pt  Pt75  1  0.30072500  0.30072500  0.33822200  1
  Pt  Pt76  1  0.06307700  0.78787900  0.73805000  1
  Pt  Pt77  1  0.78787900  0.06307700  0.73805000  1
  Pt  Pt78  1  0.93692300  0.21212100  0.26195000  1
  Pt  Pt79  1  0.21212100  0.93692300  0.26195000  1
  C  C80  1  0.63055400  0.63055400  0.01024300  1
  C  C81  1  0.36944600  0.36944600  0.98975700  1
  C  C82  1  0.88242500  0.69125600  0.05842700  1
  C  C83  1  0.69125600  0.88242500  0.05842700  1
  C  C84  1  0.11757500  0.30874400  0.94157300  1
  C  C85  1  0.30874400  0.11757500  0.94157300  1
  C  C86  1  0.55965000  0.55965000  0.70307300  1
  C  C87  1  0.44035000  0.44035000  0.29692700  1
  C  C88  1  0.76756500  0.57956100  0.55589800  1
  C  C89  1  0.57956100  0.76756500  0.55589800  1
  C  C90  1  0.23243500  0.42043900  0.44410200  1
  C  C91  1  0.42043900  0.23243500  0.44410200  1
  C  C92  1  0.18929600  0.71615500  0.83781700  1
  C  C93  1  0.71615500  0.18929600  0.83781700  1
  C  C94  1  0.81070400  0.28384500  0.16218300  1
  C  C95  1  0.28384500  0.81070400  0.16218300  1
  C  C96  1  0.14393400  0.66354400  0.64084200  1
  C  C97  1  0.66354400  0.14393400  0.64084200  1
  C  C98  1  0.85606600  0.33645600  0.35915800  1
  C  C99  1  0.33645600  0.85606600  0.35915800  1
  C  C100  1  0.20550800  0.92012700  0.68589600  1
  C  C101  1  0.92012700  0.20550800  0.68589600  1
  C  C102  1  0.79449200  0.07987300  0.31410400  1
  C  C103  1  0.07987300  0.79449200  0.31410400  1
  Br  Br104  1  0.94460300  0.94460300  0.86644600  1
  Br  Br105  1  0.05539700  0.05539700  0.13355400  1
  Br  Br106  1  0.88373100  0.88373100  0.61389900  1
  Br  Br107  1  0.11626900  0.11626900  0.38610100  1
  Br  Br108  1  0.86360400  0.62155800  0.80433500  1
  Br  Br109  1  0.62155800  0.86360400  0.80433500  1
  Br  Br110  1  0.13639600  0.37844200  0.19566500  1
  Br  Br111  1  0.37844200  0.13639600  0.19566500  1
