# generated using pymatgen
data_TiSi7H48(C8O)2
_symmetry_space_group_name_H-M   'P 1'
_cell_length_a   10.52506900
_cell_length_b   10.61488670
_cell_length_c   16.50758895
_cell_angle_alpha   79.24482878
_cell_angle_beta   88.22160597
_cell_angle_gamma   86.60540413
_symmetry_Int_Tables_number   1
_chemical_formula_structural   TiSi7H48(C8O)2
_chemical_formula_sum   'Ti2 Si14 H96 C32 O4'
_cell_volume   1808.31585564
_cell_formula_units_Z   2
loop_
 _symmetry_equiv_pos_site_id
 _symmetry_equiv_pos_as_xyz
  1  'x, y, z'
loop_
 _atom_site_type_symbol
 _atom_site_label
 _atom_site_symmetry_multiplicity
 _atom_site_fract_x
 _atom_site_fract_y
 _atom_site_fract_z
 _atom_site_occupancy
  Ti  Ti0  1  0.17949200  0.90075200  0.63382600  1
  Ti  Ti1  1  0.82050800  0.09924800  0.36617400  1
  Si  Si2  1  0.19163600  0.17756200  0.70028500  1
  Si  Si3  1  0.80836400  0.82243800  0.29971500  1
  Si  Si4  1  0.32545600  0.83564700  0.81294100  1
  Si  Si5  1  0.67454400  0.16435300  0.18705900  1
  Si  Si6  1  0.98616000  0.28083900  0.71503200  1
  Si  Si7  1  0.01384000  0.71916100  0.28496800  1
  Si  Si8  1  0.27578500  0.05600300  0.82812000  1
  Si  Si9  1  0.72421500  0.94399700  0.17188000  1
  Si  Si10  1  0.23987700  0.68280500  0.92240200  1
  Si  Si11  1  0.76012300  0.31719500  0.07759800  1
  Si  Si12  1  0.32801200  0.32695700  0.61819300  1
  Si  Si13  1  0.67198800  0.67304300  0.38180700  1
  Si  Si14  1  0.54689400  0.79186000  0.78941000  1
  Si  Si15  1  0.45310600  0.20814000  0.21059000  1
  H  H16  1  0.95532700  0.88294400  0.56359300  1
  H  H17  1  0.04467300  0.11705600  0.43640700  1
  H  H18  1  0.01648600  0.72654800  0.61041800  1
  H  H19  1  0.98351400  0.27345200  0.38958200  1
  H  H20  1  0.93865300  0.83007800  0.67269200  1
  H  H21  1  0.06134700  0.16992200  0.32730800  1
  H  H22  1  0.38192500  0.92206100  0.52844600  1
  H  H23  1  0.61807500  0.07793900  0.47155400  1
  H  H24  1  0.30146800  0.78033800  0.52201900  1
  H  H25  1  0.69853200  0.21966200  0.47798100  1
  H  H26  1  0.23726600  0.93477500  0.47296500  1
  H  H27  1  0.76273400  0.06522500  0.52703500  1
  H  H28  1  0.86652600  0.08125500  0.72304600  1
  H  H29  1  0.13347400  0.91874500  0.27695400  1
  H  H30  1  0.89072600  0.11351400  0.82355800  1
  H  H31  1  0.10927400  0.88648600  0.17644200  1
  H  H32  1  0.77241300  0.20463800  0.75926000  1
  H  H33  1  0.22758700  0.79536200  0.24074000  1
  H  H34  1  0.98279400  0.44251700  0.58268600  1
  H  H35  1  0.01720600  0.55748300  0.41731400  1
  H  H36  1  0.92605600  0.29451800  0.56668600  1
  H  H37  1  0.07394400  0.70548200  0.43331400  1
  H  H38  1  0.82703600  0.39818400  0.61732700  1
  H  H39  1  0.17296400  0.60181600  0.38267300  1
  H  H40  1  0.88638300  0.44718800  0.78696700  1
  H  H41  1  0.11361700  0.55281200  0.21303300  1
  H  H42  1  0.01618600  0.36753100  0.84543000  1
  H  H43  1  0.98381400  0.63246900  0.15457000  1
  H  H44  1  0.04507500  0.48614600  0.75635400  1
  H  H45  1  0.95492500  0.51385400  0.24364600  1
  H  H46  1  0.13408100  0.16468200  0.92093600  1
  H  H47  1  0.86591900  0.83531800  0.07906400  1
  H  H48  1  0.06452800  0.02176200  0.90584100  1
  H  H49  1  0.93547200  0.97823800  0.09415900  1
  H  H50  1  0.19461700  0.01313500  0.97385100  1
  H  H51  1  0.80538300  0.98686500  0.02614900  1
  H  H52  1  0.45041700  0.07446100  0.92293500  1
  H  H53  1  0.54958300  0.92553900  0.07706500  1
  H  H54  1  0.50358900  0.12280100  0.81845300  1
  H  H55  1  0.49641100  0.87719900  0.18154700  1
  H  H56  1  0.40109400  0.22816100  0.86681800  1
  H  H57  1  0.59890600  0.77183900  0.13318200  1
  H  H58  1  0.26693000  0.49276500  0.84937400  1
  H  H59  1  0.73307000  0.50723500  0.15062600  1
  H  H60  1  0.38932200  0.48940100  0.92179300  1
  H  H61  1  0.61067800  0.51059900  0.07820700  1
  H  H62  1  0.23328600  0.44596500  0.95647900  1
  H  H63  1  0.76671400  0.55403500  0.04352100  1
  H  H64  1  0.02453300  0.79147500  0.93664200  1
  H  H65  1  0.97546700  0.20852500  0.06335800  1
  H  H66  1  0.02179900  0.68668600  0.86396000  1
  H  H67  1  0.97820100  0.31331400  0.13604000  1
  H  H68  1  0.02275400  0.62256700  0.97142400  1
  H  H69  1  0.97724600  0.37743300  0.02857600  1
  H  H70  1  0.26061000  0.62977800  0.07450200  1
  H  H71  1  0.73939000  0.37022200  0.92549800  1
  H  H72  1  0.40252700  0.69726000  0.02866700  1
  H  H73  1  0.59747300  0.30274000  0.97133300  1
  H  H74  1  0.26546300  0.79817400  0.04095200  1
  H  H75  1  0.73453700  0.20182600  0.95904800  1
  H  H76  1  0.67763800  0.61607400  0.74414200  1
  H  H77  1  0.32236200  0.38392600  0.25585800  1
  H  H78  1  0.56602900  0.54969100  0.82151600  1
  H  H79  1  0.43397100  0.45030900  0.17848400  1
  H  H80  1  0.51689800  0.60515300  0.71823900  1
  H  H81  1  0.48310200  0.39484700  0.28176100  1
  H  H82  1  0.64407200  0.90884300  0.88935400  1
  H  H83  1  0.35592800  0.09115700  0.11064600  1
  H  H84  1  0.62219000  0.74634400  0.93616900  1
  H  H85  1  0.37781000  0.25365600  0.06383100  1
  H  H86  1  0.74916700  0.78467600  0.86361100  1
  H  H87  1  0.25083300  0.21532400  0.13638900  1
  H  H88  1  0.69782000  0.88067600  0.67805600  1
  H  H89  1  0.30218000  0.11932400  0.32194400  1
  H  H90  1  0.53946600  0.90290900  0.64188800  1
  H  H91  1  0.46053400  0.09709100  0.35811200  1
  H  H92  1  0.59489000  0.00583000  0.70548600  1
  H  H93  1  0.40511000  0.99417000  0.29451400  1
  H  H94  1  0.51595900  0.32627300  0.70924600  1
  H  H95  1  0.48404100  0.67372700  0.29075400  1
  H  H96  1  0.54426100  0.21374900  0.64166700  1
  H  H97  1  0.45573900  0.78625100  0.35833300  1
  H  H98  1  0.55301200  0.38071000  0.60326800  1
  H  H99  1  0.44698800  0.61929000  0.39673200  1
  H  H100  1  0.34084300  0.56192300  0.58483600  1
  H  H101  1  0.65915700  0.43807700  0.41516400  1
  H  H102  1  0.17869600  0.52383800  0.59998700  1
  H  H103  1  0.82130400  0.47616200  0.40001300  1
  H  H104  1  0.27730400  0.51940600  0.68631200  1
  H  H105  1  0.72269600  0.48059400  0.31368800  1
  H  H106  1  0.35325100  0.20846600  0.49956200  1
  H  H107  1  0.64674900  0.79153400  0.50043800  1
  H  H108  1  0.21922300  0.31891500  0.48490300  1
  H  H109  1  0.78077700  0.68108500  0.51509700  1
  H  H110  1  0.37563300  0.37494200  0.46807100  1
  H  H111  1  0.62436700  0.62505800  0.53192900  1
  C  C112  1  0.86836200  0.15756300  0.75961300  1
  C  C113  1  0.13163800  0.84243700  0.24038700  1
  C  C114  1  0.92589900  0.36120600  0.61019300  1
  C  C115  1  0.07410100  0.63879400  0.38980700  1
  C  C116  1  0.98469000  0.40695000  0.78245900  1
  C  C117  1  0.01531000  0.59305000  0.21754100  1
  C  C118  1  0.15459200  0.06401800  0.91527200  1
  C  C119  1  0.84540800  0.93598200  0.08472800  1
  C  C120  1  0.42260100  0.12735000  0.86165300  1
  C  C121  1  0.57739900  0.87265000  0.13834700  1
  C  C122  1  0.28743900  0.51203100  0.91062900  1
  C  C123  1  0.71256100  0.48796900  0.08937100  1
  C  C124  1  0.06005000  0.69809300  0.92321800  1
  C  C125  1  0.93995000  0.30190700  0.07678200  1
  C  C126  1  0.29799900  0.70481800  0.02589600  1
  C  C127  1  0.70200100  0.29518200  0.97410400  1
  C  C128  1  0.57846000  0.62448000  0.76654900  1
  C  C129  1  0.42154000  0.37552000  0.23345100  1
  C  C130  1  0.64917900  0.80970000  0.87840200  1
  C  C131  1  0.35082100  0.19030000  0.12159800  1
  C  C132  1  0.59912700  0.90662200  0.69478400  1
  C  C133  1  0.40087300  0.09337800  0.30521600  1
  C  C134  1  0.50149600  0.30882900  0.64673100  1
  C  C135  1  0.49850400  0.69117100  0.35326900  1
  C  C136  1  0.27502000  0.49838700  0.62370300  1
  C  C137  1  0.72498000  0.50161300  0.37629700  1
  C  C138  1  0.31712800  0.30462200  0.50766700  1
  C  C139  1  0.68287200  0.69537800  0.49233300  1
  C  C140  1  0.00194800  0.82712400  0.61873300  1
  C  C141  1  0.99805200  0.17287600  0.38126700  1
  C  C142  1  0.28809100  0.88202900  0.52740700  1
  C  C143  1  0.71190900  0.11797100  0.47259300  1
  O  O144  1  0.25622600  0.81186200  0.72588400  1
  O  O145  1  0.74377400  0.18813800  0.27411600  1
  O  O146  1  0.16175400  0.06839000  0.64072000  1
  O  O147  1  0.83824600  0.93161000  0.35928000  1
