# generated using pymatgen
data_V5NiH20NO22
_symmetry_space_group_name_H-M   'P 1'
_cell_length_a   8.87704900
_cell_length_b   11.17515716
_cell_length_c   11.27109625
_cell_angle_alpha   65.46745014
_cell_angle_beta   71.93233649
_cell_angle_gamma   71.82145097
_symmetry_Int_Tables_number   1
_chemical_formula_structural   V5NiH20NO22
_chemical_formula_sum   'V10 Ni2 H40 N2 O44'
_cell_volume   945.08055886
_cell_formula_units_Z   2
loop_
 _symmetry_equiv_pos_site_id
 _symmetry_equiv_pos_as_xyz
  1  'x, y, z'
loop_
 _atom_site_type_symbol
 _atom_site_label
 _atom_site_symmetry_multiplicity
 _atom_site_fract_x
 _atom_site_fract_y
 _atom_site_fract_z
 _atom_site_occupancy
  V  V0  1  0.30301300  0.26413700  0.76797500  1
  V  V1  1  0.69698700  0.73586300  0.23202500  1
  V  V2  1  0.61535000  0.22944700  0.54778100  1
  V  V3  1  0.38465000  0.77055300  0.45221900  1
  V  V4  1  0.63652500  0.28501400  0.79491600  1
  V  V5  1  0.36347500  0.71498600  0.20508400  1
  V  V6  1  0.67493200  0.50903700  0.51320200  1
  V  V7  1  0.32506800  0.49096300  0.48679800  1
  V  V8  1  0.64915200  0.45193400  0.26611100  1
  V  V9  1  0.35084800  0.54806600  0.73388900  1
  Ni  Ni10  1  0.22155400  0.26830900  0.21755100  1
  Ni  Ni11  1  0.77844600  0.73169100  0.78244900  1
  H  H12  1  0.03121700  0.11037300  0.26587100  1
  H  H13  1  0.96878300  0.88962700  0.73412900  1
  H  H14  1  0.95043600  0.17919800  0.37361200  1
  H  H15  1  0.04956400  0.82080200  0.62638800  1
  H  H16  1  0.23992600  0.16852200  0.46278500  1
  H  H17  1  0.76007400  0.83147800  0.53721500  1
  H  H18  1  0.37856900  0.25200900  0.39114300  1
  H  H19  1  0.62143100  0.74799100  0.60885700  1
  H  H20  1  0.13058000  0.48713500  0.30299100  1
  H  H21  1  0.86942000  0.51286500  0.69700900  1
  H  H22  1  0.98469900  0.48289100  0.25211000  1
  H  H23  1  0.01530100  0.51710900  0.74789000  1
  H  H24  1  0.44024600  0.39321500  0.00890200  1
  H  H25  1  0.55975400  0.60678500  0.99109800  1
  H  H26  1  0.42667200  0.43601300  0.13093400  1
  H  H27  1  0.57332800  0.56398700  0.86906600  1
  H  H28  1  0.13046600  0.38181000  0.96949100  1
  H  H29  1  0.86953400  0.61819000  0.03050900  1
  H  H30  1  0.97742300  0.34298600  0.09102100  1
  H  H31  1  0.02257700  0.65701400  0.90897900  1
  H  H32  1  0.39279700  0.13049800  0.05150200  1
  H  H33  1  0.60720300  0.86950200  0.94849800  1
  H  H34  1  0.34011700  0.02011500  0.19297400  1
  H  H35  1  0.65988300  0.97988500  0.80702600  1
  H  H36  1  0.05749100  0.96264900  0.13755000  1
  H  H37  1  0.94250900  0.03735100  0.86245000  1
  H  H38  1  0.05438300  0.10802200  0.03423800  1
  H  H39  1  0.94561700  0.89197800  0.96576200  1
  H  H40  1  0.96745100  0.17097500  0.61191200  1
  H  H41  1  0.03254900  0.82902500  0.38808800  1
  H  H42  1  0.08380800  0.24981200  0.61267000  1
  H  H43  1  0.91619200  0.75018800  0.38733000  1
  H  H44  1  0.68009900  0.09944800  0.32593700  1
  H  H45  1  0.31990100  0.90055200  0.67406300  1
  H  H46  1  0.78964800  0.07189100  0.18530400  1
  H  H47  1  0.21035200  0.92810900  0.81469600  1
  H  H48  1  0.59531800  0.16257300  0.19131600  1
  H  H49  1  0.40468200  0.83742700  0.80868400  1
  H  H50  1  0.62922500  0.99559300  0.27777000  1
  H  H51  1  0.37077500  0.00440700  0.72223000  1
  N  N52  1  0.67314900  0.08255500  0.24409400  1
  N  N53  1  0.32685100  0.91744500  0.75590600  1
  O  O54  1  0.16490100  0.17617300  0.86288700  1
  O  O55  1  0.83509900  0.82382700  0.13711300  1
  O  O56  1  0.71258000  0.11982000  0.47338600  1
  O  O57  1  0.28742000  0.88018000  0.52661400  1
  O  O58  1  0.74772000  0.20945300  0.90688400  1
  O  O59  1  0.25228000  0.79054700  0.09311600  1
  O  O60  1  0.79427800  0.62010100  0.39759300  1
  O  O61  1  0.20572200  0.37989900  0.60240700  1
  O  O62  1  0.78337700  0.57383200  0.19210400  1
  O  O63  1  0.21662300  0.42616800  0.80789600  1
  O  O64  1  0.52005000  0.64214800  0.59016000  1
  O  O65  1  0.47995000  0.35785200  0.40984000  1
  O  O66  1  0.75326900  0.34080500  0.19457600  1
  O  O67  1  0.24673100  0.65919500  0.80542400  1
  O  O68  1  0.49663400  0.55676000  0.16235800  1
  O  O69  1  0.50336600  0.44324000  0.83764200  1
  O  O70  1  0.43618600  0.16426100  0.66079800  1
  O  O71  1  0.56381400  0.83573900  0.33920200  1
  O  O72  1  0.45464400  0.20686100  0.87279300  1
  O  O73  1  0.54535600  0.79313900  0.12720700  1
  O  O74  1  0.72130300  0.18137900  0.68405100  1
  O  O75  1  0.27869700  0.81862100  0.31594900  1
  O  O76  1  0.76482900  0.41886600  0.65171700  1
  O  O77  1  0.23517100  0.58113400  0.34828300  1
  O  O78  1  0.51505200  0.59435300  0.38082100  1
  O  O79  1  0.48494800  0.40564700  0.61917900  1
  O  O80  1  0.74174600  0.37460800  0.43404200  1
  O  O81  1  0.25825400  0.62539200  0.56595800  1
  O  O82  1  0.05526400  0.14497500  0.32428000  1
  O  O83  1  0.94473600  0.85502500  0.67572000  1
  O  O84  1  0.32762600  0.19007800  0.38131400  1
  O  O85  1  0.67237400  0.80992200  0.61868600  1
  O  O86  1  0.08748400  0.43007700  0.28007900  1
  O  O87  1  0.91251600  0.56992300  0.71992100  1
  O  O88  1  0.41496800  0.36297200  0.10808900  1
  O  O89  1  0.58503200  0.63702800  0.89191100  1
  O  O90  1  0.09209500  0.34660500  0.06833200  1
  O  O91  1  0.90790500  0.65339500  0.93166800  1
  O  O92  1  0.36760400  0.10891800  0.14941500  1
  O  O93  1  0.63239600  0.89108200  0.85058500  1
  O  O94  1  0.01082900  0.05698700  0.12821500  1
  O  O95  1  0.98917100  0.94301300  0.87178500  1
  O  O96  1  0.08215700  0.16671600  0.60368400  1
  O  O97  1  0.91784300  0.83328400  0.39631600  1
