# generated using pymatgen
data_HoAu6
_symmetry_space_group_name_H-M   'P 1'
_cell_length_a   10.50533900
_cell_length_b   10.50533900
_cell_length_c   9.93202400
_cell_angle_alpha   90.00000000
_cell_angle_beta   90.00000000
_cell_angle_gamma   90.00000000
_symmetry_Int_Tables_number   1
_chemical_formula_structural   HoAu6
_chemical_formula_sum   'Ho8 Au48'
_cell_volume   1096.11949771
_cell_formula_units_Z   8
loop_
 _symmetry_equiv_pos_site_id
 _symmetry_equiv_pos_as_xyz
  1  'x, y, z'
loop_
 _atom_site_type_symbol
 _atom_site_label
 _atom_site_symmetry_multiplicity
 _atom_site_fract_x
 _atom_site_fract_y
 _atom_site_fract_z
 _atom_site_occupancy
  Ho  Ho0  1  0.32527000  0.82527000  0.03818300  1
  Ho  Ho1  1  0.67473000  0.82527000  0.53818300  1
  Ho  Ho2  1  0.32527000  0.17473000  0.53818300  1
  Ho  Ho3  1  0.67473000  0.17473000  0.03818300  1
  Ho  Ho4  1  0.17473000  0.67473000  0.46181700  1
  Ho  Ho5  1  0.82527000  0.67473000  0.96181700  1
  Ho  Ho6  1  0.17473000  0.32527000  0.96181700  1
  Ho  Ho7  1  0.82527000  0.32527000  0.46181700  1
  Au  Au8  1  0.92940500  0.76311700  0.67089900  1
  Au  Au9  1  0.07059500  0.76311700  0.17089900  1
  Au  Au10  1  0.92940500  0.23688300  0.17089900  1
  Au  Au11  1  0.07059500  0.23688300  0.67089900  1
  Au  Au12  1  0.26311700  0.42940600  0.67089900  1
  Au  Au13  1  0.26311700  0.57059500  0.17089900  1
  Au  Au14  1  0.73688300  0.42940600  0.17089900  1
  Au  Au15  1  0.73688300  0.57059500  0.67089900  1
  Au  Au16  1  0.57059500  0.73688300  0.82910100  1
  Au  Au17  1  0.42940600  0.73688300  0.32910100  1
  Au  Au18  1  0.57059500  0.26311700  0.32910100  1
  Au  Au19  1  0.42940600  0.26311700  0.82910100  1
  Au  Au20  1  0.23688300  0.07059500  0.82910100  1
  Au  Au21  1  0.23688300  0.92940500  0.32910100  1
  Au  Au22  1  0.76311700  0.07059500  0.32910100  1
  Au  Au23  1  0.76311700  0.92940500  0.82910100  1
  Au  Au24  1  0.87217000  0.05029600  0.60452500  1
  Au  Au25  1  0.12783000  0.05029600  0.10452500  1
  Au  Au26  1  0.87217000  0.94970400  0.10452500  1
  Au  Au27  1  0.12783000  0.94970400  0.60452500  1
  Au  Au28  1  0.55029600  0.37217000  0.60452500  1
  Au  Au29  1  0.55029600  0.62783000  0.10452500  1
  Au  Au30  1  0.44970400  0.37217000  0.10452500  1
  Au  Au31  1  0.44970400  0.62783000  0.60452500  1
  Au  Au32  1  0.62783000  0.44970400  0.89547500  1
  Au  Au33  1  0.37217000  0.44970400  0.39547500  1
  Au  Au34  1  0.62783000  0.55029600  0.39547500  1
  Au  Au35  1  0.37217000  0.55029600  0.89547500  1
  Au  Au36  1  0.94970400  0.12783000  0.89547500  1
  Au  Au37  1  0.94970400  0.87217000  0.39547500  1
  Au  Au38  1  0.05029600  0.12783000  0.39547500  1
  Au  Au39  1  0.05029600  0.87217000  0.89547500  1
  Au  Au40  1  0.39797000  0.89797000  0.57048300  1
  Au  Au41  1  0.60203000  0.89797000  0.07048300  1
  Au  Au42  1  0.39797000  0.10203000  0.07048300  1
  Au  Au43  1  0.60203000  0.10203000  0.57048300  1
  Au  Au44  1  0.10203000  0.60203000  0.92951700  1
  Au  Au45  1  0.89797000  0.60203000  0.42951700  1
  Au  Au46  1  0.10203000  0.39797000  0.42951700  1
  Au  Au47  1  0.89797000  0.39797000  0.92951700  1
  Au  Au48  1  0.50000000  0.00000000  0.31798900  1
  Au  Au49  1  0.50000000  0.00000000  0.81798900  1
  Au  Au50  1  0.00000000  0.50000000  0.18201100  1
  Au  Au51  1  0.00000000  0.50000000  0.68201100  1
  Au  Au52  1  0.25000000  0.75000000  0.75000000  1
  Au  Au53  1  0.75000000  0.75000000  0.25000000  1
  Au  Au54  1  0.25000000  0.25000000  0.25000000  1
  Au  Au55  1  0.75000000  0.25000000  0.75000000  1
