# generated using pymatgen
data_Rb2ZrSi3O10
_symmetry_space_group_name_H-M   'P 1'
_cell_length_a   7.36767400
_cell_length_b   10.60584700
_cell_length_c   13.52663300
_cell_angle_alpha   90.00000000
_cell_angle_beta   90.00000000
_cell_angle_gamma   90.00000000
_symmetry_Int_Tables_number   1
_chemical_formula_structural   Rb2ZrSi3O10
_chemical_formula_sum   'Rb8 Zr4 Si12 O40'
_cell_volume   1056.97682695
_cell_formula_units_Z   4
loop_
 _symmetry_equiv_pos_site_id
 _symmetry_equiv_pos_as_xyz
  1  'x, y, z'
loop_
 _atom_site_type_symbol
 _atom_site_label
 _atom_site_symmetry_multiplicity
 _atom_site_fract_x
 _atom_site_fract_y
 _atom_site_fract_z
 _atom_site_occupancy
  Rb  Rb0  1  0.29674200  0.78328400  0.12907900  1
  Rb  Rb1  1  0.79674200  0.71671600  0.87092100  1
  Rb  Rb2  1  0.70325800  0.28328400  0.37092100  1
  Rb  Rb3  1  0.20325800  0.21671600  0.62907900  1
  Rb  Rb4  1  0.76409300  0.56813600  0.58375900  1
  Rb  Rb5  1  0.26409300  0.93186400  0.41624100  1
  Rb  Rb6  1  0.23590700  0.06813600  0.91624100  1
  Rb  Rb7  1  0.73590700  0.43186400  0.08375900  1
  Zr  Zr8  1  0.24320200  0.55835200  0.71077000  1
  Zr  Zr9  1  0.74320200  0.94164800  0.28923000  1
  Zr  Zr10  1  0.75679800  0.05835200  0.78923000  1
  Zr  Zr11  1  0.25679800  0.44164800  0.21077000  1
  Si  Si12  1  0.47390400  0.83696800  0.67565800  1
  Si  Si13  1  0.97390400  0.66303200  0.32434200  1
  Si  Si14  1  0.52609600  0.33696800  0.82434200  1
  Si  Si15  1  0.02609600  0.16303200  0.17565800  1
  Si  Si16  1  0.75977300  0.96695500  0.55116000  1
  Si  Si17  1  0.25977300  0.53304500  0.44884000  1
  Si  Si18  1  0.24022700  0.46695500  0.94884000  1
  Si  Si19  1  0.74022700  0.03304500  0.05116000  1
  Si  Si20  1  0.93564600  0.35748300  0.82902000  1
  Si  Si21  1  0.43564600  0.14251700  0.17098000  1
  Si  Si22  1  0.06435400  0.85748300  0.67098000  1
  Si  Si23  1  0.56435400  0.64251700  0.32902000  1
  O  O24  1  0.25206900  0.58029400  0.86755400  1
  O  O25  1  0.75206900  0.91970600  0.13244600  1
  O  O26  1  0.74793100  0.08029400  0.63244600  1
  O  O27  1  0.24793100  0.41970600  0.36755400  1
  O  O28  1  0.45440600  0.68659400  0.69183700  1
  O  O29  1  0.95440600  0.81340600  0.30816300  1
  O  O30  1  0.54559400  0.18659400  0.80816300  1
  O  O31  1  0.04559400  0.31340600  0.19183700  1
  O  O32  1  0.23493500  0.49388200  0.56323200  1
  O  O33  1  0.73493500  0.00611800  0.43676800  1
  O  O34  1  0.76506500  0.99388200  0.93676800  1
  O  O35  1  0.26506500  0.50611800  0.06323200  1
  O  O36  1  0.02060200  0.43621400  0.73720600  1
  O  O37  1  0.52060200  0.06378600  0.26279400  1
  O  O38  1  0.97939800  0.93621400  0.76279400  1
  O  O39  1  0.47939800  0.56378600  0.23720600  1
  O  O40  1  0.43440900  0.40680600  0.72902300  1
  O  O41  1  0.93440900  0.09319400  0.27097700  1
  O  O42  1  0.56559100  0.90680600  0.77097700  1
  O  O43  1  0.06559100  0.59319400  0.22902300  1
  O  O44  1  0.05671400  0.70624000  0.69013800  1
  O  O45  1  0.55671400  0.79376000  0.30986200  1
  O  O46  1  0.94328600  0.20624000  0.80986200  1
  O  O47  1  0.44328600  0.29376000  0.19013800  1
  O  O48  1  0.27608900  0.90325600  0.64962800  1
  O  O49  1  0.77608900  0.59674400  0.35037200  1
  O  O50  1  0.72391100  0.40325600  0.85037200  1
  O  O51  1  0.22391100  0.09674400  0.14962800  1
  O  O52  1  0.95896700  0.89563300  0.56690600  1
  O  O53  1  0.45896700  0.60436700  0.43309400  1
  O  O54  1  0.04103300  0.39563300  0.93309400  1
  O  O55  1  0.54103300  0.10436700  0.06690600  1
  O  O56  1  0.60200200  0.85984800  0.57745600  1
  O  O57  1  0.10200200  0.64015200  0.42254400  1
  O  O58  1  0.39799800  0.35984800  0.92254400  1
  O  O59  1  0.89799800  0.14015200  0.07745600  1
  O  O60  1  0.41919900  0.79895300  0.91331600  1
  O  O61  1  0.91919900  0.70104700  0.08668400  1
  O  O62  1  0.58080100  0.29895300  0.58668400  1
  O  O63  1  0.08080100  0.20104700  0.41331600  1
