# generated using pymatgen
data_Ca5(Si3O11)2
_symmetry_space_group_name_H-M   'P 1'
_cell_length_a   6.74251662
_cell_length_b   6.74251662
_cell_length_c   23.13628229
_cell_angle_alpha   83.78075592
_cell_angle_beta   83.78075592
_cell_angle_gamma   66.77729193
_symmetry_Int_Tables_number   1
_chemical_formula_structural   Ca5(Si3O11)2
_chemical_formula_sum   'Ca10 Si12 O44'
_cell_volume   958.42169004
_cell_formula_units_Z   2
loop_
 _symmetry_equiv_pos_site_id
 _symmetry_equiv_pos_as_xyz
  1  'x, y, z'
loop_
 _atom_site_type_symbol
 _atom_site_label
 _atom_site_symmetry_multiplicity
 _atom_site_fract_x
 _atom_site_fract_y
 _atom_site_fract_z
 _atom_site_occupancy
  Ca  Ca0  1  0.52000600  0.75457400  0.96238000  1
  Ca  Ca1  1  0.75457400  0.52000600  0.46238000  1
  Ca  Ca2  1  0.22938100  0.48759100  0.53644600  1
  Ca  Ca3  1  0.48759100  0.22938100  0.03644600  1
  Ca  Ca4  1  0.02364000  0.25712300  0.94614700  1
  Ca  Ca5  1  0.25712300  0.02364000  0.44614700  1
  Ca  Ca6  1  0.73674000  0.99891500  0.54719700  1
  Ca  Ca7  1  0.99891500  0.73674000  0.04719700  1
  Ca  Ca8  1  0.49086800  0.89501200  0.70572100  1
  Ca  Ca9  1  0.89501200  0.49086800  0.20572100  1
  Si  Si10  1  0.94487500  0.26114600  0.09144000  1
  Si  Si11  1  0.26114600  0.94487500  0.59144000  1
  Si  Si12  1  0.73008900  0.06535400  0.41051300  1
  Si  Si13  1  0.06535400  0.73008900  0.91051300  1
  Si  Si14  1  0.13211300  0.87521300  0.17907100  1
  Si  Si15  1  0.87521300  0.13211300  0.67907100  1
  Si  Si16  1  0.10932600  0.87939900  0.31970700  1
  Si  Si17  1  0.87939900  0.10932600  0.81970700  1
  Si  Si18  1  0.52104600  0.68418200  0.09503400  1
  Si  Si19  1  0.68418200  0.52104600  0.59503400  1
  Si  Si20  1  0.30815200  0.49336400  0.40528700  1
  Si  Si21  1  0.49336400  0.30815200  0.90528700  1
  O  O22  1  0.04549800  0.13712400  0.15431300  1
  O  O23  1  0.13712400  0.04549800  0.65431300  1
  O  O24  1  0.86388000  0.96832400  0.34940800  1
  O  O25  1  0.96832400  0.86388000  0.84940800  1
  O  O26  1  0.39280100  0.77549900  0.15753700  1
  O  O27  1  0.77549900  0.39280100  0.65753700  1
  O  O28  1  0.22845500  0.62455400  0.34233100  1
  O  O29  1  0.62455400  0.22845500  0.84233100  1
  O  O30  1  0.60584800  0.85112500  0.05436400  1
  O  O31  1  0.85112500  0.60584800  0.55436400  1
  O  O32  1  0.13058100  0.41285900  0.44282600  1
  O  O33  1  0.41285900  0.13058100  0.94282600  1
  O  O34  1  0.10986200  0.34304100  0.05009100  1
  O  O35  1  0.34304100  0.10986200  0.55009100  1
  O  O36  1  0.64158500  0.89583600  0.44861500  1
  O  O37  1  0.89583600  0.64158500  0.94861500  1
  O  O38  1  0.38899700  0.60172100  0.05539400  1
  O  O39  1  0.60172100  0.38899700  0.55539400  1
  O  O40  1  0.37401800  0.63703600  0.44643700  1
  O  O41  1  0.63703600  0.37401800  0.94643700  1
  O  O42  1  0.86004800  0.12074300  0.05541000  1
  O  O43  1  0.12074300  0.86004800  0.55541000  1
  O  O44  1  0.86921000  0.13662500  0.45190200  1
  O  O45  1  0.13662500  0.86921000  0.95190200  1
  O  O46  1  0.74582400  0.48037000  0.11837300  1
  O  O47  1  0.48037000  0.74582400  0.61837300  1
  O  O48  1  0.52192100  0.27818300  0.38802000  1
  O  O49  1  0.27818300  0.52192100  0.88802000  1
  O  O50  1  0.10582100  0.88153300  0.24950500  1
  O  O51  1  0.88153300  0.10582100  0.74950500  1
  O  O52  1  0.33211100  0.65061200  0.75028700  1
  O  O53  1  0.65061200  0.33211100  0.25028700  1
  O  O54  1  0.00995800  0.73911900  0.15621900  1
  O  O55  1  0.73911900  0.00995800  0.65621900  1
  O  O56  1  0.24651500  0.01059900  0.34098000  1
  O  O57  1  0.01059900  0.24651500  0.84098000  1
  O  O58  1  0.60516700  0.15269500  0.13481200  1
  O  O59  1  0.15269500  0.60516700  0.63481200  1
  O  O60  1  0.71413500  0.62116800  0.33639500  1
  O  O61  1  0.62116800  0.71413500  0.83639500  1
  O  O62  1  0.26852700  0.09383600  0.78254200  1
  O  O63  1  0.09383600  0.26852700  0.28254200  1
  O  O64  1  0.73304300  0.66068300  0.79049500  1
  O  O65  1  0.66068300  0.73304300  0.29049500  1
