# generated using pymatgen
data_TcC5ClO5
_symmetry_space_group_name_H-M   'P 1'
_cell_length_a   6.06677300
_cell_length_b   11.72893000
_cell_length_c   11.78550500
_cell_angle_alpha   90.00000000
_cell_angle_beta   90.00000000
_cell_angle_gamma   90.00000000
_symmetry_Int_Tables_number   1
_chemical_formula_structural   TcC5ClO5
_chemical_formula_sum   'Tc4 C20 Cl4 O20'
_cell_volume   838.61830177
_cell_formula_units_Z   4
loop_
 _symmetry_equiv_pos_site_id
 _symmetry_equiv_pos_as_xyz
  1  'x, y, z'
loop_
 _atom_site_type_symbol
 _atom_site_label
 _atom_site_symmetry_multiplicity
 _atom_site_fract_x
 _atom_site_fract_y
 _atom_site_fract_z
 _atom_site_occupancy
  Tc  Tc0  1  0.05083300  0.87533200  0.25000000  1
  Tc  Tc1  1  0.44916700  0.37533200  0.25000000  1
  Tc  Tc2  1  0.94916700  0.12466800  0.75000000  1
  Tc  Tc3  1  0.55083300  0.62466800  0.75000000  1
  C  C4  1  0.19105000  0.97080100  0.12853900  1
  C  C5  1  0.30895000  0.47080100  0.37146100  1
  C  C6  1  0.80895000  0.02919900  0.62853900  1
  C  C7  1  0.69105000  0.52919900  0.87146100  1
  C  C8  1  0.80895000  0.02919900  0.87146100  1
  C  C9  1  0.69105000  0.52919900  0.62853900  1
  C  C10  1  0.19105000  0.97080100  0.37146100  1
  C  C11  1  0.30895000  0.47080100  0.12853900  1
  C  C12  1  0.91670300  0.77571100  0.37139000  1
  C  C13  1  0.58329700  0.27571100  0.12861000  1
  C  C14  1  0.08329700  0.22428900  0.87139000  1
  C  C15  1  0.41670300  0.72428900  0.62861000  1
  C  C16  1  0.08329700  0.22428900  0.62861000  1
  C  C17  1  0.41670300  0.72428900  0.87139000  1
  C  C18  1  0.91670300  0.77571100  0.12861000  1
  C  C19  1  0.58329700  0.27571100  0.37139000  1
  C  C20  1  0.79540000  0.97198700  0.25000000  1
  C  C21  1  0.70460000  0.47198700  0.25000000  1
  C  C22  1  0.20460000  0.02801300  0.75000000  1
  C  C23  1  0.29540000  0.52801300  0.75000000  1
  Cl  Cl24  1  0.38141200  0.74902400  0.25000000  1
  Cl  Cl25  1  0.11858800  0.24902400  0.25000000  1
  Cl  Cl26  1  0.61858800  0.25097600  0.75000000  1
  Cl  Cl27  1  0.88141200  0.75097600  0.75000000  1
  O  O28  1  0.26471400  0.02431300  0.05594200  1
  O  O29  1  0.23528600  0.52431300  0.44405800  1
  O  O30  1  0.73528600  0.97568700  0.55594200  1
  O  O31  1  0.76471400  0.47568700  0.94405800  1
  O  O32  1  0.73528600  0.97568700  0.94405800  1
  O  O33  1  0.76471400  0.47568700  0.55594200  1
  O  O34  1  0.26471400  0.02431300  0.44405800  1
  O  O35  1  0.23528600  0.52431300  0.05594200  1
  O  O36  1  0.84074900  0.71970600  0.44126200  1
  O  O37  1  0.65925100  0.21970600  0.05873800  1
  O  O38  1  0.15925100  0.28029400  0.94126200  1
  O  O39  1  0.34074900  0.78029400  0.55873800  1
  O  O40  1  0.15925100  0.28029400  0.55873800  1
  O  O41  1  0.34074900  0.78029400  0.94126200  1
  O  O42  1  0.84074900  0.71970600  0.05873800  1
  O  O43  1  0.65925100  0.21970600  0.44126200  1
  O  O44  1  0.64207900  0.03143600  0.25000000  1
  O  O45  1  0.85792100  0.53143600  0.25000000  1
  O  O46  1  0.35792100  0.96856400  0.75000000  1
  O  O47  1  0.14207900  0.46856400  0.75000000  1
