# generated using pymatgen
data_Y3In5
_symmetry_space_group_name_H-M   'P 1'
_cell_length_a   6.80407300
_cell_length_b   10.97281700
_cell_length_c   12.71443800
_cell_angle_alpha   90.00000000
_cell_angle_beta   90.00000000
_cell_angle_gamma   90.00000000
_symmetry_Int_Tables_number   1
_chemical_formula_structural   Y3In5
_chemical_formula_sum   'Y12 In20'
_cell_volume   949.25800701
_cell_formula_units_Z   4
loop_
 _symmetry_equiv_pos_site_id
 _symmetry_equiv_pos_as_xyz
  1  'x, y, z'
loop_
 _atom_site_type_symbol
 _atom_site_label
 _atom_site_symmetry_multiplicity
 _atom_site_fract_x
 _atom_site_fract_y
 _atom_site_fract_z
 _atom_site_occupancy
  Y  Y0  1  0.34727100  0.75000000  0.05593900  1
  Y  Y1  1  0.15272900  0.75000000  0.55593900  1
  Y  Y2  1  0.65272900  0.25000000  0.94406100  1
  Y  Y3  1  0.84727100  0.25000000  0.44406100  1
  Y  Y4  1  0.89199900  0.49721200  0.14348100  1
  Y  Y5  1  0.60800100  0.00278800  0.64348100  1
  Y  Y6  1  0.10800100  0.99721200  0.85651900  1
  Y  Y7  1  0.39199900  0.50278800  0.35651900  1
  Y  Y8  1  0.10800100  0.50278800  0.85651900  1
  Y  Y9  1  0.39199900  0.99721200  0.35651900  1
  Y  Y10  1  0.89199900  0.00278800  0.14348100  1
  Y  Y11  1  0.60800100  0.49721200  0.64348100  1
  In  In12  1  0.62030800  0.75000000  0.50261100  1
  In  In13  1  0.87969200  0.75000000  0.00261100  1
  In  In14  1  0.37969200  0.25000000  0.49738900  1
  In  In15  1  0.12030800  0.25000000  0.99738900  1
  In  In16  1  0.65127900  0.75000000  0.24934700  1
  In  In17  1  0.84872100  0.75000000  0.74934700  1
  In  In18  1  0.34872100  0.25000000  0.75065300  1
  In  In19  1  0.15127900  0.25000000  0.25065300  1
  In  In20  1  0.12603800  0.75000000  0.28765800  1
  In  In21  1  0.37396200  0.75000000  0.78765800  1
  In  In22  1  0.87396200  0.25000000  0.71234200  1
  In  In23  1  0.62603800  0.25000000  0.21234200  1
  In  In24  1  0.87577700  0.54457800  0.40323200  1
  In  In25  1  0.62422300  0.95542200  0.90323200  1
  In  In26  1  0.12422300  0.04457800  0.59676800  1
  In  In27  1  0.37577700  0.45542200  0.09676800  1
  In  In28  1  0.12422300  0.45542200  0.59676800  1
  In  In29  1  0.37577700  0.04457800  0.09676800  1
  In  In30  1  0.87577700  0.95542200  0.40323200  1
  In  In31  1  0.62422300  0.54457800  0.90323200  1
