# generated using pymatgen
data_Ti2H11(N2F3)4
_symmetry_space_group_name_H-M   'P 1'
_cell_length_a   7.74348267
_cell_length_b   9.75447710
_cell_length_c   10.06592900
_cell_angle_alpha   90.00000000
_cell_angle_beta   90.00000000
_cell_angle_gamma   94.17293307
_symmetry_Int_Tables_number   1
_chemical_formula_structural   Ti2H11(N2F3)4
_chemical_formula_sum   'Ti4 H22 N16 F24'
_cell_volume   758.30047507
_cell_formula_units_Z   2
loop_
 _symmetry_equiv_pos_site_id
 _symmetry_equiv_pos_as_xyz
  1  'x, y, z'
loop_
 _atom_site_type_symbol
 _atom_site_label
 _atom_site_symmetry_multiplicity
 _atom_site_fract_x
 _atom_site_fract_y
 _atom_site_fract_z
 _atom_site_occupancy
  Ti  Ti0  1  0.75270700  0.00394600  0.82245200  1
  Ti  Ti1  1  0.24729300  0.99605400  0.32245200  1
  Ti  Ti2  1  0.28256800  0.51319500  0.63980400  1
  Ti  Ti3  1  0.71743200  0.48680500  0.13980400  1
  H  H4  1  0.15321200  0.27362300  0.25204600  1
  H  H5  1  0.84678800  0.72637700  0.75204600  1
  H  H6  1  0.84087000  0.62812900  0.41731800  1
  H  H7  1  0.15913000  0.37187100  0.91731800  1
  H  H8  1  0.92716200  0.77552400  0.50705700  1
  H  H9  1  0.07283800  0.22447600  0.00705700  1
  H  H10  1  0.56306100  0.68727100  0.47610100  1
  H  H11  1  0.43693900  0.31272900  0.97610100  1
  H  H12  1  0.64886600  0.84160600  0.54513300  1
  H  H13  1  0.35113400  0.15839400  0.04513300  1
  H  H14  1  0.65687100  0.81541700  0.37771400  1
  H  H15  1  0.34312900  0.18458300  0.87771400  1
  H  H16  1  0.08420300  0.71641400  0.96341200  1
  H  H17  1  0.91579700  0.28358600  0.46341200  1
  H  H18  1  0.17522800  0.85682100  0.05017000  1
  H  H19  1  0.82477200  0.14317900  0.55017000  1
  H  H20  1  0.36843200  0.65994800  0.90296100  1
  H  H21  1  0.63156800  0.34005200  0.40296100  1
  H  H22  1  0.35157900  0.65694000  0.07581100  1
  H  H23  1  0.64842100  0.34306000  0.57581100  1
  H  H24  1  0.45345100  0.78933800  0.99444200  1
  H  H25  1  0.54654900  0.21066200  0.49444200  1
  N  N26  1  0.73993700  0.94913800  0.24068100  1
  N  N27  1  0.26006300  0.05086200  0.74068100  1
  N  N28  1  0.74059700  0.04748800  0.18481500  1
  N  N29  1  0.25940300  0.95251200  0.68481500  1
  N  N30  1  0.23255200  0.55615400  0.26115200  1
  N  N31  1  0.76744800  0.44384600  0.76115200  1
  N  N32  1  0.20888500  0.44259000  0.25800000  1
  N  N33  1  0.79111500  0.55741000  0.75800000  1
  N  N34  1  0.82372200  0.70868100  0.48362800  1
  N  N35  1  0.17627800  0.29131900  0.98362800  1
  N  N36  1  0.66484900  0.76725600  0.46991700  1
  N  N37  1  0.33515100  0.23274400  0.96991700  1
  N  N38  1  0.19144000  0.78362000  0.97748500  1
  N  N39  1  0.80856000  0.21638000  0.47748500  1
  N  N40  1  0.34630900  0.71748300  0.99069000  1
  N  N41  1  0.65369100  0.28251700  0.49069000  1
  F  F42  1  0.93168100  0.01339600  0.94161800  1
  F  F43  1  0.06831900  0.98660400  0.44161800  1
  F  F44  1  0.89053200  0.12440800  0.71599300  1
  F  F45  1  0.10946800  0.87559200  0.21599300  1
  F  F46  1  0.63727000  0.95810500  0.65818800  1
  F  F47  1  0.36273000  0.04189500  0.15818800  1
  F  F48  1  0.63251900  0.85924400  0.91166500  1
  F  F49  1  0.36748100  0.14075600  0.41166500  1
  F  F50  1  0.89665800  0.82063500  0.74416100  1
  F  F51  1  0.10334200  0.17936500  0.24416100  1
  F  F52  1  0.61084100  0.12791700  0.88102400  1
  F  F53  1  0.38915900  0.87208300  0.38102400  1
  F  F54  1  0.45251100  0.54626200  0.50068200  1
  F  F55  1  0.54748900  0.45373800  0.00068200  1
  F  F56  1  0.42766000  0.63940600  0.74616500  1
  F  F57  1  0.57234000  0.36059400  0.24616500  1
  F  F58  1  0.15358200  0.49177800  0.80352300  1
  F  F59  1  0.84641800  0.50822200  0.30352300  1
  F  F60  1  0.12902100  0.39155700  0.54582800  1
  F  F61  1  0.87097900  0.60844300  0.04582800  1
  F  F62  1  0.15899500  0.65574100  0.57721700  1
  F  F63  1  0.84100500  0.34425900  0.07721700  1
  F  F64  1  0.41296200  0.36319100  0.68926700  1
  F  F65  1  0.58703800  0.63680900  0.18926700  1
