# generated using pymatgen
data_Na9H4S4BrO20
_symmetry_space_group_name_H-M   'P 1'
_cell_length_a   15.11347200
_cell_length_b   15.11347200
_cell_length_c   8.61150800
_cell_angle_alpha   90.00000000
_cell_angle_beta   90.00000000
_cell_angle_gamma   90.00000000
_symmetry_Int_Tables_number   1
_chemical_formula_structural   Na9H4S4BrO20
_chemical_formula_sum   'Na36 H16 S16 Br4 O80'
_cell_volume   1967.01513194
_cell_formula_units_Z   4
loop_
 _symmetry_equiv_pos_site_id
 _symmetry_equiv_pos_as_xyz
  1  'x, y, z'
loop_
 _atom_site_type_symbol
 _atom_site_label
 _atom_site_symmetry_multiplicity
 _atom_site_fract_x
 _atom_site_fract_y
 _atom_site_fract_z
 _atom_site_occupancy
  Na  Na0  1  0.89818600  0.87657600  0.18447200  1
  Na  Na1  1  0.10181400  0.12342400  0.18447200  1
  Na  Na2  1  0.62342400  0.39818600  0.18447200  1
  Na  Na3  1  0.37657600  0.60181400  0.18447200  1
  Na  Na4  1  0.60181400  0.62342400  0.81552800  1
  Na  Na5  1  0.39818600  0.37657600  0.81552800  1
  Na  Na6  1  0.87657600  0.10181400  0.81552800  1
  Na  Na7  1  0.12342400  0.89818600  0.81552800  1
  Na  Na8  1  0.00000000  0.00000000  0.50000000  1
  Na  Na9  1  0.50000000  0.50000000  0.50000000  1
  Na  Na10  1  0.87740400  0.85880000  0.79502800  1
  Na  Na11  1  0.12259600  0.14120000  0.79502800  1
  Na  Na12  1  0.64120000  0.37740400  0.79502800  1
  Na  Na13  1  0.35880000  0.62259600  0.79502800  1
  Na  Na14  1  0.62259600  0.64120000  0.20497200  1
  Na  Na15  1  0.37740400  0.35880000  0.20497200  1
  Na  Na16  1  0.85880000  0.12259600  0.20497200  1
  Na  Na17  1  0.14120000  0.87740400  0.20497200  1
  Na  Na18  1  0.60420000  0.87490200  0.31273700  1
  Na  Na19  1  0.39580000  0.12509800  0.31273700  1
  Na  Na20  1  0.62509800  0.10420000  0.31273700  1
  Na  Na21  1  0.37490200  0.89580000  0.31273700  1
  Na  Na22  1  0.89580000  0.62509800  0.68726300  1
  Na  Na23  1  0.10420000  0.37490200  0.68726300  1
  Na  Na24  1  0.87490200  0.39580000  0.68726300  1
  Na  Na25  1  0.12509800  0.60420000  0.68726300  1
  Na  Na26  1  0.50000000  0.00000000  0.98047900  1
  Na  Na27  1  0.00000000  0.50000000  0.01952100  1
  Na  Na28  1  0.62054300  0.86115300  0.70109900  1
  Na  Na29  1  0.37945700  0.13884700  0.70109900  1
  Na  Na30  1  0.63884700  0.12054300  0.70109900  1
  Na  Na31  1  0.36115300  0.87945700  0.70109900  1
  Na  Na32  1  0.87945700  0.63884700  0.29890100  1
  Na  Na33  1  0.12054300  0.36115300  0.29890100  1
  Na  Na34  1  0.86115300  0.37945700  0.29890100  1
  Na  Na35  1  0.13884700  0.62054300  0.29890100  1
  H  H36  1  0.77565000  0.81582100  0.38170200  1
  H  H37  1  0.22435000  0.18417900  0.38170200  1
  H  H38  1  0.68417900  0.27565000  0.38170200  1
  H  H39  1  0.31582100  0.72435000  0.38170200  1
  H  H40  1  0.72435000  0.68417900  0.61829800  1
  H  H41  1  0.27565000  0.31582100  0.61829800  1
  H  H42  1  0.81582100  0.22435000  0.61829800  1
  H  H43  1  0.18417900  0.77565000  0.61829800  1
  H  H44  1  0.72690200  0.81419200  0.11225000  1
  H  H45  1  0.27309800  0.18580800  0.11225000  1
  H  H46  1  0.68580800  0.22690200  0.11225000  1
  H  H47  1  0.31419200  0.77309800  0.11225000  1
  H  H48  1  0.77309800  0.68580800  0.88775000  1
  H  H49  1  0.22690200  0.31419200  0.88775000  1
  H  H50  1  0.81419200  0.27309800  0.88775000  1
  H  H51  1  0.18580800  0.72690200  0.88775000  1
  S  S52  1  0.79030600  0.98472500  0.49672800  1
  S  S53  1  0.20969400  0.01527500  0.49672800  1
  S  S54  1  0.51527500  0.29030600  0.49672800  1
  S  S55  1  0.48472500  0.70969400  0.49672800  1
  S  S56  1  0.70969400  0.51527500  0.50327200  1
  S  S57  1  0.29030600  0.48472500  0.50327200  1
  S  S58  1  0.98472500  0.20969400  0.50327200  1
  S  S59  1  0.01527500  0.79030600  0.50327200  1
  S  S60  1  0.70984800  0.98465100  0.00013200  1
  S  S61  1  0.29015200  0.01534900  0.00013200  1
  S  S62  1  0.51534900  0.20984800  0.00013200  1
  S  S63  1  0.48465100  0.79015200  0.00013200  1
  S  S64  1  0.79015200  0.51534900  0.99986800  1
  S  S65  1  0.20984800  0.48465100  0.99986800  1
  S  S66  1  0.98465100  0.29015200  0.99986800  1
  S  S67  1  0.01534900  0.70984800  0.99986800  1
  Br  Br68  1  0.00000000  0.00000000  0.00000000  1
  Br  Br69  1  0.50000000  0.50000000  0.00000000  1
  Br  Br70  1  0.50000000  0.00000000  0.50767000  1
  Br  Br71  1  0.00000000  0.50000000  0.49233000  1
  O  O72  1  0.79193900  0.77419700  0.29454900  1
  O  O73  1  0.20806100  0.22580300  0.29454900  1
  O  O74  1  0.72580300  0.29193900  0.29454900  1
  O  O75  1  0.27419700  0.70806100  0.29454900  1
  O  O76  1  0.70806100  0.72580300  0.70545100  1
  O  O77  1  0.29193900  0.27419700  0.70545100  1
  O  O78  1  0.77419700  0.20806100  0.70545100  1
  O  O79  1  0.22580300  0.79193900  0.70545100  1
  O  O80  1  0.71058200  0.77397900  0.20130400  1
  O  O81  1  0.28941800  0.22602100  0.20130400  1
  O  O82  1  0.72602100  0.21058200  0.20130400  1
  O  O83  1  0.27397900  0.78941800  0.20130400  1
  O  O84  1  0.78941800  0.72602100  0.79869600  1
  O  O85  1  0.21058200  0.27397900  0.79869600  1
  O  O86  1  0.77397900  0.28941800  0.79869600  1
  O  O87  1  0.22602100  0.71058200  0.79869600  1
  O  O88  1  0.73320500  0.06464600  0.49731100  1
  O  O89  1  0.26679500  0.93535400  0.49731100  1
  O  O90  1  0.43535400  0.23320500  0.49731100  1
  O  O91  1  0.56464600  0.76679500  0.49731100  1
  O  O92  1  0.76679500  0.43535400  0.50268900  1
  O  O93  1  0.23320500  0.56464600  0.50268900  1
  O  O94  1  0.06464600  0.26679500  0.50268900  1
  O  O95  1  0.93535400  0.73320500  0.50268900  1
  O  O96  1  0.84660900  0.98317200  0.63972400  1
  O  O97  1  0.15339100  0.01682800  0.63972400  1
  O  O98  1  0.51682800  0.34660900  0.63972400  1
  O  O99  1  0.48317200  0.65339100  0.63972400  1
  O  O100  1  0.65339100  0.51682800  0.36027600  1
  O  O101  1  0.34660900  0.48317200  0.36027600  1
  O  O102  1  0.98317200  0.15339100  0.36027600  1
  O  O103  1  0.01682800  0.84660900  0.36027600  1
  O  O104  1  0.73417300  0.90237100  0.49171000  1
  O  O105  1  0.26582700  0.09762900  0.49171000  1
  O  O106  1  0.59762900  0.23417300  0.49171000  1
  O  O107  1  0.40237100  0.76582700  0.49171000  1
  O  O108  1  0.76582700  0.59762900  0.50829000  1
  O  O109  1  0.23417300  0.40237100  0.50829000  1
  O  O110  1  0.90237100  0.26582700  0.50829000  1
  O  O111  1  0.09762900  0.73417300  0.50829000  1
  O  O112  1  0.85006700  0.98683000  0.35807500  1
  O  O113  1  0.14993300  0.01317000  0.35807500  1
  O  O114  1  0.51317000  0.35006700  0.35807500  1
  O  O115  1  0.48683000  0.64993300  0.35807500  1
  O  O116  1  0.64993300  0.51317000  0.64192500  1
  O  O117  1  0.35006700  0.48683000  0.64192500  1
  O  O118  1  0.98683000  0.14993300  0.64192500  1
  O  O119  1  0.01317000  0.85006700  0.64192500  1
  O  O120  1  0.76728800  0.06442800  0.00030100  1
  O  O121  1  0.23271200  0.93557200  0.00030100  1
  O  O122  1  0.43557200  0.26728800  0.00030100  1
  O  O123  1  0.56442800  0.73271200  0.00030100  1
  O  O124  1  0.73271200  0.43557200  0.99969900  1
  O  O125  1  0.26728800  0.56442800  0.99969900  1
  O  O126  1  0.06442800  0.23271200  0.99969900  1
  O  O127  1  0.93557200  0.76728800  0.99969900  1
  O  O128  1  0.65279000  0.98518400  0.85786900  1
  O  O129  1  0.34721000  0.01481600  0.85786900  1
  O  O130  1  0.51481600  0.15279000  0.85786900  1
  O  O131  1  0.48518400  0.84721000  0.85786900  1
  O  O132  1  0.84721000  0.51481600  0.14213100  1
  O  O133  1  0.15279000  0.48518400  0.14213100  1
  O  O134  1  0.98518400  0.34721000  0.14213100  1
  O  O135  1  0.01481600  0.65279000  0.14213100  1
  O  O136  1  0.76583100  0.90213800  0.00152700  1
  O  O137  1  0.23416900  0.09786200  0.00152700  1
  O  O138  1  0.59786200  0.26583100  0.00152700  1
  O  O139  1  0.40213800  0.73416900  0.00152700  1
  O  O140  1  0.73416900  0.59786200  0.99847300  1
  O  O141  1  0.26583100  0.40213800  0.99847300  1
  O  O142  1  0.90213800  0.23416900  0.99847300  1
  O  O143  1  0.09786200  0.76583100  0.99847300  1
  O  O144  1  0.65089300  0.98520300  0.13954300  1
  O  O145  1  0.34910700  0.01479700  0.13954300  1
  O  O146  1  0.51479700  0.15089300  0.13954300  1
  O  O147  1  0.48520300  0.84910700  0.13954300  1
  O  O148  1  0.84910700  0.51479700  0.86045700  1
  O  O149  1  0.15089300  0.48520300  0.86045700  1
  O  O150  1  0.98520300  0.34910700  0.86045700  1
  O  O151  1  0.01479700  0.65089300  0.86045700  1
