# generated using pymatgen
data_PbCNO6
_symmetry_space_group_name_H-M   'P 1'
_cell_length_a   8.08361500
_cell_length_b   6.20867300
_cell_length_c   10.26459469
_cell_angle_alpha   75.50864962
_cell_angle_beta   90.00000000
_cell_angle_gamma   90.00000000
_symmetry_Int_Tables_number   1
_chemical_formula_structural   PbCNO6
_chemical_formula_sum   'Pb4 C4 N4 O24'
_cell_volume   498.77508940
_cell_formula_units_Z   4
loop_
 _symmetry_equiv_pos_site_id
 _symmetry_equiv_pos_as_xyz
  1  'x, y, z'
loop_
 _atom_site_type_symbol
 _atom_site_label
 _atom_site_symmetry_multiplicity
 _atom_site_fract_x
 _atom_site_fract_y
 _atom_site_fract_z
 _atom_site_occupancy
  Pb  Pb0  1  0.42107600  0.50580200  0.73139600  1
  Pb  Pb1  1  0.92107600  0.99419800  0.26860400  1
  Pb  Pb2  1  0.57892400  0.49419800  0.26860400  1
  Pb  Pb3  1  0.07892400  0.00580200  0.73139600  1
  C  C4  1  0.54897400  0.93296000  0.45596700  1
  C  C5  1  0.04897400  0.56704000  0.54403300  1
  C  C6  1  0.45102600  0.06704000  0.54403300  1
  C  C7  1  0.95102600  0.43296000  0.45596700  1
  N  N8  1  0.70417500  0.80108800  0.83123000  1
  N  N9  1  0.20417500  0.69891200  0.16877000  1
  N  N10  1  0.29582500  0.19891200  0.16877000  1
  N  N11  1  0.79582500  0.30108800  0.83123000  1
  O  O12  1  0.14057800  0.44671000  0.63377200  1
  O  O13  1  0.64057800  0.05329000  0.36622800  1
  O  O14  1  0.85942200  0.55329000  0.36622800  1
  O  O15  1  0.35942200  0.94671000  0.63377200  1
  O  O16  1  0.52802700  0.72668000  0.47988500  1
  O  O17  1  0.02802700  0.77332000  0.52011500  1
  O  O18  1  0.47197300  0.27332000  0.52011500  1
  O  O19  1  0.97197300  0.22668000  0.47988500  1
  O  O20  1  0.74109600  0.79347600  0.71262800  1
  O  O21  1  0.24109600  0.70652400  0.28737200  1
  O  O22  1  0.25890400  0.20652400  0.28737200  1
  O  O23  1  0.75890400  0.29347600  0.71262800  1
  O  O24  1  0.55716300  0.76497700  0.87386300  1
  O  O25  1  0.05716300  0.73502300  0.12613700  1
  O  O26  1  0.44283700  0.23502300  0.12613700  1
  O  O27  1  0.94283700  0.26497700  0.87386300  1
  O  O28  1  0.68487300  0.34305700  0.90833500  1
  O  O29  1  0.18487300  0.15694300  0.09166500  1
  O  O30  1  0.31512700  0.65694300  0.09166500  1
  O  O31  1  0.81512700  0.84305700  0.90833500  1
  O  O32  1  0.31028700  0.13537300  0.83341700  1
  O  O33  1  0.81028700  0.36462700  0.16658300  1
  O  O34  1  0.68971300  0.86462700  0.16658300  1
  O  O35  1  0.18971300  0.63537300  0.83341700  1
