# generated using pymatgen
data_TlB5O12
_symmetry_space_group_name_H-M   'P 1'
_cell_length_a   7.38690100
_cell_length_b   9.87779300
_cell_length_c   14.12778189
_cell_angle_alpha   85.64688368
_cell_angle_beta   90.00000000
_cell_angle_gamma   90.00000000
_symmetry_Int_Tables_number   1
_chemical_formula_structural   TlB5O12
_chemical_formula_sum   'Tl4 B20 O48'
_cell_volume   1027.87786925
_cell_formula_units_Z   4
loop_
 _symmetry_equiv_pos_site_id
 _symmetry_equiv_pos_as_xyz
  1  'x, y, z'
loop_
 _atom_site_type_symbol
 _atom_site_label
 _atom_site_symmetry_multiplicity
 _atom_site_fract_x
 _atom_site_fract_y
 _atom_site_fract_z
 _atom_site_occupancy
  Tl  Tl0  1  0.25396600  0.26469200  0.95643600  1
  Tl  Tl1  1  0.75396600  0.73530800  0.54356400  1
  Tl  Tl2  1  0.74603400  0.73530800  0.04356400  1
  Tl  Tl3  1  0.24603400  0.26469200  0.45643600  1
  B  B4  1  0.15571200  0.75918300  0.86275100  1
  B  B5  1  0.65571200  0.24081700  0.63724900  1
  B  B6  1  0.84428800  0.24081700  0.13724900  1
  B  B7  1  0.34428800  0.75918300  0.36275100  1
  B  B8  1  0.25946000  0.52252100  0.86120400  1
  B  B9  1  0.75946000  0.47747900  0.63879600  1
  B  B10  1  0.74054000  0.47747900  0.13879600  1
  B  B11  1  0.24054000  0.52252100  0.36120400  1
  B  B12  1  0.94682000  0.55879100  0.89435200  1
  B  B13  1  0.44682000  0.44120900  0.60564800  1
  B  B14  1  0.05318000  0.44120900  0.10564800  1
  B  B15  1  0.55318000  0.55879100  0.39435200  1
  B  B16  1  0.20741000  0.98424200  0.92693200  1
  B  B17  1  0.70741000  0.01575800  0.57306800  1
  B  B18  1  0.79259000  0.01575800  0.07306800  1
  B  B19  1  0.29259000  0.98424200  0.42693200  1
  B  B20  1  0.13007400  0.97425000  0.76521700  1
  B  B21  1  0.63007400  0.02575000  0.73478300  1
  B  B22  1  0.86992600  0.02575000  0.23478300  1
  B  B23  1  0.36992600  0.97425000  0.26521700  1
  O  O24  1  0.29453900  0.65670000  0.85143600  1
  O  O25  1  0.79453900  0.34330000  0.64856400  1
  O  O26  1  0.70546100  0.34330000  0.14856400  1
  O  O27  1  0.20546100  0.65670000  0.35143600  1
  O  O28  1  0.97572000  0.69701400  0.89502700  1
  O  O29  1  0.47572000  0.30298600  0.60497300  1
  O  O30  1  0.02428000  0.30298600  0.10497300  1
  O  O31  1  0.52428000  0.69701400  0.39502700  1
  O  O32  1  0.21313400  0.84733200  0.93650800  1
  O  O33  1  0.71313400  0.15266800  0.56349200  1
  O  O34  1  0.78686600  0.15266800  0.06349200  1
  O  O35  1  0.28686600  0.84733200  0.43650800  1
  O  O36  1  0.12061500  0.83915900  0.77034900  1
  O  O37  1  0.62061500  0.16084100  0.72965100  1
  O  O38  1  0.87938500  0.16084100  0.22965100  1
  O  O39  1  0.37938500  0.83915900  0.27034900  1
  O  O40  1  0.07625000  0.47981000  0.85165900  1
  O  O41  1  0.57625000  0.52019000  0.64834100  1
  O  O42  1  0.92375000  0.52019000  0.14834100  1
  O  O43  1  0.42375000  0.47981000  0.35165900  1
  O  O44  1  0.17507700  0.05372100  0.83670900  1
  O  O45  1  0.67507700  0.94627900  0.66329100  1
  O  O46  1  0.82492300  0.94627900  0.16329100  1
  O  O47  1  0.32492300  0.05372100  0.33670900  1
  O  O48  1  0.38611700  0.42177500  0.88151700  1
  O  O49  1  0.88611700  0.57822500  0.61848300  1
  O  O50  1  0.61388300  0.57822500  0.11848300  1
  O  O51  1  0.11388300  0.42177500  0.38151700  1
  O  O52  1  0.80280600  0.50146400  0.94134300  1
  O  O53  1  0.30280600  0.49853600  0.55865700  1
  O  O54  1  0.19719400  0.49853600  0.05865700  1
  O  O55  1  0.69719400  0.50146400  0.44134300  1
  O  O56  1  0.23239500  0.06230600  0.00217400  1
  O  O57  1  0.73239500  0.93769400  0.49782600  1
  O  O58  1  0.76760500  0.93769400  0.99782600  1
  O  O59  1  0.26760500  0.06230600  0.50217400  1
  O  O60  1  0.08403700  0.04199100  0.67280300  1
  O  O61  1  0.58403700  0.95800900  0.82719700  1
  O  O62  1  0.91596300  0.95800900  0.32719700  1
  O  O63  1  0.41596300  0.04199100  0.17280300  1
  O  O64  1  0.11574400  0.17514400  0.66469600  1
  O  O65  1  0.61574400  0.82485600  0.83530400  1
  O  O66  1  0.88425600  0.82485600  0.33530400  1
  O  O67  1  0.38425600  0.17514400  0.16469600  1
  O  O68  1  0.41786100  0.69527400  0.57031200  1
  O  O69  1  0.91786100  0.30472600  0.92968800  1
  O  O70  1  0.58213900  0.30472600  0.42968800  1
  O  O71  1  0.08213900  0.69527400  0.07031200  1
