# generated using pymatgen
data_KSi7H62C25O6
_symmetry_space_group_name_H-M   'P 1'
_cell_length_a   10.75875905
_cell_length_b   20.34494631
_cell_length_c   21.98665372
_cell_angle_alpha   90.00000000
_cell_angle_beta   90.66145181
_cell_angle_gamma   90.00000000
_symmetry_Int_Tables_number   1
_chemical_formula_structural   KSi7H62C25O6
_chemical_formula_sum   'K4 Si28 H248 C100 O24'
_cell_volume   4812.25823868
_cell_formula_units_Z   4
loop_
 _symmetry_equiv_pos_site_id
 _symmetry_equiv_pos_as_xyz
  1  'x, y, z'
loop_
 _atom_site_type_symbol
 _atom_site_label
 _atom_site_symmetry_multiplicity
 _atom_site_fract_x
 _atom_site_fract_y
 _atom_site_fract_z
 _atom_site_occupancy
  K  K0  1  0.03732856  0.96881292  0.75437098  1
  K  K1  1  0.96267144  0.46881292  0.74562902  1
  K  K2  1  0.96267144  0.03118708  0.24562902  1
  K  K3  1  0.03732856  0.53118708  0.25437098  1
  Si  Si4  1  0.12872079  0.80029607  0.83143115  1
  Si  Si5  1  0.87127921  0.30029607  0.66856885  1
  Si  Si6  1  0.87127921  0.19970393  0.16856885  1
  Si  Si7  1  0.12872079  0.69970393  0.33143115  1
  Si  Si8  1  0.33532253  0.75952753  0.83166049  1
  Si  Si9  1  0.66467747  0.25952753  0.66833951  1
  Si  Si10  1  0.66467747  0.24047247  0.16833951  1
  Si  Si11  1  0.33532253  0.74047247  0.33166049  1
  Si  Si12  1  0.12127349  0.75722932  0.93155743  1
  Si  Si13  1  0.87872651  0.25722932  0.56844257  1
  Si  Si14  1  0.87872651  0.24277068  0.06844257  1
  Si  Si15  1  0.12127349  0.74277068  0.43155743  1
  Si  Si16  1  0.34222298  0.75413988  0.94045383  1
  Si  Si17  1  0.65777702  0.25413988  0.55954617  1
  Si  Si18  1  0.65777702  0.24586012  0.05954617  1
  Si  Si19  1  0.34222298  0.74586012  0.44045383  1
  Si  Si20  1  0.99678214  0.73458796  0.76853971  1
  Si  Si21  1  0.00321786  0.23458796  0.73146029  1
  Si  Si22  1  0.00321786  0.26541204  0.23146029  1
  Si  Si23  1  0.99678214  0.76541204  0.26853971  1
  Si  Si24  1  0.43569212  0.65967910  0.98452895  1
  Si  Si25  1  0.56430788  0.15967910  0.51547105  1
  Si  Si26  1  0.56430788  0.34032090  0.01547105  1
  Si  Si27  1  0.43569212  0.84032090  0.48452895  1
  Si  Si28  1  0.42444677  0.85028163  0.98615543  1
  Si  Si29  1  0.57555323  0.35028163  0.51384457  1
  Si  Si30  1  0.57555323  0.14971837  0.01384457  1
  Si  Si31  1  0.42444677  0.64971837  0.48615543  1
  H  H32  1  0.60919720  0.92579490  0.71638505  1
  H  H33  1  0.39080280  0.42579490  0.78361495  1
  H  H34  1  0.39080280  0.07420510  0.28361495  1
  H  H35  1  0.60919720  0.57420510  0.21638505  1
  H  H36  1  0.68010277  0.00377312  0.70007173  1
  H  H37  1  0.31989723  0.50377312  0.79992827  1
  H  H38  1  0.31989723  0.99622688  0.29992827  1
  H  H39  1  0.68010277  0.49622688  0.20007173  1
  H  H40  1  0.70334896  0.92358103  0.61588910  1
  H  H41  1  0.29665104  0.42358103  0.88411090  1
  H  H42  1  0.29665104  0.07641897  0.38411090  1
  H  H43  1  0.70334896  0.57641897  0.11588910  1
  H  H44  1  0.78470342  0.86804466  0.66581885  1
  H  H45  1  0.21529658  0.36804466  0.83418115  1
  H  H46  1  0.21529658  0.13195534  0.33418115  1
  H  H47  1  0.78470342  0.63195534  0.16581885  1
  H  H48  1  0.97004458  0.88078494  0.59929248  1
  H  H49  1  0.02995542  0.38078494  0.90070752  1
  H  H50  1  0.02995542  0.11921506  0.40070752  1
  H  H51  1  0.97004458  0.61921506  0.09929248  1
  H  H52  1  0.88031211  0.93604567  0.55280232  1
  H  H53  1  0.11968789  0.43604567  0.94719768  1
  H  H54  1  0.11968789  0.06395433  0.44719768  1
  H  H55  1  0.88031211  0.56395433  0.05280232  1
  H  H56  1  0.02386564  0.02736968  0.57739963  1
  H  H57  1  0.97613436  0.52736968  0.92260037  1
  H  H58  1  0.97613436  0.97263032  0.42260037  1
  H  H59  1  0.02386564  0.47263032  0.07739963  1
  H  H60  1  0.09973529  0.95953862  0.54098793  1
  H  H61  1  0.90026471  0.45953862  0.95901207  1
  H  H62  1  0.90026471  0.04046138  0.45901207  1
  H  H63  1  0.09973529  0.54046138  0.04098793  1
  H  H64  1  0.29521386  0.99683386  0.58442277  1
  H  H65  1  0.70478614  0.49683386  0.91557723  1
  H  H66  1  0.70478614  0.00316614  0.41557723  1
  H  H67  1  0.29521386  0.50316614  0.08442277  1
  H  H68  1  0.21171449  0.06340356  0.61852964  1
  H  H69  1  0.78828551  0.56340356  0.88147036  1
  H  H70  1  0.78828551  0.93659644  0.38147036  1
  H  H71  1  0.21171449  0.43659644  0.11852964  1
  H  H72  1  0.41496599  0.03487286  0.67008497  1
  H  H73  1  0.58503401  0.53487286  0.82991503  1
  H  H74  1  0.58503401  0.96512714  0.32991503  1
  H  H75  1  0.41496599  0.46512714  0.17008497  1
  H  H76  1  0.35155145  0.95622792  0.69024444  1
  H  H77  1  0.64844855  0.45622792  0.80975556  1
  H  H78  1  0.64844855  0.04377208  0.30975556  1
  H  H79  1  0.35155145  0.54377208  0.19024444  1
  H  H80  1  0.37216424  0.98995878  0.79779380  1
  H  H81  1  0.62783576  0.48995878  0.70220620  1
  H  H82  1  0.62783576  0.01004122  0.20220620  1
  H  H83  1  0.37216424  0.51004122  0.29779380  1
  H  H84  1  0.42918092  0.06884095  0.77410839  1
  H  H85  1  0.57081908  0.56884095  0.72589161  1
  H  H86  1  0.57081908  0.93115905  0.22589161  1
  H  H87  1  0.42918092  0.43115905  0.27410839  1
  H  H88  1  0.24118731  0.12219380  0.81950210  1
  H  H89  1  0.75881269  0.62219380  0.68049790  1
  H  H90  1  0.75881269  0.87780620  0.18049790  1
  H  H91  1  0.24118731  0.37780620  0.31950210  1
  H  H92  1  0.33412162  0.07774777  0.87444132  1
  H  H93  1  0.66587838  0.57774777  0.62555868  1
  H  H94  1  0.66587838  0.92225223  0.12555868  1
  H  H95  1  0.33412162  0.42225223  0.37444132  1
  H  H96  1  0.15441173  0.06223972  0.93867784  1
  H  H97  1  0.84558827  0.56223972  0.56132216  1
  H  H98  1  0.84558827  0.93776028  0.06132216  1
  H  H99  1  0.15441173  0.43776028  0.43867784  1
  H  H100  1  0.05950192  0.10747694  0.88535851  1
  H  H101  1  0.94049808  0.60747694  0.61464149  1
  H  H102  1  0.94049808  0.89252306  0.11464149  1
  H  H103  1  0.05950192  0.39252306  0.38535851  1
  H  H104  1  0.94153579  0.02795694  0.95059690  1
  H  H105  1  0.05846421  0.52795694  0.54940310  1
  H  H106  1  0.05846421  0.97204306  0.04940310  1
  H  H107  1  0.94153579  0.47204306  0.45059690  1
  H  H108  1  0.02811823  0.96140157  0.91751857  1
  H  H109  1  0.97188177  0.46140157  0.58248143  1
  H  H110  1  0.97188177  0.03859843  0.08248143  1
  H  H111  1  0.02811823  0.53859843  0.41751857  1
  H  H112  1  0.83570365  0.91753370  0.87555380  1
  H  H113  1  0.16429635  0.41753370  0.62444620  1
  H  H114  1  0.16429635  0.08246630  0.12444620  1
  H  H115  1  0.83570365  0.58246630  0.37555380  1
  H  H116  1  0.75319199  0.98421734  0.91019584  1
  H  H117  1  0.24680801  0.48421734  0.58980416  1
  H  H118  1  0.24680801  0.01578266  0.08980416  1
  H  H119  1  0.75319199  0.51578266  0.41019584  1
  H  H120  1  0.69132097  0.02484039  0.80592385  1
  H  H121  1  0.30867903  0.52484039  0.69407615  1
  H  H122  1  0.30867903  0.97515961  0.19407615  1
  H  H123  1  0.69132097  0.47515961  0.30592385  1
  H  H124  1  0.62974780  0.94549331  0.82537980  1
  H  H125  1  0.37025220  0.44549331  0.67462020  1
  H  H126  1  0.37025220  0.05450669  0.17462020  1
  H  H127  1  0.62974780  0.55450669  0.32537980  1
  H  H128  1  0.44017035  0.81451870  0.74449023  1
  H  H129  1  0.55982965  0.31451870  0.75550977  1
  H  H130  1  0.55982965  0.18548130  0.25550977  1
  H  H131  1  0.44017035  0.68548130  0.24449023  1
  H  H132  1  0.43866940  0.86695216  0.80946736  1
  H  H133  1  0.56133060  0.36695216  0.69053264  1
  H  H134  1  0.56133060  0.13304784  0.19053264  1
  H  H135  1  0.43866940  0.63304784  0.30946736  1
  H  H136  1  0.54949599  0.80132333  0.80502787  1
  H  H137  1  0.45050401  0.30132333  0.69497213  1
  H  H138  1  0.45050401  0.19867667  0.19497213  1
  H  H139  1  0.54949599  0.69867667  0.30502787  1
  H  H140  1  0.46789405  0.66192217  0.80396514  1
  H  H141  1  0.53210595  0.16192217  0.69603486  1
  H  H142  1  0.53210595  0.33807783  0.19603486  1
  H  H143  1  0.46789405  0.83807783  0.30396514  1
  H  H144  1  0.30763094  0.63892165  0.81493499  1
  H  H145  1  0.69236906  0.13892165  0.68506501  1
  H  H146  1  0.69236906  0.36107835  0.18506501  1
  H  H147  1  0.30763094  0.86107835  0.31493499  1
  H  H148  1  0.35244833  0.67877321  0.74674452  1
  H  H149  1  0.64755167  0.17877321  0.75325548  1
  H  H150  1  0.64755167  0.32122679  0.25325548  1
  H  H151  1  0.35244833  0.82122679  0.24674452  1
  H  H152  1  0.05044529  0.78895457  0.03650722  1
  H  H153  1  0.94955471  0.28895457  0.46349278  1
  H  H154  1  0.94955471  0.21104543  0.96349278  1
  H  H155  1  0.05044529  0.71104543  0.53650722  1
  H  H156  1  0.07554890  0.85987162  0.99026309  1
  H  H157  1  0.92445110  0.35987162  0.50973691  1
  H  H158  1  0.92445110  0.14012838  0.00973691  1
  H  H159  1  0.07554890  0.64012838  0.49026309  1
  H  H160  1  0.93822440  0.81182333  0.97986062  1
  H  H161  1  0.06177560  0.31182333  0.52013938  1
  H  H162  1  0.06177560  0.18817667  0.02013938  1
  H  H163  1  0.93822440  0.68817667  0.47986062  1
  H  H164  1  0.95001747  0.67442439  0.93105850  1
  H  H165  1  0.04998253  0.17442439  0.56894150  1
  H  H166  1  0.04998253  0.32557561  0.06894150  1
  H  H167  1  0.95001747  0.82557561  0.43105850  1
  H  H168  1  0.09454117  0.63697878  0.91244160  1
  H  H169  1  0.90545883  0.13697878  0.58755840  1
  H  H170  1  0.90545883  0.36302122  0.08755840  1
  H  H171  1  0.09454117  0.86302122  0.41244160  1
  H  H172  1  0.05969398  0.65595982  0.99029458  1
  H  H173  1  0.94030602  0.15595982  0.50970542  1
  H  H174  1  0.94030602  0.34404018  0.00970542  1
  H  H175  1  0.05969398  0.84404018  0.49029458  1
  H  H176  1  0.94384317  0.73313794  0.65709046  1
  H  H177  1  0.05615683  0.23313794  0.84290954  1
  H  H178  1  0.05615683  0.26686206  0.34290954  1
  H  H179  1  0.94384317  0.76686206  0.15709046  1
  H  H180  1  0.00016939  0.81226478  0.67906712  1
  H  H181  1  0.99983061  0.31226478  0.82093288  1
  H  H182  1  0.99983061  0.18773522  0.32093288  1
  H  H183  1  0.00016939  0.68773522  0.17906712  1
  H  H184  1  0.10612710  0.74621123  0.66945133  1
  H  H185  1  0.89387290  0.24621123  0.83054867  1
  H  H186  1  0.89387290  0.25378877  0.33054867  1
  H  H187  1  0.10612710  0.75378877  0.16945133  1
  H  H188  1  0.81301753  0.73386428  0.83847006  1
  H  H189  1  0.18698247  0.23386428  0.66152994  1
  H  H190  1  0.18698247  0.26613572  0.16152994  1
  H  H191  1  0.81301753  0.76613572  0.33847006  1
  H  H192  1  0.80081800  0.79971129  0.78546196  1
  H  H193  1  0.19918200  0.29971129  0.71453804  1
  H  H194  1  0.19918200  0.20028871  0.21453804  1
  H  H195  1  0.80081800  0.70028871  0.28546196  1
  H  H196  1  0.76718998  0.71754417  0.76184627  1
  H  H197  1  0.23281002  0.21754417  0.73815373  1
  H  H198  1  0.23281002  0.28245583  0.23815373  1
  H  H199  1  0.76718998  0.78245583  0.26184627  1
  H  H200  1  0.10869885  0.62844165  0.74236765  1
  H  H201  1  0.89130115  0.12844165  0.75763235  1
  H  H202  1  0.89130115  0.37155835  0.25763235  1
  H  H203  1  0.10869885  0.87155835  0.24236765  1
  H  H204  1  0.03168077  0.62070578  0.81631458  1
  H  H205  1  0.96831923  0.12070578  0.68368542  1
  H  H206  1  0.96831923  0.37929422  0.18368542  1
  H  H207  1  0.03168077  0.87929422  0.31631458  1
  H  H208  1  0.64735008  0.60952717  0.98738639  1
  H  H209  1  0.35264992  0.10952717  0.51261361  1
  H  H210  1  0.35264992  0.39047283  0.01261361  1
  H  H211  1  0.64735008  0.89047283  0.48738639  1
  H  H212  1  0.63516344  0.66525189  0.92507004  1
  H  H213  1  0.36483656  0.16525189  0.57492996  1
  H  H214  1  0.36483656  0.33474811  0.07492996  1
  H  H215  1  0.63516344  0.83474811  0.42507004  1
  H  H216  1  0.65714987  0.69563666  0.00019995  1
  H  H217  1  0.34285013  0.19563666  0.49980005  1
  H  H218  1  0.34285013  0.30436334  0.99980005  1
  H  H219  1  0.65714987  0.80436334  0.50019995  1
  H  H220  1  0.46025128  0.60924806  0.08732838  1
  H  H221  1  0.53974872  0.10924806  0.41267162  1
  H  H222  1  0.53974872  0.39075194  0.91267162  1
  H  H223  1  0.46025128  0.89075194  0.58732838  1
  H  H224  1  0.44867700  0.69605341  0.09375263  1
  H  H225  1  0.55132300  0.19605341  0.40624737  1
  H  H226  1  0.55132300  0.30394659  0.90624737  1
  H  H227  1  0.44867700  0.80394659  0.59375263  1
  H  H228  1  0.31246818  0.64833603  0.08148284  1
  H  H229  1  0.68753182  0.14833603  0.41851716  1
  H  H230  1  0.68753182  0.35166397  0.91851716  1
  H  H231  1  0.31246818  0.85166397  0.58148284  1
  H  H232  1  0.27714811  0.57121139  0.96078571  1
  H  H233  1  0.72285189  0.07121139  0.53921429  1
  H  H234  1  0.72285189  0.42878861  0.03921429  1
  H  H235  1  0.27714811  0.92878861  0.46078571  1
  H  H236  1  0.38802472  0.57702658  0.90173237  1
  H  H237  1  0.61197528  0.07702658  0.59826763  1
  H  H238  1  0.61197528  0.42297342  0.09826763  1
  H  H239  1  0.38802472  0.92297342  0.40173237  1
  H  H240  1  0.42971257  0.53891788  0.97201345  1
  H  H241  1  0.57028743  0.03891788  0.52798655  1
  H  H242  1  0.57028743  0.46108212  0.02798655  1
  H  H243  1  0.42971257  0.96108212  0.47201345  1
  H  H244  1  0.41834828  0.90672368  0.08673882  1
  H  H245  1  0.58165172  0.40672368  0.41326118  1
  H  H246  1  0.58165172  0.09327632  0.91326118  1
  H  H247  1  0.41834828  0.59327632  0.58673882  1
  H  H248  1  0.28155735  0.85858074  0.07638447  1
  H  H249  1  0.71844265  0.35858074  0.42361553  1
  H  H250  1  0.71844265  0.14141926  0.92361553  1
  H  H251  1  0.28155735  0.64141926  0.57638447  1
  H  H252  1  0.42407398  0.82019746  0.09731916  1
  H  H253  1  0.57592602  0.32019746  0.40268084  1
  H  H254  1  0.57592602  0.17980254  0.90268084  1
  H  H255  1  0.42407398  0.67980254  0.59731916  1
  H  H256  1  0.64266977  0.81907642  0.01546374  1
  H  H257  1  0.35733023  0.31907642  0.48453626  1
  H  H258  1  0.35733023  0.18092358  0.98453626  1
  H  H259  1  0.64266977  0.68092358  0.51546374  1
  H  H260  1  0.63449455  0.83985485  0.93696493  1
  H  H261  1  0.36550545  0.33985485  0.56303507  1
  H  H262  1  0.36550545  0.16014515  0.06303507  1
  H  H263  1  0.63449455  0.66014515  0.43696493  1
  H  H264  1  0.63421522  0.90293365  0.99318719  1
  H  H265  1  0.36578478  0.40293365  0.50681281  1
  H  H266  1  0.36578478  0.09706635  0.00681281  1
  H  H267  1  0.63421522  0.59706635  0.49318719  1
  H  H268  1  0.39419097  0.93090139  0.90003975  1
  H  H269  1  0.60580903  0.43090139  0.59996025  1
  H  H270  1  0.60580903  0.06909861  0.09996025  1
  H  H271  1  0.39419097  0.56909861  0.40003975  1
  H  H272  1  0.26663226  0.93392020  0.95006677  1
  H  H273  1  0.73336774  0.43392020  0.54993323  1
  H  H274  1  0.73336774  0.06607980  0.04993323  1
  H  H275  1  0.26663226  0.56607980  0.45006677  1
  H  H276  1  0.41125274  0.97045560  0.97198781  1
  H  H277  1  0.58874726  0.47045560  0.52801219  1
  H  H278  1  0.58874726  0.02954440  0.02801219  1
  H  H279  1  0.41125274  0.52954440  0.47198781  1
  C  C280  1  0.69891131  0.95129622  0.70961882  1
  C  C281  1  0.30108869  0.45129622  0.79038118  1
  C  C282  1  0.30108869  0.04870378  0.29038118  1
  C  C283  1  0.69891131  0.54870378  0.20961882  1
  C  C284  1  0.76492152  0.92038762  0.65654069  1
  C  C285  1  0.23507848  0.42038762  0.84345931  1
  C  C286  1  0.23507848  0.07961238  0.34345931  1
  C  C287  1  0.76492152  0.57961238  0.15654069  1
  C  C288  1  0.94159582  0.93256870  0.59354467  1
  C  C289  1  0.05840418  0.43256870  0.90645533  1
  C  C290  1  0.05840418  0.06743130  0.40645533  1
  C  C291  1  0.94159582  0.56743130  0.09354467  1
  C  C292  1  0.05346549  0.97573734  0.58317344  1
  C  C293  1  0.94653451  0.47573734  0.91682656  1
  C  C294  1  0.94653451  0.02426266  0.41682656  1
  C  C295  1  0.05346549  0.52426266  0.08317344  1
  C  C296  1  0.24315982  0.01225623  0.62514884  1
  C  C297  1  0.75684018  0.51225623  0.87485116  1
  C  C298  1  0.75684018  0.98774377  0.37485116  1
  C  C299  1  0.24315982  0.48774377  0.12514884  1
  C  C300  1  0.32797837  0.00805463  0.68016454  1
  C  C301  1  0.67202163  0.50805463  0.81983546  1
  C  C302  1  0.67202163  0.99194537  0.31983546  1
  C  C303  1  0.32797837  0.49194537  0.18016454  1
  C  C304  1  0.34411149  0.04013303  0.78366234  1
  C  C305  1  0.65588851  0.54013303  0.71633766  1
  C  C306  1  0.65588851  0.95986697  0.21633766  1
  C  C307  1  0.34411149  0.45986697  0.28366234  1
  C  C308  1  0.27246541  0.07279838  0.83397888  1
  C  C309  1  0.72753459  0.57279838  0.66602112  1
  C  C310  1  0.72753459  0.92720162  0.16602112  1
  C  C311  1  0.27246541  0.42720162  0.33397888  1
  C  C312  1  0.09622942  0.05824602  0.89693095  1
  C  C313  1  0.90377058  0.55824602  0.60306905  1
  C  C314  1  0.90377058  0.94175398  0.10306905  1
  C  C315  1  0.09622942  0.44175398  0.39693095  1
  C  C316  1  0.99092374  0.01143998  0.90944214  1
  C  C317  1  0.00907626  0.51143998  0.59055786  1
  C  C318  1  0.00907626  0.98856002  0.09055786  1
  C  C319  1  0.99092374  0.48856002  0.40944214  1
  C  C320  1  0.80342256  0.96860582  0.86891822  1
  C  C321  1  0.19657744  0.46860582  0.63108178  1
  C  C322  1  0.19657744  0.03139418  0.13108178  1
  C  C323  1  0.80342256  0.53139418  0.36891822  1
  C  C324  1  0.71576757  0.97294820  0.81499609  1
  C  C325  1  0.28423243  0.47294820  0.68500391  1
  C  C326  1  0.28423243  0.02705180  0.18500391  1
  C  C327  1  0.71576757  0.52705180  0.31499609  1
  C  C328  1  0.45334730  0.81619347  0.79436638  1
  C  C329  1  0.54665270  0.31619347  0.70563362  1
  C  C330  1  0.54665270  0.18380653  0.20563362  1
  C  C331  1  0.45334730  0.68380653  0.29436638  1
  C  C332  1  0.37005159  0.67611113  0.79619618  1
  C  C333  1  0.62994841  0.17611113  0.70380382  1
  C  C334  1  0.62994841  0.32388887  0.20380382  1
  C  C335  1  0.37005159  0.82388887  0.29619618  1
  C  C336  1  0.03861163  0.80960374  0.99050393  1
  C  C337  1  0.96138837  0.30960374  0.50949607  1
  C  C338  1  0.96138837  0.19039626  0.00949607  1
  C  C339  1  0.03861163  0.69039626  0.49050393  1
  C  C340  1  0.04988514  0.67240971  0.94270665  1
  C  C341  1  0.95011486  0.17240971  0.55729335  1
  C  C342  1  0.95011486  0.32759029  0.05729335  1
  C  C343  1  0.04988514  0.82759029  0.44270665  1
  C  C344  1  0.01279542  0.75920593  0.68563972  1
  C  C345  1  0.98720458  0.25920593  0.81436028  1
  C  C346  1  0.98720458  0.24079407  0.31436028  1
  C  C347  1  0.01279542  0.74079407  0.18563972  1
  C  C348  1  0.82847462  0.74801294  0.79081572  1
  C  C349  1  0.17152538  0.24801294  0.70918428  1
  C  C350  1  0.17152538  0.25198706  0.20918428  1
  C  C351  1  0.82847462  0.75198706  0.29081572  1
  C  C352  1  0.04109266  0.64843758  0.77397031  1
  C  C353  1  0.95890734  0.14843758  0.72602969  1
  C  C354  1  0.95890734  0.35156242  0.22602969  1
  C  C355  1  0.04109266  0.85156242  0.27397031  1
  C  C356  1  0.61019144  0.65763207  0.97294597  1
  C  C357  1  0.38980856  0.15763207  0.52705403  1
  C  C358  1  0.38980856  0.34236793  0.02705403  1
  C  C359  1  0.61019144  0.84236793  0.47294597  1
  C  C360  1  0.41115191  0.65298689  0.06969978  1
  C  C361  1  0.58884809  0.15298689  0.43030022  1
  C  C362  1  0.58884809  0.34701311  0.93030022  1
  C  C363  1  0.41115191  0.84701311  0.56969978  1
  C  C364  1  0.37589743  0.57941052  0.95121365  1
  C  C365  1  0.62410257  0.07941052  0.54878635  1
  C  C366  1  0.62410257  0.42058948  0.04878635  1
  C  C367  1  0.37589743  0.92058948  0.45121365  1
  C  C368  1  0.38260949  0.85940124  0.06939601  1
  C  C369  1  0.61739051  0.35940124  0.43060399  1
  C  C370  1  0.61739051  0.14059876  0.93060399  1
  C  C371  1  0.38260949  0.64059876  0.56939601  1
  C  C372  1  0.60058496  0.85307717  0.98236216  1
  C  C373  1  0.39941504  0.35307717  0.51763784  1
  C  C374  1  0.39941504  0.14692283  0.01763784  1
  C  C375  1  0.60058496  0.64692283  0.48236216  1
  C  C376  1  0.36805293  0.92846752  0.94813029  1
  C  C377  1  0.63194707  0.42846752  0.55186971  1
  C  C378  1  0.63194707  0.07153248  0.05186971  1
  C  C379  1  0.36805293  0.57153248  0.44813029  1
  O  O380  1  0.77459521  0.94511998  0.76308319  1
  O  O381  1  0.22540479  0.44511998  0.73691681  1
  O  O382  1  0.22540479  0.05488002  0.23691681  1
  O  O383  1  0.77459521  0.55488002  0.26308319  1
  O  O384  1  0.87783953  0.95542977  0.64611392  1
  O  O385  1  0.12216047  0.45542977  0.85388608  1
  O  O386  1  0.12216047  0.04457023  0.35388608  1
  O  O387  1  0.87783953  0.54457023  0.14611392  1
  O  O388  1  0.13818767  0.97023512  0.63343481  1
  O  O389  1  0.86181233  0.47023512  0.86656519  1
  O  O390  1  0.86181233  0.02976488  0.36656519  1
  O  O391  1  0.13818767  0.52976488  0.13343481  1
  O  O392  1  0.26686155  0.03719609  0.73055515  1
  O  O393  1  0.73313845  0.53719609  0.76944485  1
  O  O394  1  0.73313845  0.96280391  0.26944485  1
  O  O395  1  0.26686155  0.46280391  0.23055515  1
  O  O396  1  0.16798530  0.03266796  0.84815982  1
  O  O397  1  0.83201470  0.53266796  0.65184018  1
  O  O398  1  0.83201470  0.96733204  0.15184018  1
  O  O399  1  0.16798530  0.46733204  0.34815982  1
  O  O400  1  0.90681763  0.01098360  0.85872994  1
  O  O401  1  0.09318237  0.51098360  0.64127006  1
  O  O402  1  0.09318237  0.98901640  0.14127006  1
  O  O403  1  0.90681763  0.48901640  0.35872994  1
