# generated using pymatgen
data_P2H12Rh(CO)4
_symmetry_space_group_name_H-M   'P 1'
_cell_length_a   10.92545941
_cell_length_b   10.92545941
_cell_length_c   9.79350427
_cell_angle_alpha   82.15135421
_cell_angle_beta   82.15135421
_cell_angle_gamma   65.61371292
_symmetry_Int_Tables_number   1
_chemical_formula_structural   P2H12Rh(CO)4
_chemical_formula_sum   'P8 H48 Rh4 C16 O16'
_cell_volume   1050.56576345
_cell_formula_units_Z   4
loop_
 _symmetry_equiv_pos_site_id
 _symmetry_equiv_pos_as_xyz
  1  'x, y, z'
loop_
 _atom_site_type_symbol
 _atom_site_label
 _atom_site_symmetry_multiplicity
 _atom_site_fract_x
 _atom_site_fract_y
 _atom_site_fract_z
 _atom_site_occupancy
  P  P0  1  0.86232700  0.13767300  0.75000000  1
  P  P1  1  0.13767300  0.86232700  0.25000000  1
  P  P2  1  0.34536600  0.65463400  0.75000000  1
  P  P3  1  0.65463400  0.34536600  0.25000000  1
  P  P4  1  0.95105900  0.73780600  0.82194900  1
  P  P5  1  0.26219400  0.04894100  0.67805100  1
  P  P6  1  0.04894100  0.26219400  0.17805100  1
  P  P7  1  0.73780600  0.95105900  0.32194900  1
  H  H8  1  0.63188300  0.18360100  0.83420200  1
  H  H9  1  0.81639900  0.36811700  0.66579800  1
  H  H10  1  0.36811700  0.81639900  0.16579800  1
  H  H11  1  0.18360100  0.63188300  0.33420200  1
  H  H12  1  0.69928300  0.05504600  0.71398000  1
  H  H13  1  0.94495400  0.30071700  0.78602000  1
  H  H14  1  0.30071700  0.94495400  0.28602000  1
  H  H15  1  0.05504600  0.69928300  0.21398000  1
  H  H16  1  0.65108600  0.22759400  0.65054500  1
  H  H17  1  0.77240600  0.34891400  0.84945500  1
  H  H18  1  0.34891400  0.77240600  0.34945500  1
  H  H19  1  0.22759400  0.65108600  0.15054500  1
  H  H20  1  0.58219800  0.61285600  0.74292600  1
  H  H21  1  0.38714400  0.41780200  0.75707400  1
  H  H22  1  0.41780200  0.38714400  0.25707400  1
  H  H23  1  0.61285600  0.58219800  0.24292600  1
  H  H24  1  0.50146900  0.72420800  0.59910000  1
  H  H25  1  0.27579200  0.49853100  0.90090000  1
  H  H26  1  0.49853100  0.27579200  0.40090000  1
  H  H27  1  0.72420800  0.50146900  0.09910000  1
  H  H28  1  0.54890800  0.54612300  0.60235200  1
  H  H29  1  0.45387700  0.45109200  0.89764800  1
  H  H30  1  0.45109200  0.45387700  0.39764800  1
  H  H31  1  0.54612300  0.54890800  0.10235200  1
  H  H32  1  0.09806800  0.52916700  0.72946400  1
  H  H33  1  0.47083300  0.90193200  0.77053600  1
  H  H34  1  0.90193200  0.47083300  0.27053600  1
  H  H35  1  0.52916700  0.09806800  0.22946400  1
  H  H36  1  0.92467100  0.56144800  0.72382200  1
  H  H37  1  0.43855200  0.07532900  0.77617800  1
  H  H38  1  0.07532900  0.43855200  0.27617800  1
  H  H39  1  0.56144800  0.92467100  0.22382200  1
  H  H40  1  0.00017600  0.49832200  0.88300400  1
  H  H41  1  0.50167800  0.99982400  0.61699600  1
  H  H42  1  0.99982400  0.50167800  0.11699600  1
  H  H43  1  0.49832200  0.00017600  0.38300400  1
  H  H44  1  0.75429900  0.88551200  0.95052500  1
  H  H45  1  0.11448800  0.24570100  0.54947500  1
  H  H46  1  0.24570100  0.11448800  0.04947500  1
  H  H47  1  0.88551200  0.75429900  0.45052500  1
  H  H48  1  0.78190900  0.71286400  0.99420300  1
  H  H49  1  0.28713600  0.21809100  0.50579700  1
  H  H50  1  0.21809100  0.28713600  0.00579700  1
  H  H51  1  0.71286400  0.78190900  0.49420300  1
  H  H52  1  0.71010400  0.79682500  0.83619800  1
  H  H53  1  0.20317500  0.28989600  0.66380200  1
  H  H54  1  0.28989600  0.20317500  0.16380200  1
  H  H55  1  0.79682500  0.71010400  0.33619800  1
  Rh  Rh56  1  0.09987500  0.88826500  0.62555800  1
  Rh  Rh57  1  0.11173500  0.90012500  0.87444200  1
  Rh  Rh58  1  0.90012500  0.11173500  0.37444200  1
  Rh  Rh59  1  0.88826500  0.09987500  0.12555800  1
  C  C60  1  0.69390500  0.15258900  0.73678600  1
  C  C61  1  0.84741100  0.30609500  0.76321400  1
  C  C62  1  0.30609500  0.84741100  0.26321400  1
  C  C63  1  0.15258900  0.69390500  0.23678600  1
  C  C64  1  0.51080500  0.63215400  0.66571400  1
  C  C65  1  0.36784600  0.48919500  0.83428600  1
  C  C66  1  0.48919500  0.36784600  0.33428600  1
  C  C67  1  0.63215400  0.51080500  0.16571400  1
  C  C68  1  0.99843500  0.56452000  0.78761600  1
  C  C69  1  0.43548000  0.00156500  0.71238400  1
  C  C70  1  0.00156500  0.43548000  0.21238400  1
  C  C71  1  0.56452000  0.99843500  0.28761600  1
  C  C72  1  0.78236000  0.78867200  0.90821500  1
  C  C73  1  0.21132800  0.21764000  0.59178500  1
  C  C74  1  0.21764000  0.21132800  0.09178500  1
  C  C75  1  0.78867200  0.78236000  0.40821500  1
  O  O76  1  0.95316600  0.08636700  0.61554200  1
  O  O77  1  0.91363300  0.04683400  0.88445800  1
  O  O78  1  0.04683400  0.91363300  0.38445800  1
  O  O79  1  0.08636700  0.95316600  0.11554200  1
  O  O80  1  0.24481400  0.68996900  0.63943800  1
  O  O81  1  0.31003100  0.75518600  0.86056200  1
  O  O82  1  0.75518600  0.31003100  0.36056200  1
  O  O83  1  0.68996900  0.24481400  0.13943800  1
  O  O84  1  0.94383700  0.82401100  0.68220100  1
  O  O85  1  0.17598900  0.05616300  0.81779900  1
  O  O86  1  0.05616300  0.17598900  0.31779900  1
  O  O87  1  0.82401100  0.94383700  0.18220100  1
  O  O88  1  0.04810600  0.74082100  0.92101200  1
  O  O89  1  0.25917900  0.95189400  0.57898800  1
  O  O90  1  0.95189400  0.25917900  0.07898800  1
  O  O91  1  0.74082100  0.04810600  0.42101200  1
