# generated using pymatgen
data_K2TeH10O9
_symmetry_space_group_name_H-M   'P 1'
_cell_length_a   7.04029300
_cell_length_b   8.76155243
_cell_length_c   16.74573637
_cell_angle_alpha   83.57518651
_cell_angle_beta   77.86525079
_cell_angle_gamma   66.31099444
_symmetry_Int_Tables_number   1
_chemical_formula_structural   K2TeH10O9
_chemical_formula_sum   'K8 Te4 H40 O36'
_cell_volume   924.33630922
_cell_formula_units_Z   4
loop_
 _symmetry_equiv_pos_site_id
 _symmetry_equiv_pos_as_xyz
  1  'x, y, z'
loop_
 _atom_site_type_symbol
 _atom_site_label
 _atom_site_symmetry_multiplicity
 _atom_site_fract_x
 _atom_site_fract_y
 _atom_site_fract_z
 _atom_site_occupancy
  K  K0  1  0.92064200  0.38787300  0.59056900  1
  K  K1  1  0.89908400  0.11212700  0.90943100  1
  K  K2  1  0.07935800  0.61212700  0.40943100  1
  K  K3  1  0.10091600  0.88787300  0.09056900  1
  K  K4  1  0.46487900  0.16437100  0.64918400  1
  K  K5  1  0.27843400  0.33562900  0.85081600  1
  K  K6  1  0.53512100  0.83562900  0.35081600  1
  K  K7  1  0.72156600  0.66437100  0.14918400  1
  Te  Te8  1  0.08916800  0.90029900  0.57782000  1
  Te  Te9  1  0.56728800  0.59970100  0.92218000  1
  Te  Te10  1  0.91083200  0.09970100  0.42218000  1
  Te  Te11  1  0.43271200  0.40029900  0.07782000  1
  H  H12  1  0.42590700  0.53809600  0.66470900  1
  H  H13  1  0.62871300  0.96190400  0.83529100  1
  H  H14  1  0.57409300  0.46190400  0.33529100  1
  H  H15  1  0.37128700  0.03809600  0.16470900  1
  H  H16  1  0.54261300  0.47782700  0.74096300  1
  H  H17  1  0.76140300  0.02217300  0.75903700  1
  H  H18  1  0.45738700  0.52217300  0.25903700  1
  H  H19  1  0.23859700  0.97782700  0.24096300  1
  H  H20  1  0.47920000  0.76837700  0.65771400  1
  H  H21  1  0.90529100  0.73162300  0.84228600  1
  H  H22  1  0.52080000  0.23162300  0.34228600  1
  H  H23  1  0.09470900  0.26837700  0.15771400  1
  H  H24  1  0.05053700  0.54020300  0.73680600  1
  H  H25  1  0.32754500  0.95979700  0.76319400  1
  H  H26  1  0.94946300  0.45979700  0.26319400  1
  H  H27  1  0.67245500  0.04020300  0.23680600  1
  H  H28  1  0.58394800  0.70860300  0.73825700  1
  H  H29  1  0.03080800  0.79139700  0.76174300  1
  H  H30  1  0.41605200  0.29139700  0.26174300  1
  H  H31  1  0.96919200  0.20860300  0.23825700  1
  H  H32  1  0.79856200  0.78587500  0.62335200  1
  H  H33  1  0.20778900  0.71412500  0.87664800  1
  H  H34  1  0.20143800  0.21412500  0.37664800  1
  H  H35  1  0.79221100  0.28587500  0.12335200  1
  H  H36  1  0.68030300  0.48575300  0.45019200  1
  H  H37  1  0.61624800  0.01424700  0.04980800  1
  H  H38  1  0.31969700  0.51424700  0.54980800  1
  H  H39  1  0.38375200  0.98575300  0.95019200  1
  H  H40  1  0.54757400  0.63565900  0.51179800  1
  H  H41  1  0.69503200  0.86434100  0.98820200  1
  H  H42  1  0.45242600  0.36434100  0.48820200  1
  H  H43  1  0.30496800  0.13565900  0.01179800  1
  H  H44  1  0.23732100  0.10188100  0.51270400  1
  H  H45  1  0.85190700  0.39811900  0.98729600  1
  H  H46  1  0.76267900  0.89811900  0.48729600  1
  H  H47  1  0.14809300  0.60188100  0.01270400  1
  H  H48  1  0.88311600  0.46533100  0.76433900  1
  H  H49  1  0.11278700  0.03466900  0.73566100  1
  H  H50  1  0.11688400  0.53466900  0.23566100  1
  H  H51  1  0.88721300  0.96533100  0.26433900  1
  O  O52  1  0.15033500  0.88897600  0.45543000  1
  O  O53  1  0.49474100  0.61102400  0.04457000  1
  O  O54  1  0.84966500  0.11102400  0.54457000  1
  O  O55  1  0.50525900  0.38897600  0.95543000  1
  O  O56  1  0.33044000  0.70386500  0.58939000  1
  O  O57  1  0.62369500  0.79613500  0.91061000  1
  O  O58  1  0.66956000  0.29613500  0.41061000  1
  O  O59  1  0.37630500  0.20386500  0.08939000  1
  O  O60  1  0.56007200  0.79494500  0.69216200  1
  O  O61  1  0.04717900  0.70505500  0.80783800  1
  O  O62  1  0.43992800  0.20505500  0.30783800  1
  O  O63  1  0.95282100  0.29494500  0.19216200  1
  O  O64  1  0.98300100  0.94734000  0.68951300  1
  O  O65  1  0.61985400  0.55266000  0.81048700  1
  O  O66  1  0.01699900  0.05266000  0.31048700  1
  O  O67  1  0.38014600  0.44734000  0.18951300  1
  O  O68  1  0.25237900  0.04535600  0.56725300  1
  O  O69  1  0.86498800  0.45464400  0.93274700  1
  O  O70  1  0.74762100  0.95464400  0.43274700  1
  O  O71  1  0.13501200  0.54535600  0.06725300  1
  O  O72  1  0.90615200  0.77555700  0.57247100  1
  O  O73  1  0.25418000  0.72444300  0.92752900  1
  O  O74  1  0.09384800  0.22444300  0.42752900  1
  O  O75  1  0.74582000  0.27555700  0.07247100  1
  O  O76  1  0.51421100  0.43686800  0.69321200  1
  O  O77  1  0.64429200  0.06313200  0.80678800  1
  O  O78  1  0.48578900  0.56313200  0.30678800  1
  O  O79  1  0.35570800  0.93686800  0.19321200  1
  O  O80  1  0.68276800  0.58554300  0.47198800  1
  O  O81  1  0.74029900  0.91445700  0.02801200  1
  O  O82  1  0.31723200  0.41445700  0.52801200  1
  O  O83  1  0.25970100  0.08554300  0.97198800  1
  O  O84  1  0.02428400  0.44160200  0.72837000  1
  O  O85  1  0.19425500  0.05839800  0.77163000  1
  O  O86  1  0.97571600  0.55839800  0.27163000  1
  O  O87  1  0.80574500  0.94160200  0.22837000  1
