# generated using pymatgen
data_FePH6C2SO7
_symmetry_space_group_name_H-M   'P 1'
_cell_length_a   7.49860600
_cell_length_b   9.99753920
_cell_length_c   12.21859436
_cell_angle_alpha   112.06886239
_cell_angle_beta   90.00000000
_cell_angle_gamma   90.00000000
_symmetry_Int_Tables_number   1
_chemical_formula_structural   FePH6C2SO7
_chemical_formula_sum   'Fe4 P4 H24 C8 S4 O28'
_cell_volume   848.88626059
_cell_formula_units_Z   4
loop_
 _symmetry_equiv_pos_site_id
 _symmetry_equiv_pos_as_xyz
  1  'x, y, z'
loop_
 _atom_site_type_symbol
 _atom_site_label
 _atom_site_symmetry_multiplicity
 _atom_site_fract_x
 _atom_site_fract_y
 _atom_site_fract_z
 _atom_site_occupancy
  Fe  Fe0  1  0.36690300  0.25900900  0.99602500  1
  Fe  Fe1  1  0.86690300  0.24099100  0.00397500  1
  Fe  Fe2  1  0.63309700  0.74099100  0.00397500  1
  Fe  Fe3  1  0.13309700  0.75900900  0.99602500  1
  P  P4  1  0.38071100  0.46739800  0.84751800  1
  P  P5  1  0.88071100  0.03260200  0.15248200  1
  P  P6  1  0.61928900  0.53260200  0.15248200  1
  P  P7  1  0.11928900  0.96739800  0.84751800  1
  H  H8  1  0.45544300  0.34773000  0.64334600  1
  H  H9  1  0.95544300  0.15227000  0.35665400  1
  H  H10  1  0.54455700  0.65227000  0.35665400  1
  H  H11  1  0.04455700  0.84773000  0.64334600  1
  H  H12  1  0.37109800  0.52638300  0.67349500  1
  H  H13  1  0.87109800  0.97361700  0.32650500  1
  H  H14  1  0.62890200  0.47361700  0.32650500  1
  H  H15  1  0.12890200  0.02638300  0.67349500  1
  H  H16  1  0.61214100  0.07903000  0.99757100  1
  H  H17  1  0.11214100  0.42097000  0.00242900  1
  H  H18  1  0.38785900  0.92097000  0.00242900  1
  H  H19  1  0.88785900  0.57903000  0.99757100  1
  H  H20  1  0.86440900  0.44349900  0.62338100  1
  H  H21  1  0.36440900  0.05650100  0.37661900  1
  H  H22  1  0.13559100  0.55650100  0.37661900  1
  H  H23  1  0.63559100  0.94349900  0.62338100  1
  H  H24  1  0.97795700  0.53872900  0.76120800  1
  H  H25  1  0.47795700  0.96127100  0.23879200  1
  H  H26  1  0.02204300  0.46127100  0.23879200  1
  H  H27  1  0.52204300  0.03872900  0.76120800  1
  H  H28  1  0.03972900  0.57029200  0.63023800  1
  H  H29  1  0.53972900  0.92970800  0.36976200  1
  H  H30  1  0.96027100  0.42970800  0.36976200  1
  H  H31  1  0.46027100  0.07029200  0.63023800  1
  C  C32  1  0.99095400  0.49073000  0.66486000  1
  C  C33  1  0.49095400  0.00927000  0.33514000  1
  C  C34  1  0.00904600  0.50927000  0.33514000  1
  C  C35  1  0.50904600  0.99073000  0.66486000  1
  C  C36  1  0.35212400  0.42674300  0.69076000  1
  C  C37  1  0.85212400  0.07325700  0.30924000  1
  C  C38  1  0.64787600  0.57325700  0.30924000  1
  C  C39  1  0.14787600  0.92674300  0.69076000  1
  S  S40  1  0.14504300  0.34542400  0.62364500  1
  S  S41  1  0.64504300  0.15457600  0.37635500  1
  S  S42  1  0.85495700  0.65457600  0.37635500  1
  S  S43  1  0.35495700  0.84542400  0.62364500  1
  O  O44  1  0.40103700  0.32271900  0.86276600  1
  O  O45  1  0.90103700  0.17728100  0.13723400  1
  O  O46  1  0.59896300  0.67728100  0.13723400  1
  O  O47  1  0.09896300  0.82271900  0.86276600  1
  O  O48  1  0.55543500  0.55489800  0.88016000  1
  O  O49  1  0.05543500  0.94510200  0.11984000  1
  O  O50  1  0.44456500  0.44510200  0.11984000  1
  O  O51  1  0.94456500  0.05489800  0.88016000  1
  O  O52  1  0.21528500  0.55191300  0.91507700  1
  O  O53  1  0.71528500  0.94808700  0.08492300  1
  O  O54  1  0.78471500  0.44808700  0.08492300  1
  O  O55  1  0.28471500  0.05191300  0.91507700  1
  O  O56  1  0.08738300  0.24032200  0.67237100  1
  O  O57  1  0.58738300  0.25967800  0.32762900  1
  O  O58  1  0.91261700  0.75967800  0.32762900  1
  O  O59  1  0.41261700  0.74032200  0.67237100  1
  O  O60  1  0.17412900  0.29449300  0.49638100  1
  O  O61  1  0.67412900  0.20550700  0.50361900  1
  O  O62  1  0.82587100  0.70550700  0.50361900  1
  O  O63  1  0.32587100  0.79449300  0.49638100  1
  O  O64  1  0.61119400  0.17121500  0.98670300  1
  O  O65  1  0.11119400  0.32878500  0.01329700  1
  O  O66  1  0.38880600  0.82878500  0.01329700  1
  O  O67  1  0.88880600  0.67121500  0.98670300  1
  O  O68  1  0.32354300  0.20801200  0.14490500  1
  O  O69  1  0.82354300  0.29198800  0.85509500  1
  O  O70  1  0.67645700  0.79198800  0.85509500  1
  O  O71  1  0.17645700  0.70801200  0.14490500  1
