# generated using pymatgen
data_MoN2O3F2
_symmetry_space_group_name_H-M   'P 1'
_cell_length_a   5.64934400
_cell_length_b   8.39992800
_cell_length_c   12.57228000
_cell_angle_alpha   90.00000000
_cell_angle_beta   90.00000000
_cell_angle_gamma   90.00000000
_symmetry_Int_Tables_number   1
_chemical_formula_structural   MoN2O3F2
_chemical_formula_sum   'Mo4 N8 O12 F8'
_cell_volume   596.60601670
_cell_formula_units_Z   4
loop_
 _symmetry_equiv_pos_site_id
 _symmetry_equiv_pos_as_xyz
  1  'x, y, z'
loop_
 _atom_site_type_symbol
 _atom_site_label
 _atom_site_symmetry_multiplicity
 _atom_site_fract_x
 _atom_site_fract_y
 _atom_site_fract_z
 _atom_site_occupancy
  Mo  Mo0  1  0.98006900  0.54172600  0.26145300  1
  Mo  Mo1  1  0.51993100  0.45827400  0.76145300  1
  Mo  Mo2  1  0.48006900  0.95827400  0.73854700  1
  Mo  Mo3  1  0.01993100  0.04172600  0.23854700  1
  N  N4  1  0.38165900  0.33263500  0.08486800  1
  N  N5  1  0.11834100  0.66736500  0.58486800  1
  N  N6  1  0.88165900  0.16736500  0.91513200  1
  N  N7  1  0.61834100  0.83263500  0.41513200  1
  N  N8  1  0.44711700  0.74063900  0.06429000  1
  N  N9  1  0.05288300  0.25936100  0.56429000  1
  N  N10  1  0.94711700  0.75936100  0.93571000  1
  N  N11  1  0.55288300  0.24063900  0.43571000  1
  O  O12  1  0.95602600  0.24202500  0.25826500  1
  O  O13  1  0.54397400  0.75797500  0.75826500  1
  O  O14  1  0.45602600  0.25797500  0.74173500  1
  O  O15  1  0.04397400  0.74202500  0.24173500  1
  O  O16  1  0.23315400  0.42678400  0.07600300  1
  O  O17  1  0.26684600  0.57321600  0.57600300  1
  O  O18  1  0.73315400  0.07321600  0.92399700  1
  O  O19  1  0.76684600  0.92678400  0.42399700  1
  O  O20  1  0.77785500  0.50152600  0.16344800  1
  O  O21  1  0.72214500  0.49847400  0.66344800  1
  O  O22  1  0.27785500  0.99847400  0.83655200  1
  O  O23  1  0.22214500  0.00152600  0.33655200  1
  F  F24  1  0.29116800  0.46184000  0.29011300  1
  F  F25  1  0.20883200  0.53816000  0.79011300  1
  F  F26  1  0.79116800  0.03816000  0.70988700  1
  F  F27  1  0.70883200  0.96184000  0.20988700  1
  F  F28  1  0.83071700  0.53448900  0.39567500  1
  F  F29  1  0.66928300  0.46551100  0.89567500  1
  F  F30  1  0.33071700  0.96551100  0.60432500  1
  F  F31  1  0.16928300  0.03448900  0.10432500  1
