# generated using pymatgen
data_Na2MoO6
_symmetry_space_group_name_H-M   'P 1'
_cell_length_a   8.59226900
_cell_length_b   10.46334400
_cell_length_c   15.64952300
_cell_angle_alpha   90.00000000
_cell_angle_beta   90.00000000
_cell_angle_gamma   90.00000000
_symmetry_Int_Tables_number   1
_chemical_formula_structural   Na2MoO6
_chemical_formula_sum   'Na16 Mo8 O48'
_cell_volume   1406.95262326
_cell_formula_units_Z   8
loop_
 _symmetry_equiv_pos_site_id
 _symmetry_equiv_pos_as_xyz
  1  'x, y, z'
loop_
 _atom_site_type_symbol
 _atom_site_label
 _atom_site_symmetry_multiplicity
 _atom_site_fract_x
 _atom_site_fract_y
 _atom_site_fract_z
 _atom_site_occupancy
  Na  Na0  1  0.16663200  0.49606900  0.05608900  1
  Na  Na1  1  0.66663200  0.00393100  0.94391100  1
  Na  Na2  1  0.83336800  0.99606900  0.44391100  1
  Na  Na3  1  0.33336800  0.50393100  0.55608900  1
  Na  Na4  1  0.83336800  0.50393100  0.94391100  1
  Na  Na5  1  0.33336800  0.99606900  0.05608900  1
  Na  Na6  1  0.16663200  0.00393100  0.55608900  1
  Na  Na7  1  0.66663200  0.49606900  0.44391100  1
  Na  Na8  1  0.28344800  0.42964700  0.86968100  1
  Na  Na9  1  0.78344800  0.07035300  0.13031900  1
  Na  Na10  1  0.71655200  0.92964700  0.63031900  1
  Na  Na11  1  0.21655200  0.57035300  0.36968100  1
  Na  Na12  1  0.71655200  0.57035300  0.13031900  1
  Na  Na13  1  0.21655200  0.92964700  0.86968100  1
  Na  Na14  1  0.28344800  0.07035300  0.36968100  1
  Na  Na15  1  0.78344800  0.42964700  0.63031900  1
  Mo  Mo16  1  0.02118900  0.20496000  0.96874100  1
  Mo  Mo17  1  0.52118900  0.29504000  0.03125900  1
  Mo  Mo18  1  0.97881100  0.70496000  0.53125900  1
  Mo  Mo19  1  0.47881100  0.79504000  0.46874100  1
  Mo  Mo20  1  0.97881100  0.79504000  0.03125900  1
  Mo  Mo21  1  0.47881100  0.70496000  0.96874100  1
  Mo  Mo22  1  0.02118900  0.29504000  0.46874100  1
  Mo  Mo23  1  0.52118900  0.20496000  0.53125900  1
  O  O24  1  0.05729400  0.37247500  0.93997600  1
  O  O25  1  0.55729400  0.12752500  0.06002400  1
  O  O26  1  0.94270600  0.87247500  0.56002400  1
  O  O27  1  0.44270600  0.62752500  0.43997600  1
  O  O28  1  0.94270600  0.62752500  0.06002400  1
  O  O29  1  0.44270600  0.87247500  0.93997600  1
  O  O30  1  0.05729400  0.12752500  0.43997600  1
  O  O31  1  0.55729400  0.37247500  0.56002400  1
  O  O32  1  0.97749400  0.19294300  0.07987000  1
  O  O33  1  0.47749400  0.30705700  0.92013000  1
  O  O34  1  0.02250600  0.69294300  0.42013000  1
  O  O35  1  0.52250600  0.80705700  0.57987000  1
  O  O36  1  0.02250600  0.80705700  0.92013000  1
  O  O37  1  0.52250600  0.69294300  0.07987000  1
  O  O38  1  0.97749400  0.30705700  0.57987000  1
  O  O39  1  0.47749400  0.19294300  0.42013000  1
  O  O40  1  0.19193100  0.10984100  0.94763900  1
  O  O41  1  0.69193100  0.39015900  0.05236100  1
  O  O42  1  0.80806900  0.60984100  0.55236100  1
  O  O43  1  0.30806900  0.89015900  0.44763900  1
  O  O44  1  0.80806900  0.89015900  0.05236100  1
  O  O45  1  0.30806900  0.60984100  0.94763900  1
  O  O46  1  0.19193100  0.39015900  0.44763900  1
  O  O47  1  0.69193100  0.10984100  0.55236100  1
  O  O48  1  0.86201200  0.14488300  0.90758500  1
  O  O49  1  0.36201200  0.35511700  0.09241500  1
  O  O50  1  0.13798800  0.64488300  0.59241500  1
  O  O51  1  0.63798800  0.85511700  0.40758500  1
  O  O52  1  0.13798800  0.85511700  0.09241500  1
  O  O53  1  0.63798800  0.64488300  0.90758500  1
  O  O54  1  0.86201200  0.35511700  0.40758500  1
  O  O55  1  0.36201200  0.14488300  0.59241500  1
  O  O56  1  0.65286800  0.09084000  0.28523100  1
  O  O57  1  0.15286800  0.40916000  0.71476900  1
  O  O58  1  0.34713200  0.59084000  0.21476900  1
  O  O59  1  0.84713200  0.90916000  0.78523100  1
  O  O60  1  0.34713200  0.90916000  0.71476900  1
  O  O61  1  0.84713200  0.59084000  0.28523100  1
  O  O62  1  0.65286800  0.40916000  0.78523100  1
  O  O63  1  0.15286800  0.09084000  0.21476900  1
  O  O64  1  0.95412600  0.52115900  0.26027000  1
  O  O65  1  0.45412600  0.97884100  0.73973000  1
  O  O66  1  0.04587400  0.02115900  0.23973000  1
  O  O67  1  0.54587400  0.47884100  0.76027000  1
  O  O68  1  0.04587400  0.47884100  0.73973000  1
  O  O69  1  0.54587400  0.02115900  0.26027000  1
  O  O70  1  0.95412600  0.97884100  0.76027000  1
  O  O71  1  0.45412600  0.52115900  0.23973000  1
