# generated using pymatgen
data_Bi(W2Cl5)3
_symmetry_space_group_name_H-M   'P 1'
_cell_length_a   12.71534000
_cell_length_b   14.00425500
_cell_length_c   15.71111282
_cell_angle_alpha   61.25742384
_cell_angle_beta   90.00000000
_cell_angle_gamma   90.00000000
_symmetry_Int_Tables_number   1
_chemical_formula_structural   Bi(W2Cl5)3
_chemical_formula_sum   'Bi4 W24 Cl60'
_cell_volume   2452.95771732
_cell_formula_units_Z   4
loop_
 _symmetry_equiv_pos_site_id
 _symmetry_equiv_pos_as_xyz
  1  'x, y, z'
loop_
 _atom_site_type_symbol
 _atom_site_label
 _atom_site_symmetry_multiplicity
 _atom_site_fract_x
 _atom_site_fract_y
 _atom_site_fract_z
 _atom_site_occupancy
  Bi  Bi0  1  0.18890200  0.20877700  0.69355300  1
  Bi  Bi1  1  0.68890200  0.79122300  0.80644700  1
  Bi  Bi2  1  0.81109800  0.79122300  0.30644700  1
  Bi  Bi3  1  0.31109800  0.20877700  0.19355300  1
  W  W4  1  0.32084100  0.72429200  0.44593700  1
  W  W5  1  0.82084100  0.27570800  0.05406300  1
  W  W6  1  0.67915900  0.27570800  0.55406300  1
  W  W7  1  0.17915900  0.72429200  0.94593700  1
  W  W8  1  0.22561900  0.87502100  0.47139500  1
  W  W9  1  0.72561900  0.12497900  0.02860500  1
  W  W10  1  0.77438100  0.12497900  0.52860500  1
  W  W11  1  0.27438100  0.87502100  0.97139500  1
  W  W12  1  0.37967300  0.76134900  0.58876500  1
  W  W13  1  0.87967300  0.23865100  0.91123500  1
  W  W14  1  0.62032700  0.23865100  0.41123500  1
  W  W15  1  0.12032700  0.76134900  0.08876500  1
  W  W16  1  0.28017400  0.57866700  0.62745600  1
  W  W17  1  0.78017400  0.42133300  0.87254400  1
  W  W18  1  0.71982600  0.42133300  0.37254400  1
  W  W19  1  0.21982600  0.57866700  0.12745600  1
  W  W20  1  0.12633500  0.69375300  0.51064600  1
  W  W21  1  0.62633500  0.30624700  0.98935400  1
  W  W22  1  0.87366500  0.30624700  0.48935400  1
  W  W23  1  0.37366500  0.69375300  0.01064600  1
  W  W24  1  0.18513200  0.73034300  0.65346000  1
  W  W25  1  0.68513200  0.26965700  0.84654000  1
  W  W26  1  0.81486800  0.26965700  0.34654000  1
  W  W27  1  0.31486800  0.73034300  0.15346000  1
  Cl  Cl28  1  0.10323500  0.05357200  0.68295900  1
  Cl  Cl29  1  0.60323500  0.94642800  0.81704100  1
  Cl  Cl30  1  0.89676500  0.94642800  0.31704100  1
  Cl  Cl31  1  0.39676500  0.05357200  0.18295900  1
  Cl  Cl32  1  0.32479600  0.22877900  0.57210600  1
  Cl  Cl33  1  0.82479600  0.77122100  0.92789400  1
  Cl  Cl34  1  0.67520400  0.77122100  0.42789400  1
  Cl  Cl35  1  0.17520400  0.22877900  0.07210600  1
  Cl  Cl36  1  0.41319400  0.89558800  0.41699200  1
  Cl  Cl37  1  0.91319400  0.10441200  0.08300800  1
  Cl  Cl38  1  0.58680600  0.10441200  0.58300800  1
  Cl  Cl39  1  0.08680600  0.89558800  0.91699200  1
  Cl  Cl40  1  0.46416000  0.61509600  0.56192800  1
  Cl  Cl41  1  0.96416000  0.38490400  0.93807200  1
  Cl  Cl42  1  0.53584000  0.38490400  0.43807200  1
  Cl  Cl43  1  0.03584000  0.61509600  0.06192800  1
  Cl  Cl44  1  0.22566700  0.55099000  0.48868100  1
  Cl  Cl45  1  0.72566700  0.44901000  0.01131900  1
  Cl  Cl46  1  0.77433300  0.44901000  0.51131900  1
  Cl  Cl47  1  0.27433300  0.55099000  0.98868100  1
  Cl  Cl48  1  0.17011600  0.83207100  0.34076200  1
  Cl  Cl49  1  0.67011600  0.16792900  0.15923800  1
  Cl  Cl50  1  0.82988400  0.16792900  0.65923800  1
  Cl  Cl51  1  0.32988400  0.83207100  0.84076200  1
  Cl  Cl52  1  0.28069100  0.90559800  0.60806400  1
  Cl  Cl53  1  0.78069100  0.09440200  0.89193600  1
  Cl  Cl54  1  0.71930900  0.09440200  0.39193600  1
  Cl  Cl55  1  0.21930900  0.90559800  0.10806400  1
  Cl  Cl56  1  0.33584000  0.62043300  0.75921500  1
  Cl  Cl57  1  0.83584000  0.37956700  0.74078500  1
  Cl  Cl58  1  0.66416000  0.37956700  0.24078500  1
  Cl  Cl59  1  0.16416000  0.62043300  0.25921500  1
  Cl  Cl60  1  0.09234400  0.55767500  0.68495800  1
  Cl  Cl61  1  0.59234400  0.44232500  0.81504200  1
  Cl  Cl62  1  0.90765600  0.44232500  0.31504200  1
  Cl  Cl63  1  0.40765600  0.55767500  0.18495800  1
  Cl  Cl64  1  0.04164300  0.83775300  0.53881700  1
  Cl  Cl65  1  0.54164300  0.16224700  0.96118300  1
  Cl  Cl66  1  0.95835700  0.16224700  0.46118300  1
  Cl  Cl67  1  0.45835700  0.83775300  0.03881700  1
  Cl  Cl68  1  0.40907900  0.72534200  0.29971700  1
  Cl  Cl69  1  0.90907900  0.27465800  0.20028300  1
  Cl  Cl70  1  0.59092100  0.27465800  0.70028300  1
  Cl  Cl71  1  0.09092100  0.72534200  0.79971700  1
  Cl  Cl72  1  0.18713500  0.07226000  0.35808100  1
  Cl  Cl73  1  0.68713500  0.92774000  0.14191900  1
  Cl  Cl74  1  0.81286500  0.92774000  0.64191900  1
  Cl  Cl75  1  0.31286500  0.07226000  0.85808100  1
  Cl  Cl76  1  0.54531800  0.80804700  0.63882400  1
  Cl  Cl77  1  0.04531800  0.19195300  0.86117600  1
  Cl  Cl78  1  0.45468200  0.19195300  0.36117600  1
  Cl  Cl79  1  0.95468200  0.80804700  0.13882400  1
  Cl  Cl80  1  0.31240000  0.38354300  0.72951900  1
  Cl  Cl81  1  0.81240000  0.61645700  0.77048100  1
  Cl  Cl82  1  0.68760000  0.61645700  0.27048100  1
  Cl  Cl83  1  0.18760000  0.38354300  0.22951900  1
  Cl  Cl84  1  0.95862100  0.64826000  0.45462700  1
  Cl  Cl85  1  0.45862100  0.35174000  0.04537300  1
  Cl  Cl86  1  0.04137900  0.35174000  0.54537300  1
  Cl  Cl87  1  0.54137900  0.64826000  0.95462700  1
