# generated using pymatgen
data_Na3Fe2P2O8F3
_symmetry_space_group_name_H-M   'P 1'
_cell_length_a   10.75578209
_cell_length_b   12.93818629
_cell_length_c   12.95543121
_cell_angle_alpha   90.00000000
_cell_angle_beta   90.00000000
_cell_angle_gamma   90.00000000
_symmetry_Int_Tables_number   1
_chemical_formula_structural   Na3Fe2P2O8F3
_chemical_formula_sum   'Na24 Fe16 P16 O64 F24'
_cell_volume   1802.88185414
_cell_formula_units_Z   8
loop_
 _symmetry_equiv_pos_site_id
 _symmetry_equiv_pos_as_xyz
  1  'x, y, z'
loop_
 _atom_site_type_symbol
 _atom_site_label
 _atom_site_symmetry_multiplicity
 _atom_site_fract_x
 _atom_site_fract_y
 _atom_site_fract_z
 _atom_site_occupancy
  Na  Na0  1  0.00000000  0.62164679  0.08884458  1
  Na  Na1  1  0.00000000  0.37835321  0.91115542  1
  Na  Na2  1  0.00000000  0.12164679  0.41115542  1
  Na  Na3  1  0.00000000  0.87835321  0.58884458  1
  Na  Na4  1  0.50000000  0.62808417  0.36679115  1
  Na  Na5  1  0.50000000  0.37191583  0.63320885  1
  Na  Na6  1  0.50000000  0.12808417  0.13320885  1
  Na  Na7  1  0.50000000  0.87191583  0.86679115  1
  Na  Na8  1  0.50000000  0.88273192  0.15147961  1
  Na  Na9  1  0.50000000  0.11726808  0.84852039  1
  Na  Na10  1  0.50000000  0.38273192  0.34852039  1
  Na  Na11  1  0.50000000  0.61726808  0.65147961  1
  Na  Na12  1  0.00000000  0.87061081  0.11892788  1
  Na  Na13  1  0.00000000  0.12938919  0.88107212  1
  Na  Na14  1  0.00000000  0.37061081  0.38107212  1
  Na  Na15  1  0.00000000  0.62938919  0.61892788  1
  Na  Na16  1  0.50000000  0.59603499  0.12731785  1
  Na  Na17  1  0.50000000  0.40396501  0.87268215  1
  Na  Na18  1  0.50000000  0.09603499  0.37268215  1
  Na  Na19  1  0.50000000  0.90396501  0.62731785  1
  Na  Na20  1  0.00000000  0.83721225  0.87577663  1
  Na  Na21  1  0.00000000  0.16278775  0.12422337  1
  Na  Na22  1  0.00000000  0.33721225  0.62422337  1
  Na  Na23  1  0.00000000  0.66278775  0.37577663  1
  Fe  Fe24  1  0.18876475  0.50071707  0.24835024  1
  Fe  Fe25  1  0.18876475  0.49928293  0.75164976  1
  Fe  Fe26  1  0.81123525  0.00071707  0.25164976  1
  Fe  Fe27  1  0.81123525  0.99928293  0.74835024  1
  Fe  Fe28  1  0.81123525  0.49928293  0.75164976  1
  Fe  Fe29  1  0.81123525  0.50071707  0.24835024  1
  Fe  Fe30  1  0.18876475  0.99928293  0.74835024  1
  Fe  Fe31  1  0.18876475  0.00071707  0.25164976  1
  Fe  Fe32  1  0.31015176  0.75169224  0.50312352  1
  Fe  Fe33  1  0.31015176  0.24830776  0.49687648  1
  Fe  Fe34  1  0.68984824  0.25169224  0.99687648  1
  Fe  Fe35  1  0.68984824  0.74830776  0.00312352  1
  Fe  Fe36  1  0.68984824  0.24830776  0.49687648  1
  Fe  Fe37  1  0.68984824  0.75169224  0.50312352  1
  Fe  Fe38  1  0.31015176  0.74830776  0.00312352  1
  Fe  Fe39  1  0.31015176  0.25169224  0.99687648  1
  P  P40  1  0.24954002  0.74884908  0.24839551  1
  P  P41  1  0.24954002  0.25115092  0.75160449  1
  P  P42  1  0.75045998  0.24884908  0.25160449  1
  P  P43  1  0.75045998  0.75115092  0.74839551  1
  P  P44  1  0.75045998  0.25115092  0.75160449  1
  P  P45  1  0.75045998  0.74884908  0.24839551  1
  P  P46  1  0.24954002  0.75115092  0.74839551  1
  P  P47  1  0.24954002  0.24884908  0.25160449  1
  P  P48  1  0.24936120  0.50000000  0.50000000  1
  P  P49  1  0.75063880  0.00000000  0.00000000  1
  P  P50  1  0.75063880  0.50000000  0.50000000  1
  P  P51  1  0.24936120  -0.00000000  0.00000000  1
  P  P52  1  0.24898235  0.50000000  0.00000000  1
  P  P53  1  0.75101765  0.00000000  0.50000000  1
  P  P54  1  0.75101765  0.50000000  0.00000000  1
  P  P55  1  0.24898235  0.00000000  0.50000000  1
  O  O56  1  0.34642277  0.74483216  0.15941345  1
  O  O57  1  0.34642277  0.25516784  0.84058655  1
  O  O58  1  0.65357723  0.24483216  0.34058655  1
  O  O59  1  0.65357723  0.75516784  0.65941345  1
  O  O60  1  0.65357723  0.25516784  0.84058655  1
  O  O61  1  0.65357723  0.74483216  0.15941345  1
  O  O62  1  0.34642277  0.75516784  0.65941345  1
  O  O63  1  0.34642277  0.24483216  0.34058655  1
  O  O64  1  0.84247828  0.65650130  0.24079562  1
  O  O65  1  0.84247828  0.34349870  0.75920438  1
  O  O66  1  0.15752172  0.15650130  0.25920438  1
  O  O67  1  0.15752172  0.84349870  0.74079562  1
  O  O68  1  0.15752172  0.34349870  0.75920438  1
  O  O69  1  0.15752172  0.65650130  0.24079562  1
  O  O70  1  0.84247828  0.84349870  0.74079562  1
  O  O71  1  0.84247828  0.15650130  0.25920438  1
  O  O72  1  0.32362579  0.75604378  0.85040387  1
  O  O73  1  0.32362579  0.24395622  0.14959613  1
  O  O74  1  0.67637421  0.25604378  0.64959613  1
  O  O75  1  0.67637421  0.74395622  0.35040387  1
  O  O76  1  0.67637421  0.24395622  0.14959613  1
  O  O77  1  0.67637421  0.75604378  0.85040387  1
  O  O78  1  0.32362579  0.74395622  0.35040387  1
  O  O79  1  0.32362579  0.25604378  0.64959613  1
  O  O80  1  0.17036335  0.84797696  0.24030187  1
  O  O81  1  0.17036335  0.15202304  0.75969813  1
  O  O82  1  0.82963665  0.34797696  0.25969813  1
  O  O83  1  0.82963665  0.65202304  0.74030187  1
  O  O84  1  0.82963665  0.15202304  0.75969813  1
  O  O85  1  0.82963665  0.84797696  0.24030187  1
  O  O86  1  0.17036335  0.65202304  0.74030187  1
  O  O87  1  0.17036335  0.34797696  0.25969813  1
  O  O88  1  0.16235655  0.51061437  0.40496540  1
  O  O89  1  0.16235655  0.48938563  0.59503460  1
  O  O90  1  0.83764345  0.01061437  0.09503460  1
  O  O91  1  0.83764345  0.98938563  0.90496540  1
  O  O92  1  0.83764345  0.48938563  0.59503460  1
  O  O93  1  0.83764345  0.51061437  0.40496540  1
  O  O94  1  0.16235655  0.98938563  0.90496540  1
  O  O95  1  0.16235655  0.01061437  0.09503460  1
  O  O96  1  0.33441643  0.90406835  0.50638057  1
  O  O97  1  0.33441643  0.09593165  0.49361943  1
  O  O98  1  0.66558357  0.40406835  0.99361943  1
  O  O99  1  0.66558357  0.59593165  0.00638057  1
  O  O100  1  0.66558357  0.09593165  0.49361943  1
  O  O101  1  0.66558357  0.90406835  0.50638057  1
  O  O102  1  0.33441643  0.59593165  0.00638057  1
  O  O103  1  0.33441643  0.40406835  0.99361943  1
  O  O104  1  0.16322154  0.49436317  0.09555990  1
  O  O105  1  0.16322154  0.50563683  0.90444010  1
  O  O106  1  0.83677846  0.99436317  0.40444010  1
  O  O107  1  0.83677846  0.00563683  0.59555990  1
  O  O108  1  0.83677846  0.50563683  0.90444010  1
  O  O109  1  0.83677846  0.49436317  0.09555990  1
  O  O110  1  0.16322154  0.00563683  0.59555990  1
  O  O111  1  0.16322154  0.99436317  0.40444010  1
  O  O112  1  0.33686787  0.59516335  0.51028456  1
  O  O113  1  0.33686787  0.40483665  0.48971544  1
  O  O114  1  0.66313213  0.09516335  0.98971544  1
  O  O115  1  0.66313213  0.90483665  0.01028456  1
  O  O116  1  0.66313213  0.40483665  0.48971544  1
  O  O117  1  0.66313213  0.59516335  0.51028456  1
  O  O118  1  0.33686787  0.90483665  0.01028456  1
  O  O119  1  0.33686787  0.09516335  0.98971544  1
  F  F120  1  0.00000000  0.50154872  0.25287014  1
  F  F121  1  0.00000000  0.49845128  0.74712986  1
  F  F122  1  0.00000000  0.00154872  0.24712986  1
  F  F123  1  0.00000000  0.99845128  0.75287014  1
  F  F124  1  0.50000000  0.74742126  0.50053823  1
  F  F125  1  0.50000000  0.25257874  0.49946177  1
  F  F126  1  0.50000000  0.24742126  0.99946177  1
  F  F127  1  0.50000000  0.75257874  0.00053823  1
  F  F128  1  0.36917571  0.51113300  0.25726839  1
  F  F129  1  0.36917571  0.48886700  0.74273161  1
  F  F130  1  0.63082429  0.01113300  0.24273161  1
  F  F131  1  0.63082429  0.98886700  0.75726839  1
  F  F132  1  0.63082429  0.48886700  0.74273161  1
  F  F133  1  0.63082429  0.51113300  0.25726839  1
  F  F134  1  0.36917571  0.98886700  0.75726839  1
  F  F135  1  0.36917571  0.01113300  0.24273161  1
  F  F136  1  0.12968742  0.74342429  0.51245301  1
  F  F137  1  0.12968742  0.25657571  0.48754699  1
  F  F138  1  0.87031258  0.24342429  0.98754699  1
  F  F139  1  0.87031258  0.75657571  0.01245301  1
  F  F140  1  0.87031258  0.25657571  0.48754699  1
  F  F141  1  0.87031258  0.74342429  0.51245301  1
  F  F142  1  0.12968742  0.75657571  0.01245301  1
  F  F143  1  0.12968742  0.24342429  0.98754699  1
