# generated using pymatgen
data_Co2H36N13Cl5O3
_symmetry_space_group_name_H-M   'P 1'
_cell_length_a   13.04384454
_cell_length_b   13.04384454
_cell_length_c   7.09689242
_cell_angle_alpha   88.31757386
_cell_angle_beta   88.31757386
_cell_angle_gamma   70.71967788
_symmetry_Int_Tables_number   1
_chemical_formula_structural   Co2H36N13Cl5O3
_chemical_formula_sum   'Co4 H72 N26 Cl10 O6'
_cell_volume   1139.01764536
_cell_formula_units_Z   2
loop_
 _symmetry_equiv_pos_site_id
 _symmetry_equiv_pos_as_xyz
  1  'x, y, z'
loop_
 _atom_site_type_symbol
 _atom_site_label
 _atom_site_symmetry_multiplicity
 _atom_site_fract_x
 _atom_site_fract_y
 _atom_site_fract_z
 _atom_site_occupancy
  Co  Co0  1  0.00000000  0.50000000  0.50000000  1
  Co  Co1  1  0.50000000  0.00000000  0.50000000  1
  Co  Co2  1  0.00000000  0.00000000  0.00000000  1
  Co  Co3  1  0.50000000  0.50000000  0.00000000  1
  H  H4  1  0.94263600  0.64517200  0.23135500  1
  H  H5  1  0.64517200  0.94263600  0.23135500  1
  H  H6  1  0.05736400  0.35482800  0.76864500  1
  H  H7  1  0.35482800  0.05736400  0.76864500  1
  H  H8  1  0.96130000  0.52426700  0.14728600  1
  H  H9  1  0.52426700  0.96130000  0.14728600  1
  H  H10  1  0.03870000  0.47573300  0.85271400  1
  H  H11  1  0.47573300  0.03870000  0.85271400  1
  H  H12  1  0.84883400  0.58808100  0.25778100  1
  H  H13  1  0.58808100  0.84883400  0.25778100  1
  H  H14  1  0.15116600  0.41191900  0.74221900  1
  H  H15  1  0.41191900  0.15116600  0.74221900  1
  H  H16  1  0.96938500  0.31565100  0.54986300  1
  H  H17  1  0.31565100  0.96938500  0.54986300  1
  H  H18  1  0.03061500  0.68434900  0.45013700  1
  H  H19  1  0.68434900  0.03061500  0.45013700  1
  H  H20  1  0.86037200  0.40012800  0.45190300  1
  H  H21  1  0.40012800  0.86037200  0.45190300  1
  H  H22  1  0.13962800  0.59987200  0.54809700  1
  H  H23  1  0.59987200  0.13962800  0.54809700  1
  H  H24  1  0.97014700  0.34425100  0.32541200  1
  H  H25  1  0.34425100  0.97014700  0.32541200  1
  H  H26  1  0.02985300  0.65574900  0.67458800  1
  H  H27  1  0.65574900  0.02985300  0.67458800  1
  H  H28  1  0.19502700  0.37910800  0.44063400  1
  H  H29  1  0.37910800  0.19502700  0.44063400  1
  H  H30  1  0.80497300  0.62089200  0.55936600  1
  H  H31  1  0.62089200  0.80497300  0.55936600  1
  H  H32  1  0.12039200  0.37188200  0.26041800  1
  H  H33  1  0.37188200  0.12039200  0.26041800  1
  H  H34  1  0.87960800  0.62811800  0.73958200  1
  H  H35  1  0.62811800  0.87960800  0.73958200  1
  H  H36  1  0.15979800  0.47878300  0.27752000  1
  H  H37  1  0.47878300  0.15979800  0.27752000  1
  H  H38  1  0.84020200  0.52121700  0.72248000  1
  H  H39  1  0.52121700  0.84020200  0.72248000  1
  H  H40  1  0.97658900  0.20244000  0.97857800  1
  H  H41  1  0.20244000  0.97658900  0.97857800  1
  H  H42  1  0.02341100  0.79756000  0.02142200  1
  H  H43  1  0.79756000  0.02341100  0.02142200  1
  H  H44  1  0.01314100  0.14854500  0.77263800  1
  H  H45  1  0.14854500  0.01314100  0.77263800  1
  H  H46  1  0.98685900  0.85145500  0.22736200  1
  H  H47  1  0.85145500  0.98685900  0.22736200  1
  H  H48  1  0.88568900  0.17894500  0.84208300  1
  H  H49  1  0.17894500  0.88568900  0.84208300  1
  H  H50  1  0.11431100  0.82105500  0.15791700  1
  H  H51  1  0.82105500  0.11431100  0.15791700  1
  H  H52  1  0.97945400  0.87133200  0.75251900  1
  H  H53  1  0.87133200  0.97945400  0.75251900  1
  H  H54  1  0.02054600  0.12866800  0.24748100  1
  H  H55  1  0.12866800  0.02054600  0.24748100  1
  H  H56  1  0.98416900  0.98416900  0.65076400  1
  H  H57  1  0.01583100  0.01583100  0.34923600  1
  H  H58  1  0.44507100  0.33286000  0.06093200  1
  H  H59  1  0.33286000  0.44507100  0.06093200  1
  H  H60  1  0.55492900  0.66714000  0.93906700  1
  H  H61  1  0.66714000  0.55492900  0.93906700  1
  H  H62  1  0.39369400  0.39369400  0.86230900  1
  H  H63  1  0.60630600  0.60630600  0.13769100  1
  H  H64  1  0.42790000  0.65623800  0.75672800  1
  H  H65  1  0.65623800  0.42790000  0.75672800  1
  H  H66  1  0.57210000  0.34376200  0.24327200  1
  H  H67  1  0.34376200  0.57210000  0.24327200  1
  H  H68  1  0.40342100  0.54569100  0.68778600  1
  H  H69  1  0.54569100  0.40342100  0.68778600  1
  H  H70  1  0.59657900  0.45430900  0.31221400  1
  H  H71  1  0.45430900  0.59657900  0.31221400  1
  H  H72  1  0.32558500  0.62202400  0.85157100  1
  H  H73  1  0.62202400  0.32558500  0.85157100  1
  H  H74  1  0.67441500  0.37797600  0.14842900  1
  H  H75  1  0.37797600  0.67441500  0.14842900  1
  N  N76  1  0.93144700  0.57182500  0.26139000  1
  N  N77  1  0.57182500  0.93144700  0.26139000  1
  N  N78  1  0.06855300  0.42817500  0.73861000  1
  N  N79  1  0.42817500  0.06855300  0.73861000  1
  N  N80  1  0.94365900  0.37875900  0.45315900  1
  N  N81  1  0.37875900  0.94365900  0.45315900  1
  N  N82  1  0.05634100  0.62124100  0.54684100  1
  N  N83  1  0.62124100  0.05634100  0.54684100  1
  N  N84  1  0.13277200  0.42417400  0.35643600  1
  N  N85  1  0.42417400  0.13277200  0.35643600  1
  N  N86  1  0.86722800  0.57582600  0.64356400  1
  N  N87  1  0.57582600  0.86722800  0.64356400  1
  N  N88  1  0.96407200  0.14758100  0.88942200  1
  N  N89  1  0.14758100  0.96407200  0.88942200  1
  N  N90  1  0.03592800  0.85241900  0.11057800  1
  N  N91  1  0.85241900  0.03592800  0.11057800  1
  N  N92  1  0.95396200  0.95396200  0.76590500  1
  N  N93  1  0.04603800  0.04603800  0.23409500  1
  N  N94  1  0.40811000  0.40811000  0.99973300  1
  N  N95  1  0.59189000  0.59189000  0.00026700  1
  N  N96  1  0.40490900  0.59155300  0.80260100  1
  N  N97  1  0.59155300  0.40490900  0.80260100  1
  N  N98  1  0.59509100  0.40844700  0.19739900  1
  N  N99  1  0.40844700  0.59509100  0.19739900  1
  N  N100  1  0.20796100  0.20796100  0.07146600  1
  N  N101  1  0.79203900  0.79203900  0.92853400  1
  Cl  Cl102  1  0.16054700  0.16054700  0.59688000  1
  Cl  Cl103  1  0.83945300  0.83945300  0.40312000  1
  Cl  Cl104  1  0.83531300  0.41212000  0.97364400  1
  Cl  Cl105  1  0.41212000  0.83531300  0.97364400  1
  Cl  Cl106  1  0.16468700  0.58788000  0.02635600  1
  Cl  Cl107  1  0.58788000  0.16468700  0.02635600  1
  Cl  Cl108  1  0.82043000  0.17957000  0.50000000  1
  Cl  Cl109  1  0.17957000  0.82043000  0.50000000  1
  Cl  Cl110  1  0.61175700  0.61175700  0.46870300  1
  Cl  Cl111  1  0.38824300  0.38824300  0.53129700  1
  O  O112  1  0.10537300  0.25208200  0.09577700  1
  O  O113  1  0.25208200  0.10537300  0.09577700  1
  O  O114  1  0.89462700  0.74791800  0.90422300  1
  O  O115  1  0.74791800  0.89462700  0.90422300  1
  O  O116  1  0.26563200  0.26563200  0.02627600  1
  O  O117  1  0.73436800  0.73436800  0.97372400  1
