# generated using pymatgen
data_Mo6H24C8N2O19
_symmetry_space_group_name_H-M   'P 1'
_cell_length_a   10.52288635
_cell_length_b   10.52288635
_cell_length_c   15.12846600
_cell_angle_alpha   90.00000000
_cell_angle_beta   90.00000000
_cell_angle_gamma   120.00000219
_symmetry_Int_Tables_number   1
_chemical_formula_structural   Mo6H24C8N2O19
_chemical_formula_sum   'Mo12 H48 C16 N4 O38'
_cell_volume   1450.75900654
_cell_formula_units_Z   2
loop_
 _symmetry_equiv_pos_site_id
 _symmetry_equiv_pos_as_xyz
  1  'x, y, z'
loop_
 _atom_site_type_symbol
 _atom_site_label
 _atom_site_symmetry_multiplicity
 _atom_site_fract_x
 _atom_site_fract_y
 _atom_site_fract_z
 _atom_site_occupancy
  Mo  Mo0  1  0.87322800  0.08251200  0.90971400  1
  Mo  Mo1  1  0.20928400  0.12677200  0.90971400  1
  Mo  Mo2  1  0.91748800  0.79071600  0.90971400  1
  Mo  Mo3  1  0.87322800  0.79071600  0.40971400  1
  Mo  Mo4  1  0.91748800  0.12677200  0.40971400  1
  Mo  Mo5  1  0.20928400  0.08251200  0.40971400  1
  Mo  Mo6  1  0.12677200  0.91748800  0.09028600  1
  Mo  Mo7  1  0.79071600  0.87322800  0.09028600  1
  Mo  Mo8  1  0.08251200  0.20928400  0.09028600  1
  Mo  Mo9  1  0.12677200  0.20928400  0.59028600  1
  Mo  Mo10  1  0.08251200  0.87322800  0.59028600  1
  Mo  Mo11  1  0.79071600  0.91748800  0.59028600  1
  H  H12  1  0.55706500  0.37192800  0.22392000  1
  H  H13  1  0.81486300  0.44293500  0.22392000  1
  H  H14  1  0.62807200  0.18513700  0.22392000  1
  H  H15  1  0.55706500  0.18513700  0.72392000  1
  H  H16  1  0.62807200  0.44293500  0.72392000  1
  H  H17  1  0.81486300  0.37192800  0.72392000  1
  H  H18  1  0.44293500  0.62807200  0.77608000  1
  H  H19  1  0.18513700  0.55706500  0.77608000  1
  H  H20  1  0.37192800  0.81486300  0.77608000  1
  H  H21  1  0.44293500  0.81486300  0.27608000  1
  H  H22  1  0.37192800  0.55706500  0.27608000  1
  H  H23  1  0.18513700  0.62807200  0.27608000  1
  H  H24  1  0.44938800  0.29594000  0.12595200  1
  H  H25  1  0.84655200  0.55061200  0.12595200  1
  H  H26  1  0.70406000  0.15344800  0.12595200  1
  H  H27  1  0.44938800  0.15344800  0.62595200  1
  H  H28  1  0.70406000  0.55061200  0.62595200  1
  H  H29  1  0.84655200  0.29594000  0.62595200  1
  H  H30  1  0.55061200  0.70406000  0.87404800  1
  H  H31  1  0.15344800  0.44938800  0.87404800  1
  H  H32  1  0.29594000  0.84655200  0.87404800  1
  H  H33  1  0.55061200  0.84655200  0.37404800  1
  H  H34  1  0.29594000  0.44938800  0.37404800  1
  H  H35  1  0.15344800  0.70406000  0.37404800  1
  H  H36  1  0.59013000  0.48563000  0.12794700  1
  H  H37  1  0.89550000  0.40987000  0.12794700  1
  H  H38  1  0.51437000  0.10450000  0.12794700  1
  H  H39  1  0.59013000  0.10450000  0.62794700  1
  H  H40  1  0.51437000  0.40987000  0.62794700  1
  H  H41  1  0.89550000  0.48563000  0.62794700  1
  H  H42  1  0.40987000  0.51437000  0.87205300  1
  H  H43  1  0.10450000  0.59013000  0.87205300  1
  H  H44  1  0.48563000  0.89550000  0.87205300  1
  H  H45  1  0.40987000  0.89550000  0.37205300  1
  H  H46  1  0.48563000  0.59013000  0.37205300  1
  H  H47  1  0.10450000  0.51437000  0.37205300  1
  H  H48  1  0.55561000  0.25598300  0.99604700  1
  H  H49  1  0.70037200  0.44439000  0.99604700  1
  H  H50  1  0.74401700  0.29962800  0.99604700  1
  H  H51  1  0.55561000  0.29962800  0.49604700  1
  H  H52  1  0.74401700  0.44439000  0.49604700  1
  H  H53  1  0.70037200  0.25598300  0.49604700  1
  H  H54  1  0.44439000  0.74401700  0.00395300  1
  H  H55  1  0.29962800  0.55561000  0.00395300  1
  H  H56  1  0.25598300  0.70037200  0.00395300  1
  H  H57  1  0.44439000  0.70037200  0.50395300  1
  H  H58  1  0.25598300  0.55561000  0.50395300  1
  H  H59  1  0.29962800  0.74401700  0.50395300  1
  C  C60  1  0.55789400  0.37544600  0.15149700  1
  C  C61  1  0.81755200  0.44210600  0.15149700  1
  C  C62  1  0.62455400  0.18244800  0.15149700  1
  C  C63  1  0.55789400  0.18244800  0.65149700  1
  C  C64  1  0.62455400  0.44210600  0.65149700  1
  C  C65  1  0.81755200  0.37544600  0.65149700  1
  C  C66  1  0.44210600  0.62455400  0.84850300  1
  C  C67  1  0.18244800  0.55789400  0.84850300  1
  C  C68  1  0.37544600  0.81755200  0.84850300  1
  C  C69  1  0.44210600  0.81755200  0.34850300  1
  C  C70  1  0.37544600  0.55789400  0.34850300  1
  C  C71  1  0.18244800  0.62455400  0.34850300  1
  C  C72  1  0.66666700  0.33333300  0.01918700  1
  C  C73  1  0.66666700  0.33333300  0.51918700  1
  C  C74  1  0.33333300  0.66666700  0.98081300  1
  C  C75  1  0.33333300  0.66666700  0.48081300  1
  N  N76  1  0.66666700  0.33333300  0.11838500  1
  N  N77  1  0.66666700  0.33333300  0.61838500  1
  N  N78  1  0.33333300  0.66666700  0.88161500  1
  N  N79  1  0.33333300  0.66666700  0.38161500  1
  O  O80  1  0.77661400  0.14070700  0.84606900  1
  O  O81  1  0.36409300  0.22338600  0.84606900  1
  O  O82  1  0.85929300  0.63590700  0.84606900  1
  O  O83  1  0.77661400  0.63590700  0.34606900  1
  O  O84  1  0.85929300  0.22338600  0.34606900  1
  O  O85  1  0.36409300  0.14070700  0.34606900  1
  O  O86  1  0.22338600  0.85929300  0.15393100  1
  O  O87  1  0.63590700  0.77661400  0.15393100  1
  O  O88  1  0.14070700  0.36409300  0.15393100  1
  O  O89  1  0.22338600  0.36409300  0.65393100  1
  O  O90  1  0.14070700  0.77661400  0.65393100  1
  O  O91  1  0.63590700  0.85929300  0.65393100  1
  O  O92  1  0.95541900  0.23088700  0.00169700  1
  O  O93  1  0.27546800  0.04458100  0.00169700  1
  O  O94  1  0.76911300  0.72453200  0.00169700  1
  O  O95  1  0.95541900  0.72453200  0.50169700  1
  O  O96  1  0.76911300  0.04458100  0.50169700  1
  O  O97  1  0.27546800  0.23088700  0.50169700  1
  O  O98  1  0.04458100  0.76911300  0.99830300  1
  O  O99  1  0.72453200  0.95541900  0.99830300  1
  O  O100  1  0.23088700  0.27546800  0.99830300  1
  O  O101  1  0.04458100  0.27546800  0.49830300  1
  O  O102  1  0.23088700  0.95541900  0.49830300  1
  O  O103  1  0.72453200  0.76911300  0.49830300  1
  O  O104  1  0.06450500  0.16951300  0.85552200  1
  O  O105  1  0.10500800  0.93549500  0.85552200  1
  O  O106  1  0.83048700  0.89499200  0.85552200  1
  O  O107  1  0.06450500  0.89499200  0.35552200  1
  O  O108  1  0.83048700  0.93549500  0.35552200  1
  O  O109  1  0.10500800  0.16951300  0.35552200  1
  O  O110  1  0.93549500  0.83048700  0.14447800  1
  O  O111  1  0.89499200  0.06450500  0.14447800  1
  O  O112  1  0.16951300  0.10500800  0.14447800  1
  O  O113  1  0.93549500  0.10500800  0.64447800  1
  O  O114  1  0.16951300  0.06450500  0.64447800  1
  O  O115  1  0.89499200  0.83048700  0.64447800  1
  O  O116  1  0.00000000  0.00000000  0.00000000  1
  O  O117  1  0.00000000  0.00000000  0.50000000  1
