# generated using pymatgen
data_CoN7O8
_symmetry_space_group_name_H-M   'P 1'
_cell_length_a   6.13434600
_cell_length_b   10.83776500
_cell_length_c   16.25386500
_cell_angle_alpha   90.00000000
_cell_angle_beta   90.00000000
_cell_angle_gamma   90.00000000
_symmetry_Int_Tables_number   1
_chemical_formula_structural   CoN7O8
_chemical_formula_sum   'Co4 N28 O32'
_cell_volume   1080.59921137
_cell_formula_units_Z   4
loop_
 _symmetry_equiv_pos_site_id
 _symmetry_equiv_pos_as_xyz
  1  'x, y, z'
loop_
 _atom_site_type_symbol
 _atom_site_label
 _atom_site_symmetry_multiplicity
 _atom_site_fract_x
 _atom_site_fract_y
 _atom_site_fract_z
 _atom_site_occupancy
  Co  Co0  1  0.78840000  0.45527600  0.36393400  1
  Co  Co1  1  0.71160000  0.54472400  0.86393400  1
  Co  Co2  1  0.21160000  0.95527600  0.13606600  1
  Co  Co3  1  0.28840000  0.04472400  0.63606600  1
  N  N4  1  0.48887300  0.38031200  0.36903800  1
  N  N5  1  0.01112700  0.61968800  0.86903800  1
  N  N6  1  0.51112700  0.88031200  0.13096200  1
  N  N7  1  0.98887300  0.11968800  0.63096200  1
  N  N8  1  0.02286800  0.58245600  0.37199800  1
  N  N9  1  0.47713200  0.41754400  0.87199800  1
  N  N10  1  0.97713200  0.08245600  0.12800200  1
  N  N11  1  0.52286800  0.91754400  0.62800200  1
  N  N12  1  0.91441600  0.35230400  0.31512900  1
  N  N13  1  0.58558400  0.64769600  0.81512900  1
  N  N14  1  0.08558400  0.85230400  0.18487100  1
  N  N15  1  0.41441600  0.14769600  0.68487100  1
  N  N16  1  0.85515600  0.39579800  0.46057800  1
  N  N17  1  0.64484400  0.60420200  0.96057800  1
  N  N18  1  0.14484400  0.89579800  0.03942200  1
  N  N19  1  0.35515600  0.10420200  0.53942200  1
  N  N20  1  0.52720500  0.72131500  0.39031200  1
  N  N21  1  0.97279500  0.27868500  0.89031200  1
  N  N22  1  0.47279500  0.22131500  0.10968800  1
  N  N23  1  0.02720500  0.77868500  0.60968800  1
  N  N24  1  0.59664000  0.62981500  0.37373600  1
  N  N25  1  0.90336000  0.37018500  0.87373600  1
  N  N26  1  0.40336000  0.12981500  0.12626400  1
  N  N27  1  0.09664000  0.87018500  0.62626400  1
  N  N28  1  0.40177500  0.46353400  0.62525500  1
  N  N29  1  0.09822500  0.53646600  0.12525500  1
  N  N30  1  0.59822500  0.96353400  0.87474500  1
  N  N31  1  0.90177500  0.03646600  0.37474500  1
  O  O32  1  0.40057000  0.36558900  0.30176900  1
  O  O33  1  0.09943000  0.63441100  0.80176900  1
  O  O34  1  0.59943000  0.86558900  0.19823100  1
  O  O35  1  0.90057000  0.13441100  0.69823100  1
  O  O36  1  0.40923100  0.36210200  0.43692000  1
  O  O37  1  0.09076900  0.63789800  0.93692000  1
  O  O38  1  0.59076900  0.86210200  0.06308000  1
  O  O39  1  0.90923100  0.13789800  0.56308000  1
  O  O40  1  0.08091100  0.61508400  0.44090000  1
  O  O41  1  0.41908900  0.38491600  0.94090000  1
  O  O42  1  0.91908900  0.11508400  0.05910000  1
  O  O43  1  0.58091100  0.88491600  0.55910000  1
  O  O44  1  0.08782200  0.62361800  0.30591900  1
  O  O45  1  0.41217800  0.37638200  0.80591900  1
  O  O46  1  0.91217800  0.12361800  0.19408100  1
  O  O47  1  0.58782200  0.87638200  0.69408100  1
  O  O48  1  0.43366500  0.58069200  0.62225800  1
  O  O49  1  0.06633500  0.41930800  0.12225800  1
  O  O50  1  0.56633500  0.08069200  0.87774200  1
  O  O51  1  0.93366500  0.91930800  0.37774200  1
  O  O52  1  0.21601300  0.42079900  0.62598400  1
  O  O53  1  0.28398700  0.57920100  0.12598400  1
  O  O54  1  0.78398700  0.92079900  0.87401600  1
  O  O55  1  0.71601300  0.07920100  0.37401600  1
  O  O56  1  0.56887700  0.39277300  0.62763300  1
  O  O57  1  0.93112300  0.60722700  0.12763300  1
  O  O58  1  0.43112300  0.89277300  0.87236700  1
  O  O59  1  0.06887700  0.10722700  0.37236700  1
  O  O60  1  0.77497800  0.54786000  0.63134200  1
  O  O61  1  0.72502200  0.45214000  0.13134200  1
  O  O62  1  0.22502200  0.04786000  0.86865800  1
  O  O63  1  0.27497800  0.95214000  0.36865800  1
