# generated using pymatgen
data_Mo2H9C2NO7
_symmetry_space_group_name_H-M   'P 1'
_cell_length_a   10.22428670
_cell_length_b   10.22428670
_cell_length_c   10.17523349
_cell_angle_alpha   101.74657130
_cell_angle_beta   101.74657130
_cell_angle_gamma   111.67904292
_symmetry_Int_Tables_number   1
_chemical_formula_structural   Mo2H9C2NO7
_chemical_formula_sum   'Mo8 H36 C8 N4 O28'
_cell_volume   921.18828424
_cell_formula_units_Z   4
loop_
 _symmetry_equiv_pos_site_id
 _symmetry_equiv_pos_as_xyz
  1  'x, y, z'
loop_
 _atom_site_type_symbol
 _atom_site_label
 _atom_site_symmetry_multiplicity
 _atom_site_fract_x
 _atom_site_fract_y
 _atom_site_fract_z
 _atom_site_occupancy
  Mo  Mo0  1  0.79266600  0.51358400  0.62138300  1
  Mo  Mo1  1  0.51358400  0.79266600  0.62138300  1
  Mo  Mo2  1  0.20733400  0.48641600  0.37861700  1
  Mo  Mo3  1  0.48641600  0.20733400  0.37861700  1
  Mo  Mo4  1  0.59313400  0.59313400  0.38636400  1
  Mo  Mo5  1  0.40686600  0.40686600  0.61363600  1
  Mo  Mo6  1  0.71585900  0.71585900  0.86767700  1
  Mo  Mo7  1  0.28414100  0.28414100  0.13232300  1
  H  H8  1  0.09421200  0.94549200  0.58948300  1
  H  H9  1  0.94549200  0.09421200  0.58948300  1
  H  H10  1  0.90578800  0.05450800  0.41051700  1
  H  H11  1  0.05450800  0.90578800  0.41051700  1
  H  H12  1  0.07140800  0.77905100  0.49048600  1
  H  H13  1  0.77905100  0.07140800  0.49048600  1
  H  H14  1  0.92859200  0.22094900  0.50951400  1
  H  H15  1  0.22094900  0.92859200  0.50951400  1
  H  H16  1  0.12496200  0.12496200  0.80243500  1
  H  H17  1  0.87503800  0.87503800  0.19756500  1
  H  H18  1  0.97801400  0.97801400  0.76365100  1
  H  H19  1  0.02198600  0.02198600  0.23634900  1
  H  H20  1  0.86032100  0.34784300  0.86634300  1
  H  H21  1  0.34784300  0.86032100  0.86634300  1
  H  H22  1  0.13967900  0.65215700  0.13365700  1
  H  H23  1  0.65215700  0.13967900  0.13365700  1
  H  H24  1  0.81656500  0.15725100  0.84893000  1
  H  H25  1  0.15725100  0.81656500  0.84893000  1
  H  H26  1  0.18343500  0.84274900  0.15107000  1
  H  H27  1  0.84274900  0.18343500  0.15107000  1
  H  H28  1  0.96089100  0.29906900  0.00083900  1
  H  H29  1  0.29906900  0.96089100  0.00083900  1
  H  H30  1  0.03910900  0.70093100  0.99916100  1
  H  H31  1  0.70093100  0.03910900  0.99916100  1
  H  H32  1  0.69920700  0.39005000  0.16004800  1
  H  H33  1  0.39005000  0.69920700  0.16004800  1
  H  H34  1  0.30079300  0.60995000  0.83995200  1
  H  H35  1  0.60995000  0.30079300  0.83995200  1
  H  H36  1  0.79175700  0.48888000  0.05436800  1
  H  H37  1  0.48888000  0.79175700  0.05436800  1
  H  H38  1  0.20824300  0.51112000  0.94563200  1
  H  H39  1  0.51112000  0.20824300  0.94563200  1
  H  H40  1  0.89095100  0.43517300  0.18456300  1
  H  H41  1  0.43517300  0.89095100  0.18456300  1
  H  H42  1  0.10904900  0.56482700  0.81543700  1
  H  H43  1  0.56482700  0.10904900  0.81543700  1
  C  C44  1  0.85397900  0.26711900  0.92369800  1
  C  C45  1  0.26711900  0.85397900  0.92369800  1
  C  C46  1  0.14602100  0.73288100  0.07630200  1
  C  C47  1  0.73288100  0.14602100  0.07630200  1
  C  C48  1  0.78450800  0.40445200  0.10726600  1
  C  C49  1  0.40445200  0.78450800  0.10726600  1
  C  C50  1  0.21549200  0.59554800  0.89273400  1
  C  C51  1  0.59554800  0.21549200  0.89273400  1
  N  N52  1  0.74134200  0.25865800  0.00000000  1
  N  N53  1  0.25865800  0.74134200  0.00000000  1
  N  N54  1  0.11024200  0.88975800  0.50000000  1
  N  N55  1  0.88975800  0.11024200  0.50000000  1
  O  O56  1  0.62111600  0.62111600  0.60218100  1
  O  O57  1  0.37888400  0.37888400  0.39781900  1
  O  O58  1  0.68003500  0.45305300  0.41745100  1
  O  O59  1  0.45305300  0.68003500  0.41745100  1
  O  O60  1  0.31996500  0.54694700  0.58254900  1
  O  O61  1  0.54694700  0.31996500  0.58254900  1
  O  O62  1  0.78627200  0.56511800  0.81348800  1
  O  O63  1  0.56511800  0.78627200  0.81348800  1
  O  O64  1  0.21372800  0.43488200  0.18651200  1
  O  O65  1  0.43488200  0.21372800  0.18651200  1
  O  O66  1  0.94322100  0.67035300  0.63067900  1
  O  O67  1  0.67035300  0.94322100  0.63067900  1
  O  O68  1  0.05677900  0.32964700  0.36932100  1
  O  O69  1  0.32964700  0.05677900  0.36932100  1
  O  O70  1  0.85985800  0.38063400  0.62353100  1
  O  O71  1  0.38063400  0.85985800  0.62353100  1
  O  O72  1  0.14014200  0.61936600  0.37646900  1
  O  O73  1  0.61936600  0.14014200  0.37646900  1
  O  O74  1  0.74185500  0.74185500  0.38282200  1
  O  O75  1  0.25814500  0.25814500  0.61717800  1
  O  O76  1  0.49205000  0.49205000  0.20393900  1
  O  O77  1  0.50795000  0.50795000  0.79606100  1
  O  O78  1  0.86511100  0.86511100  0.85989700  1
  O  O79  1  0.13488900  0.13488900  0.14010200  1
  O  O80  1  0.74308200  0.74308200  0.04792700  1
  O  O81  1  0.25691800  0.25691800  0.95207300  1
  O  O82  1  0.04342500  0.04342500  0.72202200  1
  O  O83  1  0.95657500  0.95657500  0.27797800  1
