# generated using pymatgen
data_CdC3NCl3
_symmetry_space_group_name_H-M   'P 1'
_cell_length_a   7.38763600
_cell_length_b   14.93642600
_cell_length_c   15.81262100
_cell_angle_alpha   90.00000000
_cell_angle_beta   90.00000000
_cell_angle_gamma   90.00000000
_symmetry_Int_Tables_number   1
_chemical_formula_structural   CdC3NCl3
_chemical_formula_sum   'Cd8 C24 N8 Cl24'
_cell_volume   1744.84174189
_cell_formula_units_Z   8
loop_
 _symmetry_equiv_pos_site_id
 _symmetry_equiv_pos_as_xyz
  1  'x, y, z'
loop_
 _atom_site_type_symbol
 _atom_site_label
 _atom_site_symmetry_multiplicity
 _atom_site_fract_x
 _atom_site_fract_y
 _atom_site_fract_z
 _atom_site_occupancy
  Cd  Cd0  1  0.54818300  0.24362800  0.34985800  1
  Cd  Cd1  1  0.95181700  0.74362800  0.15014200  1
  Cd  Cd2  1  0.04818300  0.75637200  0.65014200  1
  Cd  Cd3  1  0.45181700  0.25637200  0.84985800  1
  Cd  Cd4  1  0.45181700  0.75637200  0.65014200  1
  Cd  Cd5  1  0.04818300  0.25637200  0.84985800  1
  Cd  Cd6  1  0.95181700  0.24362800  0.34985800  1
  Cd  Cd7  1  0.54818300  0.74362800  0.15014200  1
  C  C8  1  0.75000000  0.23004600  0.07418900  1
  C  C9  1  0.75000000  0.73004600  0.42581100  1
  C  C10  1  0.25000000  0.76995400  0.92581100  1
  C  C11  1  0.25000000  0.26995400  0.57418900  1
  C  C12  1  0.25000000  0.45284500  0.25493500  1
  C  C13  1  0.25000000  0.95284500  0.24506500  1
  C  C14  1  0.75000000  0.54715500  0.74506500  1
  C  C15  1  0.75000000  0.04715500  0.75493500  1
  C  C16  1  0.66032000  0.06243000  0.11061200  1
  C  C17  1  0.83968000  0.56243000  0.38938800  1
  C  C18  1  0.16032000  0.93757000  0.88938800  1
  C  C19  1  0.33968000  0.43757000  0.61061200  1
  C  C20  1  0.33968000  0.93757000  0.88938800  1
  C  C21  1  0.16032000  0.43757000  0.61061200  1
  C  C22  1  0.83968000  0.06243000  0.11061200  1
  C  C23  1  0.66032000  0.56243000  0.38938800  1
  C  C24  1  0.33950400  0.42843600  0.09359700  1
  C  C25  1  0.16049600  0.92843600  0.40640300  1
  C  C26  1  0.83950400  0.57156400  0.90640300  1
  C  C27  1  0.66049600  0.07156400  0.59359700  1
  C  C28  1  0.66049600  0.57156400  0.90640300  1
  C  C29  1  0.83950400  0.07156400  0.59359700  1
  C  C30  1  0.16049600  0.42843600  0.09359700  1
  C  C31  1  0.33950400  0.92843600  0.40640300  1
  N  N32  1  0.75000000  0.15197400  0.08903500  1
  N  N33  1  0.75000000  0.65197400  0.41096500  1
  N  N34  1  0.25000000  0.84802600  0.91096500  1
  N  N35  1  0.25000000  0.34802600  0.58903500  1
  N  N36  1  0.25000000  0.44072300  0.18077800  1
  N  N37  1  0.25000000  0.94072300  0.31922200  1
  N  N38  1  0.75000000  0.55927700  0.81922200  1
  N  N39  1  0.75000000  0.05927700  0.68077800  1
  Cl  Cl40  1  0.75000000  0.10666200  0.33470500  1
  Cl  Cl41  1  0.75000000  0.60666200  0.16529500  1
  Cl  Cl42  1  0.25000000  0.89333800  0.66529500  1
  Cl  Cl43  1  0.25000000  0.39333800  0.83470500  1
  Cl  Cl44  1  0.75000000  0.34511100  0.25732600  1
  Cl  Cl45  1  0.75000000  0.84511100  0.24267400  1
  Cl  Cl46  1  0.25000000  0.65488900  0.74267400  1
  Cl  Cl47  1  0.25000000  0.15488900  0.75732600  1
  Cl  Cl48  1  0.75000000  0.29055600  0.47516700  1
  Cl  Cl49  1  0.75000000  0.79055600  0.02483300  1
  Cl  Cl50  1  0.25000000  0.70944400  0.52483300  1
  Cl  Cl51  1  0.25000000  0.20944400  0.97516700  1
  Cl  Cl52  1  0.25000000  0.45837200  0.35562700  1
  Cl  Cl53  1  0.25000000  0.95837200  0.14437300  1
  Cl  Cl54  1  0.75000000  0.54162800  0.64437300  1
  Cl  Cl55  1  0.75000000  0.04162800  0.85562700  1
  Cl  Cl56  1  0.25000000  0.17446800  0.52847900  1
  Cl  Cl57  1  0.25000000  0.67446800  0.97152100  1
  Cl  Cl58  1  0.75000000  0.82553200  0.47152100  1
  Cl  Cl59  1  0.75000000  0.32553200  0.02847900  1
  Cl  Cl60  1  0.25000000  0.21715800  0.28388800  1
  Cl  Cl61  1  0.25000000  0.71715800  0.21611200  1
  Cl  Cl62  1  0.75000000  0.78284200  0.71611200  1
  Cl  Cl63  1  0.75000000  0.28284200  0.78388800  1
