# generated using pymatgen
data_K6Al4Si6BH4ClO24
_symmetry_space_group_name_H-M   'P 1'
_cell_length_a   9.98342500
_cell_length_b   9.98342500
_cell_length_c   13.23788400
_cell_angle_alpha   90.00000000
_cell_angle_beta   90.00000000
_cell_angle_gamma   90.00000000
_symmetry_Int_Tables_number   1
_chemical_formula_structural   K6Al4Si6BH4ClO24
_chemical_formula_sum   'K12 Al8 Si12 B2 H8 Cl2 O48'
_cell_volume   1319.40367831
_cell_formula_units_Z   2
loop_
 _symmetry_equiv_pos_site_id
 _symmetry_equiv_pos_as_xyz
  1  'x, y, z'
loop_
 _atom_site_type_symbol
 _atom_site_label
 _atom_site_symmetry_multiplicity
 _atom_site_fract_x
 _atom_site_fract_y
 _atom_site_fract_z
 _atom_site_occupancy
  K  K0  1  0.50000000  0.50000000  0.74746400  1
  K  K1  1  0.00000000  0.00000000  0.75253600  1
  K  K2  1  0.50000000  0.50000000  0.25253600  1
  K  K3  1  0.00000000  0.00000000  0.24746400  1
  K  K4  1  0.70791800  0.72413700  0.55773900  1
  K  K5  1  0.20791800  0.77586300  0.94226100  1
  K  K6  1  0.29208200  0.27586300  0.55773900  1
  K  K7  1  0.79208200  0.22413700  0.94226100  1
  K  K8  1  0.72413700  0.29208200  0.44226100  1
  K  K9  1  0.77586300  0.79208200  0.05773900  1
  K  K10  1  0.27586300  0.70791800  0.44226100  1
  K  K11  1  0.22413700  0.20791800  0.05773900  1
  Al  Al12  1  0.88828800  0.65449200  0.81441600  1
  Al  Al13  1  0.38828800  0.84550800  0.68558400  1
  Al  Al14  1  0.11171200  0.34550800  0.81441600  1
  Al  Al15  1  0.61171200  0.15449200  0.68558400  1
  Al  Al16  1  0.65449200  0.11171200  0.18558400  1
  Al  Al17  1  0.84550800  0.61171200  0.31441600  1
  Al  Al18  1  0.34550800  0.88828800  0.18558400  1
  Al  Al19  1  0.15449200  0.38828800  0.31441600  1
  Si  Si20  1  0.65469700  0.88513300  0.80547100  1
  Si  Si21  1  0.15469700  0.61486700  0.69452900  1
  Si  Si22  1  0.34530300  0.11486700  0.80547100  1
  Si  Si23  1  0.84530300  0.38513300  0.69452900  1
  Si  Si24  1  0.88513300  0.34530300  0.19452900  1
  Si  Si25  1  0.61486700  0.84530300  0.30547100  1
  Si  Si26  1  0.11486700  0.65469700  0.19452900  1
  Si  Si27  1  0.38513300  0.15469700  0.30547100  1
  Si  Si28  1  0.00000000  0.50000000  0.50789300  1
  Si  Si29  1  0.50000000  0.00000000  0.99210700  1
  Si  Si30  1  0.50000000  0.00000000  0.49210700  1
  Si  Si31  1  0.00000000  0.50000000  0.00789300  1
  B  B32  1  0.50000000  0.50000000  0.00000000  1
  B  B33  1  0.00000000  0.00000000  0.50000000  1
  H  H34  1  0.67841100  0.52395100  0.06855300  1
  H  H35  1  0.17841100  0.97604900  0.43144700  1
  H  H36  1  0.32158900  0.47604900  0.06855300  1
  H  H37  1  0.82158900  0.02395100  0.43144700  1
  H  H38  1  0.52395100  0.32158900  0.93144700  1
  H  H39  1  0.97604900  0.82158900  0.56855300  1
  H  H40  1  0.47604900  0.67841100  0.93144700  1
  H  H41  1  0.02395100  0.17841100  0.56855300  1
  Cl  Cl42  1  0.50000000  0.50000000  0.50000000  1
  Cl  Cl43  1  0.00000000  0.00000000  0.00000000  1
  O  O44  1  0.79244900  0.80113600  0.81724600  1
  O  O45  1  0.29244900  0.69886400  0.68275400  1
  O  O46  1  0.20755100  0.19886400  0.81724600  1
  O  O47  1  0.70755100  0.30113600  0.68275400  1
  O  O48  1  0.80113600  0.20755100  0.18275400  1
  O  O49  1  0.69886400  0.70755100  0.31724600  1
  O  O50  1  0.19886400  0.79244900  0.18275400  1
  O  O51  1  0.30113600  0.29244900  0.31724600  1
  O  O52  1  0.91075200  0.60223100  0.94055500  1
  O  O53  1  0.41075200  0.89776900  0.55944500  1
  O  O54  1  0.08924800  0.39776900  0.94055500  1
  O  O55  1  0.58924800  0.10223100  0.55944500  1
  O  O56  1  0.60223100  0.08924800  0.05944500  1
  O  O57  1  0.89776900  0.58924800  0.44055500  1
  O  O58  1  0.39776900  0.91075200  0.05944500  1
  O  O59  1  0.10223100  0.41075200  0.44055500  1
  O  O60  1  0.58646000  0.89559000  0.92054700  1
  O  O61  1  0.08646000  0.60441000  0.57945300  1
  O  O62  1  0.41354000  0.10441000  0.92054700  1
  O  O63  1  0.91354000  0.39559000  0.57945300  1
  O  O64  1  0.89559000  0.41354000  0.07945300  1
  O  O65  1  0.60441000  0.91354000  0.42054700  1
  O  O66  1  0.10441000  0.58646000  0.07945300  1
  O  O67  1  0.39559000  0.08646000  0.42054700  1
  O  O68  1  0.55012100  0.80551000  0.73186400  1
  O  O69  1  0.05012100  0.69449000  0.76813600  1
  O  O70  1  0.44987900  0.19449000  0.73186400  1
  O  O71  1  0.94987900  0.30551000  0.76813600  1
  O  O72  1  0.80551000  0.44987900  0.26813600  1
  O  O73  1  0.69449000  0.94987900  0.23186400  1
  O  O74  1  0.19449000  0.55012100  0.26813600  1
  O  O75  1  0.30551000  0.05012100  0.23186400  1
  O  O76  1  0.81147600  0.53641000  0.73402200  1
  O  O77  1  0.31147600  0.96359000  0.76597800  1
  O  O78  1  0.18852400  0.46359000  0.73402200  1
  O  O79  1  0.68852400  0.03641000  0.76597800  1
  O  O80  1  0.53641000  0.18852400  0.26597800  1
  O  O81  1  0.96359000  0.68852400  0.23402200  1
  O  O82  1  0.46359000  0.81147600  0.26597800  1
  O  O83  1  0.03641000  0.31147600  0.23402200  1
  O  O84  1  0.92224900  0.90244900  0.56236400  1
  O  O85  1  0.42224900  0.59755100  0.93763600  1
  O  O86  1  0.07775100  0.09755100  0.56236400  1
  O  O87  1  0.57775100  0.40244900  0.93763600  1
  O  O88  1  0.90244900  0.07775100  0.43763600  1
  O  O89  1  0.59755100  0.57775100  0.06236400  1
  O  O90  1  0.09755100  0.92224900  0.43763600  1
  O  O91  1  0.40244900  0.42224900  0.06236400  1
