# generated using pymatgen
data_La(Mo4O7)2
_symmetry_space_group_name_H-M   'P 1'
_cell_length_a   9.44511629
_cell_length_b   12.49065478
_cell_length_c   21.67122696
_cell_angle_alpha   90.00000000
_cell_angle_beta   90.00000000
_cell_angle_gamma   90.00000000
_symmetry_Int_Tables_number   1
_chemical_formula_structural   La(Mo4O7)2
_chemical_formula_sum   'La8 Mo64 O112'
_cell_volume   2556.67788734
_cell_formula_units_Z   8
loop_
 _symmetry_equiv_pos_site_id
 _symmetry_equiv_pos_as_xyz
  1  'x, y, z'
loop_
 _atom_site_type_symbol
 _atom_site_label
 _atom_site_symmetry_multiplicity
 _atom_site_fract_x
 _atom_site_fract_y
 _atom_site_fract_z
 _atom_site_occupancy
  La  La0  1  0.00000000  0.50000000  0.50000000  1
  La  La1  1  0.50000000  0.00000000  -0.00000000  1
  La  La2  1  0.50000000  0.00000000  0.50000000  1
  La  La3  1  0.00000000  0.50000000  -0.00000000  1
  La  La4  1  0.50000000  0.41751916  0.75000000  1
  La  La5  1  0.00000000  0.08248084  0.25000000  1
  La  La6  1  0.50000000  0.58248084  0.25000000  1
  La  La7  1  0.00000000  0.91751916  0.75000000  1
  Mo  Mo8  1  0.63928995  0.25142892  0.58474512  1
  Mo  Mo9  1  0.86071005  0.24857108  0.08474512  1
  Mo  Mo10  1  0.13928995  0.24857108  0.41525488  1
  Mo  Mo11  1  0.36071005  0.25142892  0.91525488  1
  Mo  Mo12  1  0.36071005  0.74857108  0.41525488  1
  Mo  Mo13  1  0.13928995  0.75142892  0.91525488  1
  Mo  Mo14  1  0.86071005  0.75142892  0.58474512  1
  Mo  Mo15  1  0.63928995  0.74857108  0.08474512  1
  Mo  Mo16  1  0.64558739  0.37141962  0.95492724  1
  Mo  Mo17  1  0.85441261  0.12858038  0.45492724  1
  Mo  Mo18  1  0.14558739  0.12858038  0.04507276  1
  Mo  Mo19  1  0.35441261  0.37141962  0.54507276  1
  Mo  Mo20  1  0.35441261  0.62858038  0.04507276  1
  Mo  Mo21  1  0.14558739  0.87141962  0.54507276  1
  Mo  Mo22  1  0.85441261  0.87141962  0.95492724  1
  Mo  Mo23  1  0.64558739  0.62858038  0.45492724  1
  Mo  Mo24  1  0.13872173  0.87276013  0.04035649  1
  Mo  Mo25  1  0.36127827  0.62723987  0.54035649  1
  Mo  Mo26  1  0.63872173  0.62723987  0.95964351  1
  Mo  Mo27  1  0.86127827  0.87276013  0.45964351  1
  Mo  Mo28  1  0.86127827  0.12723987  0.95964351  1
  Mo  Mo29  1  0.63872173  0.37276013  0.45964351  1
  Mo  Mo30  1  0.36127827  0.37276013  0.04035649  1
  Mo  Mo31  1  0.13872173  0.12723987  0.54035649  1
  Mo  Mo32  1  0.63651468  0.51245307  0.58874277  1
  Mo  Mo33  1  0.86348532  0.98754693  0.08874277  1
  Mo  Mo34  1  0.13651468  0.98754693  0.41125723  1
  Mo  Mo35  1  0.36348532  0.51245307  0.91125723  1
  Mo  Mo36  1  0.36348532  0.48754693  0.41125723  1
  Mo  Mo37  1  0.13651468  0.01245307  0.91125723  1
  Mo  Mo38  1  0.86348532  0.01245307  0.58874277  1
  Mo  Mo39  1  0.63651468  0.48754693  0.08874277  1
  Mo  Mo40  1  0.64470496  0.13326886  0.71157649  1
  Mo  Mo41  1  0.85529504  0.36673114  0.21157649  1
  Mo  Mo42  1  0.14470496  0.36673114  0.28842351  1
  Mo  Mo43  1  0.35529504  0.13326886  0.78842351  1
  Mo  Mo44  1  0.35529504  0.86673114  0.28842351  1
  Mo  Mo45  1  0.14470496  0.63326886  0.78842351  1
  Mo  Mo46  1  0.85529504  0.63326886  0.71157649  1
  Mo  Mo47  1  0.64470496  0.86673114  0.21157649  1
  Mo  Mo48  1  0.86521965  0.51216089  0.83922075  1
  Mo  Mo49  1  0.63478035  0.98783911  0.33922075  1
  Mo  Mo50  1  0.36521965  0.98783911  0.16077925  1
  Mo  Mo51  1  0.13478035  0.51216089  0.66077925  1
  Mo  Mo52  1  0.13478035  0.48783911  0.16077925  1
  Mo  Mo53  1  0.36521965  0.01216089  0.66077925  1
  Mo  Mo54  1  0.63478035  0.01216089  0.83922075  1
  Mo  Mo55  1  0.86521965  0.48783911  0.33922075  1
  Mo  Mo56  1  0.13950792  0.38358355  0.79652588  1
  Mo  Mo57  1  0.36049208  0.11641645  0.29652588  1
  Mo  Mo58  1  0.63950792  0.11641645  0.20347412  1
  Mo  Mo59  1  0.86049208  0.38358355  0.70347412  1
  Mo  Mo60  1  0.86049208  0.61641645  0.20347412  1
  Mo  Mo61  1  0.63950792  0.88358355  0.70347412  1
  Mo  Mo62  1  0.36049208  0.88358355  0.79652588  1
  Mo  Mo63  1  0.13950792  0.61641645  0.29652588  1
  Mo  Mo64  1  0.13194698  0.25275116  0.66741550  1
  Mo  Mo65  1  0.36805302  0.24724884  0.16741550  1
  Mo  Mo66  1  0.63194698  0.24724884  0.33258450  1
  Mo  Mo67  1  0.86805302  0.25275116  0.83258450  1
  Mo  Mo68  1  0.86805302  0.74724884  0.33258450  1
  Mo  Mo69  1  0.63194698  0.75275116  0.83258450  1
  Mo  Mo70  1  0.36805302  0.75275116  0.66741550  1
  Mo  Mo71  1  0.13194698  0.74724884  0.16741550  1
  O  O72  1  0.25451343  0.74349696  0.33571685  1
  O  O73  1  0.24548657  0.75650304  0.83571685  1
  O  O74  1  0.75451343  0.75650304  0.66428315  1
  O  O75  1  0.74548657  0.74349696  0.16428315  1
  O  O76  1  0.74548657  0.25650304  0.66428315  1
  O  O77  1  0.75451343  0.24349696  0.16428315  1
  O  O78  1  0.24548657  0.24349696  0.33571685  1
  O  O79  1  0.25451343  0.25650304  0.83571685  1
  O  O80  1  0.53057127  0.12357137  0.63162544  1
  O  O81  1  0.96942873  0.37642863  0.13162544  1
  O  O82  1  0.03057127  0.37642863  0.36837456  1
  O  O83  1  0.46942873  0.12357137  0.86837456  1
  O  O84  1  0.46942873  0.87642863  0.36837456  1
  O  O85  1  0.03057127  0.62357137  0.86837456  1
  O  O86  1  0.96942873  0.62357137  0.63162544  1
  O  O87  1  0.53057127  0.87642863  0.13162544  1
  O  O88  1  0.77430650  0.62373849  0.53723181  1
  O  O89  1  0.72569350  0.87626151  0.03723181  1
  O  O90  1  0.27430650  0.87626151  0.46276819  1
  O  O91  1  0.22569350  0.62373849  0.96276819  1
  O  O92  1  0.22569350  0.37626151  0.46276819  1
  O  O93  1  0.27430650  0.12373849  0.96276819  1
  O  O94  1  0.72569350  0.12373849  0.53723181  1
  O  O95  1  0.77430650  0.37626151  0.03723181  1
  O  O96  1  0.24911511  0.25621341  0.08507700  1
  O  O97  1  0.25088489  0.24378659  0.58507700  1
  O  O98  1  0.74911511  0.24378659  0.91492300  1
  O  O99  1  0.75088489  0.25621341  0.41492300  1
  O  O100  1  0.75088489  0.74378659  0.91492300  1
  O  O101  1  0.74911511  0.75621341  0.41492300  1
  O  O102  1  0.25088489  0.75621341  0.08507700  1
  O  O103  1  0.24911511  0.74378659  0.58507700  1
  O  O104  1  0.01223564  0.23346325  0.49207518  1
  O  O105  1  0.48776436  0.26653675  0.99207518  1
  O  O106  1  0.51223564  0.26653675  0.50792482  1
  O  O107  1  -0.01223564  0.23346325  0.00792482  1
  O  O108  1  -0.01223564  0.76653675  0.50792482  1
  O  O109  1  0.51223564  0.73346325  0.00792482  1
  O  O110  1  0.48776436  0.73346325  0.49207518  1
  O  O111  1  0.01223564  0.76653675  0.99207518  1
  O  O112  1  0.01284719  0.87861639  0.88114457  1
  O  O113  1  0.48715281  0.62138361  0.38114457  1
  O  O114  1  0.51284719  0.62138361  0.11885543  1
  O  O115  1  -0.01284719  0.87861639  0.61885543  1
  O  O116  1  -0.01284719  0.12138361  0.11885543  1
  O  O117  1  0.51284719  0.37861639  0.61885543  1
  O  O118  1  0.48715281  0.37861639  0.88114457  1
  O  O119  1  0.01284719  0.12138361  0.38114457  1
  O  O120  1  0.24782207  0.38560097  0.95760121  1
  O  O121  1  0.25217793  0.11439903  0.45760121  1
  O  O122  1  0.74782207  0.11439903  0.04239879  1
  O  O123  1  0.75217793  0.38560097  0.54239879  1
  O  O124  1  0.75217793  0.61439903  0.04239879  1
  O  O125  1  0.74782207  0.88560097  0.54239879  1
  O  O126  1  0.25217793  0.88560097  0.95760121  1
  O  O127  1  0.24782207  0.61439903  0.45760121  1
  O  O128  1  0.52316409  0.62554338  0.88399125  1
  O  O129  1  0.97683591  0.87445662  0.38399125  1
  O  O130  1  0.02316409  0.87445662  0.11600875  1
  O  O131  1  0.47683591  0.62554338  0.61600875  1
  O  O132  1  0.47683591  0.37445662  0.11600875  1
  O  O133  1  0.02316409  0.12554338  0.61600875  1
  O  O134  1  0.97683591  0.12554338  0.88399125  1
  O  O135  1  0.52316409  0.37445662  0.38399125  1
  O  O136  1  0.22071765  0.50724794  0.56933624  1
  O  O137  1  0.27928235  -0.00724794  0.06933624  1
  O  O138  1  0.72071765  -0.00724794  0.43066376  1
  O  O139  1  0.77928235  0.50724794  0.93066376  1
  O  O140  1  0.77928235  0.49275206  0.43066376  1
  O  O141  1  0.72071765  0.00724794  0.93066376  1
  O  O142  1  0.27928235  0.00724794  0.56933624  1
  O  O143  1  0.22071765  0.49275206  0.06933624  1
  O  O144  1  0.22355823  0.98828044  0.32196363  1
  O  O145  1  0.27644177  0.51171956  0.82196363  1
  O  O146  1  0.72355823  0.51171956  0.67803637  1
  O  O147  1  0.77644177  0.98828044  0.17803637  1
  O  O148  1  0.77644177  0.01171956  0.67803637  1
  O  O149  1  0.72355823  0.48828044  0.17803637  1
  O  O150  1  0.27644177  0.48828044  0.32196363  1
  O  O151  1  0.22355823  0.01171956  0.82196363  1
  O  O152  1  0.50000000  0.76334521  0.25000000  1
  O  O153  1  0.00000000  0.73665479  0.75000000  1
  O  O154  1  0.50000000  0.23665479  0.75000000  1
  O  O155  1  0.00000000  0.26334521  0.25000000  1
  O  O156  1  0.75242631  0.87067291  0.28956127  1
  O  O157  1  0.74757369  0.62932709  0.78956127  1
  O  O158  1  0.25242631  0.62932709  0.71043873  1
  O  O159  1  0.24757369  0.87067291  0.21043873  1
  O  O160  1  0.24757369  0.12932709  0.71043873  1
  O  O161  1  0.25242631  0.37067291  0.21043873  1
  O  O162  1  0.74757369  0.37067291  0.28956127  1
  O  O163  1  0.75242631  0.12932709  0.78956127  1
  O  O164  1  0.00918679  0.38465263  0.62997554  1
  O  O165  1  0.49081321  0.11534737  0.12997554  1
  O  O166  1  0.50918679  0.11534737  0.37002446  1
  O  O167  1  -0.00918679  0.38465263  0.87002446  1
  O  O168  1  -0.00918679  0.61534737  0.37002446  1
  O  O169  1  0.50918679  0.88465263  0.87002446  1
  O  O170  1  0.49081321  0.88465263  0.62997554  1
  O  O171  1  0.00918679  0.61534737  0.12997554  1
  O  O172  1  0.74571345  0.38660798  0.79034464  1
  O  O173  1  0.75428655  0.11339202  0.29034464  1
  O  O174  1  0.24571345  0.11339202  0.20965536  1
  O  O175  1  0.25428655  0.38660798  0.70965536  1
  O  O176  1  0.25428655  0.61339202  0.20965536  1
  O  O177  1  0.24571345  0.88660798  0.70965536  1
  O  O178  1  0.75428655  0.88660798  0.79034464  1
  O  O179  1  0.74571345  0.61339202  0.29034464  1
  O  O180  1  0.50000000  0.77464000  0.75000000  1
  O  O181  1  0.00000000  0.72536000  0.25000000  1
  O  O182  1  0.50000000  0.22536000  0.25000000  1
  O  O183  1  0.00000000  0.27464000  0.75000000  1
