# generated using pymatgen
data_AlPO4
_symmetry_space_group_name_H-M   'P 1'
_cell_length_a   17.00625649
_cell_length_b   18.73718160
_cell_length_c   18.73718160
_cell_angle_alpha   120.03977139
_cell_angle_beta   90.12454083
_cell_angle_gamma   90.12454083
_symmetry_Int_Tables_number   1
_chemical_formula_structural   AlPO4
_chemical_formula_sum   'Al36 P36 O144'
_cell_volume   5168.56034456
_cell_formula_units_Z   36
loop_
 _symmetry_equiv_pos_site_id
 _symmetry_equiv_pos_as_xyz
  1  'x, y, z'
loop_
 _atom_site_type_symbol
 _atom_site_label
 _atom_site_symmetry_multiplicity
 _atom_site_fract_x
 _atom_site_fract_y
 _atom_site_fract_z
 _atom_site_occupancy
  Al  Al0  1  0.87190419  0.00240869  0.57685049  1
  Al  Al1  1  0.87190419  0.57685049  0.00240869  1
  Al  Al2  1  0.86618973  0.43307074  0.43307074  1
  Al  Al3  1  0.90333483  0.16980478  0.50609861  1
  Al  Al4  1  0.90333483  0.50609861  0.16980478  1
  Al  Al5  1  0.62579817  0.99963870  0.41342945  1
  Al  Al6  1  0.62579817  0.41342945  0.99963870  1
  Al  Al7  1  0.64350124  0.16833621  0.65847412  1
  Al  Al8  1  0.64350124  0.65847412  0.16833621  1
  Al  Al9  1  0.64757371  0.32900214  0.50663772  1
  Al  Al10  1  0.64757371  0.50663772  0.32900214  1
  Al  Al11  1  0.40420410  0.01042641  0.58964977  1
  Al  Al12  1  0.40420410  0.58964977  0.01042641  1
  Al  Al13  1  0.40942244  0.42617603  0.42617603  1
  Al  Al14  1  0.37222945  0.17984657  0.50421476  1
  Al  Al15  1  0.37222945  0.50421476  0.17984657  1
  Al  Al16  1  0.15248095  0.00240761  0.42460480  1
  Al  Al17  1  0.15248095  0.42460480  0.00240761  1
  Al  Al18  1  0.13630796  0.17114793  0.66947326  1
  Al  Al19  1  0.13630796  0.66947326  0.17114793  1
  Al  Al20  1  0.12683105  0.34286274  0.50337159  1
  Al  Al21  1  0.12683105  0.50337159  0.34286274  1
  Al  Al22  1  0.88645945  0.83267224  0.33666307  1
  Al  Al23  1  0.88645945  0.33666307  0.83267224  1
  Al  Al24  1  0.89835579  0.66769427  0.50425368  1
  Al  Al25  1  0.89835579  0.50425368  0.66769427  1
  Al  Al26  1  0.64440701  0.81810473  0.48985374  1
  Al  Al27  1  0.64440701  0.48985374  0.81810473  1
  Al  Al28  1  0.39078947  0.82596617  0.33830336  1
  Al  Al29  1  0.39078947  0.33830336  0.82596617  1
  Al  Al30  1  0.37495250  0.67211630  0.49590512  1
  Al  Al31  1  0.37495250  0.49590512  0.67211630  1
  Al  Al32  1  0.13161205  0.84058724  0.50508293  1
  Al  Al33  1  0.13161205  0.50508293  0.84058724  1
  Al  Al34  1  0.62063583  0.58574604  0.58574604  1
  Al  Al35  1  0.15983773  0.57802725  0.57802725  1
  P  P36  1  0.81178224  0.00470483  0.41753291  1
  P  P37  1  0.81178224  0.41753291  0.00470483  1
  P  P38  1  0.82819003  0.17915515  0.66633063  1
  P  P39  1  0.82819003  0.66633063  0.17915515  1
  P  P40  1  0.83599813  0.33155266  0.51024930  1
  P  P41  1  0.83599813  0.51024930  0.33155266  1
  P  P42  1  0.56100763  0.17418085  0.50402267  1
  P  P43  1  0.56100763  0.50402267  0.17418085  1
  P  P44  1  0.59329395  0.99498425  0.58319052  1
  P  P45  1  0.59329395  0.58319052  0.99498425  1
  P  P46  1  0.59589674  0.41271058  0.41271058  1
  P  P47  1  0.34137874  0.00051316  0.42153611  1
  P  P48  1  0.34137874  0.42153611  0.00051316  1
  P  P49  1  0.32112228  0.17596010  0.66988731  1
  P  P50  1  0.32112228  0.66988731  0.17596010  1
  P  P51  1  0.31045781  0.34164062  0.50370385  1
  P  P52  1  0.31045781  0.50370385  0.34164062  1
  P  P53  1  0.09173998  0.17397320  0.50447149  1
  P  P54  1  0.09173998  0.50447149  0.17397320  1
  P  P55  1  0.06136591  0.00776925  0.58026130  1
  P  P56  1  0.06136591  0.58026130  0.00776925  1
  P  P57  1  0.04987664  0.43462375  0.43462375  1
  P  P58  1  0.83148399  0.82431634  0.50035527  1
  P  P59  1  0.83148399  0.50035527  0.82431634  1
  P  P60  1  0.57808490  0.81839177  0.32587911  1
  P  P61  1  0.57808490  0.32587911  0.81839177  1
  P  P62  1  0.56138036  0.66268210  0.48619808  1
  P  P63  1  0.56138036  0.48619808  0.66268210  1
  P  P64  1  0.32342284  0.84354391  0.51043934  1
  P  P65  1  0.32342284  0.51043934  0.84354391  1
  P  P66  1  0.07739291  0.83339292  0.33394403  1
  P  P67  1  0.07739291  0.33394403  0.83339292  1
  P  P68  1  0.08689712  0.67399228  0.50741551  1
  P  P69  1  0.08689712  0.50741551  0.67399228  1
  P  P70  1  0.80440887  0.59044918  0.59044918  1
  P  P71  1  0.34384339  0.58220848  0.58220848  1
  O  O72  1  0.84884841  0.09768476  0.66411548  1
  O  O73  1  0.84884841  0.66411548  0.09768476  1
  O  O74  1  0.84755825  0.34151475  0.43385334  1
  O  O75  1  0.84755825  0.43385334  0.34151475  1
  O  O76  1  0.97327927  0.99949502  0.55766479  1
  O  O77  1  0.97327927  0.55766479  0.99949502  1
  O  O78  1  0.96454309  0.46151208  0.46151208  1
  O  O79  1  0.81441803  0.00311404  0.49893670  1
  O  O80  1  0.81441803  0.49893670  0.00311404  1
  O  O81  1  0.80426633  0.50802045  0.50802045  1
  O  O82  1  0.85597767  0.08124414  0.42831174  1
  O  O83  1  0.85597767  0.42831174  0.08124414  1
  O  O84  1  0.88133567  0.19144616  0.60666539  1
  O  O85  1  0.88133567  0.60666539  0.19144616  1
  O  O86  1  0.87225611  0.40527720  0.58778119  1
  O  O87  1  0.87225611  0.58778119  0.40527720  1
  O  O88  1  0.87770113  0.25272230  0.49369632  1
  O  O89  1  0.87770113  0.49369632  0.25272230  1
  O  O90  1  0.84036325  0.24966948  0.75434416  1
  O  O91  1  0.84036325  0.75434416  0.24966948  1
  O  O92  1  0.00403157  0.15184248  0.49588639  1
  O  O93  1  0.00403157  0.49588639  0.15184248  1
  O  O94  1  0.57391539  0.08724040  0.42876534  1
  O  O95  1  0.57391539  0.42876534  0.08724040  1
  O  O96  1  0.72548241  0.00878243  0.39494642  1
  O  O97  1  0.72548241  0.39494642  0.00878243  1
  O  O98  1  0.61119678  0.99514257  0.50306090  1
  O  O99  1  0.61119678  0.50306090  0.99514257  1
  O  O100  1  0.61278284  0.49301889  0.49301889  1
  O  O101  1  0.63134627  0.07260295  0.65476330  1
  O  O102  1  0.63134627  0.65476330  0.07260295  1
  O  O103  1  0.63232873  0.34079861  0.41936069  1
  O  O104  1  0.63232873  0.41936069  0.34079861  1
  O  O105  1  0.58707479  0.17644969  0.58403743  1
  O  O106  1  0.58707479  0.58403743  0.17644969  1
  O  O107  1  0.60815886  0.23632824  0.49106876  1
  O  O108  1  0.60815886  0.49106876  0.23632824  1
  O  O109  1  0.74229438  0.17859616  0.63978850  1
  O  O110  1  0.74229438  0.63978850  0.17859616  1
  O  O111  1  0.74794996  0.32565796  0.52476382  1
  O  O112  1  0.74794996  0.52476382  0.32565796  1
  O  O113  1  0.37680047  0.10961773  0.66745723  1
  O  O114  1  0.37680047  0.66745723  0.10961773  1
  O  O115  1  0.36603886  0.35246970  0.44505841  1
  O  O116  1  0.36603886  0.44505841  0.35246970  1
  O  O117  1  0.50420433  0.99623980  0.59721148  1
  O  O118  1  0.50420433  0.59721148  0.99623980  1
  O  O119  1  0.50683508  0.39802781  0.39802781  1
  O  O120  1  0.38404094  0.01258081  0.49921508  1
  O  O121  1  0.38404094  0.49921508  0.01258081  1
  O  O122  1  0.35295578  0.08018066  0.41744880  1
  O  O123  1  0.35295578  0.41744880  0.08018066  1
  O  O124  1  0.33502716  0.18949779  0.59626533  1
  O  O125  1  0.33502716  0.59626533  0.18949779  1
  O  O126  1  0.32337218  0.40948632  0.59487007  1
  O  O127  1  0.32337218  0.59487007  0.40948632  1
  O  O128  1  0.32476160  0.25615588  0.49307365  1
  O  O129  1  0.32476160  0.49307365  0.25615588  1
  O  O130  1  0.33521268  0.25720994  0.75038006  1
  O  O131  1  0.33521268  0.75038006  0.25720994  1
  O  O132  1  0.47370474  0.19698479  0.51128404  1
  O  O133  1  0.47370474  0.51128404  0.19698479  1
  O  O134  1  0.13683434  0.10006034  0.43543187  1
  O  O135  1  0.13683434  0.43543187  0.10006034  1
  O  O136  1  0.25299392  0.98455344  0.42518293  1
  O  O137  1  0.25299392  0.42518293  0.98455344  1
  O  O138  1  0.10994390  0.01215933  0.51372648  1
  O  O139  1  0.10994390  0.51372648  0.01215933  1
  O  O140  1  0.10629283  0.49861485  0.49861485  1
  O  O141  1  0.07716462  0.08890022  0.66163850  1
  O  O142  1  0.07716462  0.66163850  0.08890022  1
  O  O143  1  0.06595618  0.35187536  0.43100266  1
  O  O144  1  0.06595618  0.43100266  0.35187536  1
  O  O145  1  0.12118885  0.19482842  0.59073797  1
  O  O146  1  0.12118885  0.59073797  0.19482842  1
  O  O147  1  0.10474290  0.24809015  0.49315987  1
  O  O148  1  0.10474290  0.49315987  0.24809015  1
  O  O149  1  0.23599418  0.14674791  0.66726900  1
  O  O150  1  0.23599418  0.66726900  0.14674791  1
  O  O151  1  0.22534585  0.34639079  0.47872116  1
  O  O152  1  0.22534585  0.47872116  0.34639079  1
  O  O153  1  0.84228373  0.91178757  0.57584471  1
  O  O154  1  0.84228373  0.57584471  0.91178757  1
  O  O155  1  0.85080745  0.92626931  0.34885448  1
  O  O156  1  0.85080745  0.34885448  0.92626931  1
  O  O157  1  0.84651344  0.65743532  0.57984667  1
  O  O158  1  0.84651344  0.57984667  0.65743532  1
  O  O159  1  0.86217926  0.82288800  0.42232744  1
  O  O160  1  0.86217926  0.42232744  0.82288800  1
  O  O161  1  0.87901461  0.76391712  0.51540698  1
  O  O162  1  0.87901461  0.51540698  0.76391712  1
  O  O163  1  0.98788752  0.82649567  0.32290125  1
  O  O164  1  0.98788752  0.32290125  0.82649567  1
  O  O165  1  0.99912480  0.66397975  0.51958292  1
  O  O166  1  0.99912480  0.51958292  0.66397975  1
  O  O167  1  0.58830684  0.90483915  0.33621013  1
  O  O168  1  0.58830684  0.33621013  0.90483915  1
  O  O169  1  0.57572308  0.65810107  0.56534626  1
  O  O170  1  0.57572308  0.56534626  0.65810107  1
  O  O171  1  0.62794172  0.91629104  0.57677224  1
  O  O172  1  0.62794172  0.57677224  0.91629104  1
  O  O173  1  0.61903012  0.81210672  0.39601217  1
  O  O174  1  0.61903012  0.39601217  0.81210672  1
  O  O175  1  0.60682179  0.59486017  0.41273614  1
  O  O176  1  0.60682179  0.41273614  0.59486017  1
  O  O177  1  0.58799147  0.74748795  0.50216743  1
  O  O178  1  0.58799147  0.50216743  0.74748795  1
  O  O179  1  0.61567331  0.75665681  0.24396593  1
  O  O180  1  0.61567331  0.24396593  0.75665681  1
  O  O181  1  0.74469964  0.79761505  0.48836715  1
  O  O182  1  0.74469964  0.48836715  0.79761505  1
  O  O183  1  0.35323869  0.92567879  0.58355016  1
  O  O184  1  0.35323869  0.58355016  0.92567879  1
  O  O185  1  0.37672873  0.92389306  0.34654010  1
  O  O186  1  0.37672873  0.34654010  0.92389306  1
  O  O187  1  0.35751424  0.66543920  0.58623373  1
  O  O188  1  0.35751424  0.58623373  0.66543920  1
  O  O189  1  0.36005300  0.83018926  0.42971199  1
  O  O190  1  0.36005300  0.42971199  0.83018926  1
  O  O191  1  0.34714051  0.77236194  0.52424510  1
  O  O192  1  0.34714051  0.52424510  0.77236194  1
  O  O193  1  0.49006136  0.79822847  0.32400780  1
  O  O194  1  0.49006136  0.32400780  0.79822847  1
  O  O195  1  0.47329478  0.65190137  0.46516827  1
  O  O196  1  0.47329478  0.46516827  0.65190137  1
  O  O197  1  0.10601694  0.91606518  0.34328001  1
  O  O198  1  0.10601694  0.34328001  0.91606518  1
  O  O199  1  0.13466761  0.66694881  0.57403634  1
  O  O200  1  0.13466761  0.57403634  0.66694881  1
  O  O201  1  0.08825128  0.93161762  0.58512563  1
  O  O202  1  0.08825128  0.58512563  0.93161762  1
  O  O203  1  0.09991636  0.82684950  0.40999357  1
  O  O204  1  0.09991636  0.40999357  0.82684950  1
  O  O205  1  0.11174673  0.60666809  0.42015956  1
  O  O206  1  0.11174673  0.42015956  0.60666809  1
  O  O207  1  0.10275801  0.75896124  0.51808759  1
  O  O208  1  0.10275801  0.51808759  0.75896124  1
  O  O209  1  0.11643898  0.76375651  0.25772504  1
  O  O210  1  0.11643898  0.25772504  0.76375651  1
  O  O211  1  0.23368486  0.84681636  0.50589424  1
  O  O212  1  0.23368486  0.50589424  0.84681636  1
  O  O213  1  0.71861508  0.61597253  0.61597253  1
  O  O214  1  0.40275529  0.51960963  0.51960963  1
  O  O215  1  0.25879407  0.55286051  0.55286051  1
