# generated using pymatgen
data_Ce2H8S3O16
_symmetry_space_group_name_H-M   'P 1'
_cell_length_a   12.63296300
_cell_length_b   7.20169600
_cell_length_c   18.93743002
_cell_angle_alpha   90.00000000
_cell_angle_beta   130.84857062
_cell_angle_gamma   90.00000000
_symmetry_Int_Tables_number   1
_chemical_formula_structural   Ce2H8S3O16
_chemical_formula_sum   'Ce8 H32 S12 O64'
_cell_volume   1303.27490921
_cell_formula_units_Z   4
loop_
 _symmetry_equiv_pos_site_id
 _symmetry_equiv_pos_as_xyz
  1  'x, y, z'
loop_
 _atom_site_type_symbol
 _atom_site_label
 _atom_site_symmetry_multiplicity
 _atom_site_fract_x
 _atom_site_fract_y
 _atom_site_fract_z
 _atom_site_occupancy
  Ce  Ce0  1  0.21730800  0.62596200  0.41185300  1
  Ce  Ce1  1  0.21730800  0.87403800  0.91185300  1
  Ce  Ce2  1  0.78269200  0.37403800  0.58814700  1
  Ce  Ce3  1  0.78269200  0.12596200  0.08814700  1
  Ce  Ce4  1  0.19724300  0.12287900  0.69759600  1
  Ce  Ce5  1  0.19724300  0.37712100  0.19759600  1
  Ce  Ce6  1  0.80275700  0.87712100  0.30240400  1
  Ce  Ce7  1  0.80275700  0.62287900  0.80240400  1
  H  H8  1  0.01118600  0.45736800  0.43133500  1
  H  H9  1  0.01118600  0.04263200  0.93133500  1
  H  H10  1  0.98881400  0.54263200  0.56866500  1
  H  H11  1  0.98881400  0.95736800  0.06866500  1
  H  H12  1  0.13194800  0.30797700  0.47718600  1
  H  H13  1  0.13194800  0.19202300  0.97718600  1
  H  H14  1  0.86805200  0.69202300  0.52281400  1
  H  H15  1  0.86805200  0.80797700  0.02281400  1
  H  H16  1  0.45476700  0.12833100  0.70461000  1
  H  H17  1  0.45476700  0.37166900  0.20461000  1
  H  H18  1  0.54523300  0.87166900  0.29539000  1
  H  H19  1  0.54523300  0.62833100  0.79539000  1
  H  H20  1  0.51628800  0.15707100  0.80824500  1
  H  H21  1  0.51628800  0.34292900  0.30824500  1
  H  H22  1  0.48371200  0.84292900  0.19175500  1
  H  H23  1  0.48371200  0.65707100  0.69175500  1
  H  H24  1  0.18885700  0.45410600  0.58905100  1
  H  H25  1  0.18885700  0.04589400  0.08905100  1
  H  H26  1  0.81114300  0.54589400  0.41094900  1
  H  H27  1  0.81114300  0.95410600  0.91094900  1
  H  H28  1  0.24062100  0.55410000  0.68162000  1
  H  H29  1  0.24062100  0.94590000  0.18162000  1
  H  H30  1  0.75937900  0.44590000  0.31838000  1
  H  H31  1  0.75937900  0.05410000  0.81838000  1
  H  H32  1  0.41536200  0.29320800  0.90032400  1
  H  H33  1  0.41536200  0.20679200  0.40032400  1
  H  H34  1  0.58463800  0.70679200  0.09967600  1
  H  H35  1  0.58463800  0.79320800  0.59967600  1
  H  H36  1  0.40012400  0.45145900  0.83705900  1
  H  H37  1  0.40012400  0.04854100  0.33705900  1
  H  H38  1  0.59987600  0.54854100  0.16294100  1
  H  H39  1  0.59987600  0.95145900  0.66294100  1
  S  S40  1  0.91660600  0.61324600  0.19652300  1
  S  S41  1  0.91660600  0.88675400  0.69652300  1
  S  S42  1  0.08339400  0.38675400  0.80347700  1
  S  S43  1  0.08339400  0.11324600  0.30347700  1
  S  S44  1  0.17866400  0.88978000  0.54427300  1
  S  S45  1  0.17866400  0.61022000  0.04427300  1
  S  S46  1  0.82133600  0.11022000  0.45572700  1
  S  S47  1  0.82133600  0.38978000  0.95572700  1
  S  S48  1  0.46491500  0.67854300  0.40509600  1
  S  S49  1  0.46491500  0.82145700  0.90509600  1
  S  S50  1  0.53508500  0.32145700  0.59490400  1
  S  S51  1  0.53508500  0.17854300  0.09490400  1
  O  O52  1  0.11337700  0.44261400  0.47360100  1
  O  O53  1  0.11337700  0.05738600  0.97360100  1
  O  O54  1  0.88662300  0.55738600  0.52639900  1
  O  O55  1  0.88662300  0.94261400  0.02639900  1
  O  O56  1  0.43875600  0.10142900  0.74802700  1
  O  O57  1  0.43875600  0.39857100  0.24802700  1
  O  O58  1  0.56124400  0.89857100  0.25197300  1
  O  O59  1  0.56124400  0.60142900  0.75197300  1
  O  O60  1  0.20396300  0.43705100  0.64725800  1
  O  O61  1  0.20396300  0.06294900  0.14725800  1
  O  O62  1  0.79603700  0.56294900  0.35274200  1
  O  O63  1  0.79603700  0.93705100  0.85274200  1
  O  O64  1  0.36789400  0.32478900  0.83496200  1
  O  O65  1  0.36789400  0.17521100  0.33496200  1
  O  O66  1  0.63210600  0.67521100  0.16503800  1
  O  O67  1  0.63210600  0.82478900  0.66503800  1
  O  O68  1  0.83130400  0.44513500  0.14915800  1
  O  O69  1  0.83130400  0.05486500  0.64915800  1
  O  O70  1  0.16869600  0.55486500  0.85084200  1
  O  O71  1  0.16869600  0.94513500  0.35084200  1
  O  O72  1  0.94948700  0.64132400  0.28859500  1
  O  O73  1  0.94948700  0.85867600  0.78859500  1
  O  O74  1  0.05051300  0.35867600  0.71140500  1
  O  O75  1  0.05051300  0.14132400  0.21140500  1
  O  O76  1  0.05817500  0.59050200  0.22437300  1
  O  O77  1  0.05817500  0.90949800  0.72437300  1
  O  O78  1  0.94182500  0.40949800  0.77562700  1
  O  O79  1  0.94182500  0.09050200  0.27562700  1
  O  O80  1  0.84329500  0.77880700  0.13796700  1
  O  O81  1  0.84329500  0.72119300  0.63796700  1
  O  O82  1  0.15670500  0.22119300  0.86203300  1
  O  O83  1  0.15670500  0.27880700  0.36203300  1
  O  O84  1  0.04840100  0.84022100  0.44778100  1
  O  O85  1  0.04840100  0.65977900  0.94778100  1
  O  O86  1  0.95159900  0.15977900  0.55221900  1
  O  O87  1  0.95159900  0.34022100  0.05221900  1
  O  O88  1  0.19721900  0.09483300  0.55604600  1
  O  O89  1  0.19721900  0.40516700  0.05604600  1
  O  O90  1  0.80278100  0.90516700  0.44395400  1
  O  O91  1  0.80278100  0.59483300  0.94395400  1
  O  O92  1  0.17014000  0.82481500  0.61575300  1
  O  O93  1  0.17014000  0.67518500  0.11575300  1
  O  O94  1  0.82986000  0.17518500  0.38424700  1
  O  O95  1  0.82986000  0.32481500  0.88424700  1
  O  O96  1  0.29637300  0.79588200  0.55834600  1
  O  O97  1  0.29637300  0.70411800  0.05834600  1
  O  O98  1  0.70362700  0.20411800  0.44165400  1
  O  O99  1  0.70362700  0.29588200  0.94165400  1
  O  O100  1  0.59269000  0.56508200  0.45322700  1
  O  O101  1  0.59269000  0.93491800  0.95322700  1
  O  O102  1  0.40731000  0.43491800  0.54677300  1
  O  O103  1  0.40731000  0.06508200  0.04677300  1
  O  O104  1  0.45393900  0.76186600  0.47232700  1
  O  O105  1  0.45393900  0.73813400  0.97232700  1
  O  O106  1  0.54606100  0.23813400  0.52767300  1
  O  O107  1  0.54606100  0.26186600  0.02767300  1
  O  O108  1  0.33601900  0.55249700  0.34549600  1
  O  O109  1  0.33601900  0.94750300  0.84549600  1
  O  O110  1  0.66398100  0.44750300  0.65450400  1
  O  O111  1  0.66398100  0.05249700  0.15450400  1
  O  O112  1  0.45520400  0.81830500  0.34444200  1
  O  O113  1  0.45520400  0.68169500  0.84444200  1
  O  O114  1  0.54479600  0.18169500  0.65555800  1
  O  O115  1  0.54479600  0.31830500  0.15555800  1
