# generated using pymatgen
data_Si5H6C4(NCl5)2
_symmetry_space_group_name_H-M   'P 1'
_cell_length_a   13.55205500
_cell_length_b   13.65940200
_cell_length_c   14.06753000
_cell_angle_alpha   90.00000000
_cell_angle_beta   90.00000000
_cell_angle_gamma   90.00000000
_symmetry_Int_Tables_number   1
_chemical_formula_structural   Si5H6C4(NCl5)2
_chemical_formula_sum   'Si20 H24 C16 N8 Cl40'
_cell_volume   2604.08221907
_cell_formula_units_Z   4
loop_
 _symmetry_equiv_pos_site_id
 _symmetry_equiv_pos_as_xyz
  1  'x, y, z'
loop_
 _atom_site_type_symbol
 _atom_site_label
 _atom_site_symmetry_multiplicity
 _atom_site_fract_x
 _atom_site_fract_y
 _atom_site_fract_z
 _atom_site_occupancy
  Si  Si0  1  0.89035000  0.03030600  0.83032100  1
  Si  Si1  1  0.39035000  0.46969400  0.66967900  1
  Si  Si2  1  0.10965000  0.53030600  0.66967900  1
  Si  Si3  1  0.60965000  0.96969400  0.83032100  1
  Si  Si4  1  0.10965000  0.96969400  0.16967900  1
  Si  Si5  1  0.60965000  0.53030600  0.33032100  1
  Si  Si6  1  0.89035000  0.46969400  0.33032100  1
  Si  Si7  1  0.39035000  0.03030600  0.16967900  1
  Si  Si8  1  0.83652500  0.01849600  0.66820600  1
  Si  Si9  1  0.33652500  0.48150300  0.83179400  1
  Si  Si10  1  0.16347500  0.51849700  0.83179400  1
  Si  Si11  1  0.66347500  0.98150300  0.66820600  1
  Si  Si12  1  0.16347500  0.98150300  0.33179400  1
  Si  Si13  1  0.66347500  0.51849700  0.16820600  1
  Si  Si14  1  0.83652500  0.48150300  0.16820600  1
  Si  Si15  1  0.33652500  0.01849600  0.33179400  1
  Si  Si16  1  0.75000000  0.00000000  0.93109200  1
  Si  Si17  1  0.25000000  0.50000000  0.56890800  1
  Si  Si18  1  0.25000000  0.00000000  0.06890800  1
  Si  Si19  1  0.75000000  0.50000000  0.43109200  1
  H  H20  1  0.72059100  0.61798400  0.83596600  1
  H  H21  1  0.22059100  0.88201600  0.66403400  1
  H  H22  1  0.27940900  0.11798400  0.66403400  1
  H  H23  1  0.77940900  0.38201600  0.83596600  1
  H  H24  1  0.27940900  0.38201600  0.16403400  1
  H  H25  1  0.77940900  0.11798400  0.33596600  1
  H  H26  1  0.72059100  0.88201600  0.33596600  1
  H  H27  1  0.22059100  0.61798400  0.16403400  1
  H  H28  1  0.81904000  0.60172100  0.75268200  1
  H  H29  1  0.31904000  0.89827900  0.74731800  1
  H  H30  1  0.18096000  0.10172100  0.74731800  1
  H  H31  1  0.68096000  0.39827900  0.75268200  1
  H  H32  1  0.18096000  0.39827900  0.24731800  1
  H  H33  1  0.68096000  0.10172100  0.25268200  1
  H  H34  1  0.81904000  0.89827900  0.25268200  1
  H  H35  1  0.31904000  0.60172100  0.24731800  1
  H  H36  1  0.84579800  0.62577800  0.87495100  1
  H  H37  1  0.34579800  0.87422200  0.62504900  1
  H  H38  1  0.15420200  0.12577800  0.62504900  1
  H  H39  1  0.65420200  0.37422200  0.87495100  1
  H  H40  1  0.15420200  0.37422200  0.12504900  1
  H  H41  1  0.65420200  0.12577800  0.37495100  1
  H  H42  1  0.84579800  0.87422200  0.37495100  1
  H  H43  1  0.34579800  0.62577800  0.12504900  1
  C  C44  1  0.79406700  0.74659800  0.79760500  1
  C  C45  1  0.29406700  0.75340200  0.70239500  1
  C  C46  1  0.20593300  0.24659800  0.70239500  1
  C  C47  1  0.70593300  0.25340200  0.79760500  1
  C  C48  1  0.20593300  0.25340200  0.20239500  1
  C  C49  1  0.70593300  0.24659800  0.29760500  1
  C  C50  1  0.79406700  0.75340200  0.29760500  1
  C  C51  1  0.29406700  0.74659800  0.20239500  1
  C  C52  1  0.79517300  0.64242200  0.81612300  1
  C  C53  1  0.29517300  0.85757800  0.68387700  1
  C  C54  1  0.20482700  0.14242200  0.68387700  1
  C  C55  1  0.70482700  0.35757800  0.81612300  1
  C  C56  1  0.20482700  0.35757800  0.18387700  1
  C  C57  1  0.70482700  0.14242200  0.31612300  1
  C  C58  1  0.79517300  0.85757800  0.31612300  1
  C  C59  1  0.29517300  0.64242200  0.18387700  1
  N  N60  1  0.79170100  0.83055500  0.78377800  1
  N  N61  1  0.29170100  0.66944500  0.71622200  1
  N  N62  1  0.20829900  0.33055500  0.71622200  1
  N  N63  1  0.70829900  0.16944500  0.78377800  1
  N  N64  1  0.20829900  0.16944500  0.21622200  1
  N  N65  1  0.70829900  0.33055500  0.28377800  1
  N  N66  1  0.79170100  0.66944500  0.28377800  1
  N  N67  1  0.29170100  0.83055500  0.21622200  1
  Cl  Cl68  1  0.77561300  0.88384600  0.02242700  1
  Cl  Cl69  1  0.27561300  0.61615400  0.47757300  1
  Cl  Cl70  1  0.22438700  0.38384600  0.47757300  1
  Cl  Cl71  1  0.72438700  0.11615400  0.02242700  1
  Cl  Cl72  1  0.22438700  0.11615400  0.97757300  1
  Cl  Cl73  1  0.72438700  0.38384600  0.52242700  1
  Cl  Cl74  1  0.77561300  0.61615400  0.52242700  1
  Cl  Cl75  1  0.27561300  0.88384600  0.97757300  1
  Cl  Cl76  1  0.95227400  0.16647000  0.85695300  1
  Cl  Cl77  1  0.45227400  0.33353000  0.64304700  1
  Cl  Cl78  1  0.04772600  0.66647000  0.64304700  1
  Cl  Cl79  1  0.54772600  0.83353000  0.85695300  1
  Cl  Cl80  1  0.04772600  0.83353000  0.14304700  1
  Cl  Cl81  1  0.54772600  0.66647000  0.35695300  1
  Cl  Cl82  1  0.95227400  0.33353000  0.35695300  1
  Cl  Cl83  1  0.45227400  0.16647000  0.14304700  1
  Cl  Cl84  1  0.00582500  0.93532500  0.85775600  1
  Cl  Cl85  1  0.50582500  0.56467500  0.64224400  1
  Cl  Cl86  1  0.99417500  0.43532500  0.64224400  1
  Cl  Cl87  1  0.49417500  0.06467500  0.85775600  1
  Cl  Cl88  1  0.99417500  0.06467500  0.14224400  1
  Cl  Cl89  1  0.49417500  0.43532500  0.35775600  1
  Cl  Cl90  1  0.00582500  0.56467500  0.35775600  1
  Cl  Cl91  1  0.50582500  0.93532500  0.14224400  1
  Cl  Cl92  1  0.91702500  0.91514600  0.59312500  1
  Cl  Cl93  1  0.41702500  0.58485400  0.90687500  1
  Cl  Cl94  1  0.08297500  0.41514600  0.90687500  1
  Cl  Cl95  1  0.58297500  0.08485400  0.59312500  1
  Cl  Cl96  1  0.08297500  0.08485400  0.40687500  1
  Cl  Cl97  1  0.58297500  0.41514600  0.09312500  1
  Cl  Cl98  1  0.91702500  0.58485400  0.09312500  1
  Cl  Cl99  1  0.41702500  0.91514600  0.40687500  1
  Cl  Cl100  1  0.86645200  0.14649600  0.59421600  1
  Cl  Cl101  1  0.36645200  0.35350400  0.90578400  1
  Cl  Cl102  1  0.13354800  0.64649600  0.90578400  1
  Cl  Cl103  1  0.63354800  0.85350400  0.59421600  1
  Cl  Cl104  1  0.13354800  0.85350400  0.40578400  1
  Cl  Cl105  1  0.63354800  0.64649600  0.09421600  1
  Cl  Cl106  1  0.86645200  0.35350400  0.09421600  1
  Cl  Cl107  1  0.36645200  0.14649600  0.40578400  1
