# generated using pymatgen
data_V4Bi23
_symmetry_space_group_name_H-M   'P 1'
_cell_length_a   10.93430000
_cell_length_b   17.64155736
_cell_length_c   17.67500930
_cell_angle_alpha   71.85759931
_cell_angle_beta   88.34760142
_cell_angle_gamma   88.42400439
_symmetry_Int_Tables_number   1
_chemical_formula_structural   V4Bi23
_chemical_formula_sum   'V16 Bi92'
_cell_volume   3238.01203162
_cell_formula_units_Z   4
loop_
 _symmetry_equiv_pos_site_id
 _symmetry_equiv_pos_as_xyz
  1  'x, y, z'
loop_
 _atom_site_type_symbol
 _atom_site_label
 _atom_site_symmetry_multiplicity
 _atom_site_fract_x
 _atom_site_fract_y
 _atom_site_fract_z
 _atom_site_occupancy
  V  V0  1  0.13905700  0.08821800  0.76933500  1
  V  V1  1  0.86094300  0.91178200  0.23066500  1
  V  V2  1  0.09680700  0.10650400  0.42127200  1
  V  V3  1  0.90319300  0.89349600  0.57872800  1
  V  V4  1  0.56151700  0.08140400  0.93404100  1
  V  V5  1  0.43848300  0.91859600  0.06595900  1
  V  V6  1  0.60385300  0.08290100  0.25948300  1
  V  V7  1  0.39614700  0.91709900  0.74051700  1
  V  V8  1  0.09772600  0.39150300  0.57100600  1
  V  V9  1  0.90227400  0.60849700  0.42899400  1
  V  V10  1  0.13982800  0.41806100  0.25491000  1
  V  V11  1  0.86017200  0.58193900  0.74509000  1
  V  V12  1  0.59494500  0.40933100  0.73174100  1
  V  V13  1  0.40505500  0.59066900  0.26825900  1
  V  V14  1  0.57910800  0.39705400  0.08340900  1
  V  V15  1  0.42089200  0.60294600  0.91659100  1
  Bi  Bi16  1  0.10850200  0.09242500  0.11734700  1
  Bi  Bi17  1  0.89149800  0.90757500  0.88265300  1
  Bi  Bi18  1  0.29250500  0.06542100  0.95149600  1
  Bi  Bi19  1  0.70749500  0.93457900  0.04850400  1
  Bi  Bi20  1  0.27283000  0.07362200  0.61694600  1
  Bi  Bi21  1  0.72717000  0.92637800  0.38305400  1
  Bi  Bi22  1  0.25449400  0.08676900  0.28489900  1
  Bi  Bi23  1  0.74550600  0.91323100  0.71510100  1
  Bi  Bi24  1  0.42435500  0.08046600  0.77625000  1
  Bi  Bi25  1  0.57564500  0.91953400  0.22375000  1
  Bi  Bi26  1  0.42548400  0.07496800  0.43539900  1
  Bi  Bi27  1  0.57451600  0.92503200  0.56460100  1
  Bi  Bi28  1  0.46612000  0.08286900  0.09699500  1
  Bi  Bi29  1  0.53388000  0.91713100  0.90300500  1
  Bi  Bi30  1  0.60738200  0.08019000  0.62201800  1
  Bi  Bi31  1  0.39261800  0.91981000  0.37798200  1
  Bi  Bi32  1  0.74052000  0.07899000  0.80414300  1
  Bi  Bi33  1  0.25948000  0.92101000  0.19585700  1
  Bi  Bi34  1  0.80750200  0.07317500  0.44192500  1
  Bi  Bi35  1  0.19249800  0.92682500  0.55807500  1
  Bi  Bi36  1  0.76979000  0.07315700  0.12117200  1
  Bi  Bi37  1  0.23021000  0.92684300  0.87882800  1
  Bi  Bi38  1  0.95127300  0.07344800  0.92416100  1
  Bi  Bi39  1  0.04872700  0.92655200  0.07583900  1
  Bi  Bi40  1  0.96572300  0.07463900  0.58900000  1
  Bi  Bi41  1  0.03427700  0.92536100  0.41100000  1
  Bi  Bi42  1  0.93265700  0.07429300  0.27344700  1
  Bi  Bi43  1  0.06734300  0.92570700  0.72655300  1
  Bi  Bi44  1  0.11519500  0.22614100  0.83903100  1
  Bi  Bi45  1  0.88480500  0.77385900  0.16096900  1
  Bi  Bi46  1  0.10036200  0.24618400  0.49867700  1
  Bi  Bi47  1  0.89963800  0.75381600  0.50132300  1
  Bi  Bi48  1  0.09879000  0.29569400  0.15333600  1
  Bi  Bi49  1  0.90121000  0.70430600  0.84666400  1
  Bi  Bi50  1  0.25835700  0.24951400  0.66465000  1
  Bi  Bi51  1  0.74164300  0.75048600  0.33535000  1
  Bi  Bi52  1  0.26313400  0.25735900  0.33273500  1
  Bi  Bi53  1  0.73686600  0.74264100  0.66726500  1
  Bi  Bi54  1  0.23886600  0.25434200  0.99824400  1
  Bi  Bi55  1  0.76113400  0.74565800  0.00175600  1
  Bi  Bi56  1  0.46701300  0.25596300  0.84548400  1
  Bi  Bi57  1  0.53298700  0.74403700  0.15451600  1
  Bi  Bi58  1  0.44908700  0.25145000  0.49602200  1
  Bi  Bi59  1  0.55091300  0.74855000  0.50397800  1
  Bi  Bi60  1  0.45913700  0.23936600  0.17076400  1
  Bi  Bi61  1  0.54086300  0.76063400  0.82923600  1
  Bi  Bi62  1  0.61374500  0.25296900  0.00304600  1
  Bi  Bi63  1  0.38625500  0.74703100  0.99695400  1
  Bi  Bi64  1  0.60541000  0.26538000  0.66607400  1
  Bi  Bi65  1  0.39459000  0.73462000  0.33392600  1
  Bi  Bi66  1  0.61025500  0.21656100  0.34052100  1
  Bi  Bi67  1  0.38974500  0.78343900  0.65947900  1
  Bi  Bi68  1  0.75790400  0.26041100  0.82282500  1
  Bi  Bi69  1  0.24209600  0.73958900  0.17717500  1
  Bi  Bi70  1  0.74367800  0.24461400  0.50144300  1
  Bi  Bi71  1  0.25632200  0.75538600  0.49855700  1
  Bi  Bi72  1  0.75594100  0.24477200  0.17275100  1
  Bi  Bi73  1  0.24405900  0.75522800  0.82724900  1
  Bi  Bi74  1  0.96794800  0.22398200  0.67349500  1
  Bi  Bi75  1  0.03205200  0.77601800  0.32650500  1
  Bi  Bi76  1  0.96857600  0.27527300  0.32461700  1
  Bi  Bi77  1  0.03142400  0.72472700  0.67538300  1
  Bi  Bi78  1  0.93508800  0.23477100  0.99684900  1
  Bi  Bi79  1  0.06491200  0.76522900  0.00315100  1
  Bi  Bi80  1  0.09362800  0.42039800  0.88153300  1
  Bi  Bi81  1  0.90637200  0.57960200  0.11846700  1
  Bi  Bi82  1  0.27641300  0.41049700  0.72468400  1
  Bi  Bi83  1  0.72358700  0.58950300  0.27531600  1
  Bi  Bi84  1  0.26507000  0.42019700  0.40437200  1
  Bi  Bi85  1  0.73493000  0.57980300  0.59562800  1
  Bi  Bi86  1  0.30322600  0.42674000  0.06260400  1
  Bi  Bi87  1  0.69677400  0.57326000  0.93739600  1
  Bi  Bi88  1  0.46733700  0.42615100  0.90946700  1
  Bi  Bi89  1  0.53266300  0.57384900  0.09053300  1
  Bi  Bi90  1  0.44829000  0.42366500  0.57451300  1
  Bi  Bi91  1  0.55171000  0.57633500  0.42548700  1
  Bi  Bi92  1  0.43305800  0.42319500  0.23339300  1
  Bi  Bi93  1  0.56694200  0.57680500  0.76660700  1
  Bi  Bi94  1  0.61607200  0.41219700  0.38284300  1
  Bi  Bi95  1  0.38392800  0.58780300  0.61715700  1
  Bi  Bi96  1  0.76992900  0.43118900  0.86626300  1
  Bi  Bi97  1  0.23007100  0.56881100  0.13373700  1
  Bi  Bi98  1  0.78824800  0.41399700  0.56672100  1
  Bi  Bi99  1  0.21175200  0.58600300  0.43327900  1
  Bi  Bi100  1  0.75434200  0.41756300  0.20681900  1
  Bi  Bi101  1  0.24565800  0.58243700  0.79318100  1
  Bi  Bi102  1  0.95012800  0.41507900  0.71846900  1
  Bi  Bi103  1  0.04987200  0.58492100  0.28153100  1
  Bi  Bi104  1  0.96361800  0.42582200  0.41019500  1
  Bi  Bi105  1  0.03638200  0.57417800  0.58980500  1
  Bi  Bi106  1  0.90826600  0.42116600  0.04574700  1
  Bi  Bi107  1  0.09173400  0.57883400  0.95425300  1
