# generated using pymatgen
data_NiH48C18S6(N7O3)2
_symmetry_space_group_name_H-M   'P 1'
_cell_length_a   14.08049085
_cell_length_b   14.08049085
_cell_length_c   14.79477943
_cell_angle_alpha   61.58463378
_cell_angle_beta   61.58463378
_cell_angle_gamma   59.99999947
_symmetry_Int_Tables_number   1
_chemical_formula_structural   NiH48C18S6(N7O3)2
_chemical_formula_sum   'Ni2 H96 C36 S12 N28 O12'
_cell_volume   2122.39460958
_cell_formula_units_Z   2
loop_
 _symmetry_equiv_pos_site_id
 _symmetry_equiv_pos_as_xyz
  1  'x, y, z'
loop_
 _atom_site_type_symbol
 _atom_site_label
 _atom_site_symmetry_multiplicity
 _atom_site_fract_x
 _atom_site_fract_y
 _atom_site_fract_z
 _atom_site_occupancy
  Ni  Ni0  1  0.24999700  0.25000000  0.25000300  1
  Ni  Ni1  1  0.74999700  0.75000000  0.75000300  1
  H  H2  1  0.41816927  0.03370863  0.17954828  1
  H  H3  1  0.03370863  0.36857383  0.17954828  1
  H  H4  1  0.36857383  0.41816927  0.17954828  1
  H  H5  1  0.91816927  0.86857383  0.67954828  1
  H  H6  1  0.86857383  0.53370863  0.67954828  1
  H  H7  1  0.53370863  0.91816927  0.67954828  1
  H  H8  1  0.58183073  0.96629137  0.82045172  1
  H  H9  1  0.96629137  0.63142617  0.82045172  1
  H  H10  1  0.63142617  0.58183073  0.82045172  1
  H  H11  1  0.08183073  0.13142617  0.32045172  1
  H  H12  1  0.13142617  0.46629137  0.32045172  1
  H  H13  1  0.46629137  0.08183073  0.32045172  1
  H  H14  1  0.38104241  0.76796117  0.35756072  1
  H  H15  1  0.76796117  0.49343570  0.35756072  1
  H  H16  1  0.49343570  0.38104241  0.35756072  1
  H  H17  1  0.88104241  0.99343570  0.85756072  1
  H  H18  1  0.99343570  0.26796117  0.85756072  1
  H  H19  1  0.26796117  0.88104241  0.85756072  1
  H  H20  1  0.61895759  0.23203883  0.64243928  1
  H  H21  1  0.23203883  0.50656430  0.64243928  1
  H  H22  1  0.50656430  0.61895759  0.64243928  1
  H  H23  1  0.11895759  0.00656430  0.14243928  1
  H  H24  1  0.00656430  0.73203883  0.14243928  1
  H  H25  1  0.73203883  0.11895759  0.14243928  1
  H  H26  1  0.52287939  0.79299836  0.19901884  1
  H  H27  1  0.79299836  0.48510341  0.19901884  1
  H  H28  1  0.48510341  0.52287939  0.19901884  1
  H  H29  1  0.02287939  0.98510341  0.69901884  1
  H  H30  1  0.98510341  0.29299836  0.69901884  1
  H  H31  1  0.29299836  0.02287939  0.69901884  1
  H  H32  1  0.47712061  0.20700164  0.80098116  1
  H  H33  1  0.20700164  0.51489659  0.80098116  1
  H  H34  1  0.51489659  0.47712061  0.80098116  1
  H  H35  1  0.97712061  0.01489659  0.30098116  1
  H  H36  1  0.01489659  0.70700164  0.30098116  1
  H  H37  1  0.70700164  0.97712061  0.30098116  1
  H  H38  1  0.49460796  0.91042844  0.08166129  1
  H  H39  1  0.91042844  0.51330230  0.08166129  1
  H  H40  1  0.51330230  0.49460796  0.08166129  1
  H  H41  1  0.99460796  0.01330230  0.58166129  1
  H  H42  1  0.01330230  0.41042844  0.58166129  1
  H  H43  1  0.41042844  0.99460796  0.58166129  1
  H  H44  1  0.50539204  0.08957156  0.91833871  1
  H  H45  1  0.08957156  0.48669770  0.91833871  1
  H  H46  1  0.48669770  0.50539204  0.91833871  1
  H  H47  1  0.00539204  0.98669770  0.41833871  1
  H  H48  1  0.98669770  0.58957156  0.41833871  1
  H  H49  1  0.58957156  0.00539204  0.41833871  1
  H  H50  1  0.38859060  0.84629674  0.17704692  1
  H  H51  1  0.84629674  0.58806574  0.17704692  1
  H  H52  1  0.58806574  0.38859060  0.17704692  1
  H  H53  1  0.88859060  0.08806574  0.67704692  1
  H  H54  1  0.08806574  0.34629674  0.67704692  1
  H  H55  1  0.34629674  0.88859060  0.67704692  1
  H  H56  1  0.61140940  0.15370326  0.82295308  1
  H  H57  1  0.15370326  0.41193426  0.82295308  1
  H  H58  1  0.41193426  0.61140940  0.82295308  1
  H  H59  1  0.11140940  0.91193426  0.32295308  1
  H  H60  1  0.91193426  0.65370326  0.32295308  1
  H  H61  1  0.65370326  0.11140940  0.32295308  1
  H  H62  1  0.28528627  0.83466273  0.54819594  1
  H  H63  1  0.83466273  0.33185506  0.54819594  1
  H  H64  1  0.33185506  0.28528627  0.54819594  1
  H  H65  1  0.78528627  0.83185506  0.04819594  1
  H  H66  1  0.83185506  0.33466273  0.04819594  1
  H  H67  1  0.33466273  0.78528627  0.04819594  1
  H  H68  1  0.71471373  0.16533727  0.45180406  1
  H  H69  1  0.16533727  0.66814494  0.45180406  1
  H  H70  1  0.66814494  0.71471373  0.45180406  1
  H  H71  1  0.21471373  0.16814494  0.95180406  1
  H  H72  1  0.16814494  0.66533727  0.95180406  1
  H  H73  1  0.66533727  0.21471373  0.95180406  1
  H  H74  1  0.28510990  0.71515998  0.53566370  1
  H  H75  1  0.71515998  0.46406641  0.53566370  1
  H  H76  1  0.46406641  0.28510990  0.53566370  1
  H  H77  1  0.78510990  0.96406641  0.03566370  1
  H  H78  1  0.96406641  0.21515998  0.03566370  1
  H  H79  1  0.21515998  0.78510990  0.03566370  1
  H  H80  1  0.71489010  0.28484002  0.46433630  1
  H  H81  1  0.28484002  0.53593359  0.46433630  1
  H  H82  1  0.53593359  0.71489010  0.46433630  1
  H  H83  1  0.21489010  0.03593359  0.96433630  1
  H  H84  1  0.03593359  0.78484002  0.96433630  1
  H  H85  1  0.78484002  0.21489010  0.96433630  1
  H  H86  1  0.17239924  0.85267244  0.51188793  1
  H  H87  1  0.85267244  0.46304039  0.51188793  1
  H  H88  1  0.46304039  0.17239924  0.51188793  1
  H  H89  1  0.67239924  0.96304039  0.01188793  1
  H  H90  1  0.96304039  0.35267244  0.01188793  1
  H  H91  1  0.35267244  0.67239924  0.01188793  1
  H  H92  1  0.82760076  0.14732756  0.48811207  1
  H  H93  1  0.14732756  0.53695961  0.48811207  1
  H  H94  1  0.53695961  0.82760076  0.48811207  1
  H  H95  1  0.32760076  0.03695961  0.98811207  1
  H  H96  1  0.03695961  0.64732756  0.98811207  1
  H  H97  1  0.64732756  0.32760076  0.98811207  1
  C  C98  1  0.34603664  0.93901504  0.32821607  1
  C  C99  1  0.93901504  0.38673225  0.32821607  1
  C  C100  1  0.38673225  0.34603664  0.32821607  1
  C  C101  1  0.84603664  0.88673225  0.82821607  1
  C  C102  1  0.88673225  0.43901504  0.82821607  1
  C  C103  1  0.43901504  0.84603664  0.82821607  1
  C  C104  1  0.65396336  0.06098496  0.67178393  1
  C  C105  1  0.06098496  0.61326775  0.67178393  1
  C  C106  1  0.61326775  0.65396336  0.67178393  1
  C  C107  1  0.15396336  0.11326775  0.17178393  1
  C  C108  1  0.11326775  0.56098496  0.17178393  1
  C  C109  1  0.56098496  0.15396336  0.17178393  1
  C  C110  1  0.45592382  0.87147845  0.16793332  1
  C  C111  1  0.87147845  0.50466441  0.16793332  1
  C  C112  1  0.50466441  0.45592382  0.16793332  1
  C  C113  1  0.95592382  0.00466441  0.66793332  1
  C  C114  1  0.00466441  0.37147845  0.66793332  1
  C  C115  1  0.37147845  0.95592382  0.66793332  1
  C  C116  1  0.54407618  0.12852155  0.83206668  1
  C  C117  1  0.12852155  0.49533559  0.83206668  1
  C  C118  1  0.49533559  0.54407618  0.83206668  1
  C  C119  1  0.04407618  0.99533559  0.33206668  1
  C  C120  1  0.99533559  0.62852155  0.33206668  1
  C  C121  1  0.62852155  0.04407618  0.33206668  1
  C  C122  1  0.26517593  0.80855556  0.50221394  1
  C  C123  1  0.80855556  0.42405457  0.50221394  1
  C  C124  1  0.42405457  0.26517593  0.50221394  1
  C  C125  1  0.76517593  0.92405457  0.00221394  1
  C  C126  1  0.92405457  0.30855556  0.00221394  1
  C  C127  1  0.30855556  0.76517593  0.00221394  1
  C  C128  1  0.73482407  0.19144444  0.49778606  1
  C  C129  1  0.19144444  0.57594543  0.49778606  1
  C  C130  1  0.57594543  0.73482407  0.49778606  1
  C  C131  1  0.23482407  0.07594543  0.99778606  1
  C  C132  1  0.07594543  0.69144444  0.99778606  1
  C  C133  1  0.69144444  0.23482407  0.99778606  1
  S  S134  1  0.28551109  0.04662766  0.38505659  1
  S  S135  1  0.04662766  0.28280466  0.38505659  1
  S  S136  1  0.28280466  0.28551109  0.38505659  1
  S  S137  1  0.78551109  0.78280466  0.88505659  1
  S  S138  1  0.78280466  0.54662766  0.88505659  1
  S  S139  1  0.54662766  0.78551109  0.88505659  1
  S  S140  1  0.71448891  0.95337234  0.61494341  1
  S  S141  1  0.95337234  0.71719534  0.61494341  1
  S  S142  1  0.71719534  0.71448891  0.61494341  1
  S  S143  1  0.21448891  0.21719534  0.11494341  1
  S  S144  1  0.21719534  0.45337234  0.11494341  1
  S  S145  1  0.45337234  0.21448891  0.11494341  1
  N  N146  1  0.40777233  0.95544769  0.22287055  1
  N  N147  1  0.95544769  0.41390942  0.22287055  1
  N  N148  1  0.41390942  0.40777233  0.22287055  1
  N  N149  1  0.90777233  0.91390942  0.72287055  1
  N  N150  1  0.91390942  0.45544769  0.72287055  1
  N  N151  1  0.45544769  0.90777233  0.72287055  1
  N  N152  1  0.59222767  0.04455231  0.77712945  1
  N  N153  1  0.04455231  0.58609058  0.77712945  1
  N  N154  1  0.58609058  0.59222767  0.77712945  1
  N  N155  1  0.09222767  0.08609058  0.27712945  1
  N  N156  1  0.08609058  0.54455231  0.27712945  1
  N  N157  1  0.54455231  0.09222767  0.27712945  1
  N  N158  1  0.33390768  0.83592503  0.38874627  1
  N  N159  1  0.83592503  0.44142102  0.38874627  1
  N  N160  1  0.44142102  0.33390768  0.38874627  1
  N  N161  1  0.83390768  0.94142102  0.88874627  1
  N  N162  1  0.94142102  0.33592503  0.88874627  1
  N  N163  1  0.33592503  0.83390768  0.88874627  1
  N  N164  1  0.66609232  0.16407497  0.61125373  1
  N  N165  1  0.16407497  0.55857898  0.61125373  1
  N  N166  1  0.55857898  0.66609232  0.61125373  1
  N  N167  1  0.16609232  0.05857898  0.11125373  1
  N  N168  1  0.05857898  0.66407497  0.11125373  1
  N  N169  1  0.66407497  0.16609232  0.11125373  1
  N  N170  1  0.55267445  0.55267445  0.34197665  1
  N  N171  1  0.05267445  0.05267445  0.84197665  1
  N  N172  1  0.44732555  0.44732555  0.65802335  1
  N  N173  1  0.94732555  0.94732555  0.15802335  1
  O  O174  1  0.61129846  0.59817159  0.34171623  1
  O  O175  1  0.59817159  0.44881372  0.34171623  1
  O  O176  1  0.44881372  0.61129846  0.34171623  1
  O  O177  1  0.11129846  0.94881372  0.84171623  1
  O  O178  1  0.94881372  0.09817159  0.84171623  1
  O  O179  1  0.09817159  0.11129846  0.84171623  1
  O  O180  1  0.38870154  0.40182841  0.65828377  1
  O  O181  1  0.40182841  0.55118628  0.65828377  1
  O  O182  1  0.55118628  0.38870154  0.65828377  1
  O  O183  1  0.88870154  0.05118628  0.15828377  1
  O  O184  1  0.05118628  0.90182841  0.15828377  1
  O  O185  1  0.90182841  0.88870154  0.15828377  1
