# generated using pymatgen
data_BaMnO2
_symmetry_space_group_name_H-M   'P 1'
_cell_length_a   9.75146500
_cell_length_b   10.66684000
_cell_length_c   11.49407400
_cell_angle_alpha   90.00000000
_cell_angle_beta   90.00000000
_cell_angle_gamma   90.00000000
_symmetry_Int_Tables_number   1
_chemical_formula_structural   BaMnO2
_chemical_formula_sum   'Ba16 Mn16 O32'
_cell_volume   1195.58273797
_cell_formula_units_Z   16
loop_
 _symmetry_equiv_pos_site_id
 _symmetry_equiv_pos_as_xyz
  1  'x, y, z'
loop_
 _atom_site_type_symbol
 _atom_site_label
 _atom_site_symmetry_multiplicity
 _atom_site_fract_x
 _atom_site_fract_y
 _atom_site_fract_z
 _atom_site_occupancy
  Ba  Ba0  1  0.47815400  0.23054900  0.38354300  1
  Ba  Ba1  1  0.02184600  0.73054900  0.11645700  1
  Ba  Ba2  1  0.97815400  0.76945100  0.61645700  1
  Ba  Ba3  1  0.52184600  0.26945100  0.88354300  1
  Ba  Ba4  1  0.52184600  0.76945100  0.61645700  1
  Ba  Ba5  1  0.97815400  0.26945100  0.88354300  1
  Ba  Ba6  1  0.02184600  0.23054900  0.38354300  1
  Ba  Ba7  1  0.47815400  0.73054900  0.11645700  1
  Ba  Ba8  1  0.25000000  0.06607200  0.12107800  1
  Ba  Ba9  1  0.25000000  0.56607200  0.37892200  1
  Ba  Ba10  1  0.75000000  0.93392800  0.87892200  1
  Ba  Ba11  1  0.75000000  0.43392800  0.62107800  1
  Ba  Ba12  1  0.25000000  0.57588000  0.85827400  1
  Ba  Ba13  1  0.25000000  0.07588000  0.64172600  1
  Ba  Ba14  1  0.75000000  0.42412000  0.14172600  1
  Ba  Ba15  1  0.75000000  0.92412000  0.35827400  1
  Mn  Mn16  1  0.89367900  0.11267500  0.13770500  1
  Mn  Mn17  1  0.60632100  0.61267500  0.36229500  1
  Mn  Mn18  1  0.39367900  0.88732500  0.86229500  1
  Mn  Mn19  1  0.10632100  0.38732500  0.63770500  1
  Mn  Mn20  1  0.10632100  0.88732500  0.86229500  1
  Mn  Mn21  1  0.39367900  0.38732500  0.63770500  1
  Mn  Mn22  1  0.60632100  0.11267500  0.13770500  1
  Mn  Mn23  1  0.89367900  0.61267500  0.36229500  1
  Mn  Mn24  1  0.09486700  0.92098700  0.36121800  1
  Mn  Mn25  1  0.40513300  0.42098700  0.13878200  1
  Mn  Mn26  1  0.59486700  0.07901300  0.63878200  1
  Mn  Mn27  1  0.90513300  0.57901300  0.86121800  1
  Mn  Mn28  1  0.90513300  0.07901300  0.63878200  1
  Mn  Mn29  1  0.59486700  0.57901300  0.86121800  1
  Mn  Mn30  1  0.40513300  0.92098700  0.36121800  1
  Mn  Mn31  1  0.09486700  0.42098700  0.13878200  1
  O  O32  1  0.75000000  0.44515500  0.84886500  1
  O  O33  1  0.75000000  0.94515500  0.65113500  1
  O  O34  1  0.25000000  0.55484500  0.15113500  1
  O  O35  1  0.25000000  0.05484500  0.34886500  1
  O  O36  1  0.55459800  0.76496000  0.89024400  1
  O  O37  1  0.94540200  0.26496000  0.60975600  1
  O  O38  1  0.05459800  0.23504000  0.10975600  1
  O  O39  1  0.44540200  0.73504000  0.39024400  1
  O  O40  1  0.44540200  0.23504000  0.10975600  1
  O  O41  1  0.05459800  0.73504000  0.39024400  1
  O  O42  1  0.94540200  0.76496000  0.89024400  1
  O  O43  1  0.55459800  0.26496000  0.60975600  1
  O  O44  1  0.50000000  0.50000000  0.00000000  1
  O  O45  1  0.00000000  0.00000000  0.50000000  1
  O  O46  1  0.00000000  0.50000000  0.00000000  1
  O  O47  1  0.50000000  0.00000000  0.50000000  1
  O  O48  1  0.25000000  0.85384900  0.99664500  1
  O  O49  1  0.25000000  0.35384900  0.50335500  1
  O  O50  1  0.75000000  0.14615100  0.00335500  1
  O  O51  1  0.75000000  0.64615100  0.49664500  1
  O  O52  1  0.47813700  0.54298700  0.71036700  1
  O  O53  1  0.02186300  0.04298700  0.78963300  1
  O  O54  1  0.97813700  0.45701300  0.28963300  1
  O  O55  1  0.52186300  0.95701300  0.21036700  1
  O  O56  1  0.52186300  0.45701300  0.28963300  1
  O  O57  1  0.97813700  0.95701300  0.21036700  1
  O  O58  1  0.02186300  0.54298700  0.71036700  1
  O  O59  1  0.47813700  0.04298700  0.78963300  1
  O  O60  1  0.25000000  0.32691600  0.76714800  1
  O  O61  1  0.25000000  0.82691600  0.73285200  1
  O  O62  1  0.75000000  0.67308400  0.23285200  1
  O  O63  1  0.75000000  0.17308400  0.26714800  1
