# generated using pymatgen
data_MnAs3(PbO3)3
_symmetry_space_group_name_H-M   'P 1'
_cell_length_a   6.70109201
_cell_length_b   7.40834780
_cell_length_c   10.99790374
_cell_angle_alpha   95.38223085
_cell_angle_beta   90.00397638
_cell_angle_gamma   90.00565104
_symmetry_Int_Tables_number   1
_chemical_formula_structural   MnAs3(PbO3)3
_chemical_formula_sum   'Mn2 As6 Pb6 O18'
_cell_volume   543.57298167
_cell_formula_units_Z   2
loop_
 _symmetry_equiv_pos_site_id
 _symmetry_equiv_pos_as_xyz
  1  'x, y, z'
loop_
 _atom_site_type_symbol
 _atom_site_label
 _atom_site_symmetry_multiplicity
 _atom_site_fract_x
 _atom_site_fract_y
 _atom_site_fract_z
 _atom_site_occupancy
  Mn  Mn0  1  0.98594700  0.50610800  0.04529400  1
  Mn  Mn1  1  0.01400300  0.00614100  0.54528400  1
  As  As2  1  0.79277900  0.28890900  0.78048800  1
  As  As3  1  0.20711500  0.78893800  0.28053200  1
  As  As4  1  0.88399400  0.23972800  0.30313800  1
  As  As5  1  0.11599200  0.73976300  0.80311200  1
  As  As6  1  0.47846600  0.11654200  0.48991700  1
  As  As7  1  0.52155700  0.61655800  0.98992400  1
  Pb  Pb8  1  0.14128200  0.50068100  0.50772900  1
  Pb  Pb9  1  0.85893100  0.00077800  0.00769400  1
  Pb  Pb10  1  0.37020600  0.30717200  0.19361200  1
  Pb  Pb11  1  0.62972400  0.80716700  0.69363200  1
  Pb  Pb12  1  0.29058100  0.21939200  0.79292300  1
  Pb  Pb13  1  0.70936100  0.71937100  0.29288400  1
  O  O14  1  0.98941500  0.21396600  0.67139300  1
  O  O15  1  0.01059000  0.71393300  0.17138000  1
  O  O16  1  0.68310100  0.07639800  0.82114900  1
  O  O17  1  0.31686900  0.57640500  0.32116300  1
  O  O18  1  0.96475400  0.31161900  0.90981800  1
  O  O19  1  0.03522400  0.81166100  0.40983100  1
  O  O20  1  0.03137600  0.28302500  0.16970600  1
  O  O21  1  0.96856800  0.78304100  0.66972500  1
  O  O22  1  0.83566300  0.46368300  0.37140500  1
  O  O23  1  0.16437700  0.96387800  0.87140100  1
  O  O24  1  0.08443600  0.19874400  0.40635900  1
  O  O25  1  0.91567700  0.69866000  0.90635900  1
  O  O26  1  0.30758700  0.99479700  0.58688800  1
  O  O27  1  0.69243800  0.49480700  0.08686700  1
  O  O28  1  0.29080800  0.48946200  0.03784200  1
  O  O29  1  0.70918800  0.98949100  0.53785600  1
  O  O30  1  0.46988400  0.32389400  0.57873000  1
  O  O31  1  0.53010700  0.82389200  0.07876300  1
