# generated using pymatgen
data_Ni2As2O7
_symmetry_space_group_name_H-M   'P 1'
_cell_length_a   5.37009900
_cell_length_b   7.68322843
_cell_length_c   10.32536459
_cell_angle_alpha   72.44889689
_cell_angle_beta   76.01295168
_cell_angle_gamma   84.73366579
_symmetry_Int_Tables_number   1
_chemical_formula_structural   Ni2As2O7
_chemical_formula_sum   'Ni6 As6 O21'
_cell_volume   394.06382692
_cell_formula_units_Z   3
loop_
 _symmetry_equiv_pos_site_id
 _symmetry_equiv_pos_as_xyz
  1  'x, y, z'
loop_
 _atom_site_type_symbol
 _atom_site_label
 _atom_site_symmetry_multiplicity
 _atom_site_fract_x
 _atom_site_fract_y
 _atom_site_fract_z
 _atom_site_occupancy
  Ni  Ni0  1  0.55895600  0.86506900  0.09924100  1
  Ni  Ni1  1  0.90492000  0.47933900  0.77069600  1
  Ni  Ni2  1  0.24675400  0.13278100  0.43694400  1
  Ni  Ni3  1  0.11550800  0.53182500  0.22591000  1
  Ni  Ni4  1  0.39862200  0.24144000  0.88519800  1
  Ni  Ni5  1  0.75027600  0.89222100  0.56034600  1
  As  As6  1  0.30748900  0.69799700  0.45320800  1
  As  As7  1  0.66360000  0.31466400  0.12697900  1
  As  As8  1  0.97514400  0.03948200  0.78875100  1
  As  As9  1  0.36699900  0.66846500  0.88393200  1
  As  As10  1  0.68966700  0.32799600  0.53744300  1
  As  As11  1  0.00008200  0.94610200  0.21338200  1
  O  O12  1  0.28099600  0.73711900  0.28147800  1
  O  O13  1  0.63663700  0.36613200  0.95555600  1
  O  O14  1  0.99073800  0.02375300  0.62476600  1
  O  O15  1  0.40607900  0.65194000  0.04813900  1
  O  O16  1  0.66544700  0.35030300  0.69975200  1
  O  O17  1  0.98967600  0.99958000  0.36653800  1
  O  O18  1  0.50728600  0.50692100  0.44985500  1
  O  O19  1  0.71904400  0.07260500  0.16088600  1
  O  O20  1  0.15932000  0.86262900  0.87243300  1
  O  O21  1  0.92136500  0.40566300  0.14003500  1
  O  O22  1  0.12296800  0.23095400  0.78269900  1
  O  O23  1  0.46580200  0.87184700  0.46492700  1
  O  O24  1  0.86712400  0.75558400  0.19902200  1
  O  O25  1  0.20250900  0.50488500  0.85955800  1
  O  O26  1  0.53289600  0.14182700  0.54159400  1
  O  O27  1  0.38266300  0.31606800  0.24799100  1
  O  O28  1  0.67334800  0.00872500  0.89385000  1
  O  O29  1  0.02142500  0.65197900  0.56987600  1
  O  O30  1  0.25170700  0.04413800  0.07960200  1
  O  O31  1  0.64736000  0.71626700  0.75951100  1
  O  O32  1  0.99050700  0.36383600  0.43231300  1
