# generated using pymatgen
data_Sn(C6F5)4
_symmetry_space_group_name_H-M   'P 1'
_cell_length_a   13.23428936
_cell_length_b   13.23428936
_cell_length_c   13.23428936
_cell_angle_alpha   95.38709087
_cell_angle_beta   95.38709087
_cell_angle_gamma   144.31457983
_symmetry_Int_Tables_number   1
_chemical_formula_structural   Sn(C6F5)4
_chemical_formula_sum   'Sn2 C48 F40'
_cell_volume   1287.09757758
_cell_formula_units_Z   2
loop_
 _symmetry_equiv_pos_site_id
 _symmetry_equiv_pos_as_xyz
  1  'x, y, z'
loop_
 _atom_site_type_symbol
 _atom_site_label
 _atom_site_symmetry_multiplicity
 _atom_site_fract_x
 _atom_site_fract_y
 _atom_site_fract_z
 _atom_site_occupancy
  Sn  Sn0  1  0.25000000  0.75000000  0.50000000  1
  Sn  Sn1  1  0.00000000  0.00000000  0.00000000  1
  C  C2  1  0.34602500  0.83939400  0.36420100  1
  C  C3  1  0.47519300  0.98182400  0.63579900  1
  C  C4  1  0.77480700  0.76817600  0.86420100  1
  C  C5  1  0.90397500  0.91060600  0.13579900  1
  C  C6  1  0.01817600  0.65397500  0.49337000  1
  C  C7  1  0.16060600  0.52480700  0.50663000  1
  C  C8  1  0.08939400  0.22519300  0.99337000  1
  C  C9  1  0.23182400  0.09602500  0.00663000  1
  C  C10  1  0.26107500  0.82478800  0.27911600  1
  C  C11  1  0.54567200  0.98195900  0.72088400  1
  C  C12  1  0.70432800  0.76804100  0.77911600  1
  C  C13  1  0.98892500  0.92521200  0.22088400  1
  C  C14  1  0.01804100  0.73892500  0.56371300  1
  C  C15  1  0.17521200  0.45432800  0.43628700  1
  C  C16  1  0.07478800  0.29567200  0.06371300  1
  C  C17  1  0.23195900  0.01107500  0.93628700  1
  C  C18  1  0.33295000  0.89141700  0.19482900  1
  C  C19  1  0.69658800  0.13812100  0.80517100  1
  C  C20  1  0.55341200  0.61187900  0.69482900  1
  C  C21  1  0.91705000  0.85858300  0.30517100  1
  C  C22  1  0.86187900  0.66705000  0.55846700  1
  C  C23  1  0.10858300  0.30341200  0.44153300  1
  C  C24  1  0.14141700  0.44658800  0.05846700  1
  C  C25  1  0.38812100  0.08295000  0.94153300  1
  C  C26  1  0.49517200  0.97590000  0.19555700  1
  C  C27  1  0.78034400  0.29961500  0.80444300  1
  C  C28  1  0.46965600  0.45038500  0.69555700  1
  C  C29  1  0.75482800  0.77410000  0.30444300  1
  C  C30  1  0.70038500  0.50482800  0.48072800  1
  C  C31  1  0.02410000  0.21965600  0.51927200  1
  C  C32  1  0.22590000  0.53034400  0.98072800  1
  C  C33  1  0.54961500  0.24517200  0.01927200  1
  C  C34  1  0.58278800  0.99151400  0.27967600  1
  C  C35  1  0.71183800  0.30311300  0.72032400  1
  C  C36  1  0.53816200  0.44688700  0.77967600  1
  C  C37  1  0.66721200  0.75848600  0.22032400  1
  C  C38  1  0.69688700  0.41721200  0.40872500  1
  C  C39  1  0.00848600  0.28816200  0.59127500  1
  C  C40  1  0.24151400  0.46183800  0.90872500  1
  C  C41  1  0.55311300  0.33278800  0.09127500  1
  C  C42  1  0.50677600  0.92325000  0.36218900  1
  C  C43  1  0.56106100  0.14458700  0.63781100  1
  C  C44  1  0.68893900  0.60541300  0.86218900  1
  C  C45  1  0.74322400  0.82675000  0.13781100  1
  C  C46  1  0.85541300  0.49322400  0.41647400  1
  C  C47  1  0.07675000  0.43893900  0.58352600  1
  C  C48  1  0.17325000  0.31106100  0.91647400  1
  C  C49  1  0.39458700  0.25677600  0.08352600  1
  F  F50  1  0.10348500  0.74377500  0.27538900  1
  F  F51  1  0.46838700  0.82809600  0.72461100  1
  F  F52  1  0.78161300  0.92190400  0.77538900  1
  F  F53  1  0.14651500  0.00622500  0.22461100  1
  F  F54  1  0.17190400  0.89651500  0.64029000  1
  F  F55  1  0.25622500  0.53161300  0.35971000  1
  F  F56  1  0.99377500  0.21838700  0.14029000  1
  F  F57  1  0.07809600  0.85348500  0.85971000  1
  F  F58  1  0.24731400  0.87468000  0.11340800  1
  F  F59  1  0.76127200  0.13390500  0.88659200  1
  F  F60  1  0.48872800  0.61609500  0.61340800  1
  F  F61  1  0.00268600  0.87532000  0.38659200  1
  F  F62  1  0.86609500  0.75268600  0.62736700  1
  F  F63  1  0.12532000  0.23872800  0.37263300  1
  F  F64  1  0.12468000  0.51127200  0.12736700  1
  F  F65  1  0.38390500  0.99731400  0.87263300  1
  F  F66  1  0.56801100  0.04328700  0.11584500  1
  F  F67  1  0.92744200  0.45216500  0.88415500  1
  F  F68  1  0.32255800  0.29783500  0.61584500  1
  F  F69  1  0.68198900  0.70671300  0.38415500  1
  F  F70  1  0.54783500  0.43198900  0.47527600  1
  F  F71  1  0.95671300  0.07255800  0.52472400  1
  F  F72  1  0.29328700  0.67744200  0.97527600  1
  F  F73  1  0.70216500  0.31801100  0.02472400  1
  F  F74  1  0.73944800  0.07294500  0.28016200  1
  F  F75  1  0.79278200  0.45928600  0.71983800  1
  F  F76  1  0.45721800  0.29071400  0.78016200  1
  F  F77  1  0.51055200  0.67705500  0.21983800  1
  F  F78  1  0.54071400  0.26055200  0.33349600  1
  F  F79  1  0.92705500  0.20721800  0.66650400  1
  F  F80  1  0.32294500  0.54278200  0.83349600  1
  F  F81  1  0.70928600  0.48944800  0.16650400  1
  F  F82  1  0.59485200  0.94036000  0.44369500  1
  F  F83  1  0.49666600  0.15115800  0.55630500  1
  F  F84  1  0.75333400  0.59884200  0.94369500  1
  F  F85  1  0.65514800  0.80964000  0.05630500  1
  F  F86  1  0.84884200  0.40514800  0.34550800  1
  F  F87  1  0.05964000  0.50333400  0.65449200  1
  F  F88  1  0.19036000  0.24666600  0.84550800  1
  F  F89  1  0.40115800  0.34485200  0.15449200  1
