# generated using pymatgen
data_Zr6C(I7O5)2
_symmetry_space_group_name_H-M   'P 1'
_cell_length_a   10.54296162
_cell_length_b   10.71734842
_cell_length_c   11.24286125
_cell_angle_alpha   117.61683821
_cell_angle_beta   95.28213685
_cell_angle_gamma   95.70901398
_symmetry_Int_Tables_number   1
_chemical_formula_structural   Zr6C(I7O5)2
_chemical_formula_sum   'Zr6 C1 I14 O10'
_cell_volume   1106.20170279
_cell_formula_units_Z   1
loop_
 _symmetry_equiv_pos_site_id
 _symmetry_equiv_pos_as_xyz
  1  'x, y, z'
loop_
 _atom_site_type_symbol
 _atom_site_label
 _atom_site_symmetry_multiplicity
 _atom_site_fract_x
 _atom_site_fract_y
 _atom_site_fract_z
 _atom_site_occupancy
  Zr  Zr0  1  0.16044300  0.03779100  0.28179700  1
  Zr  Zr1  1  0.83955700  0.96220900  0.71820300  1
  Zr  Zr2  1  0.15403200  0.73547300  0.81501600  1
  Zr  Zr3  1  0.84596800  0.26452700  0.18498400  1
  Zr  Zr4  1  0.23011900  0.23105500  0.99744500  1
  Zr  Zr5  1  0.76988100  0.76894500  0.00255500  1
  C  C6  1  0.00000000  0.00000000  0.00000000  1
  I  I7  1  0.34729100  0.24106200  0.25112000  1
  I  I8  1  0.65270900  0.75893800  0.74888000  1
  I  I9  1  0.93135800  0.56230000  0.83895900  1
  I  I10  1  0.06864200  0.43770000  0.16104100  1
  I  I11  1  0.27633300  0.79823900  0.08813100  1
  I  I12  1  0.72366700  0.20176100  0.91186900  1
  I  I13  1  0.33776800  0.97247500  0.83467600  1
  I  I14  1  0.66223200  0.02752500  0.16532400  1
  I  I15  1  0.93980800  0.82886300  0.25229000  1
  I  I16  1  0.06019200  0.17113700  0.74771000  1
  I  I17  1  0.00710500  0.26704600  0.41484800  1
  I  I18  1  0.99289500  0.73295400  0.58515200  1
  I  I19  1  0.46713100  0.34176000  0.69240800  1
  I  I20  1  0.53286900  0.65824000  0.30759200  1
  O  O21  1  0.24720300  0.05565400  0.43336600  1
  O  O22  1  0.75279700  0.94434600  0.56663400  1
  O  O23  1  0.35125100  0.35455400  0.99119500  1
  O  O24  1  0.64874900  0.64544600  0.00880500  1
  O  O25  1  0.23761200  0.59360400  0.72138000  1
  O  O26  1  0.76238800  0.40639600  0.27862000  1
  O  O27  1  0.68344500  0.30196500  0.51925000  1
  O  O28  1  0.31655500  0.69803500  0.48075000  1
  O  O29  1  0.60397800  0.23018300  0.54951800  1
  O  O30  1  0.39602200  0.76981700  0.45048200  1
