# generated using pymatgen
data_K2MnP2H2(O4F)2
_symmetry_space_group_name_H-M   'P 1'
_cell_length_a   4.66215673
_cell_length_b   8.26388497
_cell_length_c   12.54543799
_cell_angle_alpha   89.68585683
_cell_angle_beta   88.82444596
_cell_angle_gamma   89.38002716
_symmetry_Int_Tables_number   1
_chemical_formula_structural   K2MnP2H2(O4F)2
_chemical_formula_sum   'K4 Mn2 P4 H4 O16 F4'
_cell_volume   483.20798879
_cell_formula_units_Z   2
loop_
 _symmetry_equiv_pos_site_id
 _symmetry_equiv_pos_as_xyz
  1  'x, y, z'
loop_
 _atom_site_type_symbol
 _atom_site_label
 _atom_site_symmetry_multiplicity
 _atom_site_fract_x
 _atom_site_fract_y
 _atom_site_fract_z
 _atom_site_occupancy
  K  K0  1  0.50806800  0.60390500  0.69292600  1
  K  K1  1  0.49193200  0.39609500  0.30707400  1
  K  K2  1  0.48852500  0.10448700  0.80116200  1
  K  K3  1  0.51147500  0.89551300  0.19883800  1
  Mn  Mn4  1  0.50000000  0.00000000  0.50000000  1
  Mn  Mn5  1  0.50000000  0.50000000  0.00000000  1
  P  P6  1  0.99987900  0.27708700  0.09428100  1
  P  P7  1  0.00012100  0.72291300  0.90571900  1
  P  P8  1  0.99660500  0.22500500  0.58819000  1
  P  P9  1  0.00339500  0.77499500  0.41181000  1
  H  H10  1  0.94249700  0.40928500  0.46550900  1
  H  H11  1  0.05750300  0.59071500  0.53449100  1
  H  H12  1  0.93997100  0.09790300  0.96997500  1
  H  H13  1  0.06002900  0.90209700  0.03002500  1
  O  O14  1  0.75467400  0.40492200  0.10483000  1
  O  O15  1  0.24532600  0.59507800  0.89517000  1
  O  O16  1  0.24095700  0.31722800  0.01089100  1
  O  O17  1  0.75904300  0.68277200  0.98910900  1
  O  O18  1  0.90258800  0.77323900  0.79681300  1
  O  O19  1  0.09741200  0.22676100  0.20318700  1
  O  O20  1  0.84848800  0.12083000  0.03934800  1
  O  O21  1  0.15151200  0.87917000  0.96065200  1
  O  O22  1  0.83659300  0.37995900  0.53090100  1
  O  O23  1  0.16340700  0.62004100  0.46909900  1
  O  O24  1  0.76019900  0.81493600  0.49471100  1
  O  O25  1  0.23980100  0.18506400  0.50528900  1
  O  O26  1  0.09442300  0.27612900  0.69634600  1
  O  O27  1  0.90557700  0.72387100  0.30365400  1
  O  O28  1  0.75726800  0.09732100  0.60094000  1
  O  O29  1  0.24273200  0.90267900  0.39906000  1
  F  F30  1  0.67589500  0.39632100  0.88543000  1
  F  F31  1  0.32410500  0.60367900  0.11457000  1
  F  F32  1  0.32128400  0.90522500  0.61635900  1
  F  F33  1  0.67871600  0.09477500  0.38364100  1
