# generated using pymatgen
data_K
_symmetry_space_group_name_H-M   'P 1'
_cell_length_a   20.08363423
_cell_length_b   20.08363423
_cell_length_c   20.08363423
_cell_angle_alpha   109.47122063
_cell_angle_beta   109.47122063
_cell_angle_gamma   109.47122063
_symmetry_Int_Tables_number   1
_chemical_formula_structural   K
_chemical_formula_sum   K81
_cell_volume   6235.98438627
_cell_formula_units_Z   81
loop_
 _symmetry_equiv_pos_site_id
 _symmetry_equiv_pos_as_xyz
  1  'x, y, z'
loop_
 _atom_site_type_symbol
 _atom_site_label
 _atom_site_symmetry_multiplicity
 _atom_site_fract_x
 _atom_site_fract_y
 _atom_site_fract_z
 _atom_site_occupancy
  K  K0  1  0.00000000  0.00000000  0.00000000  1
  K  K1  1  0.09994881  0.50000000  0.59994881  1
  K  K2  1  0.90005119  0.50000000  0.40005119  1
  K  K3  1  0.50000000  0.59994881  0.09994881  1
  K  K4  1  0.50000000  0.40005119  0.90005119  1
  K  K5  1  0.59994881  0.09994881  0.50000000  1
  K  K6  1  0.40005119  0.90005119  0.50000000  1
  K  K7  1  0.30256483  0.50000000  0.80256483  1
  K  K8  1  0.69743517  0.50000000  0.19743517  1
  K  K9  1  0.50000000  0.80256483  0.30256483  1
  K  K10  1  0.50000000  0.19743517  0.69743517  1
  K  K11  1  0.80256483  0.30256483  0.50000000  1
  K  K12  1  0.19743517  0.69743517  0.50000000  1
  K  K13  1  -0.00000000  -0.00000000  0.62755547  1
  K  K14  1  0.62755547  -0.00000000  -0.00000000  1
  K  K15  1  0.00000000  0.62755547  0.00000000  1
  K  K16  1  0.37244453  0.37244453  0.37244453  1
  K  K17  1  0.00000000  0.00000000  0.37244453  1
  K  K18  1  0.37244453  0.00000000  0.00000000  1
  K  K19  1  -0.00000000  0.37244453  -0.00000000  1
  K  K20  1  0.62755547  0.62755547  0.62755547  1
  K  K21  1  0.15873395  0.06082563  0.90209168  1
  K  K22  1  0.84126605  0.93917437  0.09790832  1
  K  K23  1  0.84126605  0.74335772  0.90209168  1
  K  K24  1  0.15873395  0.25664228  0.09790832  1
  K  K25  1  0.06082563  0.90209168  0.15873395  1
  K  K26  1  0.93917437  0.09790832  0.84126605  1
  K  K27  1  0.74335772  0.90209168  0.84126605  1
  K  K28  1  0.25664228  0.09790832  0.15873395  1
  K  K29  1  0.90209168  0.15873395  0.06082563  1
  K  K30  1  0.09790832  0.84126605  0.93917437  1
  K  K31  1  0.90209168  0.84126605  0.74335772  1
  K  K32  1  0.09790832  0.15873395  0.25664228  1
  K  K33  1  0.30804519  0.12282254  0.81477735  1
  K  K34  1  0.69195481  0.87717746  0.18522265  1
  K  K35  1  0.69195481  0.50673216  0.81477735  1
  K  K36  1  0.30804519  0.49326784  0.18522265  1
  K  K37  1  0.12282254  0.81477735  0.30804519  1
  K  K38  1  0.87717746  0.18522265  0.69195481  1
  K  K39  1  0.50673216  0.81477735  0.69195481  1
  K  K40  1  0.49326784  0.18522265  0.30804519  1
  K  K41  1  0.81477735  0.30804519  0.12282254  1
  K  K42  1  0.18522265  0.69195481  0.87717746  1
  K  K43  1  0.81477735  0.69195481  0.50673216  1
  K  K44  1  0.18522265  0.30804519  0.49326784  1
  K  K45  1  0.12755715  0.82528012  0.69772297  1
  K  K46  1  0.87244285  0.17471988  0.30227703  1
  K  K47  1  0.87244285  0.57016581  0.69772297  1
  K  K48  1  0.12755715  0.42983419  0.30227703  1
  K  K49  1  0.82528012  0.69772297  0.12755715  1
  K  K50  1  0.17471988  0.30227703  0.87244285  1
  K  K51  1  0.57016581  0.69772297  0.87244285  1
  K  K52  1  0.42983419  0.30227703  0.12755715  1
  K  K53  1  0.69772297  0.12755715  0.82528012  1
  K  K54  1  0.30227703  0.87244285  0.17471988  1
  K  K55  1  0.69772297  0.87244285  0.57016581  1
  K  K56  1  0.30227703  0.12755715  0.42983419  1
  K  K57  1  0.24729535  0.21158815  0.65460592  1
  K  K58  1  0.44301778  0.78841185  0.03570720  1
  K  K59  1  0.75270465  0.40731058  0.96429280  1
  K  K60  1  0.55698222  0.59268942  0.34539408  1
  K  K61  1  0.21158815  0.65460592  0.24729535  1
  K  K62  1  0.78841185  0.03570720  0.44301778  1
  K  K63  1  0.40731058  0.96429280  0.75270465  1
  K  K64  1  0.59268942  0.34539408  0.55698222  1
  K  K65  1  0.65460592  0.24729535  0.21158815  1
  K  K66  1  0.03570720  0.44301778  0.78841185  1
  K  K67  1  0.96429280  0.75270465  0.40731058  1
  K  K68  1  0.34539408  0.55698222  0.59268942  1
  K  K69  1  0.75270465  0.78841185  0.34539408  1
  K  K70  1  0.55698222  0.21158815  0.96429280  1
  K  K71  1  0.24729535  0.59268942  0.03570720  1
  K  K72  1  0.44301778  0.40731058  0.65460592  1
  K  K73  1  0.78841185  0.34539408  0.75270465  1
  K  K74  1  0.21158815  0.96429280  0.55698222  1
  K  K75  1  0.59268942  0.03570720  0.24729535  1
  K  K76  1  0.40731058  0.65460592  0.44301778  1
  K  K77  1  0.34539408  0.75270465  0.78841185  1
  K  K78  1  0.96429280  0.55698222  0.21158815  1
  K  K79  1  0.03570720  0.24729535  0.59268942  1
  K  K80  1  0.65460592  0.44301778  0.40731058  1
