# generated using pymatgen
data_Mn(BO2)2
_symmetry_space_group_name_H-M   'P 1'
_cell_length_a   7.54833000
_cell_length_b   7.17947800
_cell_length_c   8.88755351
_cell_angle_alpha   85.92865357
_cell_angle_beta   90.00000000
_cell_angle_gamma   90.00000000
_symmetry_Int_Tables_number   1
_chemical_formula_structural   Mn(BO2)2
_chemical_formula_sum   'Mn8 B16 O32'
_cell_volume   480.42833234
_cell_formula_units_Z   8
loop_
 _symmetry_equiv_pos_site_id
 _symmetry_equiv_pos_as_xyz
  1  'x, y, z'
loop_
 _atom_site_type_symbol
 _atom_site_label
 _atom_site_symmetry_multiplicity
 _atom_site_fract_x
 _atom_site_fract_y
 _atom_site_fract_z
 _atom_site_occupancy
  Mn  Mn0  1  0.71294700  0.00344800  0.62581700  1
  Mn  Mn1  1  0.21294700  0.99655200  0.87418300  1
  Mn  Mn2  1  0.28705300  0.99655200  0.37418300  1
  Mn  Mn3  1  0.78705300  0.00344800  0.12581700  1
  Mn  Mn4  1  0.75556600  0.53164100  0.64430200  1
  Mn  Mn5  1  0.25556600  0.46835900  0.85569800  1
  Mn  Mn6  1  0.24443400  0.46835900  0.35569800  1
  Mn  Mn7  1  0.74443400  0.53164100  0.14430200  1
  B  B8  1  0.60082800  0.30169900  0.37987200  1
  B  B9  1  0.10082800  0.69830100  0.12012800  1
  B  B10  1  0.39917200  0.69830100  0.62012800  1
  B  B11  1  0.89917200  0.30169900  0.87987200  1
  B  B12  1  0.40238400  0.31182600  0.61572900  1
  B  B13  1  0.90238400  0.68817400  0.88427100  1
  B  B14  1  0.59761600  0.68817400  0.38427100  1
  B  B15  1  0.09761600  0.31182600  0.11572900  1
  B  B16  1  0.93631500  0.79392400  0.36864300  1
  B  B17  1  0.43631500  0.20607600  0.13135700  1
  B  B18  1  0.06368500  0.20607600  0.63135700  1
  B  B19  1  0.56368500  0.79392400  0.86864300  1
  B  B20  1  0.93254100  0.18222200  0.36211300  1
  B  B21  1  0.43254100  0.81777800  0.13788700  1
  B  B22  1  0.06745900  0.81777800  0.63788700  1
  B  B23  1  0.56745900  0.18222200  0.86211300  1
  O  O24  1  0.74826800  0.77796700  0.80719800  1
  O  O25  1  0.24826800  0.22203300  0.69280200  1
  O  O26  1  0.25173200  0.22203300  0.19280200  1
  O  O27  1  0.75173200  0.77796700  0.30719800  1
  O  O28  1  0.55796500  0.76989100  0.53134700  1
  O  O29  1  0.05796500  0.23010900  0.96865300  1
  O  O30  1  0.44203500  0.23010900  0.46865300  1
  O  O31  1  0.94203500  0.76989100  0.03134700  1
  O  O32  1  0.65702700  0.48890200  0.42156800  1
  O  O33  1  0.15702700  0.51109800  0.07843200  1
  O  O34  1  0.34297300  0.51109800  0.57843200  1
  O  O35  1  0.84297300  0.48890200  0.92156800  1
  O  O36  1  0.50390100  0.98968500  0.82793700  1
  O  O37  1  0.00390100  0.01031500  0.67206300  1
  O  O38  1  0.49609900  0.01031500  0.17206300  1
  O  O39  1  0.99609900  0.98968500  0.32793700  1
  O  O40  1  0.74831700  0.16774500  0.41724100  1
  O  O41  1  0.24831700  0.83225500  0.08275900  1
  O  O42  1  0.25168300  0.83225500  0.58275900  1
  O  O43  1  0.75168300  0.16774500  0.91724100  1
  O  O44  1  0.94333000  0.32408900  0.71671300  1
  O  O45  1  0.44333000  0.67591100  0.78328700  1
  O  O46  1  0.05667000  0.67591100  0.28328700  1
  O  O47  1  0.55667000  0.32408900  0.21671300  1
  O  O48  1  0.56169000  0.29680700  0.71406900  1
  O  O49  1  0.06169000  0.70319300  0.78593100  1
  O  O50  1  0.43831000  0.70319300  0.28593100  1
  O  O51  1  0.93831000  0.29680700  0.21406900  1
  O  O52  1  0.94160900  0.73996500  0.53079400  1
  O  O53  1  0.44160900  0.26003500  0.96920600  1
  O  O54  1  0.05839100  0.26003500  0.46920600  1
  O  O55  1  0.55839100  0.73996500  0.03079400  1
