# generated using pymatgen
data_V8ZnO24
_symmetry_space_group_name_H-M   'P 1'
_cell_length_a   8.01376800
_cell_length_b   10.70737185
_cell_length_c   12.03614299
_cell_angle_alpha   89.29485140
_cell_angle_beta   89.41433354
_cell_angle_gamma   89.79602255
_symmetry_Int_Tables_number   1
_chemical_formula_structural   V8ZnO24
_chemical_formula_sum   'V16 Zn2 O48'
_cell_volume   1032.63977080
_cell_formula_units_Z   2
loop_
 _symmetry_equiv_pos_site_id
 _symmetry_equiv_pos_as_xyz
  1  'x, y, z'
loop_
 _atom_site_type_symbol
 _atom_site_label
 _atom_site_symmetry_multiplicity
 _atom_site_fract_x
 _atom_site_fract_y
 _atom_site_fract_z
 _atom_site_occupancy
  V  V0  1  0.27353700  0.29940200  0.14156800  1
  V  V1  1  0.72646300  0.70059800  0.85843200  1
  V  V2  1  0.65959500  0.31307700  0.14778300  1
  V  V3  1  0.34040500  0.68692300  0.85221700  1
  V  V4  1  0.96009600  0.08560100  0.14095200  1
  V  V5  1  0.03990400  0.91439900  0.85904800  1
  V  V6  1  0.97035200  0.52564800  0.15971900  1
  V  V7  1  0.02964800  0.47435200  0.84028100  1
  V  V8  1  0.22219900  0.79938200  0.14096600  1
  V  V9  1  0.77780100  0.20061800  0.85903400  1
  V  V10  1  0.83569200  0.81335700  0.14709000  1
  V  V11  1  0.16430800  0.18664300  0.85291000  1
  V  V12  1  0.53694900  0.58560100  0.14253800  1
  V  V13  1  0.46305100  0.41439900  0.85746200  1
  V  V14  1  0.52442000  0.02537700  0.16033300  1
  V  V15  1  0.47558000  0.97462300  0.83966700  1
  Zn  Zn16  1  0.50000000  0.00000000  0.50000000  1
  Zn  Zn17  1  0.00000000  0.50000000  0.50000000  1
  O  O18  1  0.47937000  0.18902500  0.12243600  1
  O  O19  1  0.52063000  0.81097500  0.87756400  1
  O  O20  1  0.46017900  0.41777200  0.11325600  1
  O  O21  1  0.53982100  0.58222800  0.88674400  1
  O  O22  1  0.81508900  0.21144700  0.08794600  1
  O  O23  1  0.18491100  0.78855300  0.91205400  1
  O  O24  1  0.75774500  0.47608200  0.12367500  1
  O  O25  1  0.24225500  0.52391800  0.87632500  1
  O  O26  1  0.14704300  0.16679400  0.09346400  1
  O  O27  1  0.85295700  0.83320600  0.90653600  1
  O  O28  1  0.11885200  0.42352200  0.10014800  1
  O  O29  1  0.88114800  0.57647800  0.89985200  1
  O  O30  1  0.01688600  0.68893500  0.12204700  1
  O  O31  1  0.98311400  0.31106500  0.87795300  1
  O  O32  1  0.03621900  0.91761400  0.11087500  1
  O  O33  1  0.96378100  0.08238600  0.88912500  1
  O  O34  1  0.68292800  0.71115900  0.08849200  1
  O  O35  1  0.31707200  0.28884100  0.91150800  1
  O  O36  1  0.73809000  0.97625100  0.12304700  1
  O  O37  1  0.26191000  0.02374900  0.87695300  1
  O  O38  1  0.35158800  0.66668200  0.09350800  1
  O  O39  1  0.64841200  0.33331800  0.90649200  1
  O  O40  1  0.37827900  0.92365900  0.10107400  1
  O  O41  1  0.62172100  0.07634100  0.89892600  1
  O  O42  1  0.25277000  0.29591500  0.27357300  1
  O  O43  1  0.74723000  0.70408500  0.72642700  1
  O  O44  1  0.67719100  0.29723900  0.27928300  1
  O  O45  1  0.32280900  0.70276100  0.72071700  1
  O  O46  1  0.96059900  0.09875000  0.27282100  1
  O  O47  1  0.03940100  0.90125000  0.72717900  1
  O  O48  1  0.98514900  0.51233200  0.29291400  1
  O  O49  1  0.01485100  0.48766800  0.70708600  1
  O  O50  1  0.23686300  0.79574800  0.27287100  1
  O  O51  1  0.76313700  0.20425200  0.72712900  1
  O  O52  1  0.81475300  0.79853900  0.27888000  1
  O  O53  1  0.18524700  0.20146100  0.72112000  1
  O  O54  1  0.53242200  0.60006400  0.27414700  1
  O  O55  1  0.46757800  0.39993600  0.72585300  1
  O  O56  1  0.50683000  0.01261100  0.29367600  1
  O  O57  1  0.49317000  0.98738900  0.70632400  1
  O  O58  1  0.27699200  0.93872700  0.49324600  1
  O  O59  1  0.72300800  0.06127300  0.50675400  1
  O  O60  1  0.51073300  0.17766800  0.50757200  1
  O  O61  1  0.48926700  0.82233200  0.49242800  1
  O  O62  1  0.77173100  0.45089600  0.50886500  1
  O  O63  1  0.22826900  0.54910400  0.49113500  1
  O  O64  1  0.02870000  0.67641600  0.50400200  1
  O  O65  1  0.97130000  0.32358400  0.49599800  1
