# generated using pymatgen
data_Rb2U(SeO6)2
_symmetry_space_group_name_H-M   'P 1'
_cell_length_a   7.71988900
_cell_length_b   11.87136000
_cell_length_c   13.97653600
_cell_angle_alpha   90.00000000
_cell_angle_beta   90.00000000
_cell_angle_gamma   90.00000000
_symmetry_Int_Tables_number   1
_chemical_formula_structural   Rb2U(SeO6)2
_chemical_formula_sum   'Rb8 U4 Se8 O48'
_cell_volume   1280.88776878
_cell_formula_units_Z   4
loop_
 _symmetry_equiv_pos_site_id
 _symmetry_equiv_pos_as_xyz
  1  'x, y, z'
loop_
 _atom_site_type_symbol
 _atom_site_label
 _atom_site_symmetry_multiplicity
 _atom_site_fract_x
 _atom_site_fract_y
 _atom_site_fract_z
 _atom_site_occupancy
  Rb  Rb0  1  0.25972600  0.38056700  0.97379400  1
  Rb  Rb1  1  0.75972600  0.61943300  0.02620600  1
  Rb  Rb2  1  0.75972600  0.88056700  0.52620600  1
  Rb  Rb3  1  0.25972600  0.11943300  0.47379400  1
  Rb  Rb4  1  0.79425000  0.35242600  0.55333000  1
  Rb  Rb5  1  0.29425000  0.64757400  0.44667000  1
  Rb  Rb6  1  0.29425000  0.85242600  0.94667000  1
  Rb  Rb7  1  0.79425000  0.14757400  0.05333000  1
  U  U8  1  0.09869000  0.59712300  0.74967400  1
  U  U9  1  0.59869000  0.40287700  0.25032600  1
  U  U10  1  0.59869000  0.09712300  0.75032600  1
  U  U11  1  0.09869000  0.90287700  0.24967400  1
  Se  Se12  1  0.76269200  0.38717500  0.83255200  1
  Se  Se13  1  0.26269200  0.61282500  0.16744800  1
  Se  Se14  1  0.26269200  0.88717500  0.66744800  1
  Se  Se15  1  0.76269200  0.11282500  0.33255200  1
  Se  Se16  1  0.26912100  0.30919500  0.68867200  1
  Se  Se17  1  0.76912100  0.69080500  0.31132800  1
  Se  Se18  1  0.76912100  0.80919500  0.81132800  1
  Se  Se19  1  0.26912100  0.19080500  0.18867200  1
  O  O20  1  0.09509900  0.60754000  0.87977900  1
  O  O21  1  0.59509900  0.39246000  0.12022100  1
  O  O22  1  0.59509900  0.10754000  0.62022100  1
  O  O23  1  0.09509900  0.89246000  0.37977900  1
  O  O24  1  0.10377900  0.58367100  0.61960200  1
  O  O25  1  0.60377900  0.41632900  0.38039800  1
  O  O26  1  0.60377900  0.08367100  0.88039800  1
  O  O27  1  0.10377900  0.91632900  0.11960100  1
  O  O28  1  0.09417900  0.25193200  0.63948100  1
  O  O29  1  0.59417900  0.74806800  0.36051900  1
  O  O30  1  0.59417900  0.75193200  0.86051900  1
  O  O31  1  0.09417900  0.24806800  0.13948100  1
  O  O32  1  0.58156100  0.44248800  0.87517100  1
  O  O33  1  0.08156100  0.55751200  0.12482900  1
  O  O34  1  0.08156100  0.94248800  0.62482900  1
  O  O35  1  0.58156100  0.05751200  0.37517100  1
  O  O36  1  0.72100300  0.27538500  0.75905900  1
  O  O37  1  0.22100300  0.72461500  0.24094100  1
  O  O38  1  0.22100300  0.77538500  0.74094100  1
  O  O39  1  0.72100300  0.22461500  0.25905900  1
  O  O40  1  0.85621500  0.47822300  0.75478800  1
  O  O41  1  0.35621500  0.52177700  0.24521200  1
  O  O42  1  0.35621500  0.97822300  0.74521200  1
  O  O43  1  0.85621500  0.02177700  0.25478800  1
  O  O44  1  0.21395200  0.41768600  0.76281100  1
  O  O45  1  0.71395200  0.58231400  0.23718900  1
  O  O46  1  0.71395200  0.91768600  0.73718900  1
  O  O47  1  0.21395200  0.08231400  0.26281100  1
  O  O48  1  0.42166500  0.59628300  0.75741000  1
  O  O49  1  0.92166500  0.40371700  0.24259000  1
  O  O50  1  0.92166500  0.09628300  0.74259000  1
  O  O51  1  0.42166500  0.90371700  0.25741000  1
  O  O52  1  0.35950600  0.21827300  0.76784100  1
  O  O53  1  0.85950600  0.78172700  0.23215900  1
  O  O54  1  0.85950600  0.71827300  0.73215900  1
  O  O55  1  0.35950600  0.28172700  0.26784100  1
  O  O56  1  0.89477200  0.34862600  0.91946400  1
  O  O57  1  0.39477200  0.65137400  0.08053600  1
  O  O58  1  0.39477200  0.84862600  0.58053600  1
  O  O59  1  0.89477200  0.15137400  0.41946400  1
  O  O60  1  0.40566600  0.35103500  0.60494800  1
  O  O61  1  0.90566600  0.64896500  0.39505200  1
  O  O62  1  0.90566600  0.85103500  0.89505200  1
  O  O63  1  0.40566600  0.14896500  0.10494800  1
  O  O64  1  0.64228600  0.58918000  0.56422300  1
  O  O65  1  0.14228600  0.41082000  0.43577700  1
  O  O66  1  0.14228600  0.08918000  0.93577700  1
  O  O67  1  0.64228600  0.91082000  0.06422300  1
