# generated using pymatgen
data_Ag2C4I3N
_symmetry_space_group_name_H-M   'P 1'
_cell_length_a   7.45925400
_cell_length_b   9.24827600
_cell_length_c   17.11885000
_cell_angle_alpha   90.00000000
_cell_angle_beta   90.00000000
_cell_angle_gamma   90.00000000
_symmetry_Int_Tables_number   1
_chemical_formula_structural   Ag2C4I3N
_chemical_formula_sum   'Ag8 C16 I12 N4'
_cell_volume   1180.94797143
_cell_formula_units_Z   4
loop_
 _symmetry_equiv_pos_site_id
 _symmetry_equiv_pos_as_xyz
  1  'x, y, z'
loop_
 _atom_site_type_symbol
 _atom_site_label
 _atom_site_symmetry_multiplicity
 _atom_site_fract_x
 _atom_site_fract_y
 _atom_site_fract_z
 _atom_site_occupancy
  Ag  Ag0  1  0.54480400  0.53122200  0.41797600  1
  Ag  Ag1  1  0.95519600  0.96877800  0.91797600  1
  Ag  Ag2  1  0.04480400  0.46877800  0.58202400  1
  Ag  Ag3  1  0.45519600  0.03122200  0.08202400  1
  Ag  Ag4  1  0.45519600  0.46877800  0.58202400  1
  Ag  Ag5  1  0.04480400  0.03122200  0.08202400  1
  Ag  Ag6  1  0.95519600  0.53122200  0.41797600  1
  Ag  Ag7  1  0.54480400  0.96877800  0.91797600  1
  C  C8  1  0.25000000  0.90130200  0.54311500  1
  C  C9  1  0.25000000  0.59869800  0.04311500  1
  C  C10  1  0.75000000  0.09869800  0.45688500  1
  C  C11  1  0.75000000  0.40130200  0.95688500  1
  C  C12  1  0.25000000  0.03212500  0.72373000  1
  C  C13  1  0.25000000  0.46787500  0.22373000  1
  C  C14  1  0.75000000  0.96787500  0.27627000  1
  C  C15  1  0.75000000  0.53212500  0.77627000  1
  C  C16  1  0.37838600  0.89083600  0.60237200  1
  C  C17  1  0.12161400  0.60916400  0.10237200  1
  C  C18  1  0.87838600  0.10916400  0.39762800  1
  C  C19  1  0.62161400  0.39083600  0.89762800  1
  C  C20  1  0.62161400  0.10916400  0.39762800  1
  C  C21  1  0.87838600  0.39083600  0.89762800  1
  C  C22  1  0.12161400  0.89083600  0.60237200  1
  C  C23  1  0.37838600  0.60916400  0.10237200  1
  I  I24  1  0.75000000  0.54222600  0.28450900  1
  I  I25  1  0.75000000  0.95777400  0.78450900  1
  I  I26  1  0.25000000  0.45777400  0.71549100  1
  I  I27  1  0.25000000  0.04222600  0.21549100  1
  I  I28  1  0.75000000  0.64985700  0.55346300  1
  I  I29  1  0.75000000  0.85014300  0.05346300  1
  I  I30  1  0.25000000  0.35014300  0.44653700  1
  I  I31  1  0.25000000  0.14985700  0.94653700  1
  I  I32  1  0.25000000  0.86019100  0.42550100  1
  I  I33  1  0.25000000  0.63980900  0.92550100  1
  I  I34  1  0.75000000  0.13980900  0.57449900  1
  I  I35  1  0.75000000  0.36019100  0.07449900  1
  N  N36  1  0.25000000  0.95195900  0.66682600  1
  N  N37  1  0.25000000  0.54804100  0.16682600  1
  N  N38  1  0.75000000  0.04804100  0.33317400  1
  N  N39  1  0.75000000  0.45195900  0.83317400  1
