# generated using pymatgen
data_FeBP(HO3)2
_symmetry_space_group_name_H-M   'P 1'
_cell_length_a   7.59239703
_cell_length_b   7.59239703
_cell_length_c   12.75456500
_cell_angle_alpha   90.00000000
_cell_angle_beta   90.00000000
_cell_angle_gamma   120.00000897
_symmetry_Int_Tables_number   1
_chemical_formula_structural   FeBP(HO3)2
_chemical_formula_sum   'Fe6 B6 P6 H12 O36'
_cell_volume   636.72817107
_cell_formula_units_Z   6
loop_
 _symmetry_equiv_pos_site_id
 _symmetry_equiv_pos_as_xyz
  1  'x, y, z'
loop_
 _atom_site_type_symbol
 _atom_site_label
 _atom_site_symmetry_multiplicity
 _atom_site_fract_x
 _atom_site_fract_y
 _atom_site_fract_z
 _atom_site_occupancy
  Fe  Fe0  1  0.86857800  0.00000000  0.66666700  1
  Fe  Fe1  1  0.00000000  0.86857800  0.33333300  1
  Fe  Fe2  1  0.13142200  0.13142200  0.00000000  1
  Fe  Fe3  1  0.24084200  0.24084200  0.50000000  1
  Fe  Fe4  1  0.75915800  0.00000000  0.16666700  1
  Fe  Fe5  1  0.00000000  0.75915800  0.83333300  1
  B  B6  1  0.30991000  0.56213200  0.87203300  1
  B  B7  1  0.43786800  0.74777900  0.53869900  1
  B  B8  1  0.25222100  0.69009000  0.20536600  1
  B  B9  1  0.56213200  0.30991000  0.12796700  1
  B  B10  1  0.74777900  0.43786800  0.46130100  1
  B  B11  1  0.69009000  0.25222100  0.79463400  1
  P  P12  1  0.32244800  0.24937200  0.75986300  1
  P  P13  1  0.75062800  0.07307600  0.42652900  1
  P  P14  1  0.92692400  0.67755200  0.09319600  1
  P  P15  1  0.24937200  0.32244800  0.24013700  1
  P  P16  1  0.07307600  0.75062800  0.57347100  1
  P  P17  1  0.67755200  0.92692400  0.90680400  1
  H  H18  1  0.57315200  0.30819200  0.58716700  1
  H  H19  1  0.69180800  0.26495900  0.25383400  1
  H  H20  1  0.73504100  0.42684800  0.92050000  1
  H  H21  1  0.30819200  0.57315200  0.41283300  1
  H  H22  1  0.26495900  0.69180800  0.74616600  1
  H  H23  1  0.42684800  0.73504100  0.07950000  1
  H  H24  1  0.55023500  0.63708500  0.65154900  1
  H  H25  1  0.36291500  0.91315100  0.31821600  1
  H  H26  1  0.08684900  0.44976500  0.98488300  1
  H  H27  1  0.63708500  0.55023500  0.34845100  1
  H  H28  1  0.91315100  0.36291500  0.68178400  1
  H  H29  1  0.44976500  0.08684900  0.01511700  1
  O  O30  1  0.55904000  0.34754600  0.51551300  1
  O  O31  1  0.65245400  0.21149400  0.18217900  1
  O  O32  1  0.78850600  0.44096000  0.84884600  1
  O  O33  1  0.34754600  0.55904000  0.48448700  1
  O  O34  1  0.21149400  0.65245400  0.81782100  1
  O  O35  1  0.44096000  0.78850600  0.15115400  1
  O  O36  1  0.58881000  0.76167500  0.61249900  1
  O  O37  1  0.23832500  0.82713600  0.27916500  1
  O  O38  1  0.17286400  0.41119000  0.94583200  1
  O  O39  1  0.76167500  0.58881000  0.38750100  1
  O  O40  1  0.82713600  0.23832500  0.72083500  1
  O  O41  1  0.41119000  0.17286400  0.05416800  1
  O  O42  1  0.19805900  0.22084300  0.66002400  1
  O  O43  1  0.77915700  0.97721600  0.32669100  1
  O  O44  1  0.02278400  0.80194100  0.99335700  1
  O  O45  1  0.22084300  0.19805900  0.33997600  1
  O  O46  1  0.97721600  0.77915700  0.67330900  1
  O  O47  1  0.80194100  0.02278400  0.00664200  1
  O  O48  1  0.40039000  0.46878900  0.80420900  1
  O  O49  1  0.53121100  0.93160100  0.47087500  1
  O  O50  1  0.06839900  0.59961000  0.13754200  1
  O  O51  1  0.46878900  0.40039000  0.19579100  1
  O  O52  1  0.93160100  0.53121100  0.52912500  1
  O  O53  1  0.59961000  0.06839900  0.86245800  1
  O  O54  1  0.51673900  0.24278000  0.72396500  1
  O  O55  1  0.75722000  0.27395900  0.39063100  1
  O  O56  1  0.72604100  0.48326100  0.05729800  1
  O  O57  1  0.24278000  0.51673900  0.27603500  1
  O  O58  1  0.27395900  0.75722000  0.60936900  1
  O  O59  1  0.48326100  0.72604100  0.94270200  1
  O  O60  1  0.20451800  0.08637700  0.84327500  1
  O  O61  1  0.91362300  0.11814100  0.50994200  1
  O  O62  1  0.88185900  0.79548200  0.17660800  1
  O  O63  1  0.08637700  0.20451800  0.15672500  1
  O  O64  1  0.11814100  0.91362300  0.49005800  1
  O  O65  1  0.79548200  0.88185900  0.82339200  1
