# generated using pymatgen
data_SrV6O11
_symmetry_space_group_name_H-M   'P 1'
_cell_length_a   5.93679100
_cell_length_b   5.93679100
_cell_length_c   13.18432400
_cell_angle_alpha   90.00000000
_cell_angle_beta   90.00000000
_cell_angle_gamma   119.47525895
_symmetry_Int_Tables_number   1
_chemical_formula_structural   SrV6O11
_chemical_formula_sum   'Sr2 V12 O22'
_cell_volume   404.54255357
_cell_formula_units_Z   2
loop_
 _symmetry_equiv_pos_site_id
 _symmetry_equiv_pos_as_xyz
  1  'x, y, z'
loop_
 _atom_site_type_symbol
 _atom_site_label
 _atom_site_symmetry_multiplicity
 _atom_site_fract_x
 _atom_site_fract_y
 _atom_site_fract_z
 _atom_site_occupancy
  Sr  Sr0  1  0.66781000  0.33219000  0.25227500  1
  Sr  Sr1  1  0.33219000  0.66781000  0.75227500  1
  V  V2  1  0.49944500  0.99730000  0.50000800  1
  V  V3  1  0.00270000  0.50055500  0.50000800  1
  V  V4  1  0.49946600  0.50053400  0.50029100  1
  V  V5  1  0.50055500  0.00270000  0.00000800  1
  V  V6  1  0.99730000  0.49944500  0.00000800  1
  V  V7  1  0.50053400  0.49946600  0.00029100  1
  V  V8  1  0.00008300  0.99991700  0.14419700  1
  V  V9  1  0.99991700  0.00008300  0.64419700  1
  V  V10  1  0.00079400  0.99920600  0.35697100  1
  V  V11  1  0.99920600  0.00079400  0.85697100  1
  V  V12  1  0.66619700  0.33380300  0.74805100  1
  V  V13  1  0.33380300  0.66619700  0.24805100  1
  O  O14  1  0.82548400  0.17451600  0.08178700  1
  O  O15  1  0.82297800  0.64844300  0.08277600  1
  O  O16  1  0.35155700  0.17702200  0.08277600  1
  O  O17  1  0.17451600  0.82548400  0.58178700  1
  O  O18  1  0.17702200  0.35155700  0.58277600  1
  O  O19  1  0.64844300  0.82297800  0.58277600  1
  O  O20  1  0.82564600  0.17435400  0.41876200  1
  O  O21  1  0.82240900  0.64846200  0.41785500  1
  O  O22  1  0.35153800  0.17759100  0.41785500  1
  O  O23  1  0.17435400  0.82564600  0.91876200  1
  O  O24  1  0.17759100  0.35153800  0.91785500  1
  O  O25  1  0.64846200  0.82240900  0.91785500  1
  O  O26  1  0.68248400  0.84459500  0.25019200  1
  O  O27  1  0.14960600  0.85039400  0.24986600  1
  O  O28  1  0.15540500  0.31751600  0.25019200  1
  O  O29  1  0.31751600  0.15540500  0.75019200  1
  O  O30  1  0.85039400  0.14960600  0.74986600  1
  O  O31  1  0.84459500  0.68248400  0.75019200  1
  O  O32  1  0.66943400  0.33056600  0.59092700  1
  O  O33  1  0.33056600  0.66943400  0.09092700  1
  O  O34  1  0.32957100  0.67042900  0.40901800  1
  O  O35  1  0.67042900  0.32957100  0.90901800  1
