# generated using pymatgen
data_NaGa11O18
_symmetry_space_group_name_H-M   'P 1'
_cell_length_a   9.08101700
_cell_length_b   8.71310900
_cell_length_c   9.54703869
_cell_angle_alpha   64.11991665
_cell_angle_beta   90.00000000
_cell_angle_gamma   90.00000000
_symmetry_Int_Tables_number   1
_chemical_formula_structural   NaGa11O18
_chemical_formula_sum   'Na2 Ga22 O36'
_cell_volume   679.63956701
_cell_formula_units_Z   2
loop_
 _symmetry_equiv_pos_site_id
 _symmetry_equiv_pos_as_xyz
  1  'x, y, z'
loop_
 _atom_site_type_symbol
 _atom_site_label
 _atom_site_symmetry_multiplicity
 _atom_site_fract_x
 _atom_site_fract_y
 _atom_site_fract_z
 _atom_site_occupancy
  Na  Na0  1  0.25000000  0.98099800  0.05925400  1
  Na  Na1  1  0.75000000  0.01900200  0.94074600  1
  Ga  Ga2  1  0.92343800  0.32225300  0.04839200  1
  Ga  Ga3  1  0.42343800  0.67774700  0.95160800  1
  Ga  Ga4  1  0.07656200  0.67774700  0.95160800  1
  Ga  Ga5  1  0.57656200  0.32225300  0.04839200  1
  Ga  Ga6  1  0.25000000  0.32989700  0.04436700  1
  Ga  Ga7  1  0.75000000  0.67010300  0.95563300  1
  Ga  Ga8  1  0.41443200  0.98673900  0.35930600  1
  Ga  Ga9  1  0.91443200  0.01326100  0.64069400  1
  Ga  Ga10  1  0.58556800  0.01326100  0.64069400  1
  Ga  Ga11  1  0.08556800  0.98673900  0.35930600  1
  Ga  Ga12  1  0.75000000  0.99731800  0.36295200  1
  Ga  Ga13  1  0.25000000  0.00268200  0.63704800  1
  Ga  Ga14  1  0.92198300  0.71090000  0.25745600  1
  Ga  Ga15  1  0.42198300  0.28910000  0.74254400  1
  Ga  Ga16  1  0.07801700  0.28910000  0.74254400  1
  Ga  Ga17  1  0.57801700  0.71090000  0.25745600  1
  Ga  Ga18  1  0.42406300  0.36945800  0.34663100  1
  Ga  Ga19  1  0.92406300  0.63054200  0.65336900  1
  Ga  Ga20  1  0.57593700  0.63054200  0.65336900  1
  Ga  Ga21  1  0.07593700  0.36945800  0.34663100  1
  Ga  Ga22  1  0.75000000  0.35010700  0.53952500  1
  Ga  Ga23  1  0.25000000  0.64989300  0.46047500  1
  O  O24  1  0.41525400  0.13568600  0.47744400  1
  O  O25  1  0.91525400  0.86431400  0.52255600  1
  O  O26  1  0.58474600  0.86431400  0.52255600  1
  O  O27  1  0.08474600  0.13568600  0.47744400  1
  O  O28  1  0.25000000  0.86109700  0.50945300  1
  O  O29  1  0.75000000  0.13890300  0.49054700  1
  O  O30  1  0.91709100  0.10705600  0.23347300  1
  O  O31  1  0.41709100  0.89294400  0.76652700  1
  O  O32  1  0.08290900  0.89294400  0.76652700  1
  O  O33  1  0.58290900  0.10705600  0.23347300  1
  O  O34  1  0.25000000  0.11337900  0.22589200  1
  O  O35  1  0.75000000  0.88662100  0.77410800  1
  O  O36  1  0.42082800  0.42037000  0.13307300  1
  O  O37  1  0.92082800  0.57963000  0.86692700  1
  O  O38  1  0.57917200  0.57963000  0.86692700  1
  O  O39  1  0.07917200  0.42037000  0.13307300  1
  O  O40  1  0.75000000  0.42316000  0.11255600  1
  O  O41  1  0.25000000  0.57684000  0.88744400  1
  O  O42  1  0.40669500  0.79250300  0.30554200  1
  O  O43  1  0.90669500  0.20749700  0.69445800  1
  O  O44  1  0.59330500  0.20749700  0.69445800  1
  O  O45  1  0.09330500  0.79250300  0.30554200  1
  O  O46  1  0.25000000  0.47272700  0.37609800  1
  O  O47  1  0.75000000  0.52727300  0.62390200  1
  O  O48  1  0.91563300  0.74557200  0.04990700  1
  O  O49  1  0.41563300  0.25442800  0.95009300  1
  O  O50  1  0.08436700  0.25442800  0.95009300  1
  O  O51  1  0.58436700  0.74557200  0.04990700  1
  O  O52  1  0.90824500  0.47261300  0.37991800  1
  O  O53  1  0.40824500  0.52738700  0.62008200  1
  O  O54  1  0.09175500  0.52738700  0.62008200  1
  O  O55  1  0.59175500  0.47261300  0.37991800  1
  O  O56  1  0.75000000  0.81516200  0.28192200  1
  O  O57  1  0.25000000  0.18483800  0.71807800  1
  O  O58  1  0.25000000  0.72950700  0.04301900  1
  O  O59  1  0.75000000  0.27049300  0.95698100  1
