# generated using pymatgen
data_NaAgI2O3
_symmetry_space_group_name_H-M   'P 1'
_cell_length_a   8.02051400
_cell_length_b   8.85471900
_cell_length_c   21.32143600
_cell_angle_alpha   90.00000000
_cell_angle_beta   90.00000000
_cell_angle_gamma   90.00000000
_symmetry_Int_Tables_number   1
_chemical_formula_structural   NaAgI2O3
_chemical_formula_sum   'Na8 Ag8 I16 O24'
_cell_volume   1514.23554294
_cell_formula_units_Z   8
loop_
 _symmetry_equiv_pos_site_id
 _symmetry_equiv_pos_as_xyz
  1  'x, y, z'
loop_
 _atom_site_type_symbol
 _atom_site_label
 _atom_site_symmetry_multiplicity
 _atom_site_fract_x
 _atom_site_fract_y
 _atom_site_fract_z
 _atom_site_occupancy
  Na  Na0  1  0.32546400  0.10654200  0.38619600  1
  Na  Na1  1  0.67453600  0.60654200  0.11380400  1
  Na  Na2  1  0.17453600  0.89345800  0.88619600  1
  Na  Na3  1  0.82546400  0.39345800  0.61380400  1
  Na  Na4  1  0.67453600  0.89345800  0.61380400  1
  Na  Na5  1  0.32546400  0.39345800  0.88619600  1
  Na  Na6  1  0.82546400  0.10654200  0.11380400  1
  Na  Na7  1  0.17453600  0.60654200  0.38619600  1
  Ag  Ag8  1  0.39513400  0.92139700  0.23449800  1
  Ag  Ag9  1  0.60486600  0.42139700  0.26550200  1
  Ag  Ag10  1  0.10486600  0.07860300  0.73449800  1
  Ag  Ag11  1  0.89513400  0.57860300  0.76550200  1
  Ag  Ag12  1  0.60486600  0.07860300  0.76550200  1
  Ag  Ag13  1  0.39513400  0.57860300  0.73449800  1
  Ag  Ag14  1  0.89513400  0.92139700  0.26550200  1
  Ag  Ag15  1  0.10486600  0.42139700  0.23449800  1
  I  I16  1  0.12672700  0.11674700  0.21112100  1
  I  I17  1  0.87327300  0.61674700  0.28887900  1
  I  I18  1  0.37327300  0.88325300  0.71112100  1
  I  I19  1  0.62672700  0.38325300  0.78887900  1
  I  I20  1  0.87327300  0.88325300  0.78887900  1
  I  I21  1  0.12672700  0.38325300  0.71112100  1
  I  I22  1  0.62672700  0.11674700  0.28887900  1
  I  I23  1  0.37327300  0.61674700  0.21112100  1
  I  I24  1  0.41563100  0.21960100  0.01218800  1
  I  I25  1  0.58436900  0.71960100  0.48781200  1
  I  I26  1  0.08436900  0.78039900  0.51218800  1
  I  I27  1  0.91563100  0.28039900  0.98781200  1
  I  I28  1  0.58436900  0.78039900  0.98781200  1
  I  I29  1  0.41563100  0.28039900  0.51218800  1
  I  I30  1  0.91563100  0.21960100  0.48781200  1
  I  I31  1  0.08436900  0.71960100  0.01218800  1
  O  O32  1  0.18855000  0.36330100  0.43822500  1
  O  O33  1  0.81145000  0.86330100  0.06177500  1
  O  O34  1  0.31145000  0.63669900  0.93822500  1
  O  O35  1  0.68855000  0.13669900  0.56177500  1
  O  O36  1  0.81145000  0.63669900  0.56177500  1
  O  O37  1  0.18855000  0.13669900  0.93822500  1
  O  O38  1  0.68855000  0.36330100  0.06177500  1
  O  O39  1  0.31145000  0.86330100  0.43822500  1
  O  O40  1  0.53665400  0.24154900  0.43818000  1
  O  O41  1  0.46334600  0.74154900  0.06182000  1
  O  O42  1  0.96334600  0.75845100  0.93818000  1
  O  O43  1  0.03665400  0.25845100  0.56182000  1
  O  O44  1  0.46334600  0.75845100  0.56182000  1
  O  O45  1  0.53665400  0.25845100  0.93818000  1
  O  O46  1  0.03665400  0.24154900  0.06182000  1
  O  O47  1  0.96334600  0.74154900  0.43818000  1
  O  O48  1  0.24859100  0.35550100  0.37824900  1
  O  O49  1  0.75140900  0.85550100  0.12175100  1
  O  O50  1  0.25140900  0.64449900  0.87824900  1
  O  O51  1  0.74859100  0.14449900  0.62175100  1
  O  O52  1  0.75140900  0.64449900  0.62175100  1
  O  O53  1  0.24859100  0.14449900  0.87824900  1
  O  O54  1  0.74859100  0.35550100  0.12175100  1
  O  O55  1  0.25140900  0.85550100  0.37824900  1
