# generated using pymatgen
data_K4Fe4(PO4)5
_symmetry_space_group_name_H-M   'P 1'
_cell_length_a   9.96906800
_cell_length_b   9.96906800
_cell_length_c   9.63810800
_cell_angle_alpha   90.00000000
_cell_angle_beta   90.00000000
_cell_angle_gamma   90.00000000
_symmetry_Int_Tables_number   1
_chemical_formula_structural   K4Fe4(PO4)5
_chemical_formula_sum   'K8 Fe8 P10 O40'
_cell_volume   957.85750250
_cell_formula_units_Z   2
loop_
 _symmetry_equiv_pos_site_id
 _symmetry_equiv_pos_as_xyz
  1  'x, y, z'
loop_
 _atom_site_type_symbol
 _atom_site_label
 _atom_site_symmetry_multiplicity
 _atom_site_fract_x
 _atom_site_fract_y
 _atom_site_fract_z
 _atom_site_occupancy
  K  K0  1  0.42849700  0.83209400  0.53146100  1
  K  K1  1  0.92849700  0.66790600  0.96853900  1
  K  K2  1  0.57150300  0.16790600  0.53146100  1
  K  K3  1  0.07150300  0.33209400  0.96853900  1
  K  K4  1  0.16790600  0.42849700  0.46853900  1
  K  K5  1  0.33209400  0.92849700  0.03146100  1
  K  K6  1  0.83209400  0.57150300  0.46853900  1
  K  K7  1  0.66790600  0.07150300  0.03146100  1
  Fe  Fe8  1  0.18626000  0.07572800  0.71096900  1
  Fe  Fe9  1  0.68626000  0.42427200  0.78903100  1
  Fe  Fe10  1  0.81374000  0.92427200  0.71096900  1
  Fe  Fe11  1  0.31374000  0.57572800  0.78903100  1
  Fe  Fe12  1  0.92427200  0.18626000  0.28903100  1
  Fe  Fe13  1  0.57572800  0.68626000  0.21096900  1
  Fe  Fe14  1  0.07572800  0.81374000  0.28903100  1
  Fe  Fe15  1  0.42427200  0.31374000  0.21096900  1
  P  P16  1  0.08692800  0.75707900  0.63625100  1
  P  P17  1  0.58692800  0.74292100  0.86374900  1
  P  P18  1  0.91307200  0.24292100  0.63625100  1
  P  P19  1  0.41307200  0.25707900  0.86374900  1
  P  P20  1  0.24292100  0.08692800  0.36374900  1
  P  P21  1  0.25707900  0.58692800  0.13625100  1
  P  P22  1  0.75707900  0.91307200  0.36374900  1
  P  P23  1  0.74292100  0.41307200  0.13625100  1
  P  P24  1  0.00000000  0.00000000  0.00000000  1
  P  P25  1  0.50000000  0.50000000  0.50000000  1
  O  O26  1  0.09832800  0.72803000  0.47998900  1
  O  O27  1  0.59832800  0.77197000  0.02001100  1
  O  O28  1  0.90167200  0.27197000  0.47998900  1
  O  O29  1  0.40167200  0.22803000  0.02001100  1
  O  O30  1  0.27197000  0.09832800  0.52001100  1
  O  O31  1  0.22803000  0.59832800  0.97998900  1
  O  O32  1  0.72803000  0.90167200  0.52001100  1
  O  O33  1  0.77197000  0.40167200  0.97998900  1
  O  O34  1  0.93733700  0.77378200  0.67839200  1
  O  O35  1  0.43733700  0.72621800  0.82160800  1
  O  O36  1  0.06266300  0.22621800  0.67839200  1
  O  O37  1  0.56266300  0.27378200  0.82160800  1
  O  O38  1  0.22621800  0.93733700  0.32160800  1
  O  O39  1  0.27378200  0.43733700  0.17839200  1
  O  O40  1  0.77378200  0.06266300  0.32160800  1
  O  O41  1  0.72621800  0.56266300  0.17839200  1
  O  O42  1  0.13970400  0.63139100  0.71500100  1
  O  O43  1  0.63970400  0.86860900  0.78499900  1
  O  O44  1  0.86029600  0.36860900  0.71500100  1
  O  O45  1  0.36029600  0.13139100  0.78499900  1
  O  O46  1  0.36860900  0.13970400  0.28499900  1
  O  O47  1  0.13139100  0.63970400  0.21500100  1
  O  O48  1  0.63139100  0.86029600  0.28499900  1
  O  O49  1  0.86860900  0.36029600  0.21500100  1
  O  O50  1  0.16929200  0.88272200  0.67744900  1
  O  O51  1  0.66929200  0.61727800  0.82255100  1
  O  O52  1  0.83070800  0.11727800  0.67744900  1
  O  O53  1  0.33070800  0.38272200  0.82255100  1
  O  O54  1  0.11727800  0.16929200  0.32255100  1
  O  O55  1  0.38272200  0.66929200  0.17744900  1
  O  O56  1  0.88272200  0.83070800  0.32255100  1
  O  O57  1  0.61727800  0.33070800  0.17744900  1
  O  O58  1  0.11447000  0.05881800  0.90908300  1
  O  O59  1  0.61447000  0.44118200  0.59091700  1
  O  O60  1  0.88553000  0.94118200  0.90908300  1
  O  O61  1  0.38553000  0.55881800  0.59091700  1
  O  O62  1  0.94118200  0.11447000  0.09091700  1
  O  O63  1  0.55881800  0.61447000  0.40908300  1
  O  O64  1  0.05881800  0.88553000  0.09091700  1
  O  O65  1  0.44118200  0.38553000  0.40908300  1
