# generated using pymatgen
data_Yb2B6Ru
_symmetry_space_group_name_H-M   'P 1'
_cell_length_a   3.70001200
_cell_length_b   9.03967300
_cell_length_c   11.33362900
_cell_angle_alpha   90.00000000
_cell_angle_beta   90.00000000
_cell_angle_gamma   90.00000000
_symmetry_Int_Tables_number   1
_chemical_formula_structural   Yb2B6Ru
_chemical_formula_sum   'Yb8 B24 Ru4'
_cell_volume   379.07473966
_cell_formula_units_Z   4
loop_
 _symmetry_equiv_pos_site_id
 _symmetry_equiv_pos_as_xyz
  1  'x, y, z'
loop_
 _atom_site_type_symbol
 _atom_site_label
 _atom_site_symmetry_multiplicity
 _atom_site_fract_x
 _atom_site_fract_y
 _atom_site_fract_z
 _atom_site_occupancy
  Yb  Yb0  1  0.00000000  0.32775900  0.41337100  1
  Yb  Yb1  1  0.00000000  0.67224100  0.58662900  1
  Yb  Yb2  1  0.00000000  0.82775900  0.08662900  1
  Yb  Yb3  1  0.00000000  0.17224100  0.91337100  1
  Yb  Yb4  1  0.00000000  0.94458800  0.36785000  1
  Yb  Yb5  1  0.00000000  0.05541200  0.63215000  1
  Yb  Yb6  1  0.00000000  0.44458800  0.13215000  1
  Yb  Yb7  1  0.00000000  0.55541200  0.86785000  1
  B  B8  1  0.50000000  0.55487600  0.43314200  1
  B  B9  1  0.50000000  0.44512400  0.56685800  1
  B  B10  1  0.50000000  0.05487600  0.06685800  1
  B  B11  1  0.50000000  0.94512400  0.93314200  1
  B  B12  1  0.50000000  0.75171200  0.41885000  1
  B  B13  1  0.50000000  0.24828800  0.58115000  1
  B  B14  1  0.50000000  0.25171200  0.08115000  1
  B  B15  1  0.50000000  0.74828800  0.91885000  1
  B  B16  1  0.50000000  0.79572500  0.26378800  1
  B  B17  1  0.50000000  0.20427500  0.73621200  1
  B  B18  1  0.50000000  0.29572500  0.23621200  1
  B  B19  1  0.50000000  0.70427500  0.76378800  1
  B  B20  1  0.50000000  0.63426000  0.18502900  1
  B  B21  1  0.50000000  0.36574000  0.81497100  1
  B  B22  1  0.50000000  0.13426000  0.31497100  1
  B  B23  1  0.50000000  0.86574000  0.68502900  1
  B  B24  1  0.50000000  0.98413800  0.21135500  1
  B  B25  1  0.50000000  0.01586200  0.78864500  1
  B  B26  1  0.50000000  0.48413800  0.28864500  1
  B  B27  1  0.50000000  0.51586200  0.71135500  1
  B  B28  1  0.50000000  0.59616800  0.02584800  1
  B  B29  1  0.50000000  0.40383200  0.97415200  1
  B  B30  1  0.50000000  0.09616800  0.47415200  1
  B  B31  1  0.50000000  0.90383200  0.52584800  1
  Ru  Ru32  1  0.00000000  0.64295700  0.31988000  1
  Ru  Ru33  1  0.00000000  0.35704300  0.68012000  1
  Ru  Ru34  1  0.00000000  0.14295700  0.18012000  1
  Ru  Ru35  1  0.00000000  0.85704300  0.81988000  1
