# generated using pymatgen
data_K3HS3O11
_symmetry_space_group_name_H-M   'P 1'
_cell_length_a   8.25072900
_cell_length_b   9.97100700
_cell_length_c   13.69794222
_cell_angle_alpha   83.28695668
_cell_angle_beta   90.00000000
_cell_angle_gamma   90.00000000
_symmetry_Int_Tables_number   1
_chemical_formula_structural   K3HS3O11
_chemical_formula_sum   'K12 H4 S12 O44'
_cell_volume   1119.17738230
_cell_formula_units_Z   4
loop_
 _symmetry_equiv_pos_site_id
 _symmetry_equiv_pos_as_xyz
  1  'x, y, z'
loop_
 _atom_site_type_symbol
 _atom_site_label
 _atom_site_symmetry_multiplicity
 _atom_site_fract_x
 _atom_site_fract_y
 _atom_site_fract_z
 _atom_site_occupancy
  K  K0  1  0.35993000  0.28979500  0.16889200  1
  K  K1  1  0.85993000  0.21020500  0.83110800  1
  K  K2  1  0.64007000  0.71020500  0.83110800  1
  K  K3  1  0.14007000  0.78979500  0.16889200  1
  K  K4  1  0.88434700  0.14739000  0.18629900  1
  K  K5  1  0.38434700  0.35261000  0.81370100  1
  K  K6  1  0.11565300  0.85261000  0.81370100  1
  K  K7  1  0.61565300  0.64739000  0.18629900  1
  K  K8  1  0.58009500  0.26609700  0.44028900  1
  K  K9  1  0.08009500  0.23390300  0.55971100  1
  K  K10  1  0.41990500  0.73390300  0.55971100  1
  K  K11  1  0.91990500  0.76609700  0.44028900  1
  H  H12  1  0.59234800  0.09362200  0.00239300  1
  H  H13  1  0.09234800  0.40637800  0.99760700  1
  H  H14  1  0.40765200  0.90637800  0.99760700  1
  H  H15  1  0.90765200  0.59362200  0.00239300  1
  S  S16  1  0.74854600  0.91513600  0.01157000  1
  S  S17  1  0.24854600  0.58486400  0.98843000  1
  S  S18  1  0.25145400  0.08486400  0.98843000  1
  S  S19  1  0.75145400  0.41513600  0.01157000  1
  S  S20  1  0.22840800  0.00908800  0.39587200  1
  S  S21  1  0.72840800  0.49091200  0.60412800  1
  S  S22  1  0.77159200  0.99091200  0.60412800  1
  S  S23  1  0.27159200  0.50908800  0.39587200  1
  S  S24  1  0.52961400  0.94475000  0.29139700  1
  S  S25  1  0.02961400  0.55525000  0.70860300  1
  S  S26  1  0.47038600  0.05525000  0.70860300  1
  S  S27  1  0.97038600  0.44475000  0.29139700  1
  O  O28  1  0.71253500  0.07344100  0.01101000  1
  O  O29  1  0.21253500  0.42655900  0.98899000  1
  O  O30  1  0.28746500  0.92655900  0.98899000  1
  O  O31  1  0.78746500  0.57344100  0.01101000  1
  O  O32  1  0.58930000  0.84779200  0.00694300  1
  O  O33  1  0.08930000  0.65220800  0.99305700  1
  O  O34  1  0.41070000  0.15220800  0.99305700  1
  O  O35  1  0.91070000  0.34779200  0.00694300  1
  O  O36  1  0.83230000  0.87643500  0.10489500  1
  O  O37  1  0.33230000  0.62356500  0.89510500  1
  O  O38  1  0.16770000  0.12356500  0.89510500  1
  O  O39  1  0.66770000  0.37643500  0.10489500  1
  O  O40  1  0.84671800  0.90317100  0.92444600  1
  O  O41  1  0.34671800  0.59682900  0.07555400  1
  O  O42  1  0.15328200  0.09682900  0.07555400  1
  O  O43  1  0.65328200  0.40317100  0.92444600  1
  O  O44  1  0.12653300  0.97092500  0.31622000  1
  O  O45  1  0.62653300  0.52907500  0.68378000  1
  O  O46  1  0.87346700  0.02907500  0.68378000  1
  O  O47  1  0.37346700  0.47092500  0.31622000  1
  O  O48  1  0.17911700  0.94936800  0.49356700  1
  O  O49  1  0.67911700  0.55063200  0.50643300  1
  O  O50  1  0.82088300  0.05063200  0.50643300  1
  O  O51  1  0.32088300  0.44936800  0.49356700  1
  O  O52  1  0.26766400  0.15267600  0.38767300  1
  O  O53  1  0.76766400  0.34732400  0.61232700  1
  O  O54  1  0.73233600  0.84732400  0.61232700  1
  O  O55  1  0.23233600  0.65267600  0.38767300  1
  O  O56  1  0.40685900  0.92995700  0.38930100  1
  O  O57  1  0.90685900  0.57004300  0.61069900  1
  O  O58  1  0.59314100  0.07004300  0.61069900  1
  O  O59  1  0.09314100  0.42995700  0.38930100  1
  O  O60  1  0.57388200  0.08800000  0.27499800  1
  O  O61  1  0.07388200  0.41200000  0.72500200  1
  O  O62  1  0.42611800  0.91200000  0.72500200  1
  O  O63  1  0.92611800  0.58800000  0.27499800  1
  O  O64  1  0.65903100  0.85440700  0.32946000  1
  O  O65  1  0.15903100  0.64559300  0.67054000  1
  O  O66  1  0.34096900  0.14559300  0.67054000  1
  O  O67  1  0.84096900  0.35440700  0.32946000  1
  O  O68  1  0.43750900  0.89746300  0.21155500  1
  O  O69  1  0.93750900  0.60253700  0.78844500  1
  O  O70  1  0.56249100  0.10253700  0.78844500  1
  O  O71  1  0.06249100  0.39746300  0.21155500  1
