# generated using pymatgen
data_Ca2Al4Si8O33
_symmetry_space_group_name_H-M   'P 1'
_cell_length_a   10.02385409
_cell_length_b   10.02385409
_cell_length_c   7.41800412
_cell_angle_alpha   73.66908160
_cell_angle_beta   73.66908160
_cell_angle_gamma   83.16269676
_symmetry_Int_Tables_number   1
_chemical_formula_structural   Ca2Al4Si8O33
_chemical_formula_sum   'Ca2 Al4 Si8 O33'
_cell_volume   685.76588910
_cell_formula_units_Z   1
loop_
 _symmetry_equiv_pos_site_id
 _symmetry_equiv_pos_as_xyz
  1  'x, y, z'
loop_
 _atom_site_type_symbol
 _atom_site_label
 _atom_site_symmetry_multiplicity
 _atom_site_fract_x
 _atom_site_fract_y
 _atom_site_fract_z
 _atom_site_occupancy
  Ca  Ca0  1  0.75801800  0.75801800  0.27305000  1
  Ca  Ca1  1  0.24198200  0.24198200  0.72695000  1
  Al  Al2  1  0.82269700  0.43742600  0.26970900  1
  Al  Al3  1  0.43742600  0.82269700  0.26970900  1
  Al  Al4  1  0.17730300  0.56257400  0.73029100  1
  Al  Al5  1  0.56257400  0.17730300  0.73029100  1
  Si  Si6  1  0.85554200  0.62276800  0.84200200  1
  Si  Si7  1  0.62276800  0.85554200  0.84200200  1
  Si  Si8  1  0.14445800  0.37723200  0.15799800  1
  Si  Si9  1  0.37723200  0.14445800  0.15799800  1
  Si  Si10  1  0.69362500  0.46020800  0.69069500  1
  Si  Si11  1  0.46020800  0.69362500  0.69069500  1
  Si  Si12  1  0.30637500  0.53979200  0.30930500  1
  Si  Si13  1  0.53979200  0.30637500  0.30930500  1
  O  O14  1  0.76152700  0.76152700  0.76613000  1
  O  O15  1  0.23847300  0.23847300  0.23387000  1
  O  O16  1  0.84007500  0.59473900  0.07587100  1
  O  O17  1  0.59473900  0.84007500  0.07587100  1
  O  O18  1  0.15992500  0.40526100  0.92412900  1
  O  O19  1  0.40526100  0.15992500  0.92412900  1
  O  O20  1  0.76175900  0.52601800  0.45654100  1
  O  O21  1  0.52601800  0.76175900  0.45654100  1
  O  O22  1  0.23824100  0.47398200  0.54345900  1
  O  O23  1  0.47398200  0.23824100  0.54345900  1
  O  O24  1  0.80094800  0.48668400  0.80694500  1
  O  O25  1  0.48668400  0.80094800  0.80694500  1
  O  O26  1  0.19905200  0.51331600  0.19305500  1
  O  O27  1  0.51331600  0.19905200  0.19305500  1
  O  O28  1  0.01604700  0.65006900  0.72062900  1
  O  O29  1  0.65006900  0.01604700  0.72062900  1
  O  O30  1  0.98395300  0.34993100  0.27937100  1
  O  O31  1  0.34993100  0.98395300  0.27937100  1
  O  O32  1  0.54584800  0.54584800  0.75511000  1
  O  O33  1  0.45415200  0.45415200  0.24489000  1
  O  O34  1  0.70276400  0.33005800  0.26397500  1
  O  O35  1  0.33005800  0.70276400  0.26397500  1
  O  O36  1  0.29723600  0.66994200  0.73602500  1
  O  O37  1  0.66994200  0.29723600  0.73602500  1
  O  O38  1  0.86265400  0.13734600  0.00000000  1
  O  O39  1  0.13734600  0.86265400  0.00000000  1
  O  O40  1  0.92612400  0.92612400  0.01462100  1
  O  O41  1  0.07387600  0.07387600  0.98537900  1
  O  O42  1  0.00000000  0.00000000  0.50000000  1
  O  O43  1  0.01220200  0.24852500  0.63347700  1
  O  O44  1  0.24852500  0.01220200  0.63347700  1
  O  O45  1  0.98779800  0.75147500  0.36652300  1
  O  O46  1  0.75147500  0.98779800  0.36652300  1
