# generated using pymatgen
data_Ba3Bi(BO2)9
_symmetry_space_group_name_H-M   'P 1'
_cell_length_a   7.30882514
_cell_length_b   7.30882514
_cell_length_c   17.62962300
_cell_angle_alpha   90.00000000
_cell_angle_beta   90.00000000
_cell_angle_gamma   119.99999226
_symmetry_Int_Tables_number   1
_chemical_formula_structural   Ba3Bi(BO2)9
_chemical_formula_sum   'Ba6 Bi2 B18 O36'
_cell_volume   815.58425832
_cell_formula_units_Z   2
loop_
 _symmetry_equiv_pos_site_id
 _symmetry_equiv_pos_as_xyz
  1  'x, y, z'
loop_
 _atom_site_type_symbol
 _atom_site_label
 _atom_site_symmetry_multiplicity
 _atom_site_fract_x
 _atom_site_fract_y
 _atom_site_fract_z
 _atom_site_occupancy
  Ba  Ba0  1  0.66666700  0.33333300  0.63366500  1
  Ba  Ba1  1  0.33333300  0.66666700  0.13366500  1
  Ba  Ba2  1  0.33333300  0.66666700  0.36633500  1
  Ba  Ba3  1  0.66666700  0.33333300  0.86633500  1
  Ba  Ba4  1  0.00000000  0.00000000  0.75000000  1
  Ba  Ba5  1  0.00000000  0.00000000  0.25000000  1
  Bi  Bi6  1  0.00000000  0.00000000  0.50000000  1
  Bi  Bi7  1  0.00000000  0.00000000  0.00000000  1
  B  B8  1  0.11844700  0.49527200  0.75000000  1
  B  B9  1  0.50472800  0.62317500  0.75000000  1
  B  B10  1  0.37682500  0.88155300  0.75000000  1
  B  B11  1  0.88155300  0.50472800  0.25000000  1
  B  B12  1  0.49527200  0.37682500  0.25000000  1
  B  B13  1  0.62317500  0.11844700  0.25000000  1
  B  B14  1  0.28660000  0.45172000  0.58633200  1
  B  B15  1  0.54828000  0.83488000  0.58633200  1
  B  B16  1  0.16512000  0.71340000  0.58633200  1
  B  B17  1  0.71340000  0.54828000  0.08633200  1
  B  B18  1  0.45172000  0.16512000  0.08633200  1
  B  B19  1  0.83488000  0.28660000  0.08633200  1
  B  B20  1  0.71340000  0.54828000  0.41366800  1
  B  B21  1  0.45172000  0.16512000  0.41366800  1
  B  B22  1  0.83488000  0.28660000  0.41366800  1
  B  B23  1  0.28660000  0.45172000  0.91366800  1
  B  B24  1  0.54828000  0.83488000  0.91366800  1
  B  B25  1  0.16512000  0.71340000  0.91366800  1
  O  O26  1  0.16724400  0.70802900  0.75000000  1
  O  O27  1  0.29197100  0.45921500  0.75000000  1
  O  O28  1  0.54078500  0.83275600  0.75000000  1
  O  O29  1  0.83275600  0.29197100  0.25000000  1
  O  O30  1  0.70802900  0.54078500  0.25000000  1
  O  O31  1  0.45921500  0.16724400  0.25000000  1
  O  O32  1  0.49721300  0.62195800  0.58616600  1
  O  O33  1  0.37804200  0.87525600  0.58616600  1
  O  O34  1  0.12474400  0.50278700  0.58616600  1
  O  O35  1  0.50278700  0.37804200  0.08616600  1
  O  O36  1  0.62195800  0.12474400  0.08616600  1
  O  O37  1  0.87525600  0.49721300  0.08616600  1
  O  O38  1  0.50278700  0.37804200  0.41383400  1
  O  O39  1  0.62195800  0.12474400  0.41383400  1
  O  O40  1  0.87525600  0.49721300  0.41383400  1
  O  O41  1  0.49721300  0.62195800  0.91383400  1
  O  O42  1  0.37804200  0.87525600  0.91383400  1
  O  O43  1  0.12474400  0.50278700  0.91383400  1
  O  O44  1  0.92135400  0.33285400  0.75000000  1
  O  O45  1  0.66714600  0.58850000  0.75000000  1
  O  O46  1  0.41150000  0.07864600  0.75000000  1
  O  O47  1  0.07864600  0.66714600  0.25000000  1
  O  O48  1  0.33285400  0.41150000  0.25000000  1
  O  O49  1  0.58850000  0.92135400  0.25000000  1
  O  O50  1  0.25183800  0.25399200  0.58554800  1
  O  O51  1  0.74600800  0.99784600  0.58554800  1
  O  O52  1  0.00215400  0.74816200  0.58554800  1
  O  O53  1  0.74816200  0.74600800  0.08554800  1
  O  O54  1  0.25399200  0.00215400  0.08554800  1
  O  O55  1  0.99784600  0.25183800  0.08554800  1
  O  O56  1  0.74816200  0.74600800  0.41445200  1
  O  O57  1  0.25399200  0.00215400  0.41445200  1
  O  O58  1  0.99784600  0.25183800  0.41445200  1
  O  O59  1  0.25183800  0.25399200  0.91445200  1
  O  O60  1  0.74600800  0.99784600  0.91445200  1
  O  O61  1  0.00215400  0.74816200  0.91445200  1
