# generated using pymatgen
data_Mg7(SiO3)8
_symmetry_space_group_name_H-M   'P 1'
_cell_length_a   5.34104400
_cell_length_b   18.28154800
_cell_length_c   18.83037000
_cell_angle_alpha   90.00000000
_cell_angle_beta   90.00000000
_cell_angle_gamma   90.00000000
_symmetry_Int_Tables_number   1
_chemical_formula_structural   Mg7(SiO3)8
_chemical_formula_sum   'Mg28 Si32 O96'
_cell_volume   1838.64538673
_cell_formula_units_Z   4
loop_
 _symmetry_equiv_pos_site_id
 _symmetry_equiv_pos_as_xyz
  1  'x, y, z'
loop_
 _atom_site_type_symbol
 _atom_site_label
 _atom_site_symmetry_multiplicity
 _atom_site_fract_x
 _atom_site_fract_y
 _atom_site_fract_z
 _atom_site_occupancy
  Mg  Mg0  1  0.60785700  0.65741500  0.12494100  1
  Mg  Mg1  1  0.89214300  0.84258500  0.62494100  1
  Mg  Mg2  1  0.39214300  0.15741500  0.87505900  1
  Mg  Mg3  1  0.10785700  0.34258500  0.37505900  1
  Mg  Mg4  1  0.39214300  0.34258500  0.87505900  1
  Mg  Mg5  1  0.10785700  0.15741500  0.37505900  1
  Mg  Mg6  1  0.60785700  0.84258500  0.12494100  1
  Mg  Mg7  1  0.89214300  0.65741500  0.62494100  1
  Mg  Mg8  1  0.10721100  0.57094300  0.12461000  1
  Mg  Mg9  1  0.39278900  0.92905700  0.62461000  1
  Mg  Mg10  1  0.89278900  0.07094300  0.87539000  1
  Mg  Mg11  1  0.60721100  0.42905700  0.37539000  1
  Mg  Mg12  1  0.89278900  0.42905700  0.87539000  1
  Mg  Mg13  1  0.60721100  0.07094300  0.37539000  1
  Mg  Mg14  1  0.10721100  0.92905700  0.12461000  1
  Mg  Mg15  1  0.39278900  0.57094300  0.62461000  1
  Mg  Mg16  1  0.10881500  0.75000000  0.12610500  1
  Mg  Mg17  1  0.39118500  0.75000000  0.62610500  1
  Mg  Mg18  1  0.89118500  0.25000000  0.87389500  1
  Mg  Mg19  1  0.60881500  0.25000000  0.37389500  1
  Mg  Mg20  1  0.60851100  0.49253700  0.12550000  1
  Mg  Mg21  1  0.89148900  0.00746300  0.62550000  1
  Mg  Mg22  1  0.39148900  0.99253700  0.87450000  1
  Mg  Mg23  1  0.10851100  0.50746300  0.37450000  1
  Mg  Mg24  1  0.39148900  0.50746300  0.87450000  1
  Mg  Mg25  1  0.10851100  0.99253700  0.37450000  1
  Mg  Mg26  1  0.60851100  0.00746300  0.12550000  1
  Mg  Mg27  1  0.89148900  0.49253700  0.62550000  1
  Si  Si28  1  0.42777300  0.33437900  0.23174000  1
  Si  Si29  1  0.07222700  0.16562100  0.73174000  1
  Si  Si30  1  0.57222700  0.83437900  0.76826000  1
  Si  Si31  1  0.92777300  0.66562100  0.26826000  1
  Si  Si32  1  0.57222700  0.66562100  0.76826000  1
  Si  Si33  1  0.92777300  0.83437900  0.26826000  1
  Si  Si34  1  0.42777300  0.16562100  0.23174000  1
  Si  Si35  1  0.07222700  0.33437900  0.73174000  1
  Si  Si36  1  0.72512700  0.33345000  0.01728100  1
  Si  Si37  1  0.77487300  0.16655000  0.51728100  1
  Si  Si38  1  0.27487300  0.83345000  0.98271900  1
  Si  Si39  1  0.22512700  0.66655000  0.48271900  1
  Si  Si40  1  0.27487300  0.66655000  0.98271900  1
  Si  Si41  1  0.22512700  0.83345000  0.48271900  1
  Si  Si42  1  0.72512700  0.16655000  0.01728100  1
  Si  Si43  1  0.77487300  0.33345000  0.51728100  1
  Si  Si44  1  0.93036200  0.42050600  0.22738500  1
  Si  Si45  1  0.56963800  0.07949400  0.72738500  1
  Si  Si46  1  0.06963800  0.92050600  0.77261500  1
  Si  Si47  1  0.43036200  0.57949400  0.27261500  1
  Si  Si48  1  0.06963800  0.57949400  0.77261500  1
  Si  Si49  1  0.43036200  0.92050600  0.27261500  1
  Si  Si50  1  0.93036200  0.07949400  0.22738500  1
  Si  Si51  1  0.56963800  0.42050600  0.72738500  1
  Si  Si52  1  0.22525700  0.41831500  0.02427000  1
  Si  Si53  1  0.27474300  0.08168500  0.52427000  1
  Si  Si54  1  0.77474300  0.91831500  0.97573000  1
  Si  Si55  1  0.72525700  0.58168500  0.47573000  1
  Si  Si56  1  0.77474300  0.58168500  0.97573000  1
  Si  Si57  1  0.72525700  0.91831500  0.47573000  1
  Si  Si58  1  0.22525700  0.08168500  0.02427000  1
  Si  Si59  1  0.27474300  0.41831500  0.52427000  1
  O  O60  1  0.05632800  0.33822900  0.81838600  1
  O  O61  1  0.44367200  0.16177100  0.31838600  1
  O  O62  1  0.94367200  0.83822900  0.18161400  1
  O  O63  1  0.55632800  0.66177100  0.68161400  1
  O  O64  1  0.94367200  0.66177100  0.18161400  1
  O  O65  1  0.55632800  0.83822900  0.68161400  1
  O  O66  1  0.05632800  0.16177100  0.81838600  1
  O  O67  1  0.44367200  0.33822900  0.31838600  1
  O  O68  1  0.26959500  0.66190000  0.06943000  1
  O  O69  1  0.23040500  0.83810000  0.56943000  1
  O  O70  1  0.73040500  0.16190000  0.93057000  1
  O  O71  1  0.76959500  0.33810000  0.43057000  1
  O  O72  1  0.73040500  0.33810000  0.93057000  1
  O  O73  1  0.76959500  0.16190000  0.43057000  1
  O  O74  1  0.26959500  0.83810000  0.06943000  1
  O  O75  1  0.23040500  0.66190000  0.56943000  1
  O  O76  1  0.43536300  0.57448000  0.18535000  1
  O  O77  1  0.06463700  0.92552000  0.68535000  1
  O  O78  1  0.56463700  0.07448000  0.81465000  1
  O  O79  1  0.93536300  0.42552000  0.31465000  1
  O  O80  1  0.56463700  0.42552000  0.81465000  1
  O  O81  1  0.93536300  0.07448000  0.31465000  1
  O  O82  1  0.43536300  0.92552000  0.18535000  1
  O  O83  1  0.06463700  0.57448000  0.68535000  1
  O  O84  1  0.77615500  0.57385700  0.06328600  1
  O  O85  1  0.72384500  0.92614300  0.56328600  1
  O  O86  1  0.22384500  0.07385700  0.93671400  1
  O  O87  1  0.27615500  0.42614300  0.43671400  1
  O  O88  1  0.22384500  0.42614300  0.93671400  1
  O  O89  1  0.27615500  0.07385700  0.43671400  1
  O  O90  1  0.77615500  0.92614300  0.06328600  1
  O  O91  1  0.72384500  0.57385700  0.56328600  1
  O  O92  1  0.46221200  0.75000000  0.17156900  1
  O  O93  1  0.03778800  0.75000000  0.67156900  1
  O  O94  1  0.53778800  0.25000000  0.82843100  1
  O  O95  1  0.96221200  0.25000000  0.32843100  1
  O  O96  1  0.24443900  0.25000000  0.92068500  1
  O  O97  1  0.25556100  0.25000000  0.42068500  1
  O  O98  1  0.75556100  0.75000000  0.07931500  1
  O  O99  1  0.74443900  0.75000000  0.57931500  1
  O  O100  1  0.92317000  0.49736900  0.18566000  1
  O  O101  1  0.57683000  0.00263100  0.68566000  1
  O  O102  1  0.07683000  0.99736900  0.81434000  1
  O  O103  1  0.42317000  0.50263100  0.31434000  1
  O  O104  1  0.07683000  0.50263100  0.81434000  1
  O  O105  1  0.42317000  0.99736900  0.31434000  1
  O  O106  1  0.92317000  0.00263100  0.18566000  1
  O  O107  1  0.57683000  0.49736900  0.68566000  1
  O  O108  1  0.29239000  0.49190300  0.06770000  1
  O  O109  1  0.20761000  0.00809700  0.56770000  1
  O  O110  1  0.70761000  0.99190300  0.93230000  1
  O  O111  1  0.79239000  0.50809700  0.43230000  1
  O  O112  1  0.70761000  0.50809700  0.93230000  1
  O  O113  1  0.79239000  0.99190300  0.43230000  1
  O  O114  1  0.29239000  0.00809700  0.06770000  1
  O  O115  1  0.20761000  0.49190300  0.56770000  1
  O  O116  1  0.65701700  0.38490800  0.19843800  1
  O  O117  1  0.84298300  0.11509200  0.69843800  1
  O  O118  1  0.34298300  0.88490800  0.80156200  1
  O  O119  1  0.15701700  0.61509200  0.30156200  1
  O  O120  1  0.34298300  0.61509200  0.80156200  1
  O  O121  1  0.15701700  0.88490800  0.30156200  1
  O  O122  1  0.65701700  0.11509200  0.19843800  1
  O  O123  1  0.84298300  0.38490800  0.69843800  1
  O  O124  1  0.94475600  0.38779700  0.04919800  1
  O  O125  1  0.55524400  0.11220300  0.54919800  1
  O  O126  1  0.05524400  0.88779700  0.95080200  1
  O  O127  1  0.44475600  0.61220300  0.45080200  1
  O  O128  1  0.05524400  0.61220300  0.95080200  1
  O  O129  1  0.44475600  0.88779700  0.45080200  1
  O  O130  1  0.94475600  0.11220300  0.04919800  1
  O  O131  1  0.55524400  0.38779700  0.54919800  1
  O  O132  1  0.16305400  0.13247900  0.20245400  1
  O  O133  1  0.33694600  0.36752100  0.70245400  1
  O  O134  1  0.83694600  0.63247900  0.79754600  1
  O  O135  1  0.66305400  0.86752100  0.29754600  1
  O  O136  1  0.83694600  0.86752100  0.79754600  1
  O  O137  1  0.66305400  0.63247900  0.29754600  1
  O  O138  1  0.16305400  0.36752100  0.20245400  1
  O  O139  1  0.33694600  0.13247900  0.70245400  1
  O  O140  1  0.45051800  0.35987300  0.04679700  1
  O  O141  1  0.04948200  0.14012700  0.54679700  1
  O  O142  1  0.54948200  0.85987300  0.95320300  1
  O  O143  1  0.95051800  0.64012700  0.45320300  1
  O  O144  1  0.54948200  0.64012700  0.95320300  1
  O  O145  1  0.95051800  0.85987300  0.45320300  1
  O  O146  1  0.45051800  0.14012700  0.04679700  1
  O  O147  1  0.04948200  0.35987300  0.54679700  1
  O  O148  1  0.45848000  0.25000000  0.20429300  1
  O  O149  1  0.04152000  0.25000000  0.70429300  1
  O  O150  1  0.54152000  0.75000000  0.79570700  1
  O  O151  1  0.95848000  0.75000000  0.29570700  1
  O  O152  1  0.77671100  0.25000000  0.04460500  1
  O  O153  1  0.72328900  0.25000000  0.54460500  1
  O  O154  1  0.22328900  0.75000000  0.95539500  1
  O  O155  1  0.27671100  0.75000000  0.45539500  1
