# generated using pymatgen
data_Pd(SN)4
_symmetry_space_group_name_H-M   'P 1'
_cell_length_a   13.43770300
_cell_length_b   8.47177700
_cell_length_c   9.12623004
_cell_angle_alpha   67.22453784
_cell_angle_beta   90.00000000
_cell_angle_gamma   90.00000000
_symmetry_Int_Tables_number   1
_chemical_formula_structural   Pd(SN)4
_chemical_formula_sum   'Pd4 S16 N16'
_cell_volume   957.93393503
_cell_formula_units_Z   4
loop_
 _symmetry_equiv_pos_site_id
 _symmetry_equiv_pos_as_xyz
  1  'x, y, z'
loop_
 _atom_site_type_symbol
 _atom_site_label
 _atom_site_symmetry_multiplicity
 _atom_site_fract_x
 _atom_site_fract_y
 _atom_site_fract_z
 _atom_site_occupancy
  Pd  Pd0  1  0.35662500  0.77431300  0.77664800  1
  Pd  Pd1  1  0.85662500  0.72568700  0.22335200  1
  Pd  Pd2  1  0.64337500  0.22568700  0.22335200  1
  Pd  Pd3  1  0.14337500  0.27431300  0.77664800  1
  S  S4  1  0.51604700  0.76980700  0.85352100  1
  S  S5  1  0.01604700  0.73019300  0.14647900  1
  S  S6  1  0.48395300  0.23019300  0.14647900  1
  S  S7  1  0.98395300  0.26980700  0.85352100  1
  S  S8  1  0.39911500  0.80452500  0.52931200  1
  S  S9  1  0.89911500  0.69547500  0.47068800  1
  S  S10  1  0.60088500  0.19547500  0.47068800  1
  S  S11  1  0.10088500  0.30452500  0.52931200  1
  S  S12  1  0.19534100  0.79837700  0.53407300  1
  S  S13  1  0.69534100  0.70162300  0.46592700  1
  S  S14  1  0.80465900  0.20162300  0.46592700  1
  S  S15  1  0.30465900  0.29837700  0.53407300  1
  S  S16  1  0.40438400  0.73401400  0.11554200  1
  S  S17  1  0.90438400  0.76598600  0.88445800  1
  S  S18  1  0.59561600  0.26598600  0.88445800  1
  S  S19  1  0.09561600  0.23401400  0.11554200  1
  N  N20  1  0.29599600  0.81259000  0.43176700  1
  N  N21  1  0.79599600  0.68741000  0.56823300  1
  N  N22  1  0.70400400  0.18741000  0.56823300  1
  N  N23  1  0.20400400  0.31259000  0.43176700  1
  N  N24  1  0.21419100  0.77943200  0.70644600  1
  N  N25  1  0.71419100  0.72056800  0.29355400  1
  N  N26  1  0.78580900  0.22056800  0.29355400  1
  N  N27  1  0.28580900  0.27943200  0.70644600  1
  N  N28  1  0.31939300  0.74497100  0.99875200  1
  N  N29  1  0.81939300  0.75502900  0.00124800  1
  N  N30  1  0.68060700  0.25502900  0.00124800  1
  N  N31  1  0.18060700  0.24497100  0.99875200  1
  N  N32  1  0.51458000  0.74678400  0.03856000  1
  N  N33  1  0.01458000  0.75321600  0.96144000  1
  N  N34  1  0.48542000  0.25321600  0.96144000  1
  N  N35  1  0.98542000  0.24678400  0.03856000  1
