# generated using pymatgen
data_Si4Te2H44Pd(C8Cl)2
_symmetry_space_group_name_H-M   'P 1'
_cell_length_a   13.06753167
_cell_length_b   13.06753167
_cell_length_c   20.87473705
_cell_angle_alpha   84.84978429
_cell_angle_beta   84.84978429
_cell_angle_gamma   30.29378180
_symmetry_Int_Tables_number   1
_chemical_formula_structural   Si4Te2H44Pd(C8Cl)2
_chemical_formula_sum   'Si8 Te4 H88 Pd2 C32 Cl4'
_cell_volume   1790.30168752
_cell_formula_units_Z   2
loop_
 _symmetry_equiv_pos_site_id
 _symmetry_equiv_pos_as_xyz
  1  'x, y, z'
loop_
 _atom_site_type_symbol
 _atom_site_label
 _atom_site_symmetry_multiplicity
 _atom_site_fract_x
 _atom_site_fract_y
 _atom_site_fract_z
 _atom_site_occupancy
  Si  Si0  1  0.39031800  0.93486400  0.35880200  1
  Si  Si1  1  0.06513600  0.60968200  0.14119800  1
  Si  Si2  1  0.60968200  0.06513600  0.64119800  1
  Si  Si3  1  0.93486400  0.39031800  0.85880200  1
  Si  Si4  1  0.39129400  0.76103400  0.61168500  1
  Si  Si5  1  0.23896600  0.60870600  0.88831500  1
  Si  Si6  1  0.60870600  0.23896600  0.38831500  1
  Si  Si7  1  0.76103400  0.39129400  0.11168500  1
  Te  Te8  1  0.69850800  0.62671400  0.49357300  1
  Te  Te9  1  0.37328600  0.30149200  0.00642700  1
  Te  Te10  1  0.30149200  0.37328600  0.50642700  1
  Te  Te11  1  0.62671400  0.69850800  0.99357300  1
  H  H12  1  0.31932800  0.02119600  0.47559600  1
  H  H13  1  0.97880400  0.68067200  0.02440400  1
  H  H14  1  0.68067200  0.97880400  0.52440400  1
  H  H15  1  0.02119600  0.31932800  0.97559600  1
  H  H16  1  0.49332800  0.96408500  0.43953000  1
  H  H17  1  0.03591500  0.50667200  0.06047000  1
  H  H18  1  0.50667200  0.03591500  0.56047000  1
  H  H19  1  0.96408500  0.49332800  0.93953000  1
  H  H20  1  0.68192700  0.63128300  0.62076100  1
  H  H21  1  0.36871700  0.31807300  0.87923900  1
  H  H22  1  0.31807300  0.36871700  0.37923900  1
  H  H23  1  0.63128300  0.68192700  0.12076100  1
  H  H24  1  0.46222200  0.88822100  0.59131300  1
  H  H25  1  0.11177900  0.53777800  0.90868700  1
  H  H26  1  0.53777800  0.11177900  0.40868700  1
  H  H27  1  0.88822100  0.46222200  0.09131300  1
  H  H28  1  0.58558700  0.70398400  0.26737800  1
  H  H29  1  0.29601600  0.41441300  0.23262200  1
  H  H30  1  0.41441300  0.29601600  0.73262200  1
  H  H31  1  0.70398400  0.58558700  0.76737800  1
  H  H32  1  0.66616400  0.57026200  0.34117500  1
  H  H33  1  0.42973800  0.33383600  0.15882500  1
  H  H34  1  0.33383600  0.42973800  0.65882500  1
  H  H35  1  0.57026200  0.66616400  0.84117500  1
  H  H36  1  0.74784700  0.62801600  0.31746300  1
  H  H37  1  0.37198400  0.25215300  0.18253700  1
  H  H38  1  0.25215300  0.37198400  0.68253700  1
  H  H39  1  0.62801600  0.74784700  0.81746300  1
  H  H40  1  0.42956800  0.07250300  0.29772100  1
  H  H41  1  0.92749700  0.57043200  0.20227900  1
  H  H42  1  0.57043200  0.92749700  0.70227900  1
  H  H43  1  0.07250300  0.42956800  0.79772100  1
  H  H44  1  0.18923700  0.27034100  0.33842900  1
  H  H45  1  0.72965900  0.81076300  0.16157100  1
  H  H46  1  0.81076300  0.72965900  0.66157100  1
  H  H47  1  0.27034100  0.18923700  0.83842900  1
  H  H48  1  0.23151400  0.17206500  0.26661800  1
  H  H49  1  0.82793500  0.76848600  0.23338200  1
  H  H50  1  0.76848600  0.82793500  0.73338200  1
  H  H51  1  0.17206500  0.23151400  0.76661800  1
  H  H52  1  0.14176000  0.03454800  0.31478900  1
  H  H53  1  0.96545200  0.85824000  0.18521100  1
  H  H54  1  0.85824000  0.96545200  0.68521100  1
  H  H55  1  0.03454800  0.14176000  0.81478900  1
  H  H56  1  0.04478500  0.16169800  0.38769800  1
  H  H57  1  0.83830200  0.95521500  0.11230200  1
  H  H58  1  0.95521500  0.83830200  0.61230200  1
  H  H59  1  0.16169800  0.04478500  0.88769800  1
  H  H60  1  0.22763300  0.90345300  0.38975400  1
  H  H61  1  0.09654700  0.77236700  0.11024600  1
  H  H62  1  0.77236700  0.09654700  0.61024600  1
  H  H63  1  0.90345300  0.22763300  0.88975400  1
  H  H64  1  0.64837900  0.43162500  0.67218000  1
  H  H65  1  0.56837500  0.35162100  0.82782000  1
  H  H66  1  0.35162100  0.56837500  0.32782000  1
  H  H67  1  0.43162500  0.64837900  0.17218000  1
  H  H68  1  0.66523300  0.39926600  0.58882000  1
  H  H69  1  0.60073400  0.33476700  0.91118000  1
  H  H70  1  0.33476700  0.60073400  0.41118000  1
  H  H71  1  0.39926600  0.66523300  0.08882000  1
  H  H72  1  0.46705700  0.51040300  0.63789600  1
  H  H73  1  0.48959700  0.53294300  0.86210400  1
  H  H74  1  0.53294300  0.48959700  0.36210400  1
  H  H75  1  0.51040300  0.46705700  0.13789600  1
  H  H76  1  0.10400700  0.92269400  0.56443700  1
  H  H77  1  0.07730600  0.89599300  0.93556300  1
  H  H78  1  0.89599300  0.07730600  0.43556300  1
  H  H79  1  0.92269400  0.10400700  0.06443700  1
  H  H80  1  0.28799600  0.80212200  0.50357400  1
  H  H81  1  0.19787800  0.71200400  0.99642600  1
  H  H82  1  0.71200400  0.19787800  0.49642600  1
  H  H83  1  0.80212200  0.28799600  0.00357400  1
  H  H84  1  0.11978800  0.03978500  0.53303800  1
  H  H85  1  0.96021500  0.88021200  0.96696200  1
  H  H86  1  0.88021200  0.96021500  0.46696200  1
  H  H87  1  0.03978500  0.11978800  0.03303800  1
  H  H88  1  0.14775100  0.92724000  0.70238500  1
  H  H89  1  0.07276000  0.85224900  0.79761500  1
  H  H90  1  0.85224900  0.07276000  0.29761500  1
  H  H91  1  0.92724000  0.14775100  0.20238500  1
  H  H92  1  0.13822800  0.06918400  0.67688900  1
  H  H93  1  0.93081600  0.86177200  0.82311100  1
  H  H94  1  0.86177200  0.93081600  0.32311100  1
  H  H95  1  0.06918400  0.13822800  0.17688900  1
  H  H96  1  0.33807700  0.84714500  0.72627300  1
  H  H97  1  0.15285500  0.66192300  0.77372700  1
  H  H98  1  0.66192300  0.15285500  0.27372700  1
  H  H99  1  0.84714500  0.33807700  0.22627300  1
  Pd  Pd100  1  0.00000000  0.50000000  0.50000000  1
  Pd  Pd101  1  0.50000000  0.00000000  0.00000000  1
  C  C102  1  0.45175100  0.91843700  0.44272000  1
  C  C103  1  0.08156300  0.54824900  0.05728000  1
  C  C104  1  0.54824900  0.08156300  0.55728000  1
  C  C105  1  0.91843700  0.45175100  0.94272000  1
  C  C106  1  0.55320700  0.73976500  0.58836800  1
  C  C107  1  0.26023500  0.44679300  0.91163200  1
  C  C108  1  0.44679300  0.26023500  0.41163200  1
  C  C109  1  0.73976500  0.55320700  0.08836800  1
  C  C110  1  0.61939600  0.68525700  0.31764600  1
  C  C111  1  0.31474300  0.38060400  0.18235400  1
  C  C112  1  0.38060400  0.31474300  0.68235400  1
  C  C113  1  0.68525700  0.61939600  0.81764600  1
  C  C114  1  0.30139300  0.13131600  0.31127300  1
  C  C115  1  0.86868400  0.69860700  0.18872700  1
  C  C116  1  0.69860700  0.86868400  0.68872700  1
  C  C117  1  0.13131600  0.30139300  0.81127300  1
  C  C118  1  0.18212500  0.01559900  0.36375300  1
  C  C119  1  0.98440100  0.81787500  0.13624700  1
  C  C120  1  0.81787500  0.98440100  0.63624700  1
  C  C121  1  0.01559900  0.18212500  0.86375300  1
  C  C122  1  0.55905500  0.50134200  0.62911400  1
  C  C123  1  0.49865800  0.44094500  0.87088600  1
  C  C124  1  0.44094500  0.49865800  0.37088600  1
  C  C125  1  0.50134200  0.55905500  0.12911400  1
  C  C126  1  0.20982000  0.89306200  0.54694800  1
  C  C127  1  0.10693800  0.79018000  0.95305200  1
  C  C128  1  0.79018000  0.10693800  0.45305200  1
  C  C129  1  0.89306200  0.20982000  0.04694800  1
  C  C130  1  0.24056900  0.91522000  0.68648400  1
  C  C131  1  0.08478000  0.75943100  0.81351600  1
  C  C132  1  0.75943100  0.08478000  0.31351600  1
  C  C133  1  0.91522000  0.24056900  0.18648400  1
  Cl  Cl134  1  0.90298200  0.67972100  0.40514600  1
  Cl  Cl135  1  0.32027900  0.09701800  0.09485400  1
  Cl  Cl136  1  0.09701800  0.32027900  0.59485400  1
  Cl  Cl137  1  0.67972100  0.90298200  0.90514600  1
