# generated using pymatgen
data_P2PbO8
_symmetry_space_group_name_H-M   'P 1'
_cell_length_a   7.86829060
_cell_length_b   8.05711769
_cell_length_c   11.84098500
_cell_angle_alpha   90.00000000
_cell_angle_beta   90.00000000
_cell_angle_gamma   111.23814935
_symmetry_Int_Tables_number   1
_chemical_formula_structural   P2PbO8
_chemical_formula_sum   'P8 Pb4 O32'
_cell_volume   699.68478465
_cell_formula_units_Z   4
loop_
 _symmetry_equiv_pos_site_id
 _symmetry_equiv_pos_as_xyz
  1  'x, y, z'
loop_
 _atom_site_type_symbol
 _atom_site_label
 _atom_site_symmetry_multiplicity
 _atom_site_fract_x
 _atom_site_fract_y
 _atom_site_fract_z
 _atom_site_occupancy
  P  P0  1  0.63231300  0.95744900  0.63784000  1
  P  P1  1  0.13231300  0.45744900  0.86216000  1
  P  P2  1  0.36768700  0.04255100  0.36216000  1
  P  P3  1  0.86768700  0.54255100  0.13784000  1
  P  P4  1  0.57724500  0.28592900  0.53991600  1
  P  P5  1  0.07724500  0.78592900  0.96008400  1
  P  P6  1  0.42275500  0.71407100  0.46008400  1
  P  P7  1  0.92275500  0.21407100  0.03991600  1
  Pb  Pb8  1  0.11968600  0.29627600  0.55682700  1
  Pb  Pb9  1  0.61968600  0.79627600  0.94317300  1
  Pb  Pb10  1  0.88031400  0.70372400  0.44317300  1
  Pb  Pb11  1  0.38031400  0.20372400  0.05682700  1
  O  O12  1  0.46324300  0.78807200  0.58819100  1
  O  O13  1  0.96324300  0.28807200  0.91180900  1
  O  O14  1  0.53675700  0.21192800  0.41180900  1
  O  O15  1  0.03675700  0.71192800  0.08819100  1
  O  O16  1  0.80038700  0.98724700  0.56814200  1
  O  O17  1  0.30038700  0.48724700  0.93185800  1
  O  O18  1  0.19961300  0.01275300  0.43185800  1
  O  O19  1  0.69961300  0.51275300  0.06814200  1
  O  O20  1  0.13293700  0.43243600  0.73654700  1
  O  O21  1  0.63293700  0.93243600  0.76345300  1
  O  O22  1  0.86706300  0.56756400  0.26345300  1
  O  O23  1  0.36706300  0.06756400  0.23654700  1
  O  O24  1  0.55387000  0.11544000  0.61704200  1
  O  O25  1  0.05387000  0.61544000  0.88295800  1
  O  O26  1  0.44613000  0.88456000  0.38295800  1
  O  O27  1  0.94613000  0.38456000  0.11704200  1
  O  O28  1  0.77413900  0.41355400  0.54002600  1
  O  O29  1  0.27413900  0.91355400  0.95997400  1
  O  O30  1  0.22586100  0.58644600  0.45997400  1
  O  O31  1  0.72586100  0.08644600  0.04002600  1
  O  O32  1  0.43358100  0.35296700  0.58168300  1
  O  O33  1  0.93358100  0.85296700  0.91831700  1
  O  O34  1  0.56641900  0.64703300  0.41831700  1
  O  O35  1  0.06641900  0.14703300  0.08168300  1
  O  O36  1  0.04593400  0.83393300  0.67197900  1
  O  O37  1  0.54593400  0.33393300  0.82802100  1
  O  O38  1  0.95406600  0.16606700  0.32802100  1
  O  O39  1  0.45406600  0.66606700  0.17197900  1
  O  O40  1  0.13793900  0.99124800  0.69083500  1
  O  O41  1  0.63793900  0.49124800  0.80916500  1
  O  O42  1  0.86206100  0.00875200  0.30916500  1
  O  O43  1  0.36206100  0.50875200  0.19083500  1
