# generated using pymatgen
data_Ga21Rh4
_symmetry_space_group_name_H-M   'P 1'
_cell_length_a   20.54906591
_cell_length_b   20.54906591
_cell_length_c   6.57121600
_cell_angle_alpha   90.00000000
_cell_angle_beta   90.00000000
_cell_angle_gamma   161.61307803
_symmetry_Int_Tables_number   1
_chemical_formula_structural   Ga21Rh4
_chemical_formula_sum   'Ga42 Rh8'
_cell_volume   875.25837142
_cell_formula_units_Z   2
loop_
 _symmetry_equiv_pos_site_id
 _symmetry_equiv_pos_as_xyz
  1  'x, y, z'
loop_
 _atom_site_type_symbol
 _atom_site_label
 _atom_site_symmetry_multiplicity
 _atom_site_fract_x
 _atom_site_fract_y
 _atom_site_fract_z
 _atom_site_occupancy
  Ga  Ga0  1  0.00000000  0.00000000  0.00000000  1
  Ga  Ga1  1  0.50000000  0.50000000  0.50000000  1
  Ga  Ga2  1  0.87926700  0.12073300  0.00000000  1
  Ga  Ga3  1  0.37926700  0.62073300  0.50000000  1
  Ga  Ga4  1  0.12073300  0.87926700  0.00000000  1
  Ga  Ga5  1  0.62073300  0.37926700  0.50000000  1
  Ga  Ga6  1  0.75674100  0.24325900  0.00000000  1
  Ga  Ga7  1  0.25674100  0.74325900  0.50000000  1
  Ga  Ga8  1  0.24325900  0.75674100  0.00000000  1
  Ga  Ga9  1  0.74325900  0.25674100  0.50000000  1
  Ga  Ga10  1  0.61420900  0.68243300  0.85195700  1
  Ga  Ga11  1  0.31756700  0.38579100  0.14804300  1
  Ga  Ga12  1  0.81756700  0.88579100  0.35195700  1
  Ga  Ga13  1  0.11420900  0.18243300  0.64804300  1
  Ga  Ga14  1  0.38579100  0.31756700  0.14804300  1
  Ga  Ga15  1  0.68243300  0.61420900  0.85195700  1
  Ga  Ga16  1  0.18243300  0.11420900  0.64804300  1
  Ga  Ga17  1  0.88579100  0.81756700  0.35195700  1
  Ga  Ga18  1  0.56279100  0.73450100  0.14843300  1
  Ga  Ga19  1  0.26549900  0.43720900  0.85156700  1
  Ga  Ga20  1  0.76549900  0.93720900  0.64843300  1
  Ga  Ga21  1  0.06279100  0.23450100  0.35156700  1
  Ga  Ga22  1  0.43720900  0.26549900  0.85156700  1
  Ga  Ga23  1  0.73450100  0.56279100  0.14843300  1
  Ga  Ga24  1  0.23450100  0.06279100  0.35156700  1
  Ga  Ga25  1  0.93720900  0.76549900  0.64843300  1
  Ga  Ga26  1  0.49281200  0.79842900  0.14472800  1
  Ga  Ga27  1  0.20157100  0.50718800  0.85527200  1
  Ga  Ga28  1  0.70157100  0.00718800  0.64472800  1
  Ga  Ga29  1  0.99281200  0.29842900  0.35527200  1
  Ga  Ga30  1  0.50718800  0.20157100  0.85527200  1
  Ga  Ga31  1  0.79843000  0.49281200  0.14472800  1
  Ga  Ga32  1  0.29843000  0.99281200  0.35527200  1
  Ga  Ga33  1  0.00718800  0.70157100  0.64472800  1
  Ga  Ga34  1  0.45713600  0.86506700  0.83930600  1
  Ga  Ga35  1  0.13493300  0.54286400  0.16069400  1
  Ga  Ga36  1  0.63493300  0.04286400  0.33930600  1
  Ga  Ga37  1  0.95713600  0.36506700  0.66069400  1
  Ga  Ga38  1  0.54286400  0.13493300  0.16069400  1
  Ga  Ga39  1  0.86506700  0.45713600  0.83930600  1
  Ga  Ga40  1  0.36506700  0.95713600  0.66069400  1
  Ga  Ga41  1  0.04286400  0.63493300  0.33930600  1
  Rh  Rh42  1  0.93959600  0.06040400  0.00000000  1
  Rh  Rh43  1  0.43959600  0.56040400  0.50000000  1
  Rh  Rh44  1  0.06040400  0.93959600  0.00000000  1
  Rh  Rh45  1  0.56040400  0.43959600  0.50000000  1
  Rh  Rh46  1  0.81814900  0.18185100  0.00000000  1
  Rh  Rh47  1  0.31814900  0.68185100  0.50000000  1
  Rh  Rh48  1  0.18185100  0.81814900  0.00000000  1
  Rh  Rh49  1  0.68185100  0.31814900  0.50000000  1
