# generated using pymatgen
data_Nd(BO2)9
_symmetry_space_group_name_H-M   'P 1'
_cell_length_a   7.88546299
_cell_length_b   9.95481025
_cell_length_c   16.40972000
_cell_angle_alpha   90.00000000
_cell_angle_beta   90.00000000
_cell_angle_gamma   90.03744856
_symmetry_Int_Tables_number   1
_chemical_formula_structural   Nd(BO2)9
_chemical_formula_sum   'Nd4 B36 O72'
_cell_volume   1288.13464746
_cell_formula_units_Z   4
loop_
 _symmetry_equiv_pos_site_id
 _symmetry_equiv_pos_as_xyz
  1  'x, y, z'
loop_
 _atom_site_type_symbol
 _atom_site_label
 _atom_site_symmetry_multiplicity
 _atom_site_fract_x
 _atom_site_fract_y
 _atom_site_fract_z
 _atom_site_occupancy
  Nd  Nd0  1  0.26726500  0.63836200  0.28908400  1
  Nd  Nd1  1  0.76726500  0.13836200  0.21091600  1
  Nd  Nd2  1  0.73273500  0.36163800  0.71091600  1
  Nd  Nd3  1  0.23273500  0.86163800  0.78908400  1
  B  B4  1  0.87677000  0.53066900  0.40154600  1
  B  B5  1  0.37677000  0.03066900  0.09845400  1
  B  B6  1  0.12323000  0.46933100  0.59845400  1
  B  B7  1  0.62323000  0.96933100  0.90154600  1
  B  B8  1  0.35657100  0.77663400  0.09459300  1
  B  B9  1  0.85657100  0.27663400  0.40540700  1
  B  B10  1  0.64342900  0.22336600  0.90540700  1
  B  B11  1  0.14342900  0.72336600  0.59459300  1
  B  B12  1  0.33360700  0.89695400  0.96506900  1
  B  B13  1  0.83360700  0.39695400  0.53493100  1
  B  B14  1  0.66639300  0.10304600  0.03493100  1
  B  B15  1  0.16639300  0.60304600  0.46506900  1
  B  B16  1  0.67136800  0.63681000  0.29209100  1
  B  B17  1  0.17136800  0.13681000  0.20790900  1
  B  B18  1  0.32863200  0.36319000  0.70790900  1
  B  B19  1  0.82863200  0.86319000  0.79209100  1
  B  B20  1  0.11028700  0.37553000  0.23458200  1
  B  B21  1  0.61028700  0.87553000  0.26541800  1
  B  B22  1  0.88971300  0.62447000  0.76541800  1
  B  B23  1  0.38971300  0.12447000  0.73458200  1
  B  B24  1  0.11233400  0.90763800  0.25419300  1
  B  B25  1  0.61233400  0.40763800  0.24580700  1
  B  B26  1  0.88766600  0.09236200  0.74580700  1
  B  B27  1  0.38766600  0.59236200  0.75419300  1
  B  B28  1  0.86494200  0.51526600  0.17844100  1
  B  B29  1  0.36494200  0.01526600  0.32155900  1
  B  B30  1  0.13505800  0.48473400  0.82155900  1
  B  B31  1  0.63505800  0.98473400  0.67844100  1
  B  B32  1  0.90364700  0.66588400  0.06213600  1
  B  B33  1  0.40364700  0.16588400  0.43786400  1
  B  B34  1  0.09635300  0.33411600  0.93786400  1
  B  B35  1  0.59635300  0.83411600  0.56213600  1
  B  B36  1  0.87067500  0.77630100  0.19487600  1
  B  B37  1  0.37067500  0.27630100  0.30512400  1
  B  B38  1  0.12932500  0.22369900  0.80512400  1
  B  B39  1  0.62932500  0.72369900  0.69487600  1
  O  O40  1  0.83038900  0.52294100  0.48885900  1
  O  O41  1  0.33038900  0.02294100  0.01114100  1
  O  O42  1  0.16961100  0.47705900  0.51114100  1
  O  O43  1  0.66961100  0.97705900  0.98885900  1
  O  O44  1  0.34164200  0.66122000  0.14160300  1
  O  O45  1  0.84164200  0.16122000  0.35839700  1
  O  O46  1  0.65835800  0.33878000  0.85839700  1
  O  O47  1  0.15835800  0.83878000  0.64160300  1
  O  O48  1  0.77158000  0.63257700  0.36442500  1
  O  O49  1  0.27158000  0.13257700  0.13557500  1
  O  O50  1  0.22842000  0.36742300  0.63557500  1
  O  O51  1  0.72842000  0.86742300  0.86442500  1
  O  O52  1  0.25148600  0.90157800  0.30480200  1
  O  O53  1  0.75148600  0.40157800  0.19519800  1
  O  O54  1  0.74851400  0.09842200  0.69519800  1
  O  O55  1  0.24851400  0.59842200  0.80480200  1
  O  O56  1  0.55546700  0.75271100  0.29157600  1
  O  O57  1  0.05546700  0.25271100  0.20842400  1
  O  O58  1  0.44453300  0.24728900  0.70842400  1
  O  O59  1  0.94453300  0.74728900  0.79157600  1
  O  O60  1  0.25747500  0.38763900  0.27975400  1
  O  O61  1  0.75747500  0.88763900  0.22024600  1
  O  O62  1  0.74252500  0.61236100  0.72024600  1
  O  O63  1  0.24252500  0.11236100  0.77975400  1
  O  O64  1  0.55586600  0.52308200  0.28158200  1
  O  O65  1  0.05586600  0.02308200  0.21841800  1
  O  O66  1  0.44413400  0.47691800  0.71841800  1
  O  O67  1  0.94413400  0.97691800  0.78158200  1
  O  O68  1  0.03238300  0.49537200  0.21780000  1
  O  O69  1  0.53238300  0.99537200  0.28220000  1
  O  O70  1  0.96761700  0.50462800  0.78220000  1
  O  O71  1  0.46761700  0.00462800  0.71780000  1
  O  O72  1  0.85572500  0.39624700  0.36332100  1
  O  O73  1  0.35572500  0.89624700  0.13667900  1
  O  O74  1  0.14427500  0.60375300  0.63667900  1
  O  O75  1  0.64427500  0.10375300  0.86332100  1
  O  O76  1  0.37549900  0.77463900  0.01077900  1
  O  O77  1  0.87549900  0.27463900  0.48922100  1
  O  O78  1  0.62450100  0.22536100  0.98922100  1
  O  O79  1  0.12450100  0.72536100  0.51077900  1
  O  O80  1  0.78835900  0.64370100  0.21764200  1
  O  O81  1  0.28835900  0.14370100  0.28235800  1
  O  O82  1  0.21164100  0.35629900  0.78235800  1
  O  O83  1  0.71164100  0.85629900  0.71764200  1
  O  O84  1  0.05476800  0.57795400  0.39412900  1
  O  O85  1  0.55476800  0.07795400  0.10587100  1
  O  O86  1  0.94523200  0.42204600  0.60587100  1
  O  O87  1  0.44523200  0.92204600  0.89412900  1
  O  O88  1  0.33528000  0.63314400  0.43344900  1
  O  O89  1  0.83528000  0.13314400  0.06655100  1
  O  O90  1  0.66472000  0.36685600  0.56655100  1
  O  O91  1  0.16472000  0.86685600  0.93344900  1
  O  O92  1  0.87907700  0.53879100  0.09241500  1
  O  O93  1  0.37907700  0.03879100  0.40758500  1
  O  O94  1  0.12092300  0.46120900  0.90758500  1
  O  O95  1  0.62092300  0.96120900  0.59241500  1
  O  O96  1  0.90516100  0.77906900  0.10885800  1
  O  O97  1  0.40516100  0.27906900  0.39114200  1
  O  O98  1  0.09483900  0.22093100  0.89114200  1
  O  O99  1  0.59483900  0.72093100  0.60885800  1
  O  O100  1  0.03060900  0.78714800  0.24331500  1
  O  O101  1  0.53060900  0.28714800  0.25668500  1
  O  O102  1  0.96939100  0.21285200  0.75668500  1
  O  O103  1  0.46939100  0.71285200  0.74331500  1
  O  O104  1  0.92843700  0.67522300  0.97806500  1
  O  O105  1  0.42843700  0.17522300  0.52193500  1
  O  O106  1  0.07156300  0.32477700  0.02193500  1
  O  O107  1  0.57156300  0.82477700  0.47806500  1
  O  O108  1  0.37500400  0.48887300  0.07706800  1
  O  O109  1  0.87500400  0.98887300  0.42293200  1
  O  O110  1  0.62499600  0.51112700  0.92293200  1
  O  O111  1  0.12499600  0.01112700  0.57706800  1
