# generated using pymatgen
data_HoMnSn2
_symmetry_space_group_name_H-M   'P 1'
_cell_length_a   9.00240600
_cell_length_b   10.41484900
_cell_length_c   11.40256200
_cell_angle_alpha   90.00000000
_cell_angle_beta   90.00000000
_cell_angle_gamma   90.00000000
_symmetry_Int_Tables_number   1
_chemical_formula_structural   HoMnSn2
_chemical_formula_sum   'Ho12 Mn12 Sn24'
_cell_volume   1069.08937983
_cell_formula_units_Z   12
loop_
 _symmetry_equiv_pos_site_id
 _symmetry_equiv_pos_as_xyz
  1  'x, y, z'
loop_
 _atom_site_type_symbol
 _atom_site_label
 _atom_site_symmetry_multiplicity
 _atom_site_fract_x
 _atom_site_fract_y
 _atom_site_fract_z
 _atom_site_occupancy
  Ho  Ho0  1  0.24224400  0.82859300  0.45232600  1
  Ho  Ho1  1  0.24224400  0.17140700  0.54767400  1
  Ho  Ho2  1  0.75775600  0.32859300  0.04767400  1
  Ho  Ho3  1  0.75775600  0.67140700  0.95232600  1
  Ho  Ho4  1  0.75775600  0.17140700  0.54767400  1
  Ho  Ho5  1  0.75775600  0.82859300  0.45232600  1
  Ho  Ho6  1  0.24224400  0.67140700  0.95232600  1
  Ho  Ho7  1  0.24224400  0.32859300  0.04767400  1
  Ho  Ho8  1  0.00000000  0.83606200  0.17924700  1
  Ho  Ho9  1  0.00000000  0.16393800  0.82075300  1
  Ho  Ho10  1  0.00000000  0.33606200  0.32075300  1
  Ho  Ho11  1  0.00000000  0.66393800  0.67924700  1
  Mn  Mn12  1  0.24833700  0.58864500  0.25226000  1
  Mn  Mn13  1  0.24833700  0.41135500  0.74774000  1
  Mn  Mn14  1  0.75166300  0.08864500  0.24774000  1
  Mn  Mn15  1  0.75166300  0.91135500  0.75226000  1
  Mn  Mn16  1  0.75166300  0.41135500  0.74774000  1
  Mn  Mn17  1  0.75166300  0.58864500  0.25226000  1
  Mn  Mn18  1  0.24833700  0.91135500  0.75226000  1
  Mn  Mn19  1  0.24833700  0.08864500  0.24774000  1
  Mn  Mn20  1  0.24326100  0.50000000  0.50000000  1
  Mn  Mn21  1  0.75673900  0.00000000  0.00000000  1
  Mn  Mn22  1  0.75673900  0.50000000  0.50000000  1
  Mn  Mn23  1  0.24326100  0.00000000  0.00000000  1
  Sn  Sn24  1  0.33800500  0.83808600  0.18102200  1
  Sn  Sn25  1  0.33800500  0.16191400  0.81897800  1
  Sn  Sn26  1  0.66199500  0.33808600  0.31897800  1
  Sn  Sn27  1  0.66199500  0.66191400  0.68102200  1
  Sn  Sn28  1  0.66199500  0.16191400  0.81897800  1
  Sn  Sn29  1  0.66199500  0.83808600  0.18102200  1
  Sn  Sn30  1  0.33800500  0.66191400  0.68102200  1
  Sn  Sn31  1  0.33800500  0.33808600  0.31897800  1
  Sn  Sn32  1  0.50000000  0.54324500  0.12379500  1
  Sn  Sn33  1  0.50000000  0.45675500  0.87620500  1
  Sn  Sn34  1  0.50000000  0.04324500  0.37620500  1
  Sn  Sn35  1  0.50000000  0.95675500  0.62379500  1
  Sn  Sn36  1  0.00000000  0.54166900  0.12226700  1
  Sn  Sn37  1  0.00000000  0.45833100  0.87773300  1
  Sn  Sn38  1  0.00000000  0.04166900  0.37773300  1
  Sn  Sn39  1  0.00000000  0.95833100  0.62226700  1
  Sn  Sn40  1  0.50000000  0.62600700  0.40527500  1
  Sn  Sn41  1  0.50000000  0.37399300  0.59472500  1
  Sn  Sn42  1  0.50000000  0.12600700  0.09472500  1
  Sn  Sn43  1  0.50000000  0.87399300  0.90527500  1
  Sn  Sn44  1  0.00000000  0.62899700  0.39795600  1
  Sn  Sn45  1  0.00000000  0.37100300  0.60204400  1
  Sn  Sn46  1  0.00000000  0.12899700  0.10204400  1
  Sn  Sn47  1  0.00000000  0.87100300  0.89795600  1
