# generated using pymatgen
data_Nd2H22C10(N2O7)3
_symmetry_space_group_name_H-M   'P 1'
_cell_length_a   9.18786904
_cell_length_b   9.18786904
_cell_length_c   15.74197702
_cell_angle_alpha   77.25201795
_cell_angle_beta   77.25201795
_cell_angle_gamma   78.60497203
_symmetry_Int_Tables_number   1
_chemical_formula_structural   Nd2H22C10(N2O7)3
_chemical_formula_sum   'Nd4 H44 C20 N12 O42'
_cell_volume   1248.60554256
_cell_formula_units_Z   2
loop_
 _symmetry_equiv_pos_site_id
 _symmetry_equiv_pos_as_xyz
  1  'x, y, z'
loop_
 _atom_site_type_symbol
 _atom_site_label
 _atom_site_symmetry_multiplicity
 _atom_site_fract_x
 _atom_site_fract_y
 _atom_site_fract_z
 _atom_site_occupancy
  Nd  Nd0  1  0.03152300  0.32049900  0.83911000  1
  Nd  Nd1  1  0.67950100  0.96847700  0.66089000  1
  Nd  Nd2  1  0.96847700  0.67950100  0.16089000  1
  Nd  Nd3  1  0.32049900  0.03152300  0.33911000  1
  H  H4  1  0.11768300  0.04603000  0.00058400  1
  H  H5  1  0.95397000  0.88231700  0.49941600  1
  H  H6  1  0.88231700  0.95397000  0.99941600  1
  H  H7  1  0.04603000  0.11768300  0.50058400  1
  H  H8  1  0.00628300  0.17518700  0.04558800  1
  H  H9  1  0.82481300  0.99371700  0.45441200  1
  H  H10  1  0.99371700  0.82481300  0.95441200  1
  H  H11  1  0.17518700  0.00628300  0.54558800  1
  H  H12  1  0.82626000  0.27179700  0.16663700  1
  H  H13  1  0.72820300  0.17374000  0.33336300  1
  H  H14  1  0.17374000  0.72820300  0.83336300  1
  H  H15  1  0.27179700  0.82626000  0.66663700  1
  H  H16  1  0.86748500  0.09841000  0.16584600  1
  H  H17  1  0.90159000  0.13251500  0.33415400  1
  H  H18  1  0.13251500  0.90159000  0.83415400  1
  H  H19  1  0.09841000  0.86748500  0.66584600  1
  H  H20  1  0.65030300  0.45882900  0.25474400  1
  H  H21  1  0.54117100  0.34969700  0.24525600  1
  H  H22  1  0.34969700  0.54117100  0.74525600  1
  H  H23  1  0.45882900  0.65030300  0.75474400  1
  H  H24  1  0.28090500  0.22780000  0.00747600  1
  H  H25  1  0.77220000  0.71909500  0.49252400  1
  H  H26  1  0.71909500  0.77220000  0.99252400  1
  H  H27  1  0.22780000  0.28090500  0.50747600  1
  H  H28  1  0.35762200  0.13038300  0.09858200  1
  H  H29  1  0.86961700  0.64237800  0.40141800  1
  H  H30  1  0.64237800  0.86961700  0.90141800  1
  H  H31  1  0.13038300  0.35762200  0.59858200  1
  H  H32  1  0.59573700  0.40710600  0.89343400  1
  H  H33  1  0.59289400  0.40426300  0.60656600  1
  H  H34  1  0.40426300  0.59289400  0.10656600  1
  H  H35  1  0.40710600  0.59573700  0.39343400  1
  H  H36  1  0.40622300  0.39154500  0.89793600  1
  H  H37  1  0.60845500  0.59377700  0.60206400  1
  H  H38  1  0.59377700  0.60845500  0.10206400  1
  H  H39  1  0.39154500  0.40622300  0.39793600  1
  H  H40  1  0.59384100  0.18674000  0.11256700  1
  H  H41  1  0.81326000  0.40615900  0.38743300  1
  H  H42  1  0.40615900  0.81326000  0.88743300  1
  H  H43  1  0.18674000  0.59384100  0.61256700  1
  H  H44  1  0.69304900  0.30756200  0.02558800  1
  H  H45  1  0.69243800  0.30695100  0.47441200  1
  H  H46  1  0.30695100  0.69243800  0.97441200  1
  H  H47  1  0.30756200  0.69304900  0.52558800  1
  C  C48  1  0.92563500  0.65927600  0.72215900  1
  C  C49  1  0.34072400  0.07436500  0.77784100  1
  C  C50  1  0.07436500  0.34072400  0.27784100  1
  C  C51  1  0.65927600  0.92563500  0.22215900  1
  C  C52  1  0.77069900  0.60598200  0.76293300  1
  C  C53  1  0.39401800  0.22930100  0.73706700  1
  C  C54  1  0.22930100  0.39401800  0.23706700  1
  C  C55  1  0.60598200  0.77069900  0.26293300  1
  C  C56  1  0.08495000  0.50868600  0.98576000  1
  C  C57  1  0.49131400  0.91505000  0.51424000  1
  C  C58  1  0.91505000  0.49131400  0.01424000  1
  C  C59  1  0.50868600  0.08495000  0.48576000  1
  C  C60  1  0.82628500  0.09852900  0.79728200  1
  C  C61  1  0.90147100  0.17371500  0.70271800  1
  C  C62  1  0.17371500  0.90147100  0.20271800  1
  C  C63  1  0.09852900  0.82628500  0.29728200  1
  C  C64  1  0.49214700  0.27181600  0.00532000  1
  C  C65  1  0.72818400  0.50785300  0.49468000  1
  C  C66  1  0.50785300  0.72818400  0.99468000  1
  C  C67  1  0.27181600  0.49214700  0.50532000  1
  N  N68  1  0.36879800  0.20648500  0.04034400  1
  N  N69  1  0.79351500  0.63120200  0.45965600  1
  N  N70  1  0.63120200  0.79351500  0.95965600  1
  N  N71  1  0.20648500  0.36879800  0.54034400  1
  N  N72  1  0.49982700  0.36355000  0.92613100  1
  N  N73  1  0.63645000  0.50017300  0.57386900  1
  N  N74  1  0.50017300  0.63645000  0.07386900  1
  N  N75  1  0.36355000  0.49982700  0.42613100  1
  N  N76  1  0.60698300  0.24491500  0.04898500  1
  N  N77  1  0.75508500  0.39301800  0.45101500  1
  N  N78  1  0.39301800  0.75508500  0.95101500  1
  N  N79  1  0.24491500  0.60698300  0.54898500  1
  O  O80  1  0.04336300  0.56432000  0.73275200  1
  O  O81  1  0.43568000  0.95663700  0.76724800  1
  O  O82  1  0.95663700  0.43568000  0.26724800  1
  O  O83  1  0.56432000  0.04336300  0.23275200  1
  O  O84  1  0.92329200  0.79352100  0.67946200  1
  O  O85  1  0.20647900  0.07670800  0.82053800  1
  O  O86  1  0.07670800  0.20647900  0.32053800  1
  O  O87  1  0.79352100  0.92329200  0.17946200  1
  O  O88  1  0.65456100  0.69962600  0.74543700  1
  O  O89  1  0.30037400  0.34543900  0.75456300  1
  O  O90  1  0.34543900  0.30037400  0.25456300  1
  O  O91  1  0.69962600  0.65456100  0.24543700  1
  O  O92  1  0.77321900  0.47445100  0.80864200  1
  O  O93  1  0.52554900  0.22678100  0.69135800  1
  O  O94  1  0.22678100  0.52554900  0.19135800  1
  O  O95  1  0.47445100  0.77321900  0.30864200  1
  O  O96  1  0.13582700  0.57842600  0.03089000  1
  O  O97  1  0.42157400  0.86417300  0.46911000  1
  O  O98  1  0.86417300  0.42157400  0.96911000  1
  O  O99  1  0.57842600  0.13582700  0.53089000  1
  O  O100  1  0.15908900  0.45160500  0.91968800  1
  O  O101  1  0.54839500  0.84091100  0.58031200  1
  O  O102  1  0.84091100  0.54839500  0.08031200  1
  O  O103  1  0.45160500  0.15908900  0.41968800  1
  O  O104  1  0.86183800  0.13247900  0.86292500  1
  O  O105  1  0.86752100  0.13816200  0.63707500  1
  O  O106  1  0.13816200  0.86752100  0.13707500  1
  O  O107  1  0.13247900  0.86183800  0.36292500  1
  O  O108  1  0.73601000  0.00839100  0.80066700  1
  O  O109  1  0.99160900  0.26399000  0.69933300  1
  O  O110  1  0.26399000  0.99160900  0.19933300  1
  O  O111  1  0.00839100  0.73601000  0.30066700  1
  O  O112  1  0.07512400  0.15281100  0.98851800  1
  O  O113  1  0.84718900  0.92487600  0.51148200  1
  O  O114  1  0.92487600  0.84718900  0.01148200  1
  O  O115  1  0.15281100  0.07512400  0.48851800  1
  O  O116  1  0.90752300  0.19464400  0.14449200  1
  O  O117  1  0.80535600  0.09247700  0.35550800  1
  O  O118  1  0.09247700  0.80535600  0.85550800  1
  O  O119  1  0.19464400  0.90752300  0.64449200  1
  O  O120  1  0.64543300  0.35456700  0.25000000  1
  O  O121  1  0.35456700  0.64543300  0.75000000  1
