# generated using pymatgen
data_LiYbSi6H54(C6N)3
_symmetry_space_group_name_H-M   'P 1'
_cell_length_a   9.34584900
_cell_length_b   12.28325331
_cell_length_c   17.16494726
_cell_angle_alpha   96.43964422
_cell_angle_beta   95.59000083
_cell_angle_gamma   102.32492120
_symmetry_Int_Tables_number   1
_chemical_formula_structural   LiYbSi6H54(C6N)3
_chemical_formula_sum   'Li2 Yb2 Si12 H108 C36 N6'
_cell_volume   1897.92752630
_cell_formula_units_Z   2
loop_
 _symmetry_equiv_pos_site_id
 _symmetry_equiv_pos_as_xyz
  1  'x, y, z'
loop_
 _atom_site_type_symbol
 _atom_site_label
 _atom_site_symmetry_multiplicity
 _atom_site_fract_x
 _atom_site_fract_y
 _atom_site_fract_z
 _atom_site_occupancy
  Li  Li0  1  0.32457600  0.35192100  0.29276000  1
  Li  Li1  1  0.67542400  0.64807900  0.70724000  1
  Yb  Yb2  1  0.26506500  0.11094700  0.25122100  1
  Yb  Yb3  1  0.73493500  0.88905300  0.74877900  1
  Si  Si4  1  0.35120400  0.85976900  0.17481700  1
  Si  Si5  1  0.64879600  0.14023100  0.82518300  1
  Si  Si6  1  0.08171100  0.83493400  0.26055300  1
  Si  Si7  1  0.91828900  0.16506600  0.73944700  1
  Si  Si8  1  0.52590400  0.36135200  0.18598100  1
  Si  Si9  1  0.47409600  0.63864800  0.81401900  1
  Si  Si10  1  0.21726700  0.25412600  0.10657000  1
  Si  Si11  1  0.78273300  0.74587400  0.89343000  1
  Si  Si12  1  0.36133500  0.20115200  0.43955500  1
  Si  Si13  1  0.63866500  0.79884800  0.56044500  1
  Si  Si14  1  0.11533600  0.31063300  0.39567900  1
  Si  Si15  1  0.88466400  0.68936700  0.60432100  1
  H  H16  1  0.23371600  0.83419200  0.03331400  1
  H  H17  1  0.76628400  0.16580800  0.96668600  1
  H  H18  1  0.37199200  0.75614500  0.04484900  1
  H  H19  1  0.62800800  0.24385500  0.95515100  1
  H  H20  1  0.19444700  0.70429200  0.07201100  1
  H  H21  1  0.80555300  0.29570800  0.92798900  1
  H  H22  1  0.36192700  0.68062400  0.23329100  1
  H  H23  1  0.63807300  0.31937600  0.76670900  1
  H  H24  1  0.52773100  0.73522200  0.19494400  1
  H  H25  1  0.47226900  0.26477800  0.80505600  1
  H  H26  1  0.49383200  0.79706700  0.28778100  1
  H  H27  1  0.50616800  0.20293300  0.71221900  1
  H  H28  1  0.46880700  0.04612300  0.13376300  1
  H  H29  1  0.53119300  0.95387700  0.86623700  1
  H  H30  1  0.57242400  0.01905700  0.21948400  1
  H  H31  1  0.42757600  0.98094300  0.78051600  1
  H  H32  1  0.58571600  0.95104100  0.12505400  1
  H  H33  1  0.41428400  0.04895900  0.87494600  1
  H  H34  1  0.03156500  0.63279700  0.19469100  1
  H  H35  1  0.96843500  0.36720300  0.80530900  1
  H  H36  1  0.86918700  0.67097700  0.22170900  1
  H  H37  1  0.13081300  0.32902300  0.77829100  1
  H  H38  1  0.94041900  0.71269000  0.13497800  1
  H  H39  1  0.05958100  0.28731000  0.86502200  1
  H  H40  1  0.21343100  0.85418600  0.39884700  1
  H  H41  1  0.78656900  0.14581400  0.60115300  1
  H  H42  1  0.04063400  0.75608700  0.38722100  1
  H  H43  1  0.95936600  0.24391300  0.61277900  1
  H  H44  1  0.19437700  0.71637800  0.34928000  1
  H  H45  1  0.80562300  0.28362200  0.65072000  1
  H  H46  1  0.99354600  0.99827700  0.32677200  1
  H  H47  1  0.00645400  0.00172300  0.67322800  1
  H  H48  1  0.90297000  0.95512200  0.22831500  1
  H  H49  1  0.09703000  0.04487800  0.77168500  1
  H  H50  1  0.84843100  0.87718500  0.30530400  1
  H  H51  1  0.15156900  0.12281500  0.69469600  1
  H  H52  1  0.66921400  0.23398900  0.12058600  1
  H  H53  1  0.33078600  0.76601100  0.87941400  1
  H  H54  1  0.78611300  0.34721900  0.18575900  1
  H  H55  1  0.21388700  0.65278100  0.81424100  1
  H  H56  1  0.68561600  0.22937900  0.22392100  1
  H  H57  1  0.31438400  0.77062100  0.77607900  1
  H  H58  1  0.56834000  0.41040700  0.33699600  1
  H  H59  1  0.43166000  0.58959300  0.66300400  1
  H  H60  1  0.69036000  0.50284000  0.29003100  1
  H  H61  1  0.30964000  0.49716000  0.70996900  1
  H  H62  1  0.50994400  0.52156200  0.29230000  1
  H  H63  1  0.49005600  0.47843800  0.70770000  1
  H  H64  1  0.52848100  0.41510100  0.04809300  1
  H  H65  1  0.47151900  0.58489900  0.95190700  1
  H  H66  1  0.47051400  0.51780300  0.11103600  1
  H  H67  1  0.52948600  0.48219700  0.88896400  1
  H  H68  1  0.65873200  0.51153400  0.11828700  1
  H  H69  1  0.34126800  0.48846600  0.88171300  1
  H  H70  1  0.21583700  0.43630300  0.05203400  1
  H  H71  1  0.78416300  0.56369700  0.94796600  1
  H  H72  1  0.03596200  0.35132300  0.04566700  1
  H  H73  1  0.96403800  0.64867700  0.95433300  1
  H  H74  1  0.12104700  0.43213300  0.13653900  1
  H  H75  1  0.87895300  0.56786700  0.86346100  1
  H  H76  1  0.35636800  0.24880700  0.98773300  1
  H  H77  1  0.64363200  0.75119300  0.01226700  1
  H  H78  1  0.30325600  0.11256600  0.01564200  1
  H  H79  1  0.69674400  0.88743400  0.98435800  1
  H  H80  1  0.17082500  0.17263100  0.96495900  1
  H  H81  1  0.82917500  0.82736900  0.03504100  1
  H  H82  1  0.07209200  0.05921400  0.12733000  1
  H  H83  1  0.92790800  0.94078600  0.87267000  1
  H  H84  1  0.01612800  0.16849000  0.18768000  1
  H  H85  1  0.98387200  0.83151000  0.81232000  1
  H  H86  1  0.95858200  0.13985900  0.08593000  1
  H  H87  1  0.04141800  0.86014100  0.91407000  1
  H  H88  1  0.45687000  0.38879900  0.52694300  1
  H  H89  1  0.54313000  0.61120100  0.47305700  1
  H  H90  1  0.54866600  0.28513800  0.55594500  1
  H  H91  1  0.45133400  0.71486200  0.44405500  1
  H  H92  1  0.59727000  0.35253500  0.47354600  1
  H  H93  1  0.40273000  0.64746500  0.52645400  1
  H  H94  1  0.53818100  0.15261200  0.34469100  1
  H  H95  1  0.46181900  0.84738800  0.65530900  1
  H  H96  1  0.55497800  0.09091600  0.43121800  1
  H  H97  1  0.44502200  0.90908400  0.56878200  1
  H  H98  1  0.40783600  0.02708000  0.35722000  1
  H  H99  1  0.59216400  0.97292000  0.64278000  1
  H  H100  1  0.19440900  0.15971800  0.54542800  1
  H  H101  1  0.80559100  0.84028200  0.45457200  1
  H  H102  1  0.17810300  0.03839300  0.47606000  1
  H  H103  1  0.82189700  0.96160700  0.52394000  1
  H  H104  1  0.33524700  0.08420300  0.54859800  1
  H  H105  1  0.66475300  0.91579700  0.45140200  1
  H  H106  1  0.07810500  0.38935800  0.26563300  1
  H  H107  1  0.92189500  0.61064200  0.73436700  1
  H  H108  1  0.01797300  0.46556500  0.34411300  1
  H  H109  1  0.98202700  0.53443500  0.65588700  1
  H  H110  1  0.20710000  0.49117600  0.33630100  1
  H  H111  1  0.79290000  0.50882400  0.66369900  1
  H  H112  1  0.88718800  0.17172700  0.32617400  1
  H  H113  1  0.11281200  0.82827300  0.67382600  1
  H  H114  1  0.91338100  0.15806800  0.42808100  1
  H  H115  1  0.08661900  0.84193200  0.57191900  1
  H  H116  1  0.84454600  0.27222500  0.39773100  1
  H  H117  1  0.15545400  0.72777500  0.60226900  1
  H  H118  1  0.24081200  0.46587400  0.50654100  1
  H  H119  1  0.75918800  0.53412600  0.49345900  1
  H  H120  1  0.04991200  0.41767300  0.51225200  1
  H  H121  1  0.95008800  0.58232700  0.48774800  1
  H  H122  1  0.17577500  0.33966500  0.54589300  1
  H  H123  1  0.82422500  0.66033500  0.45410700  1
  C  C124  1  0.28011500  0.78125600  0.07198700  1
  C  C125  1  0.71988500  0.21874400  0.92801300  1
  C  C126  1  0.44134700  0.75886900  0.22781900  1
  C  C127  1  0.55865300  0.24113100  0.77218100  1
  C  C128  1  0.50800100  0.97986400  0.16215000  1
  C  C129  1  0.49199900  0.02013600  0.83785000  1
  C  C130  1  0.97197400  0.70094400  0.19653000  1
  C  C131  1  0.02802600  0.29905600  0.80347000  1
  C  C132  1  0.13798000  0.78601700  0.35776900  1
  C  C133  1  0.86202000  0.21398300  0.64223100  1
  C  C134  1  0.94479600  0.92451200  0.28199900  1
  C  C135  1  0.05520400  0.07548800  0.71800100  1
  C  C136  1  0.68007600  0.28535400  0.17853100  1
  C  C137  1  0.31992400  0.71464600  0.82146900  1
  C  C138  1  0.57466800  0.45654500  0.28524500  1
  C  C139  1  0.42533200  0.54345500  0.71475500  1
  C  C140  1  0.54512500  0.46001600  0.10869200  1
  C  C141  1  0.45487500  0.53998400  0.89130800  1
  C  C142  1  0.14186800  0.38032100  0.08406800  1
  C  C143  1  0.85813200  0.61967900  0.91593200  1
  C  C144  1  0.26750800  0.19140600  0.01031500  1
  C  C145  1  0.73249200  0.80859400  0.98968500  1
  C  C146  1  0.05426100  0.14564500  0.13047900  1
  C  C147  1  0.94573900  0.85435500  0.86952100  1
  C  C148  1  0.50321600  0.31830000  0.50433200  1
  C  C149  1  0.49678400  0.68170000  0.49566800  1
  C  C150  1  0.47274400  0.10969200  0.38712300  1
  C  C151  1  0.52725600  0.89030800  0.61287700  1
  C  C152  1  0.25698400  0.11331900  0.50835000  1
  C  C153  1  0.74301600  0.88668100  0.49165000  1
  C  C154  1  0.10586800  0.42330700  0.32889100  1
  C  C155  1  0.89413200  0.57669300  0.67110900  1
  C  C156  1  0.92299600  0.21932200  0.38570500  1
  C  C157  1  0.07700400  0.78067800  0.61429500  1
  C  C158  1  0.15047600  0.39020000  0.49955200  1
  C  C159  1  0.84952400  0.60980000  0.50044800  1
  N  N160  1  0.22540900  0.91558900  0.22295600  1
  N  N161  1  0.77459100  0.08441100  0.77704400  1
  N  N162  1  0.35295100  0.27464700  0.18664300  1
  N  N163  1  0.64704900  0.72535300  0.81335700  1
  N  N164  1  0.24937200  0.24146000  0.36673600  1
  N  N165  1  0.75062800  0.75854000  0.63326400  1
