# generated using pymatgen
data_Dy2Fe17N3
_symmetry_space_group_name_H-M   'P 1'
_cell_length_a   8.38417400
_cell_length_b   8.64427501
_cell_length_c   8.64427501
_cell_angle_alpha   120.02061004
_cell_angle_beta   90.00000000
_cell_angle_gamma   90.00000000
_symmetry_Int_Tables_number   1
_chemical_formula_structural   Dy2Fe17N3
_chemical_formula_sum   'Dy4 Fe34 N6'
_cell_volume   542.44765097
_cell_formula_units_Z   2
loop_
 _symmetry_equiv_pos_site_id
 _symmetry_equiv_pos_as_xyz
  1  'x, y, z'
loop_
 _atom_site_type_symbol
 _atom_site_label
 _atom_site_symmetry_multiplicity
 _atom_site_fract_x
 _atom_site_fract_y
 _atom_site_fract_z
 _atom_site_occupancy
  Dy  Dy0  1  0.75000000  0.00006000  0.99994000  1
  Dy  Dy1  1  0.25000000  0.99994000  0.00006000  1
  Dy  Dy2  1  0.25000000  0.66664200  0.33335800  1
  Dy  Dy3  1  0.75000000  0.33335800  0.66664200  1
  Fe  Fe4  1  0.60781600  0.66663300  0.33336700  1
  Fe  Fe5  1  0.39218400  0.33336700  0.66663300  1
  Fe  Fe6  1  0.10781600  0.33336700  0.66663300  1
  Fe  Fe7  1  0.89218400  0.66663300  0.33336700  1
  Fe  Fe8  1  0.50000000  0.50000000  0.00000000  1
  Fe  Fe9  1  0.50000000  0.50000000  0.50000000  1
  Fe  Fe10  1  0.50000000  0.00000000  0.50000000  1
  Fe  Fe11  1  0.00000000  0.50000000  0.00000000  1
  Fe  Fe12  1  0.00000000  0.50000000  0.50000000  1
  Fe  Fe13  1  0.00000000  0.00000000  0.50000000  1
  Fe  Fe14  1  0.75000000  0.67155900  0.05253100  1
  Fe  Fe15  1  0.75000000  0.38106400  0.32858700  1
  Fe  Fe16  1  0.75000000  0.94727400  0.61889700  1
  Fe  Fe17  1  0.75000000  0.38110300  0.05272600  1
  Fe  Fe18  1  0.75000000  0.94746900  0.32844100  1
  Fe  Fe19  1  0.75000000  0.67141300  0.61893600  1
  Fe  Fe20  1  0.25000000  0.32844100  0.94746900  1
  Fe  Fe21  1  0.25000000  0.61893600  0.67141300  1
  Fe  Fe22  1  0.25000000  0.05272600  0.38110300  1
  Fe  Fe23  1  0.25000000  0.61889700  0.94727400  1
  Fe  Fe24  1  0.25000000  0.05253100  0.67155900  1
  Fe  Fe25  1  0.25000000  0.32858700  0.38106400  1
  Fe  Fe26  1  0.47952700  0.83078900  0.66172900  1
  Fe  Fe27  1  0.47944700  0.83085200  0.16914800  1
  Fe  Fe28  1  0.47952700  0.33827100  0.16921100  1
  Fe  Fe29  1  0.52047300  0.16921100  0.33827100  1
  Fe  Fe30  1  0.52055300  0.16914800  0.83085200  1
  Fe  Fe31  1  0.52047300  0.66172900  0.83078900  1
  Fe  Fe32  1  0.97952700  0.16921100  0.33827100  1
  Fe  Fe33  1  0.97944700  0.16914800  0.83085200  1
  Fe  Fe34  1  0.97952700  0.66172900  0.83078900  1
  Fe  Fe35  1  0.02047300  0.83078900  0.66172900  1
  Fe  Fe36  1  0.02055300  0.83085200  0.16914800  1
  Fe  Fe37  1  0.02047300  0.33827100  0.16921100  1
  N  N38  1  0.25000000  0.83559800  0.67125800  1
  N  N39  1  0.25000000  0.83566100  0.16433900  1
  N  N40  1  0.25000000  0.32874200  0.16440200  1
  N  N41  1  0.75000000  0.16440200  0.32874200  1
  N  N42  1  0.75000000  0.16433900  0.83566100  1
  N  N43  1  0.75000000  0.67125800  0.83559800  1
