# generated using pymatgen
data_CaB8O15
_symmetry_space_group_name_H-M   'P 1'
_cell_length_a   8.41187500
_cell_length_b   7.38616700
_cell_length_c   9.91931607
_cell_angle_alpha   70.57862780
_cell_angle_beta   90.00000000
_cell_angle_gamma   90.00000000
_symmetry_Int_Tables_number   1
_chemical_formula_structural   CaB8O15
_chemical_formula_sum   'Ca2 B16 O30'
_cell_volume   581.23372316
_cell_formula_units_Z   2
loop_
 _symmetry_equiv_pos_site_id
 _symmetry_equiv_pos_as_xyz
  1  'x, y, z'
loop_
 _atom_site_type_symbol
 _atom_site_label
 _atom_site_symmetry_multiplicity
 _atom_site_fract_x
 _atom_site_fract_y
 _atom_site_fract_z
 _atom_site_occupancy
  Ca  Ca0  1  0.60924100  0.91315300  0.26634400  1
  Ca  Ca1  1  0.10924100  0.08684700  0.73365600  1
  B  B2  1  0.07505700  0.58192400  0.47843400  1
  B  B3  1  0.57505700  0.41807600  0.52156600  1
  B  B4  1  0.94156000  0.96543500  0.02134500  1
  B  B5  1  0.44156000  0.03456500  0.97865500  1
  B  B6  1  0.97996500  0.87689500  0.28126100  1
  B  B7  1  0.47996500  0.12310500  0.71873900  1
  B  B8  1  0.93111500  0.99177700  0.48449800  1
  B  B9  1  0.43111500  0.00822300  0.51550200  1
  B  B10  1  0.69186300  0.90372600  0.64503000  1
  B  B11  1  0.19186300  0.09627400  0.35497000  1
  B  B12  1  0.69221800  0.91044700  0.90624300  1
  B  B13  1  0.19221800  0.08955300  0.09375700  1
  B  B14  1  0.09571800  0.60157700  0.73244100  1
  B  B15  1  0.59571800  0.39842300  0.26755900  1
  B  B16  1  0.69181900  0.60123700  0.85614200  1
  B  B17  1  0.19181900  0.39876300  0.14385800  1
  O  O18  1  0.61978300  0.98182800  0.75662800  1
  O  O19  1  0.11978300  0.01817200  0.24337200  1
  O  O20  1  0.58420200  0.93771000  0.52369100  1
  O  O21  1  0.08420200  0.06229000  0.47630900  1
  O  O22  1  0.84527900  0.99781900  0.60053600  1
  O  O23  1  0.34527900  0.00218100  0.39946400  1
  O  O24  1  0.59510900  0.96885600  0.00494500  1
  O  O25  1  0.09510900  0.03114400  0.99505500  1
  O  O26  1  0.04279100  0.68143400  0.34089600  1
  O  O27  1  0.54279100  0.31856600  0.65910400  1
  O  O28  1  0.58284400  0.59327800  0.21159500  1
  O  O29  1  0.08284400  0.40672200  0.78840500  1
  O  O30  1  0.88203200  0.89652000  0.15665900  1
  O  O31  1  0.38203200  0.10348000  0.84334100  1
  O  O32  1  0.07214200  0.67163400  0.58336700  1
  O  O33  1  0.57214200  0.32836600  0.41663300  1
  O  O34  1  0.61316600  0.60708600  0.46237400  1
  O  O35  1  0.11316600  0.39291400  0.53762600  1
  O  O36  1  0.87263000  0.92731300  0.37981300  1
  O  O37  1  0.37263000  0.07268700  0.62018700  1
  O  O38  1  0.71423100  0.69585300  0.71245800  1
  O  O39  1  0.21423100  0.30414700  0.28754200  1
  O  O40  1  0.69732400  0.69820200  0.95286900  1
  O  O41  1  0.19732400  0.30179800  0.04713100  1
  O  O42  1  0.16724200  0.59315300  0.09551300  1
  O  O43  1  0.66724200  0.40684700  0.90448700  1
  O  O44  1  0.12248900  0.73293900  0.79699800  1
  O  O45  1  0.62248900  0.26706100  0.20300200  1
  O  O46  1  0.85518300  0.98037400  0.90031500  1
  O  O47  1  0.35518300  0.01962600  0.09968500  1
