# generated using pymatgen
data_MoH20C7NClO6
_symmetry_space_group_name_H-M   'P 1'
_cell_length_a   8.49341800
_cell_length_b   12.19001400
_cell_length_c   14.92955100
_cell_angle_alpha   90.00000000
_cell_angle_beta   90.00000000
_cell_angle_gamma   90.00000000
_symmetry_Int_Tables_number   1
_chemical_formula_structural   MoH20C7NClO6
_chemical_formula_sum   'Mo4 H80 C28 N4 Cl4 O24'
_cell_volume   1545.72933585
_cell_formula_units_Z   4
loop_
 _symmetry_equiv_pos_site_id
 _symmetry_equiv_pos_as_xyz
  1  'x, y, z'
loop_
 _atom_site_type_symbol
 _atom_site_label
 _atom_site_symmetry_multiplicity
 _atom_site_fract_x
 _atom_site_fract_y
 _atom_site_fract_z
 _atom_site_occupancy
  Mo  Mo0  1  0.75103400  0.06007600  0.02342700  1
  Mo  Mo1  1  0.74896600  0.93992400  0.52342700  1
  Mo  Mo2  1  0.25103400  0.43992400  0.97657300  1
  Mo  Mo3  1  0.24896600  0.56007600  0.47657300  1
  H  H4  1  0.65950200  0.29962200  0.98688000  1
  H  H5  1  0.84049800  0.70037800  0.48688000  1
  H  H6  1  0.15950200  0.20037800  0.01312000  1
  H  H7  1  0.34049800  0.79962200  0.51312000  1
  H  H8  1  0.84834700  0.29755100  0.98588900  1
  H  H9  1  0.65165300  0.70244900  0.48588900  1
  H  H10  1  0.34834700  0.20244900  0.01411100  1
  H  H11  1  0.15165300  0.79755100  0.51411100  1
  H  H12  1  0.61794900  0.51984400  0.80731400  1
  H  H13  1  0.88205100  0.48015600  0.30731400  1
  H  H14  1  0.11794900  0.98015600  0.19268600  1
  H  H15  1  0.38205100  0.01984400  0.69268600  1
  H  H16  1  0.81782600  0.47728000  0.80385900  1
  H  H17  1  0.68217400  0.52272000  0.30385900  1
  H  H18  1  0.31782600  0.02272000  0.19614100  1
  H  H19  1  0.18217400  0.97728000  0.69614100  1
  H  H20  1  0.68975000  0.45739900  0.65584900  1
  H  H21  1  0.81025000  0.54260100  0.15584900  1
  H  H22  1  0.18975000  0.04260100  0.34415100  1
  H  H23  1  0.31025000  0.95739900  0.84415100  1
  H  H24  1  0.84307000  0.55463200  0.64626800  1
  H  H25  1  0.65693000  0.44536800  0.14626800  1
  H  H26  1  0.34307000  0.94536800  0.35373200  1
  H  H27  1  0.15693000  0.05463200  0.85373200  1
  H  H28  1  0.64205100  0.59773800  0.65065300  1
  H  H29  1  0.85794900  0.40226200  0.15065300  1
  H  H30  1  0.14205100  0.90226200  0.34934700  1
  H  H31  1  0.35794900  0.09773800  0.84934700  1
  H  H32  1  0.02142400  0.59434200  0.81015100  1
  H  H33  1  0.47857600  0.40565800  0.31015100  1
  H  H34  1  0.52142400  0.90565800  0.18984900  1
  H  H35  1  0.97857600  0.09434200  0.68984900  1
  H  H36  1  0.95370500  0.67835600  0.72055400  1
  H  H37  1  0.54629500  0.32164400  0.22055400  1
  H  H38  1  0.45370500  0.82164400  0.27944600  1
  H  H39  1  0.04629500  0.17835600  0.77944600  1
  H  H40  1  0.15029200  0.77378900  0.80986600  1
  H  H41  1  0.34970800  0.22621100  0.30986600  1
  H  H42  1  0.65029200  0.72621100  0.19013400  1
  H  H43  1  0.84970800  0.27378900  0.69013400  1
  H  H44  1  0.03918000  0.76180400  0.90922200  1
  H  H45  1  0.46082000  0.23819600  0.40922200  1
  H  H46  1  0.53918000  0.73819600  0.09077800  1
  H  H47  1  0.96082000  0.26180400  0.59077800  1
  H  H48  1  0.96965900  0.84582500  0.81903800  1
  H  H49  1  0.53034100  0.15417500  0.31903800  1
  H  H50  1  0.46965900  0.65417500  0.18096200  1
  H  H51  1  0.03034100  0.34582500  0.68096200  1
  H  H52  1  0.72957800  0.81446400  0.82547000  1
  H  H53  1  0.77042200  0.18553600  0.32547000  1
  H  H54  1  0.22957800  0.68553600  0.17453000  1
  H  H55  1  0.27042200  0.31446400  0.67453000  1
  H  H56  1  0.70253800  0.75134400  0.71971000  1
  H  H57  1  0.79746200  0.24865600  0.21971000  1
  H  H58  1  0.20253800  0.74865600  0.28029000  1
  H  H59  1  0.29746200  0.25134400  0.78029000  1
  H  H60  1  0.45108400  0.80207500  0.78673200  1
  H  H61  1  0.04891600  0.19792500  0.28673200  1
  H  H62  1  0.95108400  0.69792500  0.21326800  1
  H  H63  1  0.54891600  0.30207500  0.71326800  1
  H  H64  1  0.48512200  0.72289500  0.88445700  1
  H  H65  1  0.01487800  0.27710500  0.38445700  1
  H  H66  1  0.98512200  0.77710500  0.11554300  1
  H  H67  1  0.51487800  0.22289500  0.61554300  1
  H  H68  1  0.45540400  0.65760400  0.77873100  1
  H  H69  1  0.04459600  0.34239600  0.27873100  1
  H  H70  1  0.95540400  0.84239600  0.22126900  1
  H  H71  1  0.54459600  0.15760400  0.72126900  1
  H  H72  1  0.86308600  0.56897500  0.94078700  1
  H  H73  1  0.63691400  0.43102500  0.44078700  1
  H  H74  1  0.36308600  0.93102500  0.05921300  1
  H  H75  1  0.13691400  0.06897500  0.55921300  1
  H  H76  1  0.65890700  0.60432700  0.93872100  1
  H  H77  1  0.84109300  0.39567300  0.43872100  1
  H  H78  1  0.15890700  0.89567300  0.06127900  1
  H  H79  1  0.34109300  0.10432700  0.56127900  1
  H  H80  1  0.80301500  0.71017000  0.95344500  1
  H  H81  1  0.69698500  0.28983000  0.45344500  1
  H  H82  1  0.30301500  0.78983000  0.04655500  1
  H  H83  1  0.19698500  0.21017000  0.54655500  1
  C  C84  1  0.73392900  0.53862200  0.77875700  1
  C  C85  1  0.76607100  0.46137800  0.27875700  1
  C  C86  1  0.23392900  0.96137800  0.22124300  1
  C  C87  1  0.26607100  0.03862200  0.72124300  1
  C  C88  1  0.72813100  0.53923400  0.67723300  1
  C  C89  1  0.77186900  0.46076600  0.17723300  1
  C  C90  1  0.22813100  0.96076600  0.32276700  1
  C  C91  1  0.27186900  0.03923400  0.82276700  1
  C  C92  1  0.95545500  0.66908100  0.79347000  1
  C  C93  1  0.54454500  0.33091900  0.29347000  1
  C  C94  1  0.45545500  0.83091900  0.20653000  1
  C  C95  1  0.04454500  0.16908100  0.70653000  1
  C  C96  1  0.02996700  0.76914800  0.83626700  1
  C  C97  1  0.47003300  0.23085200  0.33626700  1
  C  C98  1  0.52996700  0.73085200  0.16373300  1
  C  C99  1  0.97003300  0.26914800  0.66373300  1
  C  C100  1  0.68284600  0.74148000  0.79182900  1
  C  C101  1  0.81715400  0.25852000  0.29182900  1
  C  C102  1  0.18284600  0.75852000  0.20817100  1
  C  C103  1  0.31715400  0.24148000  0.70817100  1
  C  C104  1  0.50928300  0.72817200  0.81243100  1
  C  C105  1  0.99071700  0.27182800  0.31243100  1
  C  C106  1  0.00928300  0.77182800  0.18756900  1
  C  C107  1  0.49071700  0.22817200  0.68756900  1
  C  C108  1  0.77744100  0.63173800  0.92094300  1
  C  C109  1  0.72255900  0.36826200  0.42094300  1
  C  C110  1  0.27744100  0.86826200  0.07905700  1
  C  C111  1  0.22255900  0.13173800  0.57905700  1
  N  N112  1  0.78604800  0.64633600  0.82138800  1
  N  N113  1  0.71395200  0.35366400  0.32138800  1
  N  N114  1  0.28604800  0.85366400  0.17861200  1
  N  N115  1  0.21395200  0.14633600  0.67861200  1
  Cl  Cl116  1  0.74546100  0.05447600  0.86139900  1
  Cl  Cl117  1  0.75453900  0.94552400  0.36139900  1
  Cl  Cl118  1  0.24546100  0.44552400  0.13860100  1
  Cl  Cl119  1  0.25453900  0.55447600  0.63860100  1
  O  O120  1  0.52115900  0.09707600  0.02319700  1
  O  O121  1  0.97884100  0.90292400  0.52319700  1
  O  O122  1  0.02115900  0.40292400  0.97680300  1
  O  O123  1  0.47884100  0.59707600  0.47680300  1
  O  O124  1  0.59100100  0.10147900  0.11337600  1
  O  O125  1  0.90899900  0.89852100  0.61337600  1
  O  O126  1  0.09100100  0.39852100  0.88662400  1
  O  O127  1  0.40899900  0.60147900  0.38662400  1
  O  O128  1  0.91816600  0.09906900  0.10930900  1
  O  O129  1  0.58183400  0.90093100  0.60930900  1
  O  O130  1  0.41816600  0.40093100  0.89069100  1
  O  O131  1  0.08183400  0.59906900  0.39069100  1
  O  O132  1  0.98123300  0.09384100  0.01762700  1
  O  O133  1  0.51876700  0.90615900  0.51762700  1
  O  O134  1  0.48123300  0.40615900  0.98237300  1
  O  O135  1  0.01876700  0.59384100  0.48237300  1
  O  O136  1  0.74877200  0.91940900  0.03341100  1
  O  O137  1  0.75122800  0.08059100  0.53341100  1
  O  O138  1  0.24877200  0.58059100  0.96658900  1
  O  O139  1  0.25122800  0.41940900  0.46658900  1
  O  O140  1  0.75334700  0.25522000  0.00013900  1
  O  O141  1  0.74665300  0.74478000  0.50013900  1
  O  O142  1  0.25334700  0.24478000  0.99986100  1
  O  O143  1  0.24665300  0.75522000  0.49986100  1
