# generated using pymatgen
data_NaFePH2(CO3)2
_symmetry_space_group_name_H-M   'P 1'
_cell_length_a   9.81980700
_cell_length_b   10.37344100
_cell_length_c   11.18133000
_cell_angle_alpha   90.00000000
_cell_angle_beta   90.00000000
_cell_angle_gamma   90.00000000
_symmetry_Int_Tables_number   1
_chemical_formula_structural   NaFePH2(CO3)2
_chemical_formula_sum   'Na8 Fe8 P8 H16 C16 O48'
_cell_volume   1138.98828864
_cell_formula_units_Z   8
loop_
 _symmetry_equiv_pos_site_id
 _symmetry_equiv_pos_as_xyz
  1  'x, y, z'
loop_
 _atom_site_type_symbol
 _atom_site_label
 _atom_site_symmetry_multiplicity
 _atom_site_fract_x
 _atom_site_fract_y
 _atom_site_fract_z
 _atom_site_occupancy
  Na  Na0  1  0.08487800  0.62337000  0.07440600  1
  Na  Na1  1  0.41512200  0.12337000  0.92559400  1
  Na  Na2  1  0.58487800  0.37663000  0.42559400  1
  Na  Na3  1  0.91512200  0.87663000  0.57440600  1
  Na  Na4  1  0.91512200  0.37663000  0.92559400  1
  Na  Na5  1  0.58487800  0.87663000  0.07440600  1
  Na  Na6  1  0.41512200  0.62337000  0.57440600  1
  Na  Na7  1  0.08487800  0.12337000  0.42559400  1
  Fe  Fe8  1  0.91572300  0.82306600  0.89169800  1
  Fe  Fe9  1  0.58427700  0.32306600  0.10830200  1
  Fe  Fe10  1  0.41572300  0.17693400  0.60830200  1
  Fe  Fe11  1  0.08427700  0.67693400  0.39169800  1
  Fe  Fe12  1  0.08427700  0.17693400  0.10830200  1
  Fe  Fe13  1  0.41572300  0.67693400  0.89169800  1
  Fe  Fe14  1  0.58427700  0.82306600  0.39169800  1
  Fe  Fe15  1  0.91572300  0.32306600  0.60830200  1
  P  P16  1  0.22029700  0.90139500  0.04067200  1
  P  P17  1  0.27970300  0.40139500  0.95932800  1
  P  P18  1  0.72029700  0.09860500  0.45932800  1
  P  P19  1  0.77970300  0.59860500  0.54067200  1
  P  P20  1  0.77970300  0.09860500  0.95932800  1
  P  P21  1  0.72029700  0.59860500  0.04067200  1
  P  P22  1  0.27970300  0.90139500  0.54067200  1
  P  P23  1  0.22029700  0.40139500  0.45932800  1
  H  H24  1  0.31929300  0.71591000  0.24480000  1
  H  H25  1  0.18070700  0.21591000  0.75520000  1
  H  H26  1  0.81929300  0.28409000  0.25520000  1
  H  H27  1  0.68070700  0.78409000  0.74480000  1
  H  H28  1  0.68070700  0.28409000  0.75520000  1
  H  H29  1  0.81929300  0.78409000  0.24480000  1
  H  H30  1  0.18070700  0.71591000  0.74480000  1
  H  H31  1  0.31929300  0.21591000  0.25520000  1
  H  H32  1  0.27532500  0.93023600  0.25270600  1
  H  H33  1  0.22467500  0.43023600  0.74729400  1
  H  H34  1  0.77532500  0.06976400  0.24729400  1
  H  H35  1  0.72467500  0.56976400  0.75270600  1
  H  H36  1  0.72467500  0.06976400  0.74729400  1
  H  H37  1  0.77532500  0.56976400  0.25270600  1
  H  H38  1  0.22467500  0.93023600  0.75270600  1
  H  H39  1  0.27532500  0.43023600  0.24729400  1
  C  C40  1  0.94328800  0.09360300  0.75932500  1
  C  C41  1  0.55671200  0.59360300  0.24067500  1
  C  C42  1  0.44328800  0.90639700  0.74067500  1
  C  C43  1  0.05671200  0.40639700  0.25932500  1
  C  C44  1  0.05671200  0.90639700  0.24067500  1
  C  C45  1  0.44328800  0.40639700  0.75932500  1
  C  C46  1  0.55671200  0.09360300  0.25932500  1
  C  C47  1  0.94328800  0.59360300  0.74067500  1
  C  C48  1  0.20108100  0.86981100  0.20455400  1
  C  C49  1  0.29891900  0.36981100  0.79544600  1
  C  C50  1  0.70108100  0.13018900  0.29544600  1
  C  C51  1  0.79891900  0.63018900  0.70455400  1
  C  C52  1  0.79891900  0.13018900  0.79544600  1
  C  C53  1  0.70108100  0.63018900  0.20455400  1
  C  C54  1  0.29891900  0.86981100  0.70455400  1
  C  C55  1  0.20108100  0.36981100  0.29544600  1
  O  O56  1  0.21551400  0.04963000  0.02655900  1
  O  O57  1  0.28448600  0.54963000  0.97344100  1
  O  O58  1  0.71551400  0.95037000  0.47344100  1
  O  O59  1  0.78448600  0.45037000  0.52655900  1
  O  O60  1  0.78448600  0.95037000  0.97344100  1
  O  O61  1  0.71551400  0.45037000  0.02655900  1
  O  O62  1  0.28448600  0.04963000  0.52655900  1
  O  O63  1  0.21551400  0.54963000  0.47344100  1
  O  O64  1  0.35973100  0.84868600  0.00090000  1
  O  O65  1  0.14026900  0.34868600  0.99910000  1
  O  O66  1  0.85973100  0.15131400  0.49910000  1
  O  O67  1  0.64026900  0.65131400  0.50090000  1
  O  O68  1  0.64026900  0.15131400  0.99910000  1
  O  O69  1  0.85973100  0.65131400  0.00090000  1
  O  O70  1  0.14026900  0.84868600  0.50090000  1
  O  O71  1  0.35973100  0.34868600  0.49910000  1
  O  O72  1  0.10065600  0.82851100  0.98529700  1
  O  O73  1  0.39934400  0.32851100  0.01470300  1
  O  O74  1  0.60065600  0.17148900  0.51470300  1
  O  O75  1  0.89934400  0.67148900  0.48529700  1
  O  O76  1  0.89934400  0.17148900  0.01470300  1
  O  O77  1  0.60065600  0.67148900  0.98529700  1
  O  O78  1  0.39934400  0.82851100  0.48529700  1
  O  O79  1  0.10065600  0.32851100  0.51470300  1
  O  O80  1  0.22017900  0.73533100  0.23175800  1
  O  O81  1  0.27982100  0.23533100  0.76824200  1
  O  O82  1  0.72017900  0.26466900  0.26824200  1
  O  O83  1  0.77982100  0.76466900  0.73175800  1
  O  O84  1  0.77982100  0.26466900  0.76824200  1
  O  O85  1  0.72017900  0.76466900  0.23175800  1
  O  O86  1  0.27982100  0.73533100  0.73175800  1
  O  O87  1  0.22017900  0.23533100  0.26824200  1
  O  O88  1  0.98064100  0.97706600  0.76757600  1
  O  O89  1  0.51935900  0.47706600  0.23242400  1
  O  O90  1  0.48064100  0.02293400  0.73242400  1
  O  O91  1  0.01935900  0.52293400  0.26757600  1
  O  O92  1  0.01935900  0.02293400  0.23242400  1
  O  O93  1  0.48064100  0.52293400  0.76757600  1
  O  O94  1  0.51935900  0.97706600  0.26757600  1
  O  O95  1  0.98064100  0.47706600  0.73242400  1
  O  O96  1  0.02043200  0.68468100  0.77772700  1
  O  O97  1  0.47956800  0.18468100  0.22227300  1
  O  O98  1  0.52043200  0.31531900  0.72227300  1
  O  O99  1  0.97956800  0.81531900  0.27772700  1
  O  O100  1  0.97956800  0.31531900  0.22227300  1
  O  O101  1  0.52043200  0.81531900  0.77772700  1
  O  O102  1  0.47956800  0.68468100  0.27772700  1
  O  O103  1  0.02043200  0.18468100  0.72227300  1
