# generated using pymatgen
data_SnH10Br4O5
_symmetry_space_group_name_H-M   'P 1'
_cell_length_a   8.33169440
_cell_length_b   8.33169440
_cell_length_c   9.10472359
_cell_angle_alpha   78.94053971
_cell_angle_beta   78.94053971
_cell_angle_gamma   77.13352526
_symmetry_Int_Tables_number   1
_chemical_formula_structural   SnH10Br4O5
_chemical_formula_sum   'Sn2 H20 Br8 O10'
_cell_volume   597.32312560
_cell_formula_units_Z   2
loop_
 _symmetry_equiv_pos_site_id
 _symmetry_equiv_pos_as_xyz
  1  'x, y, z'
loop_
 _atom_site_type_symbol
 _atom_site_label
 _atom_site_symmetry_multiplicity
 _atom_site_fract_x
 _atom_site_fract_y
 _atom_site_fract_z
 _atom_site_occupancy
  Sn  Sn0  1  0.26299500  0.73700500  0.75000000  1
  Sn  Sn1  1  0.73700500  0.26299500  0.25000000  1
  H  H2  1  0.32044600  0.47524700  0.00071200  1
  H  H3  1  0.52475300  0.67955400  0.49928800  1
  H  H4  1  0.67955400  0.52475300  0.99928800  1
  H  H5  1  0.47524700  0.32044600  0.50071200  1
  H  H6  1  0.39121800  0.39511800  0.83783600  1
  H  H7  1  0.60488200  0.60878200  0.66216400  1
  H  H8  1  0.60878200  0.60488200  0.16216400  1
  H  H9  1  0.39511800  0.39121800  0.33783600  1
  H  H10  1  0.21570900  0.59520100  0.21364100  1
  H  H11  1  0.40479900  0.78429100  0.28635900  1
  H  H12  1  0.78429100  0.40479900  0.78635900  1
  H  H13  1  0.59520100  0.21570900  0.71364100  1
  H  H14  1  0.15449400  0.42723400  0.22434900  1
  H  H15  1  0.57276600  0.84550600  0.27565100  1
  H  H16  1  0.84550600  0.57276600  0.77565100  1
  H  H17  1  0.42723400  0.15449400  0.72434900  1
  H  H18  1  0.15891200  0.89234200  0.16355500  1
  H  H19  1  0.10765800  0.84108800  0.33644500  1
  H  H20  1  0.84108800  0.10765800  0.83644500  1
  H  H21  1  0.89234200  0.15891200  0.66355500  1
  Br  Br22  1  0.13715700  0.57757300  0.59848600  1
  Br  Br23  1  0.42242700  0.86284300  0.90151400  1
  Br  Br24  1  0.86284300  0.42242700  0.40151400  1
  Br  Br25  1  0.57757300  0.13715700  0.09848600  1
  Br  Br26  1  0.98473400  0.78372500  0.93608900  1
  Br  Br27  1  0.21627500  0.01526600  0.56391100  1
  Br  Br28  1  0.01526600  0.21627500  0.06391100  1
  Br  Br29  1  0.78372500  0.98473400  0.43608900  1
  O  O30  1  0.34732300  0.49661600  0.88726800  1
  O  O31  1  0.50338400  0.65267700  0.61273200  1
  O  O32  1  0.65267700  0.50338400  0.11273200  1
  O  O33  1  0.49661600  0.34732300  0.38726800  1
  O  O34  1  0.25511200  0.47602200  0.19959200  1
  O  O35  1  0.52397800  0.74488800  0.30040800  1
  O  O36  1  0.74488800  0.52397800  0.80040800  1
  O  O37  1  0.47602200  0.25511200  0.69959200  1
  O  O38  1  0.19083300  0.80916700  0.25000000  1
  O  O39  1  0.80916700  0.19083300  0.75000000  1
