# generated using pymatgen
data_U3Te5
_symmetry_space_group_name_H-M   'P 1'
_cell_length_a   13.20709300
_cell_length_b   8.79990800
_cell_length_c   8.33348800
_cell_angle_alpha   90.00000000
_cell_angle_beta   90.00000000
_cell_angle_gamma   90.00000000
_symmetry_Int_Tables_number   1
_chemical_formula_structural   U3Te5
_chemical_formula_sum   'U12 Te20'
_cell_volume   968.52800344
_cell_formula_units_Z   4
loop_
 _symmetry_equiv_pos_site_id
 _symmetry_equiv_pos_as_xyz
  1  'x, y, z'
loop_
 _atom_site_type_symbol
 _atom_site_label
 _atom_site_symmetry_multiplicity
 _atom_site_fract_x
 _atom_site_fract_y
 _atom_site_fract_z
 _atom_site_occupancy
  U  U0  1  0.18113100  0.99679800  0.02536600  1
  U  U1  1  0.68113100  0.50320200  0.47463400  1
  U  U2  1  0.81886900  0.49679800  0.97463400  1
  U  U3  1  0.31886900  0.00320200  0.52536600  1
  U  U4  1  0.81886900  0.00320200  0.97463400  1
  U  U5  1  0.31886900  0.49679800  0.52536600  1
  U  U6  1  0.18113100  0.50320200  0.02536600  1
  U  U7  1  0.68113100  0.99679800  0.47463400  1
  U  U8  1  0.00555700  0.25000000  0.58200200  1
  U  U9  1  0.50555700  0.25000000  0.91799800  1
  U  U10  1  0.99444300  0.75000000  0.41799800  1
  U  U11  1  0.49444300  0.75000000  0.08200200  1
  Te  Te12  1  0.90089000  0.45116200  0.32924800  1
  Te  Te13  1  0.40089000  0.04883800  0.17075200  1
  Te  Te14  1  0.09911000  0.95116200  0.67075200  1
  Te  Te15  1  0.59911000  0.54883800  0.82924800  1
  Te  Te16  1  0.09911000  0.54883800  0.67075200  1
  Te  Te17  1  0.59911000  0.95116200  0.82924800  1
  Te  Te18  1  0.90089000  0.04883800  0.32924800  1
  Te  Te19  1  0.40089000  0.45116200  0.17075200  1
  Te  Te20  1  0.18121900  0.25000000  0.32891000  1
  Te  Te21  1  0.68121900  0.25000000  0.17109000  1
  Te  Te22  1  0.81878100  0.75000000  0.67109000  1
  Te  Te23  1  0.31878100  0.75000000  0.82891000  1
  Te  Te24  1  0.00037900  0.25000000  0.96363600  1
  Te  Te25  1  0.50037900  0.25000000  0.53636400  1
  Te  Te26  1  0.99962100  0.75000000  0.03636400  1
  Te  Te27  1  0.49962100  0.75000000  0.46363600  1
  Te  Te28  1  0.78137600  0.25000000  0.69828700  1
  Te  Te29  1  0.28137600  0.25000000  0.80171300  1
  Te  Te30  1  0.21862400  0.75000000  0.30171300  1
  Te  Te31  1  0.71862400  0.75000000  0.19828700  1
