# generated using pymatgen
data_H2C(NO)2
_symmetry_space_group_name_H-M   'P 1'
_cell_length_a   6.69428800
_cell_length_b   7.14003500
_cell_length_c   11.88199200
_cell_angle_alpha   90.00000000
_cell_angle_beta   90.00000000
_cell_angle_gamma   90.00000000
_symmetry_Int_Tables_number   1
_chemical_formula_structural   H2C(NO)2
_chemical_formula_sum   'H16 C8 N16 O16'
_cell_volume   567.92892589
_cell_formula_units_Z   8
loop_
 _symmetry_equiv_pos_site_id
 _symmetry_equiv_pos_as_xyz
  1  'x, y, z'
loop_
 _atom_site_type_symbol
 _atom_site_label
 _atom_site_symmetry_multiplicity
 _atom_site_fract_x
 _atom_site_fract_y
 _atom_site_fract_z
 _atom_site_occupancy
  H  H0  1  0.18748800  0.28967700  0.38622500  1
  H  H1  1  0.31251200  0.71032300  0.88622500  1
  H  H2  1  0.81251200  0.78967700  0.11377500  1
  H  H3  1  0.68748800  0.21032300  0.61377500  1
  H  H4  1  0.20111000  0.07881600  0.30929500  1
  H  H5  1  0.29889000  0.92118400  0.80929500  1
  H  H6  1  0.79889000  0.57881600  0.19070500  1
  H  H7  1  0.70111000  0.42118400  0.69070500  1
  H  H8  1  0.21446300  0.56796600  0.29589800  1
  H  H9  1  0.28553700  0.43203400  0.79589800  1
  H  H10  1  0.78553700  0.06796600  0.20410200  1
  H  H11  1  0.71446300  0.93203400  0.70410200  1
  H  H12  1  0.29857200  0.57877400  0.15539200  1
  H  H13  1  0.20142800  0.42122600  0.65539200  1
  H  H14  1  0.70142800  0.07877400  0.34460800  1
  H  H15  1  0.79857200  0.92122600  0.84460800  1
  C  C16  1  0.31318000  0.21718600  0.11595700  1
  C  C17  1  0.18682000  0.78281400  0.61595700  1
  C  C18  1  0.68682000  0.71718600  0.38404300  1
  C  C19  1  0.81318000  0.28281400  0.88404300  1
  C  C20  1  0.26335900  0.31513400  0.22028100  1
  C  C21  1  0.23664100  0.68486600  0.72028100  1
  C  C22  1  0.73664100  0.81513400  0.27971900  1
  C  C23  1  0.76335900  0.18486600  0.77971900  1
  N  N24  1  0.32929400  0.01872300  0.11136000  1
  N  N25  1  0.17070600  0.98127700  0.61136000  1
  N  N26  1  0.67070600  0.51872300  0.38864000  1
  N  N27  1  0.82929400  0.48127700  0.88864000  1
  N  N28  1  0.34481800  0.31460500  0.01436300  1
  N  N29  1  0.15518200  0.68539500  0.51436300  1
  N  N30  1  0.65518200  0.81460500  0.48563700  1
  N  N31  1  0.84481800  0.18539500  0.98563700  1
  N  N32  1  0.21909000  0.22005900  0.31330700  1
  N  N33  1  0.28091000  0.77994100  0.81330700  1
  N  N34  1  0.78091000  0.72005900  0.18669300  1
  N  N35  1  0.71909000  0.27994100  0.68669300  1
  N  N36  1  0.26211200  0.50186300  0.22454000  1
  N  N37  1  0.23788800  0.49813700  0.72454000  1
  N  N38  1  0.73788800  0.00186300  0.27546000  1
  N  N39  1  0.76211200  0.99813700  0.77546000  1
  O  O40  1  0.43233200  0.94269100  0.03708800  1
  O  O41  1  0.06766800  0.05730900  0.53708800  1
  O  O42  1  0.56766800  0.44269100  0.46291200  1
  O  O43  1  0.93233200  0.55730900  0.96291200  1
  O  O44  1  0.24324700  0.92373400  0.18680500  1
  O  O45  1  0.25675300  0.07626600  0.68680500  1
  O  O46  1  0.75675300  0.42373400  0.31319500  1
  O  O47  1  0.74324700  0.57626600  0.81319500  1
  O  O48  1  0.38593000  0.48736400  0.01800600  1
  O  O49  1  0.11407000  0.51263600  0.51800600  1
  O  O50  1  0.61407000  0.98736400  0.48199400  1
  O  O51  1  0.88593000  0.01263600  0.98199400  1
  O  O52  1  0.32590500  0.23290400  0.92143300  1
  O  O53  1  0.17409500  0.76709600  0.42143300  1
  O  O54  1  0.67409500  0.73290400  0.57856700  1
  O  O55  1  0.82590500  0.26709600  0.07856700  1
