# generated using pymatgen
data_BaLuCo4O7
_symmetry_space_group_name_H-M   'P 1'
_cell_length_a   6.31003100
_cell_length_b   10.28391400
_cell_length_c   10.99559400
_cell_angle_alpha   90.00000000
_cell_angle_beta   90.00000000
_cell_angle_gamma   90.00000000
_symmetry_Int_Tables_number   1
_chemical_formula_structural   BaLuCo4O7
_chemical_formula_sum   'Ba4 Lu4 Co16 O28'
_cell_volume   713.52406421
_cell_formula_units_Z   4
loop_
 _symmetry_equiv_pos_site_id
 _symmetry_equiv_pos_as_xyz
  1  'x, y, z'
loop_
 _atom_site_type_symbol
 _atom_site_label
 _atom_site_symmetry_multiplicity
 _atom_site_fract_x
 _atom_site_fract_y
 _atom_site_fract_z
 _atom_site_occupancy
  Ba  Ba0  1  0.49339400  0.50244400  0.83617400  1
  Ba  Ba1  1  0.50660600  0.00244400  0.16382600  1
  Ba  Ba2  1  0.99339400  0.00244400  0.66382600  1
  Ba  Ba3  1  0.00660600  0.50244400  0.33617400  1
  Lu  Lu4  1  0.50280400  0.12733200  0.83008600  1
  Lu  Lu5  1  0.49719600  0.62733200  0.16991400  1
  Lu  Lu6  1  0.00280400  0.62733200  0.66991400  1
  Lu  Lu7  1  0.99719600  0.12733200  0.33008600  1
  Co  Co8  1  0.50048000  0.06081500  0.50068300  1
  Co  Co9  1  0.49952000  0.56081500  0.49931700  1
  Co  Co10  1  0.00048000  0.56081500  0.99931700  1
  Co  Co11  1  0.99952000  0.06081500  0.00068300  1
  Co  Co12  1  0.75768200  0.32007900  0.58299600  1
  Co  Co13  1  0.24231800  0.82007900  0.41700400  1
  Co  Co14  1  0.25768200  0.82007900  0.91700400  1
  Co  Co15  1  0.74231800  0.32007900  0.08299600  1
  Co  Co16  1  0.75473000  0.81538900  0.41090100  1
  Co  Co17  1  0.24527000  0.31538900  0.58909900  1
  Co  Co18  1  0.25473000  0.31538900  0.08909900  1
  Co  Co19  1  0.74527000  0.81538900  0.91090100  1
  Co  Co20  1  0.50148000  0.31720000  0.32729100  1
  Co  Co21  1  0.49852000  0.81720000  0.67270900  1
  Co  Co22  1  0.00148000  0.81720000  0.17270900  1
  Co  Co23  1  0.99852000  0.31720000  0.82729100  1
  O  O24  1  0.27519000  0.22120800  0.24435600  1
  O  O25  1  0.72481000  0.72120800  0.75564400  1
  O  O26  1  0.77519000  0.72120800  0.25564400  1
  O  O27  1  0.22481000  0.22120800  0.74435600  1
  O  O28  1  0.21883100  0.77896800  0.75270600  1
  O  O29  1  0.78116900  0.27896800  0.24729400  1
  O  O30  1  0.71883100  0.27896800  0.74729400  1
  O  O31  1  0.28116900  0.77896800  0.25270600  1
  O  O32  1  0.48985700  0.75927300  0.00639200  1
  O  O33  1  0.51014300  0.25927300  0.99360800  1
  O  O34  1  0.98985700  0.25927300  0.49360800  1
  O  O35  1  0.01014300  0.75927300  0.50639200  1
  O  O36  1  0.49300900  0.75653600  0.49892000  1
  O  O37  1  0.50699100  0.25653600  0.50108000  1
  O  O38  1  0.99300900  0.25653600  0.00108000  1
  O  O39  1  0.00699100  0.75653600  0.99892000  1
  O  O40  1  0.73619500  0.00525400  0.39963300  1
  O  O41  1  0.26380500  0.50525400  0.60036700  1
  O  O42  1  0.23619500  0.50525400  0.10036700  1
  O  O43  1  0.76380500  0.00525400  0.89963300  1
  O  O44  1  0.45429000  0.50454600  0.33134700  1
  O  O45  1  0.54571000  0.00454600  0.66865300  1
  O  O46  1  0.95429000  0.00454600  0.16865300  1
  O  O47  1  0.04571000  0.50454600  0.83134700  1
  O  O48  1  0.77629200  0.50295500  0.56584400  1
  O  O49  1  0.22370800  0.00295500  0.43415600  1
  O  O50  1  0.27629200  0.00295500  0.93415600  1
  O  O51  1  0.72370800  0.50295500  0.06584400  1
