# generated using pymatgen
data_Ba2SnSe5
_symmetry_space_group_name_H-M   'P 1'
_cell_length_a   9.07130300
_cell_length_b   9.53617212
_cell_length_c   12.64341266
_cell_angle_alpha   68.68553062
_cell_angle_beta   90.00000000
_cell_angle_gamma   90.00000000
_symmetry_Int_Tables_number   1
_chemical_formula_structural   Ba2SnSe5
_chemical_formula_sum   'Ba8 Sn4 Se20'
_cell_volume   1018.91345415
_cell_formula_units_Z   4
loop_
 _symmetry_equiv_pos_site_id
 _symmetry_equiv_pos_as_xyz
  1  'x, y, z'
loop_
 _atom_site_type_symbol
 _atom_site_label
 _atom_site_symmetry_multiplicity
 _atom_site_fract_x
 _atom_site_fract_y
 _atom_site_fract_z
 _atom_site_occupancy
  Ba  Ba0  1  0.13695800  0.74438400  0.17636700  1
  Ba  Ba1  1  0.63695800  0.75561600  0.32363300  1
  Ba  Ba2  1  0.86304200  0.25561600  0.82363300  1
  Ba  Ba3  1  0.36304200  0.24438400  0.67636700  1
  Ba  Ba4  1  0.62624400  0.30949100  0.15391800  1
  Ba  Ba5  1  0.12624400  0.19050900  0.34608200  1
  Ba  Ba6  1  0.37375600  0.69050900  0.84608200  1
  Ba  Ba7  1  0.87375600  0.80949100  0.65391800  1
  Sn  Sn8  1  0.79329100  0.35528600  0.48231400  1
  Sn  Sn9  1  0.29329100  0.14471400  0.01768600  1
  Sn  Sn10  1  0.20670900  0.64471400  0.51768600  1
  Sn  Sn11  1  0.70670900  0.85528600  0.98231400  1
  Se  Se12  1  0.32184300  0.49872200  0.40396500  1
  Se  Se13  1  0.82184300  0.00127800  0.09603500  1
  Se  Se14  1  0.67815700  0.50127800  0.59603500  1
  Se  Se15  1  0.17815700  0.99872200  0.90396500  1
  Se  Se16  1  0.50817200  0.67995400  0.10419900  1
  Se  Se17  1  0.00817200  0.82004600  0.39580100  1
  Se  Se18  1  0.49182800  0.32004600  0.89580100  1
  Se  Se19  1  0.99182800  0.17995400  0.60419900  1
  Se  Se20  1  0.87279200  0.48750800  0.27626200  1
  Se  Se21  1  0.37279100  0.01249200  0.22373800  1
  Se  Se22  1  0.12720900  0.51249200  0.72373800  1
  Se  Se23  1  0.62720800  0.98750800  0.77626200  1
  Se  Se24  1  0.57563100  0.19720500  0.44311700  1
  Se  Se25  1  0.07563100  0.30279500  0.05688300  1
  Se  Se26  1  0.42436900  0.80279500  0.55688300  1
  Se  Se27  1  0.92436900  0.69720500  0.94311700  1
  Se  Se28  1  0.75958600  0.04086100  0.40025000  1
  Se  Se29  1  0.25958600  0.45913900  0.09975000  1
  Se  Se30  1  0.24041400  0.95913900  0.59975000  1
  Se  Se31  1  0.74041400  0.54086100  0.90025000  1
