# generated using pymatgen
data_HC2N3
_symmetry_space_group_name_H-M   'P 1'
_cell_length_a   4.22585800
_cell_length_b   12.77288229
_cell_length_c   16.96000083
_cell_angle_alpha   89.98264045
_cell_angle_beta   89.93158964
_cell_angle_gamma   89.62178241
_symmetry_Int_Tables_number   1
_chemical_formula_structural   HC2N3
_chemical_formula_sum   'H12 C24 N36'
_cell_volume   915.41892737
_cell_formula_units_Z   12
loop_
 _symmetry_equiv_pos_site_id
 _symmetry_equiv_pos_as_xyz
  1  'x, y, z'
loop_
 _atom_site_type_symbol
 _atom_site_label
 _atom_site_symmetry_multiplicity
 _atom_site_fract_x
 _atom_site_fract_y
 _atom_site_fract_z
 _atom_site_occupancy
  H  H0  1  0.02472900  0.04968500  0.42152900  1
  H  H1  1  0.03788200  0.17508000  0.37409200  1
  H  H2  1  0.97558200  0.94309800  0.57761900  1
  H  H3  1  0.96228700  0.81782500  0.62463500  1
  H  H4  1  0.03823700  0.38463200  0.38161900  1
  H  H5  1  0.96241100  0.60508000  0.61803800  1
  H  H6  1  0.02538500  0.55436700  0.08042400  1
  H  H7  1  0.03752900  0.68214800  0.12378800  1
  H  H8  1  0.97595400  0.44305500  0.92405800  1
  H  H9  1  0.96227200  0.31863200  0.87539300  1
  H  H10  1  0.03697600  0.89068000  0.11626100  1
  H  H11  1  0.96401800  0.10403500  0.88043000  1
  C  C12  1  0.04332000  0.03577600  0.16278300  1
  C  C13  1  0.02265800  0.17036000  0.07373000  1
  C  C14  1  0.05015500  0.19760500  0.21659800  1
  C  C15  1  0.03647500  0.34722200  0.12917400  1
  C  C16  1  0.05038700  0.36651000  0.26239600  1
  C  C17  1  0.04292900  0.53476700  0.33870600  1
  C  C18  1  0.02240500  0.67016400  0.42683200  1
  C  C19  1  0.04993700  0.86533700  0.23682800  1
  C  C20  1  0.03618500  0.84684000  0.37057700  1
  C  C21  1  0.00014200  0.81881700  0.50393500  1
  C  C22  1  0.00021100  0.17392500  0.49473000  1
  C  C23  1  0.96376400  0.14460400  0.62781800  1
  C  C24  1  0.94987400  0.12525600  0.76095600  1
  C  C25  1  0.97772200  0.32170000  0.57250800  1
  C  C26  1  0.95014800  0.29409400  0.71535400  1
  C  C27  1  0.95722800  0.45610300  0.66139600  1
  C  C28  1  0.94989900  0.62457700  0.73751800  1
  C  C29  1  0.96365300  0.64438700  0.87076000  1
  C  C30  1  0.94968000  0.79367900  0.78275500  1
  C  C31  1  0.97697700  0.82212000  0.92511200  1
  C  C32  1  0.95682100  0.95607900  0.83607200  1
  C  C33  1  0.00016700  0.31806400  0.99615200  1
  C  C34  1  0.04979600  0.69654400  0.28367600  1
  C  C35  1  0.99973800  0.67534800  0.00359900  1
  N  N36  1  0.05528800  0.09471200  0.22790600  1
  N  N37  1  0.02683400  0.06721700  0.08712500  1
  N  N38  1  0.03880200  0.23816400  0.14001000  1
  N  N39  1  0.05375500  0.26243000  0.27825100  1
  N  N40  1  0.01972400  0.38659300  0.05779000  1
  N  N41  1  0.04774400  0.41103800  0.19169900  1
  N  N42  1  0.04682400  0.42682000  0.33006400  1
  N  N43  1  0.05470300  0.59374600  0.27331500  1
  N  N44  1  0.02630900  0.56665600  0.41419700  1
  N  N45  1  0.00187100  0.71169300  0.49851100  1
  N  N46  1  0.03872200  0.73770400  0.36015300  1
  N  N47  1  0.05346400  0.76120900  0.22134800  1
  N  N48  1  0.04676900  0.92764900  0.16998400  1
  N  N49  1  0.04698500  0.90991200  0.30753900  1
  N  N50  1  0.01977100  0.88688500  0.44186100  1
  N  N51  1  0.97659100  0.86268400  0.57440200  1
  N  N52  1  0.02383900  0.13011400  0.42427900  1
  N  N53  1  0.98062800  0.10531700  0.55626200  1
  N  N54  1  0.95240300  0.08072800  0.69022400  1
  N  N55  1  0.95378400  0.06399600  0.82806600  1
  N  N56  1  0.99833300  0.28091300  0.50050700  1
  N  N57  1  0.96144800  0.25361700  0.63868000  1
  N  N58  1  0.94643300  0.22916300  0.77709800  1
  N  N59  1  0.97378200  0.42490500  0.58569000  1
  N  N60  1  0.94524600  0.39687400  0.72645600  1
  N  N61  1  0.95362900  0.56388500  0.67000700  1
  N  N62  1  0.95288200  0.58027000  0.80845600  1
  N  N63  1  0.98049000  0.60572900  0.94273900  1
  N  N64  1  0.94613300  0.72846600  0.72126100  1
  N  N65  1  0.96086600  0.75342300  0.85945500  1
  N  N66  1  0.94483300  0.89649300  0.77124000  1
  N  N67  1  0.97313000  0.92514500  0.91176200  1
  N  N68  1  0.99753100  0.78209700  0.99722900  1
  N  N69  1  0.97657600  0.36255700  0.92595800  1
  N  N70  1  0.00215700  0.21108200  0.00177200  1
  N  N71  1  0.02379000  0.63431600  0.07505500  1
