# generated using pymatgen
data_Nd2V2H2Se4O17
_symmetry_space_group_name_H-M   'P 1'
_cell_length_a   7.05956200
_cell_length_b   8.35516858
_cell_length_c   13.30928745
_cell_angle_alpha   91.14469210
_cell_angle_beta   105.37954246
_cell_angle_gamma   90.00000000
_symmetry_Int_Tables_number   1
_chemical_formula_structural   Nd2V2H2Se4O17
_chemical_formula_sum   'Nd4 V4 H4 Se8 O34'
_cell_volume   756.75837332
_cell_formula_units_Z   2
loop_
 _symmetry_equiv_pos_site_id
 _symmetry_equiv_pos_as_xyz
  1  'x, y, z'
loop_
 _atom_site_type_symbol
 _atom_site_label
 _atom_site_symmetry_multiplicity
 _atom_site_fract_x
 _atom_site_fract_y
 _atom_site_fract_z
 _atom_site_occupancy
  Nd  Nd0  1  0.20538000  0.20352200  0.56189700  1
  Nd  Nd1  1  0.64348300  0.29647800  0.43810300  1
  Nd  Nd2  1  0.79462000  0.79647800  0.43810300  1
  Nd  Nd3  1  0.35651700  0.70352200  0.56189700  1
  V  V4  1  0.72581600  0.80093100  0.89873400  1
  V  V5  1  0.82708200  0.69906900  0.10126600  1
  V  V6  1  0.27418400  0.19906900  0.10126600  1
  V  V7  1  0.17291800  0.30093100  0.89873400  1
  H  H8  1  0.34135200  0.84102000  0.01510300  1
  H  H9  1  0.32624900  0.65898000  0.98489700  1
  H  H10  1  0.65864800  0.15898000  0.98489700  1
  H  H11  1  0.67375100  0.34102000  0.01510300  1
  Se  Se12  1  0.10708800  0.44666100  0.35377300  1
  Se  Se13  1  0.75331600  0.05333900  0.64622700  1
  Se  Se14  1  0.89291200  0.55333900  0.64622700  1
  Se  Se15  1  0.24668400  0.94666100  0.35377300  1
  Se  Se16  1  0.31088300  0.97510400  0.79234000  1
  Se  Se17  1  0.51854200  0.52489600  0.20766000  1
  Se  Se18  1  0.68911700  0.02489600  0.20766000  1
  Se  Se19  1  0.48145800  0.47510400  0.79234000  1
  O  O20  1  0.32374200  0.43034600  0.45635000  1
  O  O21  1  0.86739100  0.06965400  0.54365000  1
  O  O22  1  0.67625800  0.56965400  0.54365000  1
  O  O23  1  0.13260900  0.93034600  0.45635000  1
  O  O24  1  0.96792700  0.31110600  0.40105600  1
  O  O25  1  0.56687100  0.18889400  0.59894400  1
  O  O26  1  0.03207300  0.68889400  0.59894400  1
  O  O27  1  0.43312900  0.81110600  0.40105600  1
  O  O28  1  0.04813000  0.63183100  0.39348500  1
  O  O29  1  0.65464500  0.86816900  0.60651500  1
  O  O30  1  0.95187000  0.36816900  0.60651500  1
  O  O31  1  0.34535500  0.13183100  0.39348500  1
  O  O32  1  0.56612700  0.98626300  0.84441700  1
  O  O33  1  0.72171000  0.51373700  0.15558300  1
  O  O34  1  0.43387300  0.01373700  0.15558300  1
  O  O35  1  0.27829000  0.48626300  0.84441700  1
  O  O36  1  0.25705400  0.18107900  0.78301100  1
  O  O37  1  0.47404300  0.31892100  0.21698900  1
  O  O38  1  0.74294600  0.81892100  0.21698900  1
  O  O39  1  0.52595700  0.68107900  0.78301100  1
  O  O40  1  0.29531100  0.95248400  0.66232300  1
  O  O41  1  0.63298800  0.54751600  0.33767700  1
  O  O42  1  0.70468900  0.04751600  0.33767700  1
  O  O43  1  0.36701200  0.45248400  0.66232300  1
  O  O44  1  0.91243800  0.82313900  0.85020700  1
  O  O45  1  0.06223200  0.67686100  0.14979300  1
  O  O46  1  0.08756200  0.17686100  0.14979300  1
  O  O47  1  0.93776800  0.32313900  0.85020700  1
  O  O48  1  0.79774100  0.89085500  0.03103300  1
  O  O49  1  0.76670800  0.60914500  0.96896700  1
  O  O50  1  0.20225900  0.10914500  0.96896700  1
  O  O51  1  0.23329200  0.39085500  0.03103300  1
  O  O52  1  0.41658000  0.75000000  0.00000000  1
  O  O53  1  0.58342000  0.25000000  0.00000000  1
