# generated using pymatgen
data_Na2LaH2C5O11
_symmetry_space_group_name_H-M   'P 1'
_cell_length_a   11.82148500
_cell_length_b   7.91006900
_cell_length_c   13.16656057
_cell_angle_alpha   64.76249504
_cell_angle_beta   90.00000000
_cell_angle_gamma   90.00000000
_symmetry_Int_Tables_number   1
_chemical_formula_structural   Na2LaH2C5O11
_chemical_formula_sum   'Na8 La4 H8 C20 O44'
_cell_volume   1113.66953195
_cell_formula_units_Z   4
loop_
 _symmetry_equiv_pos_site_id
 _symmetry_equiv_pos_as_xyz
  1  'x, y, z'
loop_
 _atom_site_type_symbol
 _atom_site_label
 _atom_site_symmetry_multiplicity
 _atom_site_fract_x
 _atom_site_fract_y
 _atom_site_fract_z
 _atom_site_occupancy
  Na  Na0  1  0.79344600  0.78339500  0.57470600  1
  Na  Na1  1  0.70655400  0.78339500  0.07470600  1
  Na  Na2  1  0.20655400  0.21660500  0.42529400  1
  Na  Na3  1  0.29344600  0.21660500  0.92529400  1
  Na  Na4  1  0.18864300  0.22082900  0.16637100  1
  Na  Na5  1  0.31135700  0.22082900  0.66637100  1
  Na  Na6  1  0.81135700  0.77917100  0.83362900  1
  Na  Na7  1  0.68864300  0.77917100  0.33362900  1
  La  La8  1  0.81456100  0.29593900  0.82589800  1
  La  La9  1  0.68543900  0.29593900  0.32589800  1
  La  La10  1  0.18543900  0.70406100  0.17410200  1
  La  La11  1  0.31456100  0.70406100  0.67410200  1
  H  H12  1  0.93385400  0.79966100  0.37098700  1
  H  H13  1  0.56614600  0.79966100  0.87098700  1
  H  H14  1  0.06614600  0.20033900  0.62901300  1
  H  H15  1  0.43385400  0.20033900  0.12901300  1
  H  H16  1  0.90086400  0.99572100  0.36218400  1
  H  H17  1  0.59913600  0.99572100  0.86218400  1
  H  H18  1  0.09913600  0.00427900  0.63781600  1
  H  H19  1  0.40086400  0.00427900  0.13781600  1
  C  C20  1  0.02610900  0.08241800  0.01004100  1
  C  C21  1  0.47389100  0.08241800  0.51004100  1
  C  C22  1  0.97389100  0.91758200  0.98995900  1
  C  C23  1  0.52610900  0.91758200  0.48995900  1
  C  C24  1  0.07837400  0.41333500  0.73890600  1
  C  C25  1  0.42162600  0.41333500  0.23890600  1
  C  C26  1  0.92162600  0.58666500  0.26109400  1
  C  C27  1  0.57837400  0.58666500  0.76109400  1
  C  C28  1  0.03128300  0.60553900  0.72723200  1
  C  C29  1  0.46871700  0.60553900  0.22723200  1
  C  C30  1  0.96871700  0.39446100  0.27276800  1
  C  C31  1  0.53128300  0.39446100  0.77276800  1
  C  C32  1  0.75788300  0.38817700  0.55114000  1
  C  C33  1  0.74211700  0.38817700  0.05114000  1
  C  C34  1  0.24211700  0.61182300  0.44886000  1
  C  C35  1  0.25788300  0.61182300  0.94886000  1
  C  C36  1  0.77851300  0.17462000  0.60153300  1
  C  C37  1  0.72148700  0.17462000  0.10153300  1
  C  C38  1  0.22148700  0.82538000  0.39846700  1
  C  C39  1  0.27851300  0.82538000  0.89846700  1
  O  O40  1  0.97714100  0.23822700  0.96629200  1
  O  O41  1  0.52285900  0.23822700  0.46629200  1
  O  O42  1  0.02285900  0.76177300  0.03370800  1
  O  O43  1  0.47714100  0.76177300  0.53370800  1
  O  O44  1  0.11600400  0.04656400  0.06948400  1
  O  O45  1  0.38399600  0.04656400  0.56948400  1
  O  O46  1  0.88399600  0.95343600  0.93051600  1
  O  O47  1  0.61600400  0.95343600  0.43051600  1
  O  O48  1  0.00650700  0.29754400  0.73428700  1
  O  O49  1  0.49349300  0.29754400  0.23428700  1
  O  O50  1  0.99349300  0.70245600  0.26571300  1
  O  O51  1  0.50650700  0.70245600  0.76571300  1
  O  O52  1  0.18425900  0.38909300  0.74951700  1
  O  O53  1  0.31574100  0.38909300  0.24951700  1
  O  O54  1  0.81574100  0.61090700  0.25048300  1
  O  O55  1  0.68425900  0.61090700  0.75048300  1
  O  O56  1  0.92614000  0.61339500  0.74554600  1
  O  O57  1  0.57386000  0.61339500  0.24554600  1
  O  O58  1  0.07386000  0.38660500  0.25445400  1
  O  O59  1  0.42614000  0.38660500  0.75445400  1
  O  O60  1  0.10063500  0.73995200  0.69822500  1
  O  O61  1  0.39936500  0.73995200  0.19822500  1
  O  O62  1  0.89936500  0.26004800  0.30177500  1
  O  O63  1  0.60063500  0.26004800  0.80177500  1
  O  O64  1  0.78240900  0.47015700  0.61247000  1
  O  O65  1  0.71759100  0.47015700  0.11247000  1
  O  O66  1  0.21759100  0.52984300  0.38753000  1
  O  O67  1  0.28240900  0.52984300  0.88753000  1
  O  O68  1  0.71955600  0.46567600  0.45236700  1
  O  O69  1  0.78044400  0.46567600  0.95236700  1
  O  O70  1  0.28044400  0.53432400  0.54763300  1
  O  O71  1  0.21955600  0.53432400  0.04763300  1
  O  O72  1  0.79670900  0.09316300  0.70644200  1
  O  O73  1  0.70329100  0.09316300  0.20644200  1
  O  O74  1  0.20329100  0.90683700  0.29355800  1
  O  O75  1  0.29670900  0.90683700  0.79355800  1
  O  O76  1  0.77630200  0.09995100  0.53347100  1
  O  O77  1  0.72369800  0.09995100  0.03347100  1
  O  O78  1  0.22369800  0.90004900  0.46652900  1
  O  O79  1  0.27630200  0.90004900  0.96652900  1
  O  O80  1  0.88392800  0.86159500  0.40413200  1
  O  O81  1  0.61607200  0.86159500  0.90413200  1
  O  O82  1  0.11607200  0.13840500  0.59586800  1
  O  O83  1  0.38392800  0.13840500  0.09586800  1
