# generated using pymatgen
data_Lu2N3
_symmetry_space_group_name_H-M   'P 1'
_cell_length_a   9.18861614
_cell_length_b   9.18861614
_cell_length_c   9.18861614
_cell_angle_alpha   109.47122063
_cell_angle_beta   109.47122063
_cell_angle_gamma   109.47122063
_symmetry_Int_Tables_number   1
_chemical_formula_structural   Lu2N3
_chemical_formula_sum   'Lu16 N24'
_cell_volume   597.21187647
_cell_formula_units_Z   8
loop_
 _symmetry_equiv_pos_site_id
 _symmetry_equiv_pos_as_xyz
  1  'x, y, z'
loop_
 _atom_site_type_symbol
 _atom_site_label
 _atom_site_symmetry_multiplicity
 _atom_site_fract_x
 _atom_site_fract_y
 _atom_site_fract_z
 _atom_site_occupancy
  Lu  Lu0  1  0.50000000  0.00000000  0.00000000  1
  Lu  Lu1  1  0.00000000  0.50000000  0.00000000  1
  Lu  Lu2  1  0.00000000  0.00000000  0.50000000  1
  Lu  Lu3  1  0.50000000  0.50000000  0.50000000  1
  Lu  Lu4  1  0.46922900  0.25000000  0.71922900  1
  Lu  Lu5  1  0.03077100  0.75000000  0.78077100  1
  Lu  Lu6  1  0.25000000  0.71922900  0.46922900  1
  Lu  Lu7  1  0.75000000  0.78077100  0.03077100  1
  Lu  Lu8  1  0.71922900  0.46922900  0.25000000  1
  Lu  Lu9  1  0.78077100  0.03077100  0.75000000  1
  Lu  Lu10  1  0.53077100  0.75000000  0.28077100  1
  Lu  Lu11  1  0.96922900  0.25000000  0.21922900  1
  Lu  Lu12  1  0.75000000  0.28077100  0.53077100  1
  Lu  Lu13  1  0.25000000  0.21922900  0.96922900  1
  Lu  Lu14  1  0.28077100  0.53077100  0.75000000  1
  Lu  Lu15  1  0.21922900  0.96922900  0.25000000  1
  N  N16  1  0.53092800  0.77004300  0.53932300  1
  N  N17  1  0.76928000  0.72995700  0.26088500  1
  N  N18  1  0.96907200  0.50839500  0.23911500  1
  N  N19  1  0.73072000  0.99160500  0.96067700  1
  N  N20  1  0.77004300  0.53932300  0.53092800  1
  N  N21  1  0.72995700  0.26088500  0.76928000  1
  N  N22  1  0.50839500  0.23911500  0.96907200  1
  N  N23  1  0.99160500  0.96067700  0.73072000  1
  N  N24  1  0.53932300  0.53092800  0.77004300  1
  N  N25  1  0.26088500  0.76928000  0.72995700  1
  N  N26  1  0.23911500  0.96907200  0.50839500  1
  N  N27  1  0.96067700  0.73072000  0.99160500  1
  N  N28  1  0.46907200  0.22995700  0.46067700  1
  N  N29  1  0.23072000  0.27004300  0.73911500  1
  N  N30  1  0.03092800  0.49160500  0.76088500  1
  N  N31  1  0.26928000  0.00839500  0.03932300  1
  N  N32  1  0.22995700  0.46067700  0.46907200  1
  N  N33  1  0.27004300  0.73911500  0.23072000  1
  N  N34  1  0.49160500  0.76088500  0.03092800  1
  N  N35  1  0.00839500  0.03932300  0.26928000  1
  N  N36  1  0.46067700  0.46907200  0.22995700  1
  N  N37  1  0.73911500  0.23072000  0.27004300  1
  N  N38  1  0.76088500  0.03092800  0.49160500  1
  N  N39  1  0.03932300  0.26928000  0.00839500  1
