# generated using pymatgen
data_AlB2P2H7O13
_symmetry_space_group_name_H-M   'P 1'
_cell_length_a   10.44914899
_cell_length_b   10.44914899
_cell_length_c   7.26816973
_cell_angle_alpha   85.23316800
_cell_angle_beta   85.23316800
_cell_angle_gamma   43.99072585
_symmetry_Int_Tables_number   1
_chemical_formula_structural   AlB2P2H7O13
_chemical_formula_sum   'Al2 B4 P4 H14 O26'
_cell_volume   548.95164050
_cell_formula_units_Z   2
loop_
 _symmetry_equiv_pos_site_id
 _symmetry_equiv_pos_as_xyz
  1  'x, y, z'
loop_
 _atom_site_type_symbol
 _atom_site_label
 _atom_site_symmetry_multiplicity
 _atom_site_fract_x
 _atom_site_fract_y
 _atom_site_fract_z
 _atom_site_occupancy
  Al  Al0  1  0.00000000  0.50000000  0.50000000  1
  Al  Al1  1  0.50000000  0.00000000  0.00000000  1
  B  B2  1  0.82664500  0.39073800  0.29512800  1
  B  B3  1  0.60926200  0.17335500  0.20487200  1
  B  B4  1  0.17335500  0.60926200  0.70487200  1
  B  B5  1  0.39073800  0.82664500  0.79512800  1
  P  P6  1  0.75225700  0.58204500  0.93021600  1
  P  P7  1  0.41795500  0.24774300  0.56978400  1
  P  P8  1  0.24774300  0.41795500  0.06978400  1
  P  P9  1  0.58204500  0.75225700  0.43021600  1
  H  H10  1  0.80969000  0.19031000  0.25000000  1
  H  H11  1  0.19031000  0.80969000  0.75000000  1
  H  H12  1  0.91170100  0.73406300  0.68481300  1
  H  H13  1  0.26593700  0.08829900  0.81518700  1
  H  H14  1  0.08829900  0.26593700  0.31518700  1
  H  H15  1  0.73406300  0.91170100  0.18481300  1
  H  H16  1  0.33714500  0.59643700  0.20279500  1
  H  H17  1  0.40356300  0.66285500  0.29720500  1
  H  H18  1  0.66285500  0.40356300  0.79720500  1
  H  H19  1  0.59643700  0.33714500  0.70279500  1
  H  H20  1  0.66095000  0.98801600  0.68268700  1
  H  H21  1  0.01198400  0.33905000  0.81731300  1
  H  H22  1  0.33905000  0.01198400  0.31731300  1
  H  H23  1  0.98801600  0.66095000  0.18268700  1
  O  O24  1  0.86110900  0.24480200  0.32286300  1
  O  O25  1  0.75519800  0.13889100  0.17713700  1
  O  O26  1  0.13889100  0.75519800  0.67713700  1
  O  O27  1  0.24480200  0.86110900  0.82286300  1
  O  O28  1  0.84669800  0.43250300  0.07985600  1
  O  O29  1  0.56749700  0.15330200  0.42014400  1
  O  O30  1  0.15330200  0.56749700  0.92014400  1
  O  O31  1  0.43250300  0.84669800  0.57985600  1
  O  O32  1  0.91888300  0.46492300  0.76531900  1
  O  O33  1  0.53507700  0.08111700  0.73468100  1
  O  O34  1  0.08111700  0.53507700  0.23468100  1
  O  O35  1  0.46492300  0.91888300  0.26531900  1
  O  O36  1  0.58308000  0.64060900  0.85632700  1
  O  O37  1  0.35939100  0.41692000  0.64367300  1
  O  O38  1  0.41692000  0.35939100  0.14367300  1
  O  O39  1  0.64060900  0.58308000  0.35632700  1
  O  O40  1  0.29229600  0.70770400  0.25000000  1
  O  O41  1  0.70770400  0.29229600  0.75000000  1
  O  O42  1  0.02326100  0.63019500  0.61926000  1
  O  O43  1  0.36980500  0.97673900  0.88074000  1
  O  O44  1  0.97673900  0.36980500  0.38074000  1
  O  O45  1  0.63019500  0.02326100  0.11926000  1
  O  O46  1  0.71599900  0.74928100  0.96732000  1
  O  O47  1  0.25071900  0.28400100  0.53268000  1
  O  O48  1  0.28400100  0.25071900  0.03268000  1
  O  O49  1  0.74928100  0.71599900  0.46732000  1
