# generated using pymatgen
data_ZnS
_symmetry_space_group_name_H-M   'P 1'
_cell_length_a   3.87732393
_cell_length_b   3.87732393
_cell_length_c   56.55532501
_cell_angle_alpha   88.03557115
_cell_angle_beta   88.03557115
_cell_angle_gamma   60.00000122
_symmetry_Int_Tables_number   1
_chemical_formula_structural   ZnS
_chemical_formula_sum   'Zn18 S18'
_cell_volume   735.74586673
_cell_formula_units_Z   18
loop_
 _symmetry_equiv_pos_site_id
 _symmetry_equiv_pos_as_xyz
  1  'x, y, z'
loop_
 _atom_site_type_symbol
 _atom_site_label
 _atom_site_symmetry_multiplicity
 _atom_site_fract_x
 _atom_site_fract_y
 _atom_site_fract_z
 _atom_site_occupancy
  Zn  Zn0  1  0.99999400  0.99999400  0.00001700  1
  Zn  Zn1  1  0.94443700  0.94443700  0.16669000  1
  Zn  Zn2  1  0.88888500  0.88888500  0.33334600  1
  Zn  Zn3  1  0.83332600  0.83332600  0.50002100  1
  Zn  Zn4  1  0.79627300  0.79627300  0.61118100  1
  Zn  Zn5  1  0.72221800  0.72221800  0.83334700  1
  Zn  Zn6  1  0.64814600  0.64814600  0.05556300  1
  Zn  Zn7  1  0.57406900  0.57406900  0.27779400  1
  Zn  Zn8  1  0.53703100  0.53703100  0.38890600  1
  Zn  Zn9  1  0.48144900  0.48144900  0.55565400  1
  Zn  Zn10  1  0.42592200  0.42592200  0.72223300  1
  Zn  Zn11  1  0.35185000  0.35185000  0.94445000  1
  Zn  Zn12  1  0.29629500  0.29629500  0.11111500  1
  Zn  Zn13  1  0.25925000  0.25925000  0.22225100  1
  Zn  Zn14  1  0.18518500  0.18518500  0.44444400  1
  Zn  Zn15  1  0.11110400  0.11110400  0.66668700  1
  Zn  Zn16  1  0.07407100  0.07407100  0.77778800  1
  Zn  Zn17  1  0.03703300  0.03703300  0.88890100  1
  S  S18  1  0.98612300  0.98612300  0.04163200  1
  S  S19  1  0.93055600  0.93055600  0.20833200  1
  S  S20  1  0.87499800  0.87499800  0.37500500  1
  S  S21  1  0.81946400  0.81946400  0.54160800  1
  S  S22  1  0.78241900  0.78241900  0.65274200  1
  S  S23  1  0.70833600  0.70833600  0.87499200  1
  S  S24  1  0.63427500  0.63427500  0.09717400  1
  S  S25  1  0.56020700  0.56020700  0.31938000  1
  S  S26  1  0.52316200  0.52316200  0.43051300  1
  S  S27  1  0.46755100  0.46755100  0.59734700  1
  S  S28  1  0.41204700  0.41204700  0.76386000  1
  S  S29  1  0.33796300  0.33796300  0.98611200  1
  S  S30  1  0.28243600  0.28243600  0.15269100  1
  S  S31  1  0.24538300  0.24538300  0.26385200  1
  S  S32  1  0.17131400  0.17131400  0.48605800  1
  S  S33  1  0.09725100  0.09725100  0.70824800  1
  S  S34  1  0.06021500  0.06021500  0.81935400  1
  S  S35  1  0.02317300  0.02317300  0.93048200  1
