# generated using pymatgen
data_PH9C2S(NO)4
_symmetry_space_group_name_H-M   'P 1'
_cell_length_a   4.60374500
_cell_length_b   8.37101823
_cell_length_c   11.88483519
_cell_angle_alpha   87.91218015
_cell_angle_beta   85.11702707
_cell_angle_gamma   86.05793243
_symmetry_Int_Tables_number   1
_chemical_formula_structural   PH9C2S(NO)4
_chemical_formula_sum   'P2 H18 C4 S2 N8 O8'
_cell_volume   455.06066778
_cell_formula_units_Z   2
loop_
 _symmetry_equiv_pos_site_id
 _symmetry_equiv_pos_as_xyz
  1  'x, y, z'
loop_
 _atom_site_type_symbol
 _atom_site_label
 _atom_site_symmetry_multiplicity
 _atom_site_fract_x
 _atom_site_fract_y
 _atom_site_fract_z
 _atom_site_occupancy
  P  P0  1  0.72465500  0.34221300  0.39245400  1
  P  P1  1  0.27534500  0.65778700  0.60754600  1
  H  H2  1  0.67116800  0.40754200  0.57015000  1
  H  H3  1  0.32883200  0.59245800  0.42985000  1
  H  H4  1  0.28779700  0.24557500  0.36462700  1
  H  H5  1  0.71220300  0.75442500  0.63537300  1
  H  H6  1  0.84380300  0.62718600  0.26670100  1
  H  H7  1  0.15619700  0.37281400  0.73329900  1
  H  H8  1  0.08197500  0.42064700  0.19421100  1
  H  H9  1  0.91802500  0.57935300  0.80578900  1
  H  H10  1  0.30421300  0.43476100  0.06737400  1
  H  H11  1  0.69578700  0.56523900  0.93262600  1
  H  H12  1  0.64051800  0.99473200  0.36963500  1
  H  H13  1  0.35948200  0.00526800  0.63036500  1
  H  H14  1  0.67196100  0.78676600  0.39582300  1
  H  H15  1  0.32803900  0.21323400  0.60417700  1
  H  H16  1  0.97465000  0.10179300  0.22884100  1
  H  H17  1  0.02535000  0.89820700  0.77115900  1
  H  H18  1  0.13320200  0.96780300  0.12118100  1
  H  H19  1  0.86679800  0.03219700  0.87881900  1
  C  C20  1  0.15133500  0.65049800  0.13005800  1
  C  C21  1  0.84866500  0.34950200  0.86994200  1
  C  C22  1  0.89753200  0.86499000  0.25112300  1
  C  C23  1  0.10246800  0.13501000  0.74887700  1
  S  S24  1  0.33896000  0.76293300  0.03201300  1
  S  S25  1  0.66104000  0.23706700  0.96798700  1
  N  N26  1  0.96475700  0.71029300  0.21886400  1
  N  N27  1  0.03524300  0.28970700  0.78113600  1
  N  N28  1  0.16549000  0.49083600  0.12766400  1
  N  N29  1  0.83451000  0.50916400  0.87233600  1
  N  N30  1  0.71564300  0.88277100  0.34392000  1
  N  N31  1  0.28435700  0.11722900  0.65608000  1
  N  N32  1  0.00012000  0.99034600  0.19370600  1
  N  N33  1  0.99988000  0.00965400  0.80629400  1
  O  O34  1  0.59331500  0.50538900  0.35427600  1
  O  O35  1  0.40668500  0.49461100  0.64572400  1
  O  O36  1  0.99378400  0.28035900  0.31797500  1
  O  O37  1  0.00621600  0.71964100  0.68202500  1
  O  O38  1  0.81782900  0.34206300  0.51796800  1
  O  O39  1  0.18217100  0.65793700  0.48203200  1
  O  O40  1  0.48738700  0.21083400  0.39552900  1
  O  O41  1  0.51261300  0.78916600  0.60447100  1
