# generated using pymatgen
data_BaTiMn2(SiO5)2
_symmetry_space_group_name_H-M   'P 1'
_cell_length_a   5.40664574
_cell_length_b   6.90965000
_cell_length_c   11.49844215
_cell_angle_alpha   90.00000000
_cell_angle_beta   96.46058370
_cell_angle_gamma   90.00000000
_symmetry_Int_Tables_number   1
_chemical_formula_structural   BaTiMn2(SiO5)2
_chemical_formula_sum   'Ba2 Ti2 Mn4 Si4 O20'
_cell_volume   426.83122705
_cell_formula_units_Z   2
loop_
 _symmetry_equiv_pos_site_id
 _symmetry_equiv_pos_as_xyz
  1  'x, y, z'
loop_
 _atom_site_type_symbol
 _atom_site_label
 _atom_site_symmetry_multiplicity
 _atom_site_fract_x
 _atom_site_fract_y
 _atom_site_fract_z
 _atom_site_occupancy
  Ba  Ba0  1  0.76686200  0.25000000  0.56899900  1
  Ba  Ba1  1  0.23313800  0.75000000  0.43100100  1
  Ti  Ti2  1  0.22904000  0.25000000  0.33626600  1
  Ti  Ti3  1  0.77096000  0.75000000  0.66373400  1
  Mn  Mn4  1  0.50408200  0.25000000  0.00320800  1
  Mn  Mn5  1  0.49591800  0.75000000  0.99679200  1
  Mn  Mn6  1  0.00000000  0.50000000  0.00000000  1
  Mn  Mn7  1  0.00000000  0.00000000  0.00000000  1
  Si  Si8  1  0.29600300  0.48077700  0.75456000  1
  Si  Si9  1  0.70399700  0.98077700  0.24544000  1
  Si  Si10  1  0.70399700  0.51922300  0.24544000  1
  Si  Si11  1  0.29600300  0.01922300  0.75456000  1
  O  O12  1  0.65871500  0.48805400  0.10139700  1
  O  O13  1  0.34128500  0.98805400  0.89860300  1
  O  O14  1  0.34128500  0.51194600  0.89860300  1
  O  O15  1  0.65871500  0.01194600  0.10139700  1
  O  O16  1  0.80657500  0.25000000  0.93295800  1
  O  O17  1  0.19342500  0.75000000  0.06704200  1
  O  O18  1  0.25144900  0.25000000  0.48739100  1
  O  O19  1  0.74855100  0.75000000  0.51260900  1
  O  O20  1  0.19476500  0.25000000  0.06799400  1
  O  O21  1  0.80523500  0.75000000  0.93200600  1
  O  O22  1  0.28115800  0.25000000  0.73514000  1
  O  O23  1  0.71884200  0.75000000  0.26486000  1
  O  O24  1  0.47821000  0.44661400  0.31547600  1
  O  O25  1  0.52179000  0.94661400  0.68452400  1
  O  O26  1  0.52179000  0.55338600  0.68452400  1
  O  O27  1  0.47821000  0.05338600  0.31547600  1
  O  O28  1  0.97431900  0.44579600  0.30309200  1
  O  O29  1  0.02568100  0.94579600  0.69690800  1
  O  O30  1  0.02568100  0.55420400  0.69690800  1
  O  O31  1  0.97431900  0.05420400  0.30309200  1
