# generated using pymatgen
data_Bi2B3HO8
_symmetry_space_group_name_H-M   'P 1'
_cell_length_a   6.10601800
_cell_length_b   11.55493500
_cell_length_c   19.59190100
_cell_angle_alpha   90.00000000
_cell_angle_beta   90.00000000
_cell_angle_gamma   90.00000000
_symmetry_Int_Tables_number   1
_chemical_formula_structural   Bi2B3HO8
_chemical_formula_sum   'Bi16 B24 H8 O64'
_cell_volume   1382.29954350
_cell_formula_units_Z   8
loop_
 _symmetry_equiv_pos_site_id
 _symmetry_equiv_pos_as_xyz
  1  'x, y, z'
loop_
 _atom_site_type_symbol
 _atom_site_label
 _atom_site_symmetry_multiplicity
 _atom_site_fract_x
 _atom_site_fract_y
 _atom_site_fract_z
 _atom_site_occupancy
  Bi  Bi0  1  0.70900800  0.84635200  0.32169100  1
  Bi  Bi1  1  0.20900800  0.65364800  0.67830900  1
  Bi  Bi2  1  0.29099200  0.34635200  0.17830900  1
  Bi  Bi3  1  0.79099200  0.15364800  0.82169100  1
  Bi  Bi4  1  0.29099200  0.15364800  0.67830900  1
  Bi  Bi5  1  0.79099200  0.34635200  0.32169100  1
  Bi  Bi6  1  0.70900800  0.65364800  0.82169100  1
  Bi  Bi7  1  0.20900800  0.84635200  0.17830900  1
  Bi  Bi8  1  0.29901200  0.09485400  0.30594100  1
  Bi  Bi9  1  0.79901200  0.40514600  0.69405900  1
  Bi  Bi10  1  0.70098800  0.59485400  0.19405900  1
  Bi  Bi11  1  0.20098800  0.90514600  0.80594100  1
  Bi  Bi12  1  0.70098800  0.90514600  0.69405900  1
  Bi  Bi13  1  0.20098800  0.59485400  0.30594100  1
  Bi  Bi14  1  0.29901200  0.40514600  0.80594100  1
  Bi  Bi15  1  0.79901200  0.09485400  0.19405900  1
  B  B16  1  0.35673300  0.84870400  0.43726200  1
  B  B17  1  0.85673300  0.65129600  0.56273800  1
  B  B18  1  0.64326700  0.34870400  0.06273800  1
  B  B19  1  0.14326700  0.15129600  0.93726200  1
  B  B20  1  0.64326700  0.15129600  0.56273800  1
  B  B21  1  0.14326700  0.34870400  0.43726200  1
  B  B22  1  0.35673300  0.65129600  0.93726200  1
  B  B23  1  0.85673300  0.84870400  0.06273800  1
  B  B24  1  0.76825400  0.07742600  0.44863800  1
  B  B25  1  0.26825400  0.42257400  0.55136200  1
  B  B26  1  0.23174600  0.57742600  0.05136200  1
  B  B27  1  0.73174600  0.92257400  0.94863800  1
  B  B28  1  0.23174600  0.92257400  0.55136200  1
  B  B29  1  0.73174600  0.57742600  0.44863800  1
  B  B30  1  0.76825400  0.42257400  0.94863800  1
  B  B31  1  0.26825400  0.07742600  0.05136200  1
  B  B32  1  0.45554700  0.20481600  0.45429100  1
  B  B33  1  0.95554700  0.29518400  0.54570900  1
  B  B34  1  0.54445300  0.70481600  0.04570900  1
  B  B35  1  0.04445300  0.79518400  0.95429100  1
  B  B36  1  0.54445300  0.79518400  0.54570900  1
  B  B37  1  0.04445300  0.70481600  0.45429100  1
  B  B38  1  0.45554700  0.29518400  0.95429100  1
  B  B39  1  0.95554700  0.20481600  0.04570900  1
  H  H40  1  0.03725600  0.98336900  0.43762000  1
  H  H41  1  0.53725600  0.51663100  0.56238000  1
  H  H42  1  0.96274400  0.48336900  0.06238000  1
  H  H43  1  0.46274400  0.01663100  0.93762000  1
  H  H44  1  0.96274400  0.01663100  0.56238000  1
  H  H45  1  0.46274400  0.48336900  0.43762000  1
  H  H46  1  0.03725600  0.51663100  0.93762000  1
  H  H47  1  0.53725600  0.98336900  0.06238000  1
  O  O48  1  0.43340600  0.90833500  0.37740100  1
  O  O49  1  0.93340600  0.59166500  0.62259900  1
  O  O50  1  0.56659400  0.40833500  0.12259900  1
  O  O51  1  0.06659400  0.09166500  0.87740100  1
  O  O52  1  0.56659400  0.09166500  0.62259900  1
  O  O53  1  0.06659400  0.40833500  0.37740100  1
  O  O54  1  0.43340600  0.59166500  0.87740100  1
  O  O55  1  0.93340600  0.90833500  0.12259900  1
  O  O56  1  0.30299400  0.25849200  0.41489100  1
  O  O57  1  0.80299400  0.24150800  0.58510900  1
  O  O58  1  0.69700600  0.75849200  0.08510900  1
  O  O59  1  0.19700600  0.74150800  0.91489100  1
  O  O60  1  0.69700600  0.74150800  0.58510900  1
  O  O61  1  0.19700600  0.75849200  0.41489100  1
  O  O62  1  0.30299400  0.24150800  0.91489100  1
  O  O63  1  0.80299400  0.25849200  0.08510900  1
  O  O64  1  0.58530700  0.98458500  0.25739300  1
  O  O65  1  0.08530700  0.51541500  0.74260700  1
  O  O66  1  0.41469300  0.48458500  0.24260700  1
  O  O67  1  0.91469300  0.01541500  0.75739300  1
  O  O68  1  0.41469300  0.01541500  0.74260700  1
  O  O69  1  0.91469300  0.48458500  0.25739300  1
  O  O70  1  0.58530700  0.51541500  0.75739300  1
  O  O71  1  0.08530700  0.98458500  0.24260700  1
  O  O72  1  0.61328500  0.14486900  0.41510600  1
  O  O73  1  0.11328500  0.35513100  0.58489400  1
  O  O74  1  0.38671500  0.64486900  0.08489400  1
  O  O75  1  0.88671500  0.85513100  0.91510600  1
  O  O76  1  0.38671500  0.85513100  0.58489400  1
  O  O77  1  0.88671500  0.64486900  0.41510600  1
  O  O78  1  0.61328500  0.35513100  0.91510600  1
  O  O79  1  0.11328500  0.14486900  0.08489400  1
  O  O80  1  0.91835300  0.01954500  0.40871600  1
  O  O81  1  0.41835300  0.48045500  0.59128400  1
  O  O82  1  0.08164700  0.51954500  0.09128400  1
  O  O83  1  0.58164700  0.98045500  0.90871600  1
  O  O84  1  0.08164700  0.98045500  0.59128400  1
  O  O85  1  0.58164700  0.51954500  0.40871600  1
  O  O86  1  0.91835300  0.48045500  0.90871600  1
  O  O87  1  0.41835300  0.01954500  0.09128400  1
  O  O88  1  0.53743900  0.79392800  0.47632700  1
  O  O89  1  0.03743900  0.70607200  0.52367300  1
  O  O90  1  0.46256100  0.29392800  0.02367300  1
  O  O91  1  0.96256100  0.20607200  0.97632700  1
  O  O92  1  0.46256100  0.20607200  0.52367300  1
  O  O93  1  0.96256100  0.29392800  0.47632700  1
  O  O94  1  0.53743900  0.70607200  0.97632700  1
  O  O95  1  0.03743900  0.79392800  0.02367300  1
  O  O96  1  0.52297200  0.71134200  0.26782500  1
  O  O97  1  0.02297200  0.78865800  0.73217500  1
  O  O98  1  0.47702800  0.21134200  0.23217500  1
  O  O99  1  0.97702800  0.28865800  0.76782500  1
  O  O100  1  0.47702800  0.28865800  0.73217500  1
  O  O101  1  0.97702800  0.21134200  0.26782500  1
  O  O102  1  0.52297200  0.78865800  0.76782500  1
  O  O103  1  0.02297200  0.71134200  0.23217500  1
  O  O104  1  0.23558700  0.93318200  0.48182400  1
  O  O105  1  0.73558700  0.56681800  0.51817600  1
  O  O106  1  0.76441300  0.43318200  0.01817600  1
  O  O107  1  0.26441300  0.06681800  0.98182400  1
  O  O108  1  0.76441300  0.06681800  0.51817600  1
  O  O109  1  0.26441300  0.43318200  0.48182400  1
  O  O110  1  0.23558700  0.56681800  0.98182400  1
  O  O111  1  0.73558700  0.93318200  0.01817600  1
