# generated using pymatgen
data_CaH36W6C12S6O25
_symmetry_space_group_name_H-M   'P 1'
_cell_length_a   8.70346600
_cell_length_b   11.93359793
_cell_length_c   11.95108994
_cell_angle_alpha   83.82770518
_cell_angle_beta   73.13879322
_cell_angle_gamma   74.18097320
_symmetry_Int_Tables_number   1
_chemical_formula_structural   CaH36W6C12S6O25
_chemical_formula_sum   'Ca1 H36 W6 C12 S6 O25'
_cell_volume   1142.38619308
_cell_formula_units_Z   1
loop_
 _symmetry_equiv_pos_site_id
 _symmetry_equiv_pos_as_xyz
  1  'x, y, z'
loop_
 _atom_site_type_symbol
 _atom_site_label
 _atom_site_symmetry_multiplicity
 _atom_site_fract_x
 _atom_site_fract_y
 _atom_site_fract_z
 _atom_site_occupancy
  Ca  Ca0  1  0.00000000  0.50000000  0.50000000  1
  H  H1  1  0.18940200  0.49804200  0.81782300  1
  H  H2  1  0.81059800  0.50195800  0.18217700  1
  H  H3  1  0.12996800  0.65104900  0.84997000  1
  H  H4  1  0.87003200  0.34895100  0.15003000  1
  H  H5  1  0.00344800  0.59096000  0.78791000  1
  H  H6  1  0.99655200  0.40904000  0.21209000  1
  H  H7  1  0.19342900  0.79263500  0.54101600  1
  H  H8  1  0.80657100  0.20736500  0.45898400  1
  H  H9  1  0.00453000  0.75897200  0.63037100  1
  H  H10  1  0.99547000  0.24102800  0.36962900  1
  H  H11  1  0.13088600  0.81348000  0.69688900  1
  H  H12  1  0.86911400  0.18652000  0.30311100  1
  H  H13  1  0.93944000  0.91399600  0.27900200  1
  H  H14  1  0.06056000  0.08600400  0.72099800  1
  H  H15  1  0.71964500  0.97245700  0.32490000  1
  H  H16  1  0.28035500  0.02754300  0.67510000  1
  H  H17  1  0.83749500  0.94198300  0.43275900  1
  H  H18  1  0.16250500  0.05801700  0.56724100  1
  H  H19  1  0.57551700  0.71296000  0.50211100  1
  H  H20  1  0.42448300  0.28704000  0.49788900  1
  H  H21  1  0.62585600  0.82799100  0.55959500  1
  H  H22  1  0.37414400  0.17200900  0.44040500  1
  H  H23  1  0.51151400  0.86069300  0.44942500  1
  H  H24  1  0.48848600  0.13930700  0.55057500  1
  H  H25  1  0.76089200  0.52591300  0.93799100  1
  H  H26  1  0.23910800  0.47408700  0.06200900  1
  H  H27  1  0.65376000  0.41252500  0.95919400  1
  H  H28  1  0.34624000  0.58747500  0.04080600  1
  H  H29  1  0.86064600  0.39058700  0.86257600  1
  H  H30  1  0.13935400  0.60941300  0.13742400  1
  H  H31  1  0.57117800  0.41789900  0.66007300  1
  H  H32  1  0.42882200  0.58210100  0.33992700  1
  H  H33  1  0.75029700  0.32889500  0.70248200  1
  H  H34  1  0.24970300  0.67110500  0.29751800  1
  H  H35  1  0.54641300  0.35139800  0.80514600  1
  H  H36  1  0.45358700  0.64860200  0.19485400  1
  W  W37  1  0.69696700  0.82586800  0.02881000  1
  W  W38  1  0.30303300  0.17413200  0.97119000  1
  W  W39  1  0.64958900  0.00682500  0.80051000  1
  W  W40  1  0.35041100  0.99317500  0.19949000  1
  W  W41  1  0.33849500  0.88937100  0.95340500  1
  W  W42  1  0.66150500  0.11062900  0.04659500  1
  C  C43  1  0.12957200  0.58615300  0.79157300  1
  C  C44  1  0.87042800  0.41384700  0.20842700  1
  C  C45  1  0.13115800  0.76076500  0.62700700  1
  C  C46  1  0.86884200  0.23923500  0.37299300  1
  C  C47  1  0.82695800  0.91522500  0.35073000  1
  C  C48  1  0.17304200  0.08477500  0.64927000  1
  C  C49  1  0.60699700  0.79709500  0.48248200  1
  C  C50  1  0.39300300  0.20290500  0.51751800  1
  C  C51  1  0.74258100  0.45478200  0.89661100  1
  C  C52  1  0.25741900  0.54521800  0.10338900  1
  C  C53  1  0.62793800  0.38988100  0.73240100  1
  C  C54  1  0.37206200  0.61011900  0.26759900  1
  S  S55  1  0.24820100  0.61457200  0.64666300  1
  S  S56  1  0.75179900  0.38542800  0.35333700  1
  S  S57  1  0.79800100  0.76997100  0.36736700  1
  S  S58  1  0.20199900  0.23002900  0.63263300  1
  S  S59  1  0.65504900  0.51977600  0.77853800  1
  S  S60  1  0.34495100  0.48022400  0.22146200  1
  O  O61  1  0.21188900  0.54005800  0.56625100  1
  O  O62  1  0.78811100  0.45994200  0.43374900  1
  O  O63  1  0.92938600  0.69495000  0.42415200  1
  O  O64  1  0.07061400  0.30505000  0.57584800  1
  O  O65  1  0.79504400  0.55269100  0.68200000  1
  O  O66  1  0.20495600  0.44730900  0.31800000  1
  O  O67  1  0.50000000  0.00000000  0.00000000  1
  O  O68  1  0.52785800  0.77073600  0.98681300  1
  O  O69  1  0.47214200  0.22926400  0.01318700  1
  O  O70  1  0.83834900  0.69582400  0.04995000  1
  O  O71  1  0.16165100  0.30417600  0.95005000  1
  O  O72  1  0.77786900  0.86506500  0.86251200  1
  O  O73  1  0.22213100  0.13493500  0.13748800  1
  O  O74  1  0.49069100  0.91680200  0.80183500  1
  O  O75  1  0.50930900  0.08319800  0.19816500  1
  O  O76  1  0.22351000  0.80683700  0.91697100  1
  O  O77  1  0.77649000  0.19316300  0.08302900  1
  O  O78  1  0.78656500  0.94880000  0.06114700  1
  O  O79  1  0.21343500  0.05120000  0.93885300  1
  O  O80  1  0.53751900  0.85450300  0.18431600  1
  O  O81  1  0.46248100  0.14549700  0.81568400  1
  O  O82  1  0.75758900  0.01180500  0.65247200  1
  O  O83  1  0.24241100  0.98819500  0.34752800  1
  O  O84  1  0.75008800  0.09465900  0.87627500  1
  O  O85  1  0.24991200  0.90534100  0.12372500  1
