# generated using pymatgen
data_BaLa2Ti3O10
_symmetry_space_group_name_H-M   'P 1'
_cell_length_a   14.55381407
_cell_length_b   14.55381407
_cell_length_c   7.74101900
_cell_angle_alpha   90.00000000
_cell_angle_beta   90.00000000
_cell_angle_gamma   164.47485273
_symmetry_Int_Tables_number   1
_chemical_formula_structural   BaLa2Ti3O10
_chemical_formula_sum   'Ba2 La4 Ti6 O20'
_cell_volume   438.87146608
_cell_formula_units_Z   2
loop_
 _symmetry_equiv_pos_site_id
 _symmetry_equiv_pos_as_xyz
  1  'x, y, z'
loop_
 _atom_site_type_symbol
 _atom_site_label
 _atom_site_symmetry_multiplicity
 _atom_site_fract_x
 _atom_site_fract_y
 _atom_site_fract_z
 _atom_site_occupancy
  Ba  Ba0  1  0.28503900  0.75279500  0.75000000  1
  Ba  Ba1  1  0.75279500  0.28503900  0.25000000  1
  La  La2  1  0.60446700  0.45171500  0.75000000  1
  La  La3  1  0.45171500  0.60446700  0.25000000  1
  La  La4  1  0.45468900  0.60324000  0.75000000  1
  La  La5  1  0.60324000  0.45468900  0.25000000  1
  Ti  Ti6  1  0.02146100  0.02146100  0.50000000  1
  Ti  Ti7  1  0.02146100  0.02146100  0.00000000  1
  Ti  Ti8  1  0.16574400  0.87390700  0.49979400  1
  Ti  Ti9  1  0.87390700  0.16574400  0.50020600  1
  Ti  Ti10  1  0.16574400  0.87390700  0.00020600  1
  Ti  Ti11  1  0.87390700  0.16574400  0.99979400  1
  O  O12  1  0.50252000  0.50252000  0.50000000  1
  O  O13  1  0.50252000  0.50252000  0.00000000  1
  O  O14  1  0.98419900  0.99294800  0.75000000  1
  O  O15  1  0.99294800  0.98419900  0.25000000  1
  O  O16  1  0.88702600  0.14504400  0.75000000  1
  O  O17  1  0.14504400  0.88702600  0.25000000  1
  O  O18  1  0.15154100  0.87991800  0.75000000  1
  O  O19  1  0.87991800  0.15154100  0.25000000  1
  O  O20  1  0.06984600  0.93536600  0.51372400  1
  O  O21  1  0.93536600  0.06984600  0.48627600  1
  O  O22  1  0.06984600  0.93536600  0.98627600  1
  O  O23  1  0.93536600  0.06984600  0.01372400  1
  O  O24  1  0.22523600  0.81051200  0.47523200  1
  O  O25  1  0.81051200  0.22523600  0.52476800  1
  O  O26  1  0.22523600  0.81051200  0.02476800  1
  O  O27  1  0.81051200  0.22523600  0.97523200  1
  O  O28  1  0.64698600  0.38251200  0.49598400  1
  O  O29  1  0.38251200  0.64698600  0.50401600  1
  O  O30  1  0.64698600  0.38251200  0.00401600  1
  O  O31  1  0.38251200  0.64698600  0.99598400  1
