# generated using pymatgen
data_SiC
_symmetry_space_group_name_H-M   'P 1'
_cell_length_a   3.09453978
_cell_length_b   3.09453978
_cell_length_c   43.05435410
_cell_angle_alpha   87.94048340
_cell_angle_beta   87.94048340
_cell_angle_gamma   60.00000468
_symmetry_Int_Tables_number   1
_chemical_formula_structural   SiC
_chemical_formula_sum   'Si17 C17'
_cell_volume   356.75134353
_cell_formula_units_Z   17
loop_
 _symmetry_equiv_pos_site_id
 _symmetry_equiv_pos_as_xyz
  1  'x, y, z'
loop_
 _atom_site_type_symbol
 _atom_site_label
 _atom_site_symmetry_multiplicity
 _atom_site_fract_x
 _atom_site_fract_y
 _atom_site_fract_z
 _atom_site_occupancy
  Si  Si0  1  0.00000900  0.00000900  0.99997200  1
  Si  Si1  1  0.96079800  0.96079800  0.11760700  1
  Si  Si2  1  0.88238700  0.88238700  0.35283800  1
  Si  Si3  1  0.84313000  0.84313000  0.47060900  1
  Si  Si4  1  0.76471900  0.76471900  0.70584300  1
  Si  Si5  1  0.72549900  0.72549900  0.82350300  1
  Si  Si6  1  0.64708500  0.64708500  0.05874400  1
  Si  Si7  1  0.58822800  0.58822800  0.23531600  1
  Si  Si8  1  0.52942000  0.52942000  0.41174000  1
  Si  Si9  1  0.47059800  0.47059800  0.58820600  1
  Si  Si10  1  0.41178600  0.41178600  0.76464300  1
  Si  Si11  1  0.35292800  0.35292800  0.94121600  1
  Si  Si12  1  0.27452300  0.27452300  0.17643200  1
  Si  Si13  1  0.23529800  0.23529800  0.29410700  1
  Si  Si14  1  0.15689100  0.15689100  0.52932800  1
  Si  Si15  1  0.11763100  0.11763100  0.64710700  1
  Si  Si16  1  0.03922400  0.03922400  0.88232900  1
  C  C17  1  0.98531900  0.98531900  0.04404400  1
  C  C18  1  0.94609200  0.94609200  0.16172400  1
  C  C19  1  0.86768500  0.86768500  0.39694400  1
  C  C20  1  0.82842400  0.82842400  0.51472700  1
  C  C21  1  0.75001400  0.75001400  0.74995700  1
  C  C22  1  0.71079200  0.71079200  0.86762300  1
  C  C23  1  0.63234000  0.63234000  0.10297900  1
  C  C24  1  0.57348600  0.57348600  0.27954100  1
  C  C25  1  0.51467600  0.51467600  0.45597100  1
  C  C26  1  0.45585000  0.45585000  0.63244900  1
  C  C27  1  0.39704300  0.39704300  0.80887100  1
  C  C28  1  0.33818800  0.33818800  0.98543500  1
  C  C29  1  0.25981800  0.25981800  0.22054700  1
  C  C30  1  0.22059400  0.22059400  0.33821900  1
  C  C31  1  0.14218300  0.14218300  0.57345000  1
  C  C32  1  0.10292600  0.10292600  0.69122200  1
  C  C33  1  0.02451400  0.02451400  0.92645800  1
