# generated using pymatgen
data_HgSO4
_symmetry_space_group_name_H-M   'P 1'
_cell_length_a   14.13894100
_cell_length_b   5.17799200
_cell_length_c   11.64841731
_cell_angle_alpha   78.73364263
_cell_angle_beta   90.00000000
_cell_angle_gamma   90.00000000
_symmetry_Int_Tables_number   1
_chemical_formula_structural   HgSO4
_chemical_formula_sum   'Hg8 S8 O32'
_cell_volume   836.36227817
_cell_formula_units_Z   8
loop_
 _symmetry_equiv_pos_site_id
 _symmetry_equiv_pos_as_xyz
  1  'x, y, z'
loop_
 _atom_site_type_symbol
 _atom_site_label
 _atom_site_symmetry_multiplicity
 _atom_site_fract_x
 _atom_site_fract_y
 _atom_site_fract_z
 _atom_site_occupancy
  Hg  Hg0  1  0.13605000  0.79038600  0.10291200  1
  Hg  Hg1  1  0.63605000  0.20961400  0.39708800  1
  Hg  Hg2  1  0.86395000  0.20961400  0.89708800  1
  Hg  Hg3  1  0.36395000  0.79038600  0.60291200  1
  Hg  Hg4  1  0.13789000  0.84261800  0.31974800  1
  Hg  Hg5  1  0.63789000  0.15738200  0.18025200  1
  Hg  Hg6  1  0.86211000  0.15738200  0.68025200  1
  Hg  Hg7  1  0.36211000  0.84261800  0.81974800  1
  S  S8  1  0.11317300  0.48630900  0.87702900  1
  S  S9  1  0.61317300  0.51369100  0.62297100  1
  S  S10  1  0.88682700  0.51369100  0.12297100  1
  S  S11  1  0.38682700  0.48630900  0.37702900  1
  S  S12  1  0.12718100  0.15912100  0.53584000  1
  S  S13  1  0.62718100  0.84087900  0.96416000  1
  S  S14  1  0.87281900  0.84087900  0.46416000  1
  S  S15  1  0.37281900  0.15912100  0.03584000  1
  O  O16  1  0.07540600  0.28234000  0.97243100  1
  O  O17  1  0.57540600  0.71766000  0.52756900  1
  O  O18  1  0.92459400  0.71766000  0.02756900  1
  O  O19  1  0.42459400  0.28234000  0.47243100  1
  O  O20  1  0.19348100  0.39311100  0.81362900  1
  O  O21  1  0.69348100  0.60688900  0.68637100  1
  O  O22  1  0.80651900  0.60688900  0.18637100  1
  O  O23  1  0.30651900  0.39311100  0.31362900  1
  O  O24  1  0.14719700  0.72509800  0.92226900  1
  O  O25  1  0.64719700  0.27490200  0.57773100  1
  O  O26  1  0.85280300  0.27490200  0.07773100  1
  O  O27  1  0.35280300  0.72509800  0.42226900  1
  O  O28  1  0.03938100  0.56553800  0.78569400  1
  O  O29  1  0.53938100  0.43446200  0.71430600  1
  O  O30  1  0.96061900  0.43446200  0.21430600  1
  O  O31  1  0.46061900  0.56553800  0.28569400  1
  O  O32  1  0.09107100  0.34534400  0.43375900  1
  O  O33  1  0.59107100  0.65465600  0.06624100  1
  O  O34  1  0.90892900  0.65465600  0.56624100  1
  O  O35  1  0.40892900  0.34534400  0.93375900  1
  O  O36  1  0.05667300  0.09035700  0.63172200  1
  O  O37  1  0.55667300  0.90964300  0.86827800  1
  O  O38  1  0.94332700  0.90964300  0.36827800  1
  O  O39  1  0.44332700  0.09035700  0.13172200  1
  O  O40  1  0.16154600  0.90891800  0.49977000  1
  O  O41  1  0.66154600  0.09108200  0.00023000  1
  O  O42  1  0.83845400  0.09108200  0.50023000  1
  O  O43  1  0.33845400  0.90891800  0.99977000  1
  O  O44  1  0.20661400  0.26794900  0.59603700  1
  O  O45  1  0.70661400  0.73205100  0.90396300  1
  O  O46  1  0.79338600  0.73205100  0.40396300  1
  O  O47  1  0.29338600  0.26794900  0.09603700  1
