# generated using pymatgen
data_K2SnOF6
_symmetry_space_group_name_H-M   'P 1'
_cell_length_a   11.25972040
_cell_length_b   10.78638592
_cell_length_c   9.18243904
_cell_angle_alpha   68.10105760
_cell_angle_beta   62.72766723
_cell_angle_gamma   49.17127517
_symmetry_Int_Tables_number   1
_chemical_formula_structural   K2SnOF6
_chemical_formula_sum   'K8 Sn4 O4 F24'
_cell_volume   745.57034134
_cell_formula_units_Z   4
loop_
 _symmetry_equiv_pos_site_id
 _symmetry_equiv_pos_as_xyz
  1  'x, y, z'
loop_
 _atom_site_type_symbol
 _atom_site_label
 _atom_site_symmetry_multiplicity
 _atom_site_fract_x
 _atom_site_fract_y
 _atom_site_fract_z
 _atom_site_occupancy
  K  K0  1  0.12122800  0.12122800  0.87877200  1
  K  K1  1  0.87877200  0.87877200  0.12122800  1
  K  K2  1  0.12877200  0.12877200  0.37122800  1
  K  K3  1  0.37122800  0.37122800  0.12877200  1
  K  K4  1  0.29691500  0.70308500  0.70308500  1
  K  K5  1  0.70308500  0.29691500  0.29691500  1
  K  K6  1  0.95308500  0.54691500  0.54691500  1
  K  K7  1  0.54691500  0.95308500  0.95308500  1
  Sn  Sn8  1  0.78303000  0.21697000  0.78303000  1
  Sn  Sn9  1  0.21697000  0.78303000  0.21697000  1
  Sn  Sn10  1  0.46697000  0.03303000  0.46697000  1
  Sn  Sn11  1  0.03303000  0.46697000  0.03303000  1
  O  O12  1  0.39851200  0.39851200  0.60148800  1
  O  O13  1  0.60148800  0.60148800  0.39851200  1
  O  O14  1  0.85148800  0.85148800  0.64851200  1
  O  O15  1  0.64851200  0.64851200  0.85148800  1
  F  F16  1  0.92431200  0.29819400  0.65343000  1
  F  F17  1  0.12406300  0.65343000  0.29819400  1
  F  F18  1  0.65343000  0.12406300  0.92431200  1
  F  F19  1  0.29819400  0.92431200  0.12406300  1
  F  F20  1  0.32568800  0.95180600  0.59657000  1
  F  F21  1  0.12593700  0.59657000  0.95180600  1
  F  F22  1  0.59657000  0.12593700  0.32568800  1
  F  F23  1  0.95180600  0.32568800  0.12593700  1
  F  F24  1  0.99072600  0.98845300  0.78852100  1
  F  F25  1  0.23230100  0.78852100  0.98845300  1
  F  F26  1  0.78852100  0.23230100  0.99072600  1
  F  F27  1  0.98845300  0.99072600  0.23230100  1
  F  F28  1  0.25927400  0.26154700  0.46147900  1
  F  F29  1  0.01769900  0.46147900  0.26154700  1
  F  F30  1  0.46147900  0.01769900  0.25927400  1
  F  F31  1  0.26154700  0.25927400  0.01769900  1
  F  F32  1  0.57104200  0.44204100  0.79455100  1
  F  F33  1  0.19236500  0.79455100  0.44204100  1
  F  F34  1  0.79455100  0.19236500  0.57104200  1
  F  F35  1  0.44204100  0.57104200  0.19236500  1
  F  F36  1  0.67895800  0.80795900  0.45544900  1
  F  F37  1  0.05763500  0.45544900  0.80795900  1
  F  F38  1  0.45544900  0.05763500  0.67895800  1
  F  F39  1  0.80795900  0.67895800  0.05763500  1
