# generated using pymatgen
data_CeRh2O5
_symmetry_space_group_name_H-M   'P 1'
_cell_length_a   5.21731500
_cell_length_b   7.28589000
_cell_length_c   9.91561000
_cell_angle_alpha   90.00000000
_cell_angle_beta   90.00000000
_cell_angle_gamma   90.00000000
_symmetry_Int_Tables_number   1
_chemical_formula_structural   CeRh2O5
_chemical_formula_sum   'Ce4 Rh8 O20'
_cell_volume   376.91993308
_cell_formula_units_Z   4
loop_
 _symmetry_equiv_pos_site_id
 _symmetry_equiv_pos_as_xyz
  1  'x, y, z'
loop_
 _atom_site_type_symbol
 _atom_site_label
 _atom_site_symmetry_multiplicity
 _atom_site_fract_x
 _atom_site_fract_y
 _atom_site_fract_z
 _atom_site_occupancy
  Ce  Ce0  1  0.29548200  0.76353400  0.25000000  1
  Ce  Ce1  1  0.20451800  0.26353400  0.25000000  1
  Ce  Ce2  1  0.70451800  0.23646600  0.75000000  1
  Ce  Ce3  1  0.79548200  0.73646600  0.75000000  1
  Rh  Rh4  1  0.24996200  0.91638500  0.55921200  1
  Rh  Rh5  1  0.25003800  0.41638500  0.94078800  1
  Rh  Rh6  1  0.75003800  0.08361500  0.05921200  1
  Rh  Rh7  1  0.74996200  0.58361500  0.44078800  1
  Rh  Rh8  1  0.75003800  0.08361500  0.44078800  1
  Rh  Rh9  1  0.74996200  0.58361500  0.05921200  1
  Rh  Rh10  1  0.24996200  0.91638500  0.94078800  1
  Rh  Rh11  1  0.25003800  0.41638500  0.55921200  1
  O  O12  1  0.56527400  0.83441200  0.44306400  1
  O  O13  1  0.93472600  0.33441200  0.05693600  1
  O  O14  1  0.43472600  0.16558800  0.94306400  1
  O  O15  1  0.06527400  0.66558800  0.55693600  1
  O  O16  1  0.43472600  0.16558800  0.55693600  1
  O  O17  1  0.06527400  0.66558800  0.94306400  1
  O  O18  1  0.56527400  0.83441200  0.05693600  1
  O  O19  1  0.93472600  0.33441200  0.44306400  1
  O  O20  1  0.40566400  0.48356100  0.37764800  1
  O  O21  1  0.09433600  0.98356100  0.12235200  1
  O  O22  1  0.59433600  0.51643900  0.87764800  1
  O  O23  1  0.90566400  0.01643900  0.62235200  1
  O  O24  1  0.59433600  0.51643900  0.62235200  1
  O  O25  1  0.90566400  0.01643900  0.87764800  1
  O  O26  1  0.40566400  0.48356100  0.12235200  1
  O  O27  1  0.09433600  0.98356100  0.37764800  1
  O  O28  1  0.58043800  0.12222600  0.25000000  1
  O  O29  1  0.91956200  0.62222600  0.25000000  1
  O  O30  1  0.41956200  0.87777400  0.75000000  1
  O  O31  1  0.08043800  0.37777400  0.75000000  1
