# generated using pymatgen
data_Ba2YCu3(PbO4)2
_symmetry_space_group_name_H-M   'P 1'
_cell_length_a   5.49909700
_cell_length_b   5.56115700
_cell_length_c   16.56940400
_cell_angle_alpha   90.00000000
_cell_angle_beta   90.00000000
_cell_angle_gamma   90.00000000
_symmetry_Int_Tables_number   1
_chemical_formula_structural   Ba2YCu3(PbO4)2
_chemical_formula_sum   'Ba4 Y2 Cu6 Pb4 O16'
_cell_volume   506.71460674
_cell_formula_units_Z   2
loop_
 _symmetry_equiv_pos_site_id
 _symmetry_equiv_pos_as_xyz
  1  'x, y, z'
loop_
 _atom_site_type_symbol
 _atom_site_label
 _atom_site_symmetry_multiplicity
 _atom_site_fract_x
 _atom_site_fract_y
 _atom_site_fract_z
 _atom_site_occupancy
  Ba  Ba0  1  0.75046700  0.99774500  0.27671100  1
  Ba  Ba1  1  0.75046700  0.00225500  0.72328900  1
  Ba  Ba2  1  0.24953300  0.49774500  0.72328900  1
  Ba  Ba3  1  0.24953300  0.50225500  0.27671100  1
  Y  Y4  1  0.74973600  0.00000000  0.50000000  1
  Y  Y5  1  0.25026400  0.50000000  0.50000000  1
  Cu  Cu6  1  0.76813700  0.00000000  0.00000000  1
  Cu  Cu7  1  0.23186300  0.50000000  0.00000000  1
  Cu  Cu8  1  0.74993700  0.49964800  0.40065400  1
  Cu  Cu9  1  0.74993700  0.50035200  0.59934600  1
  Cu  Cu10  1  0.25006300  0.99964800  0.59934600  1
  Cu  Cu11  1  0.25006300  0.00035200  0.40065400  1
  Pb  Pb12  1  0.76079300  0.50894500  0.11004100  1
  Pb  Pb13  1  0.76079300  0.49105500  0.88995900  1
  Pb  Pb14  1  0.23920700  0.00894500  0.88995900  1
  Pb  Pb15  1  0.23920700  0.99105500  0.11004100  1
  O  O16  1  0.74802100  0.49424700  0.24351300  1
  O  O17  1  0.74802100  0.50575300  0.75648700  1
  O  O18  1  0.25197900  0.99424700  0.75648700  1
  O  O19  1  0.25197900  0.00575300  0.24351300  1
  O  O20  1  0.78269200  0.92960100  0.10925600  1
  O  O21  1  0.78269200  0.07039900  0.89074400  1
  O  O22  1  0.21730800  0.42960100  0.89074400  1
  O  O23  1  0.21730800  0.57039900  0.10925600  1
  O  O24  1  0.50000000  0.75000000  0.58704900  1
  O  O25  1  0.50000000  0.25000000  0.41295100  1
  O  O26  1  0.00000000  0.75000000  0.41231600  1
  O  O27  1  0.00000000  0.25000000  0.58768400  1
  O  O28  1  0.50000000  0.75000000  0.41237000  1
  O  O29  1  0.50000000  0.25000000  0.58763000  1
  O  O30  1  0.00000000  0.75000000  0.58733200  1
  O  O31  1  0.00000000  0.25000000  0.41266800  1
