# generated using pymatgen
data_K2FeGe3Se8
_symmetry_space_group_name_H-M   'P 1'
_cell_length_a   12.62525500
_cell_length_b   7.58193300
_cell_length_c   17.84604931
_cell_angle_alpha   84.04223382
_cell_angle_beta   90.00000000
_cell_angle_gamma   90.00000000
_symmetry_Int_Tables_number   1
_chemical_formula_structural   K2FeGe3Se8
_chemical_formula_sum   'K8 Fe4 Ge12 Se32'
_cell_volume   1699.06528267
_cell_formula_units_Z   4
loop_
 _symmetry_equiv_pos_site_id
 _symmetry_equiv_pos_as_xyz
  1  'x, y, z'
loop_
 _atom_site_type_symbol
 _atom_site_label
 _atom_site_symmetry_multiplicity
 _atom_site_fract_x
 _atom_site_fract_y
 _atom_site_fract_z
 _atom_site_occupancy
  K  K0  1  0.24224500  0.25844300  0.20551700  1
  K  K1  1  0.74224500  0.74155700  0.79448300  1
  K  K2  1  0.91929700  0.27710500  0.07955600  1
  K  K3  1  0.41929700  0.72289500  0.92044400  1
  K  K4  1  0.29210600  0.26293000  0.57689400  1
  K  K5  1  0.79210600  0.73707000  0.42310600  1
  K  K6  1  0.95831900  0.24195200  0.69494900  1
  K  K7  1  0.45831900  0.75804800  0.30505100  1
  Fe  Fe8  1  0.10159900  0.50724700  0.90848800  1
  Fe  Fe9  1  0.60159900  0.49275300  0.09151200  1
  Fe  Fe10  1  0.09807400  0.05246300  0.39329300  1
  Fe  Fe11  1  0.59807400  0.94753700  0.60670700  1
  Ge  Ge12  1  0.17184500  0.76625600  0.73512700  1
  Ge  Ge13  1  0.67184500  0.23374400  0.26487300  1
  Ge  Ge14  1  0.14692300  0.75212900  0.07332600  1
  Ge  Ge15  1  0.64692300  0.24787100  0.92667400  1
  Ge  Ge16  1  0.05835400  0.77179600  0.57273400  1
  Ge  Ge17  1  0.55835400  0.22820400  0.42726600  1
  Ge  Ge18  1  0.08187400  0.01240500  0.89350000  1
  Ge  Ge19  1  0.58187400  0.98759500  0.10650000  1
  Ge  Ge20  1  0.03411200  0.81115300  0.23121100  1
  Ge  Ge21  1  0.53411200  0.18884700  0.76878900  1
  Ge  Ge22  1  0.12145100  0.54661400  0.40312300  1
  Ge  Ge23  1  0.62145100  0.45338600  0.59687700  1
  Se  Se24  1  0.19118800  0.05585900  0.77790200  1
  Se  Se25  1  0.69118800  0.94414100  0.22209800  1
  Se  Se26  1  0.18595900  0.47108600  0.03400600  1
  Se  Se27  1  0.68595900  0.52891400  0.96599400  1
  Se  Se28  1  0.21706600  0.99871600  0.99307800  1
  Se  Se29  1  0.71706600  0.00128400  0.00692200  1
  Se  Se30  1  0.97901300  0.74516100  0.90268900  1
  Se  Se31  1  0.47901300  0.25483900  0.09731100  1
  Se  Se32  1  0.97633000  0.27649300  0.89222400  1
  Se  Se33  1  0.47633000  0.72350700  0.10777600  1
  Se  Se34  1  0.24214100  0.52777800  0.81367400  1
  Se  Se35  1  0.74214100  0.47222200  0.18632600  1
  Se  Se36  1  0.24312400  0.79932800  0.60752900  1
  Se  Se37  1  0.74312400  0.20067200  0.39247100  1
  Se  Se38  1  0.98713200  0.72458100  0.70020300  1
  Se  Se39  1  0.48713200  0.27541900  0.29979700  1
  Se  Se40  1  0.47440600  0.44308700  0.68747600  1
  Se  Se41  1  0.97440600  0.55691300  0.31252400  1
  Se  Se42  1  0.96221500  0.78968500  0.10601400  1
  Se  Se43  1  0.46221500  0.21031500  0.89398600  1
  Se  Se44  1  0.22021600  0.77742600  0.19856800  1
  Se  Se45  1  0.72021600  0.22257400  0.80143200  1
  Se  Se46  1  0.02657500  0.49161400  0.52466000  1
  Se  Se47  1  0.52657500  0.50838600  0.47534000  1
  Se  Se48  1  0.47909900  0.98291700  0.49666700  1
  Se  Se49  1  0.97909900  0.01708300  0.50333200  1
  Se  Se50  1  0.49727100  0.91062300  0.72642800  1
  Se  Se51  1  0.99727100  0.08937700  0.27357200  1
  Se  Se52  1  0.72688600  0.71322200  0.60626100  1
  Se  Se53  1  0.22688600  0.28677800  0.39373900  1
  Se  Se54  1  0.22173100  0.81611400  0.40002100  1
  Se  Se55  1  0.72173100  0.18388600  0.59997900  1
