# generated using pymatgen
data_CuH6C2O7
_symmetry_space_group_name_H-M   'P 1'
_cell_length_a   6.58992400
_cell_length_b   9.60043800
_cell_length_c   10.33766700
_cell_angle_alpha   90.00000000
_cell_angle_beta   90.00000000
_cell_angle_gamma   90.00000000
_symmetry_Int_Tables_number   1
_chemical_formula_structural   CuH6C2O7
_chemical_formula_sum   'Cu4 H24 C8 O28'
_cell_volume   654.02446123
_cell_formula_units_Z   4
loop_
 _symmetry_equiv_pos_site_id
 _symmetry_equiv_pos_as_xyz
  1  'x, y, z'
loop_
 _atom_site_type_symbol
 _atom_site_label
 _atom_site_symmetry_multiplicity
 _atom_site_fract_x
 _atom_site_fract_y
 _atom_site_fract_z
 _atom_site_occupancy
  Cu  Cu0  1  0.50000000  0.75000000  0.63427900  1
  Cu  Cu1  1  0.50000000  0.25000000  0.86572100  1
  Cu  Cu2  1  0.50000000  0.25000000  0.36572100  1
  Cu  Cu3  1  0.50000000  0.75000000  0.13427900  1
  H  H4  1  0.18193000  0.63336200  0.77012500  1
  H  H5  1  0.81807000  0.86663800  0.77012500  1
  H  H6  1  0.81807000  0.13336200  0.72987500  1
  H  H7  1  0.18193000  0.36663800  0.72987500  1
  H  H8  1  0.81807000  0.36663800  0.22987500  1
  H  H9  1  0.18193000  0.13336200  0.22987500  1
  H  H10  1  0.18193000  0.86663800  0.27012500  1
  H  H11  1  0.81807000  0.63336200  0.27012500  1
  H  H12  1  0.28197000  0.75866400  0.85440700  1
  H  H13  1  0.71803000  0.74133600  0.85440700  1
  H  H14  1  0.71803000  0.25866400  0.64559300  1
  H  H15  1  0.28197000  0.24133600  0.64559300  1
  H  H16  1  0.71803000  0.24133600  0.14559300  1
  H  H17  1  0.28197000  0.25866400  0.14559300  1
  H  H18  1  0.28197000  0.74133600  0.35440700  1
  H  H19  1  0.71803000  0.75866400  0.35440700  1
  H  H20  1  0.91467700  0.52296700  0.67881300  1
  H  H21  1  0.08532300  0.97703300  0.67881300  1
  H  H22  1  0.08532300  0.02296700  0.82118700  1
  H  H23  1  0.91467700  0.47703300  0.82118700  1
  H  H24  1  0.08532300  0.47703300  0.32118700  1
  H  H25  1  0.91467700  0.02296700  0.32118700  1
  H  H26  1  0.91467700  0.97703300  0.17881300  1
  H  H27  1  0.08532300  0.52296700  0.17881300  1
  C  C28  1  0.60322200  0.48107600  0.52926800  1
  C  C29  1  0.39677800  0.01892400  0.52926800  1
  C  C30  1  0.39677800  0.98107600  0.97073200  1
  C  C31  1  0.60322200  0.51892400  0.97073200  1
  C  C32  1  0.39677800  0.51892400  0.47073200  1
  C  C33  1  0.60322200  0.98107600  0.47073200  1
  C  C34  1  0.60322200  0.01892400  0.02926800  1
  C  C35  1  0.39677800  0.48107600  0.02926800  1
  O  O36  1  0.68471500  0.57010600  0.60294500  1
  O  O37  1  0.31528500  0.92989400  0.60294500  1
  O  O38  1  0.31528500  0.07010600  0.89705500  1
  O  O39  1  0.68471500  0.42989400  0.89705500  1
  O  O40  1  0.31528500  0.42989400  0.39705500  1
  O  O41  1  0.68471500  0.07010600  0.39705500  1
  O  O42  1  0.68471500  0.92989400  0.10294500  1
  O  O43  1  0.31528500  0.57010600  0.10294500  1
  O  O44  1  0.32119200  0.63688500  0.49972900  1
  O  O45  1  0.67880800  0.86311500  0.49972900  1
  O  O46  1  0.67880800  0.13688500  0.00027100  1
  O  O47  1  0.32119200  0.36311500  0.00027100  1
  O  O48  1  0.67880800  0.36311500  0.50027100  1
  O  O49  1  0.32119200  0.13688500  0.50027100  1
  O  O50  1  0.32119200  0.86311500  0.99972900  1
  O  O51  1  0.67880800  0.63688500  0.99972900  1
  O  O52  1  0.30509700  0.69242400  0.78291100  1
  O  O53  1  0.69490300  0.80757600  0.78291100  1
  O  O54  1  0.69490300  0.19242400  0.71708900  1
  O  O55  1  0.30509700  0.30757600  0.71708900  1
  O  O56  1  0.69490300  0.30757600  0.21708900  1
  O  O57  1  0.30509700  0.19242400  0.21708900  1
  O  O58  1  0.30509700  0.80757600  0.28291100  1
  O  O59  1  0.69490300  0.69242400  0.28291100  1
  O  O60  1  0.01072900  0.50000000  0.75000000  1
  O  O61  1  0.98927100  0.00000000  0.75000000  1
  O  O62  1  0.98927100  0.50000000  0.25000000  1
  O  O63  1  0.01072900  0.00000000  0.25000000  1
