# generated using pymatgen
data_Ni3Ag2P3HO12
_symmetry_space_group_name_H-M   'P 1'
_cell_length_a   6.57714100
_cell_length_b   9.21497847
_cell_length_c   9.21497847
_cell_angle_alpha   71.05105250
_cell_angle_beta   69.09176671
_cell_angle_gamma   69.09176671
_symmetry_Int_Tables_number   1
_chemical_formula_structural   Ni3Ag2P3HO12
_chemical_formula_sum   'Ni6 Ag4 P6 H2 O24'
_cell_volume   474.74442461
_cell_formula_units_Z   2
loop_
 _symmetry_equiv_pos_site_id
 _symmetry_equiv_pos_as_xyz
  1  'x, y, z'
loop_
 _atom_site_type_symbol
 _atom_site_label
 _atom_site_symmetry_multiplicity
 _atom_site_fract_x
 _atom_site_fract_y
 _atom_site_fract_z
 _atom_site_occupancy
  Ni  Ni0  1  0.62696100  0.41245700  0.84293900  1
  Ni  Ni1  1  0.37303900  0.15706100  0.58754300  1
  Ni  Ni2  1  0.38235700  0.65706100  0.08754300  1
  Ni  Ni3  1  0.61764300  0.91245700  0.34293900  1
  Ni  Ni4  1  0.00000000  0.04200100  0.95799900  1
  Ni  Ni5  1  0.50000000  0.54200100  0.45799900  1
  Ag  Ag6  1  0.85409400  0.76520600  0.73479400  1
  Ag  Ag7  1  0.14590600  0.26520600  0.23479400  1
  Ag  Ag8  1  0.00000000  0.54054300  0.45945700  1
  Ag  Ag9  1  0.50000000  0.04054300  0.95945700  1
  P  P10  1  0.82373200  0.21907300  0.63310300  1
  P  P11  1  0.17626800  0.36689700  0.78092700  1
  P  P12  1  0.17590700  0.86689700  0.28092700  1
  P  P13  1  0.82409300  0.71907300  0.13310300  1
  P  P14  1  0.68409400  0.30308100  0.19691900  1
  P  P15  1  0.31590600  0.80308100  0.69691900  1
  H  H16  1  0.70499200  0.10539900  0.39460100  1
  H  H17  1  0.29500800  0.60539900  0.89460100  1
  O  O18  1  0.07483900  0.18947700  0.53816600  1
  O  O19  1  0.92516100  0.46183400  0.81052300  1
  O  O20  1  0.30248200  0.96183400  0.31052300  1
  O  O21  1  0.69751800  0.68947700  0.03816600  1
  O  O22  1  0.70870500  0.40683600  0.60278100  1
  O  O23  1  0.29129500  0.39721900  0.59316400  1
  O  O24  1  0.21832200  0.89721900  0.09316400  1
  O  O25  1  0.78167800  0.90683600  0.10278100  1
  O  O26  1  0.78393500  0.18286600  0.82145900  1
  O  O27  1  0.21606500  0.17854100  0.81713400  1
  O  O28  1  0.28826000  0.67854100  0.31713400  1
  O  O29  1  0.71174000  0.68286600  0.32145900  1
  O  O30  1  0.69940800  0.12623500  0.59925200  1
  O  O31  1  0.30059200  0.40074800  0.87376500  1
  O  O32  1  0.92489600  0.90074800  0.37376500  1
  O  O33  1  0.07510400  0.62623500  0.09925200  1
  O  O34  1  0.90233400  0.20686500  0.10338200  1
  O  O35  1  0.09766600  0.89661800  0.79313500  1
  O  O36  1  0.71258200  0.39661800  0.29313500  1
  O  O37  1  0.28741800  0.70686500  0.60338200  1
  O  O38  1  0.50847200  0.39977000  0.10023000  1
  O  O39  1  0.49152800  0.89977000  0.60023000  1
  O  O40  1  0.57601100  0.15775200  0.34224800  1
  O  O41  1  0.42398900  0.65775200  0.84224800  1
