# generated using pymatgen
data_Na2TiSi4H4O13
_symmetry_space_group_name_H-M   'P 1'
_cell_length_a   7.42998500
_cell_length_b   7.42998500
_cell_length_c   10.86566500
_cell_angle_alpha   90.00000000
_cell_angle_beta   90.00000000
_cell_angle_gamma   90.00000000
_symmetry_Int_Tables_number   1
_chemical_formula_structural   Na2TiSi4H4O13
_chemical_formula_sum   'Na4 Ti2 Si8 H8 O26'
_cell_volume   599.83552780
_cell_formula_units_Z   2
loop_
 _symmetry_equiv_pos_site_id
 _symmetry_equiv_pos_as_xyz
  1  'x, y, z'
loop_
 _atom_site_type_symbol
 _atom_site_label
 _atom_site_symmetry_multiplicity
 _atom_site_fract_x
 _atom_site_fract_y
 _atom_site_fract_z
 _atom_site_occupancy
  Na  Na0  1  0.50000000  0.50000000  0.16950300  1
  Na  Na1  1  0.00000000  0.00000000  0.83049700  1
  Na  Na2  1  0.50000000  0.50000000  0.83049700  1
  Na  Na3  1  0.00000000  0.00000000  0.16950300  1
  Ti  Ti4  1  0.00000000  0.50000000  0.21824800  1
  Ti  Ti5  1  0.50000000  0.00000000  0.78175200  1
  Si  Si6  1  0.25993700  0.81836900  0.35555200  1
  Si  Si7  1  0.74006300  0.18163100  0.35555200  1
  Si  Si8  1  0.75993700  0.68163100  0.64444800  1
  Si  Si9  1  0.24006300  0.31836900  0.64444800  1
  Si  Si10  1  0.81836900  0.25993700  0.64444800  1
  Si  Si11  1  0.18163100  0.74006300  0.64444800  1
  Si  Si12  1  0.68163100  0.75993700  0.35555200  1
  Si  Si13  1  0.31836900  0.24006300  0.35555200  1
  H  H14  1  0.22288000  0.62444500  0.00968200  1
  H  H15  1  0.77712000  0.37555500  0.00968200  1
  H  H16  1  0.72288000  0.87555500  0.99031800  1
  H  H17  1  0.27712000  0.12444500  0.99031800  1
  H  H18  1  0.62444500  0.22288000  0.99031800  1
  H  H19  1  0.37555500  0.77712000  0.99031800  1
  H  H20  1  0.87555500  0.72288000  0.00968200  1
  H  H21  1  0.12444500  0.27712000  0.00968200  1
  O  O22  1  0.46455800  0.74787600  0.32638500  1
  O  O23  1  0.53544200  0.25212400  0.32638500  1
  O  O24  1  0.96455800  0.75212400  0.67361500  1
  O  O25  1  0.03544200  0.24787600  0.67361500  1
  O  O26  1  0.74787600  0.46455800  0.67361500  1
  O  O27  1  0.25212400  0.53544200  0.67361500  1
  O  O28  1  0.75212400  0.96455800  0.32638500  1
  O  O29  1  0.24787600  0.03544200  0.32638500  1
  O  O30  1  0.11764000  0.72740700  0.26317100  1
  O  O31  1  0.88236000  0.27259300  0.26317100  1
  O  O32  1  0.61764000  0.77259300  0.73682900  1
  O  O33  1  0.38236000  0.22740700  0.73682900  1
  O  O34  1  0.72740700  0.11764000  0.73682900  1
  O  O35  1  0.27259300  0.88236000  0.73682900  1
  O  O36  1  0.77259300  0.61764000  0.26317100  1
  O  O37  1  0.22740700  0.38236000  0.26317100  1
  O  O38  1  0.00000000  0.50000000  0.05732400  1
  O  O39  1  0.50000000  0.00000000  0.94267600  1
  O  O40  1  0.21562300  0.78437700  0.50000000  1
  O  O41  1  0.78437700  0.21562300  0.50000000  1
  O  O42  1  0.71562300  0.71562300  0.50000000  1
  O  O43  1  0.28437700  0.28437700  0.50000000  1
  O  O44  1  0.35334200  0.64665800  0.00000000  1
  O  O45  1  0.64665800  0.35334200  0.00000000  1
  O  O46  1  0.85334200  0.85334200  0.00000000  1
  O  O47  1  0.14665800  0.14665800  0.00000000  1
