# generated using pymatgen
data_Ce2MgNi2
_symmetry_space_group_name_H-M   'P 1'
_cell_length_a   7.56932200
_cell_length_b   10.42141200
_cell_length_c   10.42419023
_cell_angle_alpha   87.24409628
_cell_angle_beta   90.00000000
_cell_angle_gamma   90.00000000
_symmetry_Int_Tables_number   1
_chemical_formula_structural   Ce2MgNi2
_chemical_formula_sum   'Ce16 Mg8 Ni16'
_cell_volume   821.34060708
_cell_formula_units_Z   8
loop_
 _symmetry_equiv_pos_site_id
 _symmetry_equiv_pos_as_xyz
  1  'x, y, z'
loop_
 _atom_site_type_symbol
 _atom_site_label
 _atom_site_symmetry_multiplicity
 _atom_site_fract_x
 _atom_site_fract_y
 _atom_site_fract_z
 _atom_site_occupancy
  Ce  Ce0  1  0.66589000  0.16815900  0.67225500  1
  Ce  Ce1  1  0.16589000  0.83184100  0.82774500  1
  Ce  Ce2  1  0.33411000  0.83184100  0.32774500  1
  Ce  Ce3  1  0.83411000  0.16815900  0.17225500  1
  Ce  Ce4  1  0.67097800  0.41590600  0.41789900  1
  Ce  Ce5  1  0.17097800  0.58409400  0.08210100  1
  Ce  Ce6  1  0.32902200  0.58409400  0.58210100  1
  Ce  Ce7  1  0.82902200  0.41590600  0.91789900  1
  Ce  Ce8  1  0.16864900  0.08496100  0.58686000  1
  Ce  Ce9  1  0.66864900  0.91503900  0.91314000  1
  Ce  Ce10  1  0.83135100  0.91503900  0.41314000  1
  Ce  Ce11  1  0.33135100  0.08496100  0.08686000  1
  Ce  Ce12  1  0.33274000  0.33276400  0.83655100  1
  Ce  Ce13  1  0.83274000  0.66723600  0.66344900  1
  Ce  Ce14  1  0.66726000  0.66723600  0.16344900  1
  Ce  Ce15  1  0.16726000  0.33276400  0.33655100  1
  Mg  Mg16  1  0.50061700  0.12294100  0.37943400  1
  Mg  Mg17  1  0.00061700  0.87705900  0.12056600  1
  Mg  Mg18  1  0.49938300  0.87705900  0.62056600  1
  Mg  Mg19  1  0.99938300  0.12294100  0.87943400  1
  Mg  Mg20  1  0.50049300  0.37411400  0.12876100  1
  Mg  Mg21  1  0.00049300  0.62588600  0.37123900  1
  Mg  Mg22  1  0.49950700  0.62588600  0.87123900  1
  Mg  Mg23  1  0.99950700  0.37411400  0.62876100  1
  Ni  Ni24  1  0.87246000  0.18857200  0.44972300  1
  Ni  Ni25  1  0.37246000  0.81142800  0.05027700  1
  Ni  Ni26  1  0.12754000  0.81142800  0.55027700  1
  Ni  Ni27  1  0.62754000  0.18857200  0.94972300  1
  Ni  Ni28  1  0.62590400  0.68703700  0.43867100  1
  Ni  Ni29  1  0.12590400  0.31296300  0.06132900  1
  Ni  Ni30  1  0.37409600  0.31296300  0.56132900  1
  Ni  Ni31  1  0.87409600  0.68703700  0.93867100  1
  Ni  Ni32  1  0.63040800  0.94239500  0.18479700  1
  Ni  Ni33  1  0.13040800  0.05760500  0.31520300  1
  Ni  Ni34  1  0.36959200  0.05760500  0.81520300  1
  Ni  Ni35  1  0.86959200  0.94239500  0.68479700  1
  Ni  Ni36  1  0.87027600  0.44338000  0.18946700  1
  Ni  Ni37  1  0.37027600  0.55662000  0.31053300  1
  Ni  Ni38  1  0.12972400  0.55662000  0.81053300  1
  Ni  Ni39  1  0.62972400  0.44338000  0.68946700  1
