# generated using pymatgen
data_Y(CO3)2
_symmetry_space_group_name_H-M   'P 1'
_cell_length_a   8.53086748
_cell_length_b   8.53086748
_cell_length_c   9.65583800
_cell_angle_alpha   90.00000000
_cell_angle_beta   90.00000000
_cell_angle_gamma   125.59120767
_symmetry_Int_Tables_number   1
_chemical_formula_structural   Y(CO3)2
_chemical_formula_sum   'Y4 C8 O24'
_cell_volume   571.43710240
_cell_formula_units_Z   4
loop_
 _symmetry_equiv_pos_site_id
 _symmetry_equiv_pos_as_xyz
  1  'x, y, z'
loop_
 _atom_site_type_symbol
 _atom_site_label
 _atom_site_symmetry_multiplicity
 _atom_site_fract_x
 _atom_site_fract_y
 _atom_site_fract_z
 _atom_site_occupancy
  Y  Y0  1  0.69850600  0.30149400  0.25000000  1
  Y  Y1  1  0.30149400  0.69850600  0.75000000  1
  Y  Y2  1  0.28939300  0.71060700  0.25000000  1
  Y  Y3  1  0.71060700  0.28939300  0.75000000  1
  C  C4  1  0.59873000  0.61126400  0.24091200  1
  C  C5  1  0.61126400  0.59873000  0.75908800  1
  C  C6  1  0.40127000  0.38873600  0.74091200  1
  C  C7  1  0.38873600  0.40127000  0.25908800  1
  C  C8  1  0.08045500  0.52677500  0.00091100  1
  C  C9  1  0.52677500  0.08045500  0.99908900  1
  C  C10  1  0.91954500  0.47322500  0.50091100  1
  C  C11  1  0.47322500  0.91954500  0.49908900  1
  O  O12  1  0.74021500  0.60205000  0.24141800  1
  O  O13  1  0.60205000  0.74021500  0.75858200  1
  O  O14  1  0.25978500  0.39795000  0.74141800  1
  O  O15  1  0.39795000  0.25978500  0.25858200  1
  O  O16  1  0.58918800  0.75124100  0.22880600  1
  O  O17  1  0.75124100  0.58918800  0.77119400  1
  O  O18  1  0.41081200  0.24875900  0.72880600  1
  O  O19  1  0.24875900  0.41081200  0.27119400  1
  O  O20  1  0.99215200  0.49349400  0.11766600  1
  O  O21  1  0.49349400  0.99215200  0.88233400  1
  O  O22  1  0.00784800  0.50650600  0.61766600  1
  O  O23  1  0.50650600  0.00784800  0.38233400  1
  O  O24  1  0.26758400  0.62722000  0.00397700  1
  O  O25  1  0.62722000  0.26758400  0.99602300  1
  O  O26  1  0.73241600  0.37278000  0.50397700  1
  O  O27  1  0.37278000  0.73241600  0.49602300  1
  O  O28  1  0.99937400  0.47708000  0.88085600  1
  O  O29  1  0.47708000  0.99937400  0.11914400  1
  O  O30  1  0.00062600  0.52292000  0.38085600  1
  O  O31  1  0.52292000  0.00062600  0.61914400  1
  O  O32  1  0.85512300  0.14487700  0.25000000  1
  O  O33  1  0.14487700  0.85512300  0.75000000  1
  O  O34  1  0.12714700  0.87285300  0.25000000  1
  O  O35  1  0.87285300  0.12714700  0.75000000  1
