# generated using pymatgen
data_VIn(TeO4)2
_symmetry_space_group_name_H-M   'P 1'
_cell_length_a   5.26543200
_cell_length_b   8.09254950
_cell_length_c   17.02389678
_cell_angle_alpha   94.67449356
_cell_angle_beta   90.00000000
_cell_angle_gamma   90.00000000
_symmetry_Int_Tables_number   1
_chemical_formula_structural   VIn(TeO4)2
_chemical_formula_sum   'V4 In4 Te8 O32'
_cell_volume   722.98847892
_cell_formula_units_Z   4
loop_
 _symmetry_equiv_pos_site_id
 _symmetry_equiv_pos_as_xyz
  1  'x, y, z'
loop_
 _atom_site_type_symbol
 _atom_site_label
 _atom_site_symmetry_multiplicity
 _atom_site_fract_x
 _atom_site_fract_y
 _atom_site_fract_z
 _atom_site_occupancy
  V  V0  1  0.20297800  0.85658800  0.57437800  1
  V  V1  1  0.29702200  0.35658800  0.07437800  1
  V  V2  1  0.79702200  0.14341200  0.42562200  1
  V  V3  1  0.70297800  0.64341200  0.92562200  1
  In  In4  1  0.72298600  0.65380800  0.67425800  1
  In  In5  1  0.77701400  0.15380800  0.17425800  1
  In  In6  1  0.27701400  0.34619200  0.32574200  1
  In  In7  1  0.22298600  0.84619200  0.82574200  1
  Te  Te8  1  0.24501100  0.43616100  0.77779000  1
  Te  Te9  1  0.25498900  0.93616100  0.27779000  1
  Te  Te10  1  0.75498900  0.56383900  0.22221000  1
  Te  Te11  1  0.74501100  0.06383900  0.72221000  1
  Te  Te12  1  0.14067800  0.36218400  0.56925600  1
  Te  Te13  1  0.35932200  0.86218400  0.06925600  1
  Te  Te14  1  0.85932200  0.63781600  0.43074400  1
  Te  Te15  1  0.64067800  0.13781600  0.93074400  1
  O  O16  1  0.53231700  0.44741500  0.71261200  1
  O  O17  1  0.96768300  0.94741500  0.21261200  1
  O  O18  1  0.46768300  0.55258500  0.28738800  1
  O  O19  1  0.03231700  0.05258500  0.78738800  1
  O  O20  1  0.89508300  0.53660900  0.56973300  1
  O  O21  1  0.60491700  0.03660900  0.06973300  1
  O  O22  1  0.10491700  0.46339100  0.43026700  1
  O  O23  1  0.39508300  0.96339100  0.93026700  1
  O  O24  1  0.93125900  0.87970000  0.64162000  1
  O  O25  1  0.56874100  0.37970000  0.14162000  1
  O  O26  1  0.06874100  0.12030000  0.35838000  1
  O  O27  1  0.43125900  0.62030000  0.85838000  1
  O  O28  1  0.56632100  0.86426500  0.74814300  1
  O  O29  1  0.93367900  0.36426500  0.24814300  1
  O  O30  1  0.43367900  0.13573500  0.25185700  1
  O  O31  1  0.06632100  0.63573500  0.75185700  1
  O  O32  1  0.39765600  0.69619900  0.59677600  1
  O  O33  1  0.10234400  0.19619900  0.09677600  1
  O  O34  1  0.60234400  0.30380100  0.40322400  1
  O  O35  1  0.89765600  0.80380100  0.90322400  1
  O  O36  1  0.06135500  0.31731800  0.67693800  1
  O  O37  1  0.43864500  0.81731800  0.17693800  1
  O  O38  1  0.93864500  0.68268200  0.32306200  1
  O  O39  1  0.56135500  0.18268200  0.82306200  1
  O  O40  1  0.91290100  0.18818800  0.52785000  1
  O  O41  1  0.58709900  0.68818800  0.02785000  1
  O  O42  1  0.08709900  0.81181200  0.47215000  1
  O  O43  1  0.41290100  0.31181200  0.97215000  1
  O  O44  1  0.36808800  0.03003300  0.58315500  1
  O  O45  1  0.13191200  0.53003300  0.08315500  1
  O  O46  1  0.63191200  0.96996700  0.41684500  1
  O  O47  1  0.86808800  0.46996700  0.91684500  1
