# generated using pymatgen
data_ErCoH8C6(N3O2)2
_symmetry_space_group_name_H-M   'P 1'
_cell_length_a   7.34378753
_cell_length_b   7.34378753
_cell_length_c   13.60492700
_cell_angle_alpha   90.00000000
_cell_angle_beta   90.00000000
_cell_angle_gamma   120.33534867
_symmetry_Int_Tables_number   1
_chemical_formula_structural   ErCoH8C6(N3O2)2
_chemical_formula_sum   'Er2 Co2 H16 C12 N12 O8'
_cell_volume   633.27092368
_cell_formula_units_Z   2
loop_
 _symmetry_equiv_pos_site_id
 _symmetry_equiv_pos_as_xyz
  1  'x, y, z'
loop_
 _atom_site_type_symbol
 _atom_site_label
 _atom_site_symmetry_multiplicity
 _atom_site_fract_x
 _atom_site_fract_y
 _atom_site_fract_z
 _atom_site_occupancy
  Er  Er0  1  0.67533200  0.32466800  0.75000000  1
  Er  Er1  1  0.32466800  0.67533200  0.25000000  1
  Co  Co2  1  0.00000000  0.00000000  0.00000000  1
  Co  Co3  1  0.00000000  0.00000000  0.50000000  1
  H  H4  1  0.44832700  0.87127700  0.80856500  1
  H  H5  1  0.87127700  0.44832700  0.19143500  1
  H  H6  1  0.44832700  0.87127700  0.69143500  1
  H  H7  1  0.87127700  0.44832700  0.30856500  1
  H  H8  1  0.55167300  0.12872300  0.19143500  1
  H  H9  1  0.12872300  0.55167300  0.80856500  1
  H  H10  1  0.55167300  0.12872300  0.30856500  1
  H  H11  1  0.12872300  0.55167300  0.69143500  1
  H  H12  1  0.31301400  0.68698600  0.96305500  1
  H  H13  1  0.68698600  0.31301400  0.03694500  1
  H  H14  1  0.31301400  0.68698600  0.53694500  1
  H  H15  1  0.68698600  0.31301400  0.46305500  1
  H  H16  1  0.41598000  0.58402000  0.89865100  1
  H  H17  1  0.58402000  0.41598000  0.10134900  1
  H  H18  1  0.41598000  0.58402000  0.60134900  1
  H  H19  1  0.58402000  0.41598000  0.39865100  1
  C  C20  1  0.86822200  0.13177800  0.93914900  1
  C  C21  1  0.13177800  0.86822200  0.06085100  1
  C  C22  1  0.86822200  0.13177800  0.56085100  1
  C  C23  1  0.13177800  0.86822200  0.43914900  1
  C  C24  1  0.22863600  0.13561100  0.91313500  1
  C  C25  1  0.13561100  0.22863600  0.08686500  1
  C  C26  1  0.22863600  0.13561100  0.58686500  1
  C  C27  1  0.13561100  0.22863600  0.41313500  1
  C  C28  1  0.77136400  0.86438900  0.08686500  1
  C  C29  1  0.86438900  0.77136400  0.91313500  1
  C  C30  1  0.77136400  0.86438900  0.41313500  1
  C  C31  1  0.86438900  0.77136400  0.58686500  1
  N  N32  1  0.78662300  0.21337700  0.89900500  1
  N  N33  1  0.21337700  0.78662300  0.10099500  1
  N  N34  1  0.78662300  0.21337700  0.60099500  1
  N  N35  1  0.21337700  0.78662300  0.39900500  1
  N  N36  1  0.37443800  0.21961900  0.86055400  1
  N  N37  1  0.21961900  0.37443800  0.13944600  1
  N  N38  1  0.37443800  0.21961900  0.63944600  1
  N  N39  1  0.21961900  0.37443800  0.36055400  1
  N  N40  1  0.62556200  0.78038100  0.13944600  1
  N  N41  1  0.78038100  0.62556200  0.86055400  1
  N  N42  1  0.62556200  0.78038100  0.36055400  1
  N  N43  1  0.78038100  0.62556200  0.63944600  1
  O  O44  1  0.51009300  0.96170200  0.75000000  1
  O  O45  1  0.96170200  0.51009300  0.25000000  1
  O  O46  1  0.48990700  0.03829800  0.25000000  1
  O  O47  1  0.03829800  0.48990700  0.75000000  1
  O  O48  1  0.33926900  0.66073100  0.89534800  1
  O  O49  1  0.66073100  0.33926900  0.10465200  1
  O  O50  1  0.33926900  0.66073100  0.60465200  1
  O  O51  1  0.66073100  0.33926900  0.39534800  1
