# generated using pymatgen
data_Ca9Mn(PO4)7
_symmetry_space_group_name_H-M   'P 1'
_cell_length_a   13.91632343
_cell_length_b   13.91632343
_cell_length_c   13.91632279
_cell_angle_alpha   44.13004072
_cell_angle_beta   44.13004072
_cell_angle_gamma   44.13004323
_symmetry_Int_Tables_number   1
_chemical_formula_structural   Ca9Mn(PO4)7
_chemical_formula_sum   'Ca18 Mn2 P14 O56'
_cell_volume   1187.09683040
_cell_formula_units_Z   2
loop_
 _symmetry_equiv_pos_site_id
 _symmetry_equiv_pos_as_xyz
  1  'x, y, z'
loop_
 _atom_site_type_symbol
 _atom_site_label
 _atom_site_symmetry_multiplicity
 _atom_site_fract_x
 _atom_site_fract_y
 _atom_site_fract_z
 _atom_site_occupancy
  Ca  Ca0  1  0.47387200  0.03284600  0.00888400  1
  Ca  Ca1  1  0.00888400  0.47387200  0.03284600  1
  Ca  Ca2  1  0.03284600  0.00888400  0.47387200  1
  Ca  Ca3  1  0.50888400  0.53284600  0.97387200  1
  Ca  Ca4  1  0.97387200  0.50888400  0.53284600  1
  Ca  Ca5  1  0.53284600  0.97387200  0.50888400  1
  Ca  Ca6  1  0.35089700  0.92957000  0.91730300  1
  Ca  Ca7  1  0.91730300  0.35089700  0.92957000  1
  Ca  Ca8  1  0.92957000  0.91730300  0.35089700  1
  Ca  Ca9  1  0.41730300  0.42957000  0.85089700  1
  Ca  Ca10  1  0.85089700  0.41730300  0.42957000  1
  Ca  Ca11  1  0.42957000  0.85089700  0.41730300  1
  Ca  Ca12  1  0.65093600  0.06288100  0.09106100  1
  Ca  Ca13  1  0.09106100  0.65093600  0.06288100  1
  Ca  Ca14  1  0.06288100  0.09106100  0.65093600  1
  Ca  Ca15  1  0.59106100  0.56288100  0.15093600  1
  Ca  Ca16  1  0.15093600  0.59106100  0.56288100  1
  Ca  Ca17  1  0.56288100  0.15093600  0.59106100  1
  Mn  Mn18  1  0.50053000  0.50053000  0.50053000  1
  Mn  Mn19  1  0.00053000  0.00053000  0.00053000  1
  P  P20  1  0.25589400  0.25589400  0.25589400  1
  P  P21  1  0.75589400  0.75589400  0.75589400  1
  P  P22  1  0.68246500  0.19051200  0.22136200  1
  P  P23  1  0.22136200  0.68246500  0.19051200  1
  P  P24  1  0.19051200  0.22136200  0.68246500  1
  P  P25  1  0.72136200  0.69051200  0.18246500  1
  P  P26  1  0.18246500  0.72136200  0.69051200  1
  P  P27  1  0.69051200  0.18246500  0.72136200  1
  P  P28  1  0.82065000  0.27459300  0.30814500  1
  P  P29  1  0.30814500  0.82065000  0.27459300  1
  P  P30  1  0.27459300  0.30814500  0.82065000  1
  P  P31  1  0.80814500  0.77459300  0.32065000  1
  P  P32  1  0.32065000  0.80814500  0.77459300  1
  P  P33  1  0.77459300  0.32065000  0.80814500  1
  O  O34  1  0.61064900  0.13700700  0.22964700  1
  O  O35  1  0.22964700  0.61064900  0.13700700  1
  O  O36  1  0.13700700  0.22964700  0.61064900  1
  O  O37  1  0.72964700  0.63700700  0.11064900  1
  O  O38  1  0.11064900  0.72964700  0.63700700  1
  O  O39  1  0.63700700  0.11064900  0.72964700  1
  O  O40  1  0.62452000  0.36461400  0.14497200  1
  O  O41  1  0.14497200  0.62452000  0.36461400  1
  O  O42  1  0.36461400  0.14497200  0.62452000  1
  O  O43  1  0.64497200  0.86461400  0.12452000  1
  O  O44  1  0.12452000  0.64497200  0.86461400  1
  O  O45  1  0.86461400  0.12452000  0.64497200  1
  O  O46  1  0.65931600  0.11579900  0.38582600  1
  O  O47  1  0.38582600  0.65931600  0.11579900  1
  O  O48  1  0.11579900  0.38582600  0.65931600  1
  O  O49  1  0.88582600  0.61579900  0.15931600  1
  O  O50  1  0.15931600  0.88582600  0.61579900  1
  O  O51  1  0.61579900  0.15931600  0.88582600  1
  O  O52  1  0.86113700  0.12447400  0.12690200  1
  O  O53  1  0.12690200  0.86113700  0.12447400  1
  O  O54  1  0.12447400  0.12690200  0.86113700  1
  O  O55  1  0.62690200  0.62447400  0.36113700  1
  O  O56  1  0.36113700  0.62690200  0.62447400  1
  O  O57  1  0.62447400  0.36113700  0.62690200  1
  O  O58  1  0.91147100  0.29993700  0.31001700  1
  O  O59  1  0.31001700  0.91147100  0.29993700  1
  O  O60  1  0.29993700  0.31001700  0.91147100  1
  O  O61  1  0.81001700  0.79993700  0.41147100  1
  O  O62  1  0.41147100  0.81001700  0.79993700  1
  O  O63  1  0.79993700  0.41147100  0.81001700  1
  O  O64  1  0.85559800  0.10326400  0.40345300  1
  O  O65  1  0.40345300  0.85559800  0.10326400  1
  O  O66  1  0.10326400  0.40345300  0.85559800  1
  O  O67  1  0.90345300  0.60326400  0.35559800  1
  O  O68  1  0.35559800  0.90345300  0.60326400  1
  O  O69  1  0.60326400  0.35559800  0.90345300  1
  O  O70  1  0.86346700  0.33681800  0.14108500  1
  O  O71  1  0.14108500  0.86346700  0.33681800  1
  O  O72  1  0.33681800  0.14108500  0.86346700  1
  O  O73  1  0.64108500  0.83681800  0.36346700  1
  O  O74  1  0.36346700  0.64108500  0.83681800  1
  O  O75  1  0.83681800  0.36346700  0.64108500  1
  O  O76  1  0.64334500  0.36329200  0.38443400  1
  O  O77  1  0.38443400  0.64334500  0.36329200  1
  O  O78  1  0.36329200  0.38443400  0.64334500  1
  O  O79  1  0.88443400  0.86329200  0.14334500  1
  O  O80  1  0.14334500  0.88443400  0.86329200  1
  O  O81  1  0.86329200  0.14334500  0.88443400  1
  O  O82  1  0.29646300  0.29646300  0.29646300  1
  O  O83  1  0.79646300  0.79646300  0.79646300  1
  O  O84  1  0.22359300  0.39087700  0.11079300  1
  O  O85  1  0.11079300  0.22359300  0.39087700  1
  O  O86  1  0.39087700  0.11079300  0.22359300  1
  O  O87  1  0.61079300  0.89087700  0.72359300  1
  O  O88  1  0.72359300  0.61079300  0.89087700  1
  O  O89  1  0.89087700  0.72359300  0.61079300  1
