# generated using pymatgen
data_RbZrN3O11
_symmetry_space_group_name_H-M   'P 1'
_cell_length_a   6.06012900
_cell_length_b   9.94753500
_cell_length_c   17.18851100
_cell_angle_alpha   90.00000000
_cell_angle_beta   90.00000000
_cell_angle_gamma   90.00000000
_symmetry_Int_Tables_number   1
_chemical_formula_structural   RbZrN3O11
_chemical_formula_sum   'Rb4 Zr4 N12 O44'
_cell_volume   1036.18094436
_cell_formula_units_Z   4
loop_
 _symmetry_equiv_pos_site_id
 _symmetry_equiv_pos_as_xyz
  1  'x, y, z'
loop_
 _atom_site_type_symbol
 _atom_site_label
 _atom_site_symmetry_multiplicity
 _atom_site_fract_x
 _atom_site_fract_y
 _atom_site_fract_z
 _atom_site_occupancy
  Rb  Rb0  1  0.75000000  0.50000000  0.82972700  1
  Rb  Rb1  1  0.25000000  0.00000000  0.67027300  1
  Rb  Rb2  1  0.25000000  0.50000000  0.17027300  1
  Rb  Rb3  1  0.75000000  0.00000000  0.32972700  1
  Zr  Zr4  1  0.25000000  0.50000000  0.55920400  1
  Zr  Zr5  1  0.75000000  0.00000000  0.94079600  1
  Zr  Zr6  1  0.75000000  0.50000000  0.44079600  1
  Zr  Zr7  1  0.25000000  0.00000000  0.05920400  1
  N  N8  1  0.41590400  0.66112200  0.67680100  1
  N  N9  1  0.91590400  0.83887800  0.82319900  1
  N  N10  1  0.58409600  0.16112200  0.82319900  1
  N  N11  1  0.08409600  0.33887800  0.67680100  1
  N  N12  1  0.58409600  0.33887800  0.32319900  1
  N  N13  1  0.08409600  0.16112200  0.17680100  1
  N  N14  1  0.41590400  0.83887800  0.17680100  1
  N  N15  1  0.91590400  0.66112200  0.32319900  1
  N  N16  1  0.25000000  0.00000000  0.42300700  1
  N  N17  1  0.75000000  0.50000000  0.07699300  1
  N  N18  1  0.75000000  0.00000000  0.57699300  1
  N  N19  1  0.25000000  0.50000000  0.92300700  1
  O  O20  1  0.51275200  0.39451600  0.50730400  1
  O  O21  1  0.01275200  0.10548400  0.99269600  1
  O  O22  1  0.48724800  0.89451600  0.99269600  1
  O  O23  1  0.98724800  0.60548400  0.50730400  1
  O  O24  1  0.48724800  0.60548400  0.49269600  1
  O  O25  1  0.98724800  0.89451600  0.00730400  1
  O  O26  1  0.51275200  0.10548400  0.00730400  1
  O  O27  1  0.01275200  0.39451600  0.49269600  1
  O  O28  1  0.26502600  0.70076200  0.62855900  1
  O  O29  1  0.76502600  0.79923800  0.87144100  1
  O  O30  1  0.73497400  0.20076200  0.87144100  1
  O  O31  1  0.23497400  0.29923800  0.62855900  1
  O  O32  1  0.73497400  0.29923800  0.37144100  1
  O  O33  1  0.23497400  0.20076200  0.12855900  1
  O  O34  1  0.26502600  0.79923800  0.12855900  1
  O  O35  1  0.76502600  0.70076200  0.37144100  1
  O  O36  1  0.48018100  0.53837700  0.66714100  1
  O  O37  1  0.98018100  0.96162300  0.83285900  1
  O  O38  1  0.51981900  0.03837700  0.83285900  1
  O  O39  1  0.01981900  0.46162300  0.66714100  1
  O  O40  1  0.51981900  0.46162300  0.33285900  1
  O  O41  1  0.01981900  0.03837700  0.16714100  1
  O  O42  1  0.48018100  0.96162300  0.16714100  1
  O  O43  1  0.98018100  0.53837700  0.33285900  1
  O  O44  1  0.49112900  0.73408900  0.72758700  1
  O  O45  1  0.99112900  0.76591100  0.77241300  1
  O  O46  1  0.50887100  0.23408900  0.77241300  1
  O  O47  1  0.00887100  0.26591100  0.72758700  1
  O  O48  1  0.50887100  0.26591100  0.27241300  1
  O  O49  1  0.00887100  0.23408900  0.22758700  1
  O  O50  1  0.49112900  0.76591100  0.22758700  1
  O  O51  1  0.99112900  0.73408900  0.27241300  1
  O  O52  1  0.25000000  0.00000000  0.34909800  1
  O  O53  1  0.75000000  0.50000000  0.15090200  1
  O  O54  1  0.75000000  0.00000000  0.65090200  1
  O  O55  1  0.25000000  0.50000000  0.84909800  1
  O  O56  1  0.34575800  0.09286800  0.45896300  1
  O  O57  1  0.84575800  0.40713200  0.04103700  1
  O  O58  1  0.65424200  0.59286800  0.04103700  1
  O  O59  1  0.15424200  0.90713200  0.45896300  1
  O  O60  1  0.65424200  0.90713200  0.54103700  1
  O  O61  1  0.15424200  0.59286800  0.95896300  1
  O  O62  1  0.34575800  0.40713200  0.95896300  1
  O  O63  1  0.84575800  0.09286800  0.54103700  1
