# generated using pymatgen
data_ZnNi13Ge8
_symmetry_space_group_name_H-M   'P 1'
_cell_length_a   7.87931975
_cell_length_b   7.87931975
_cell_length_c   15.19165900
_cell_angle_alpha   90.00000000
_cell_angle_beta   90.00000000
_cell_angle_gamma   119.99999793
_symmetry_Int_Tables_number   1
_chemical_formula_structural   ZnNi13Ge8
_chemical_formula_sum   'Zn3 Ni39 Ge24'
_cell_volume   816.79542096
_cell_formula_units_Z   3
loop_
 _symmetry_equiv_pos_site_id
 _symmetry_equiv_pos_as_xyz
  1  'x, y, z'
loop_
 _atom_site_type_symbol
 _atom_site_label
 _atom_site_symmetry_multiplicity
 _atom_site_fract_x
 _atom_site_fract_y
 _atom_site_fract_z
 _atom_site_occupancy
  Zn  Zn0  1  0.49672900  0.00000000  0.33333300  1
  Zn  Zn1  1  0.50327100  0.50327100  0.00000000  1
  Zn  Zn2  1  0.00000000  0.49672900  0.66666700  1
  Ni  Ni3  1  0.99912400  0.00000000  0.83333300  1
  Ni  Ni4  1  0.00087600  0.00087600  0.50000000  1
  Ni  Ni5  1  0.00000000  0.99912400  0.16666700  1
  Ni  Ni6  1  0.50128800  0.00000000  0.83333300  1
  Ni  Ni7  1  0.49871200  0.49871200  0.50000000  1
  Ni  Ni8  1  0.00000000  0.50128800  0.16666700  1
  Ni  Ni9  1  0.99934500  0.00000000  0.33333300  1
  Ni  Ni10  1  0.00065500  0.00065500  0.00000000  1
  Ni  Ni11  1  0.00000000  0.99934500  0.66666700  1
  Ni  Ni12  1  0.50532800  0.00293400  0.16745100  1
  Ni  Ni13  1  0.49760600  0.49467200  0.83411800  1
  Ni  Ni14  1  0.99706600  0.50239400  0.50078400  1
  Ni  Ni15  1  0.49467200  0.49760600  0.16588200  1
  Ni  Ni16  1  0.00293400  0.50532800  0.83254900  1
  Ni  Ni17  1  0.50239400  0.99706600  0.49921600  1
  Ni  Ni18  1  0.50074000  0.00040300  0.00058000  1
  Ni  Ni19  1  0.49966200  0.49926000  0.66724700  1
  Ni  Ni20  1  0.99959700  0.50033800  0.33391400  1
  Ni  Ni21  1  0.49926000  0.49966200  0.33275300  1
  Ni  Ni22  1  0.00040300  0.50074000  0.99942000  1
  Ni  Ni23  1  0.50033800  0.99959700  0.66608600  1
  Ni  Ni24  1  0.34114700  0.66313100  0.91959900  1
  Ni  Ni25  1  0.32198400  0.65885300  0.58626500  1
  Ni  Ni26  1  0.33686900  0.67801600  0.25293200  1
  Ni  Ni27  1  0.65885300  0.32198400  0.41373500  1
  Ni  Ni28  1  0.66313100  0.34114700  0.08040100  1
  Ni  Ni29  1  0.67801600  0.33686900  0.74706800  1
  Ni  Ni30  1  0.16195900  0.82373500  0.74305400  1
  Ni  Ni31  1  0.66177500  0.83804100  0.40972100  1
  Ni  Ni32  1  0.17626500  0.33822500  0.07638700  1
  Ni  Ni33  1  0.83804100  0.66177500  0.59027900  1
  Ni  Ni34  1  0.82373500  0.16195900  0.25694600  1
  Ni  Ni35  1  0.33822500  0.17626500  0.92361300  1
  Ni  Ni36  1  0.17598100  0.83996400  0.41523800  1
  Ni  Ni37  1  0.66398300  0.82401900  0.08190400  1
  Ni  Ni38  1  0.16003600  0.33601700  0.74857100  1
  Ni  Ni39  1  0.82401900  0.66398300  0.91809600  1
  Ni  Ni40  1  0.83996400  0.17598100  0.58476200  1
  Ni  Ni41  1  0.33601700  0.16003600  0.25142900  1
  Ge  Ge42  1  0.11966300  0.81015900  0.24818100  1
  Ge  Ge43  1  0.69049600  0.88033700  0.91484800  1
  Ge  Ge44  1  0.18984100  0.30950400  0.58151500  1
  Ge  Ge45  1  0.88033700  0.69049600  0.08515200  1
  Ge  Ge46  1  0.81015900  0.11966300  0.75181900  1
  Ge  Ge47  1  0.30950400  0.18984100  0.41848500  1
  Ge  Ge48  1  0.31371600  0.68985700  0.08838000  1
  Ge  Ge49  1  0.37614100  0.68628400  0.75504700  1
  Ge  Ge50  1  0.31014300  0.62385900  0.42171400  1
  Ge  Ge51  1  0.68628400  0.37614100  0.24495300  1
  Ge  Ge52  1  0.68985700  0.31371600  0.91162000  1
  Ge  Ge53  1  0.62385900  0.31014300  0.57828600  1
  Ge  Ge54  1  0.16754300  0.83309800  0.91602200  1
  Ge  Ge55  1  0.66555500  0.83245700  0.58268800  1
  Ge  Ge56  1  0.16690200  0.33444500  0.24935500  1
  Ge  Ge57  1  0.83245700  0.66555500  0.41731200  1
  Ge  Ge58  1  0.83309800  0.16754300  0.08397800  1
  Ge  Ge59  1  0.33444500  0.16690200  0.75064500  1
  Ge  Ge60  1  0.18936000  0.87521800  0.57807100  1
  Ge  Ge61  1  0.68585700  0.81064000  0.24473800  1
  Ge  Ge62  1  0.12478200  0.31414300  0.91140500  1
  Ge  Ge63  1  0.81064000  0.68585700  0.75526200  1
  Ge  Ge64  1  0.87521800  0.18936000  0.42192900  1
  Ge  Ge65  1  0.31414300  0.12478200  0.08859500  1
