# generated using pymatgen
data_P2H18WC6(ClO2)2
_symmetry_space_group_name_H-M   'P 1'
_cell_length_a   11.05545400
_cell_length_b   12.15369000
_cell_length_c   16.61427518
_cell_angle_alpha   90.00000000
_cell_angle_beta   129.08599718
_cell_angle_gamma   90.00000000
_symmetry_Int_Tables_number   1
_chemical_formula_structural   P2H18WC6(ClO2)2
_chemical_formula_sum   'P8 H72 W4 C24 Cl8 O16'
_cell_volume   1732.76658439
_cell_formula_units_Z   4
loop_
 _symmetry_equiv_pos_site_id
 _symmetry_equiv_pos_as_xyz
  1  'x, y, z'
loop_
 _atom_site_type_symbol
 _atom_site_label
 _atom_site_symmetry_multiplicity
 _atom_site_fract_x
 _atom_site_fract_y
 _atom_site_fract_z
 _atom_site_occupancy
  P  P0  1  0.09070400  0.76320500  0.87869500  1
  P  P1  1  0.09070400  0.73679500  0.37869500  1
  P  P2  1  0.90929600  0.23679500  0.12130500  1
  P  P3  1  0.90929600  0.26320500  0.62130500  1
  P  P4  1  0.55563300  0.71596700  0.93025300  1
  P  P5  1  0.55563300  0.78403300  0.43025300  1
  P  P6  1  0.44436700  0.28403300  0.06974700  1
  P  P7  1  0.44436700  0.21596700  0.56974700  1
  H  H8  1  0.86460300  0.86265600  0.82827100  1
  H  H9  1  0.86460300  0.63734400  0.32827100  1
  H  H10  1  0.13539700  0.13734400  0.17172900  1
  H  H11  1  0.13539700  0.36265600  0.67172900  1
  H  H12  1  0.93380400  0.76527300  0.93046100  1
  H  H13  1  0.93380400  0.73472700  0.43046100  1
  H  H14  1  0.06619600  0.23472700  0.06953900  1
  H  H15  1  0.06619600  0.26527300  0.56953900  1
  H  H16  1  0.82682900  0.71695400  0.80029700  1
  H  H17  1  0.82682900  0.78304600  0.30029700  1
  H  H18  1  0.17317100  0.28304600  0.19970300  1
  H  H19  1  0.17317100  0.21695400  0.69970300  1
  H  H20  1  0.06497400  0.56822400  0.85817000  1
  H  H21  1  0.06497400  0.93177600  0.35817000  1
  H  H22  1  0.93502600  0.43177600  0.14183000  1
  H  H23  1  0.93502600  0.06822400  0.64183000  1
  H  H24  1  0.16315900  0.60850500  0.99045400  1
  H  H25  1  0.16315900  0.89149500  0.49045400  1
  H  H26  1  0.83684100  0.39149500  0.00954600  1
  H  H27  1  0.83684100  0.10850500  0.50954600  1
  H  H28  1  0.26380100  0.61309500  0.93727300  1
  H  H29  1  0.26380100  0.88690500  0.43727300  1
  H  H30  1  0.73619900  0.38690500  0.06272700  1
  H  H31  1  0.73619900  0.11309500  0.56272700  1
  H  H32  1  0.33322400  0.85421600  0.99067500  1
  H  H33  1  0.33322400  0.64578400  0.49067500  1
  H  H34  1  0.66677600  0.14578400  0.00932500  1
  H  H35  1  0.66677600  0.35421600  0.50932500  1
  H  H36  1  0.24971000  0.82938000  0.05382900  1
  H  H37  1  0.24971000  0.67062000  0.55382900  1
  H  H38  1  0.75029000  0.17062000  0.94617100  1
  H  H39  1  0.75029000  0.32938000  0.44617100  1
  H  H40  1  0.17675800  0.93871600  0.95998900  1
  H  H41  1  0.17675800  0.56128400  0.45998900  1
  H  H42  1  0.82324200  0.06128400  0.04001100  1
  H  H43  1  0.82324200  0.43871600  0.54001100  1
  H  H44  1  0.52979500  0.53890400  0.85733700  1
  H  H45  1  0.52979500  0.96109600  0.35733700  1
  H  H46  1  0.47020500  0.46109600  0.14266300  1
  H  H47  1  0.47020500  0.03890400  0.64266300  1
  H  H48  1  0.71494200  0.60047500  0.91319100  1
  H  H49  1  0.71494200  0.89952500  0.41319100  1
  H  H50  1  0.28505800  0.39952500  0.08680900  1
  H  H51  1  0.28505800  0.10047500  0.58680900  1
  H  H52  1  0.54068500  0.64823300  0.79010000  1
  H  H53  1  0.54068500  0.85176700  0.29010000  1
  H  H54  1  0.45931500  0.35176700  0.20990000  1
  H  H55  1  0.45931500  0.14823300  0.70990000  1
  H  H56  1  0.61794900  0.72017900  0.09632100  1
  H  H57  1  0.61794900  0.77982100  0.59632100  1
  H  H58  1  0.38205100  0.27982100  0.90367900  1
  H  H59  1  0.38205100  0.22017900  0.40367900  1
  H  H60  1  0.76956200  0.65584300  0.10225100  1
  H  H61  1  0.76956200  0.84415700  0.60225100  1
  H  H62  1  0.23043800  0.34415700  0.89774900  1
  H  H63  1  0.23043800  0.15584300  0.39774900  1
  H  H64  1  0.59441800  0.58163500  0.05106400  1
  H  H65  1  0.59441800  0.91836500  0.55106400  1
  H  H66  1  0.40558200  0.41836500  0.94893600  1
  H  H67  1  0.40558200  0.08163500  0.44893600  1
  H  H68  1  0.61359800  0.87209500  0.87338600  1
  H  H69  1  0.61359800  0.62790500  0.37338600  1
  H  H70  1  0.38640200  0.12790500  0.12661400  1
  H  H71  1  0.38640200  0.37209500  0.62661400  1
  H  H72  1  0.78566400  0.82104900  0.99656800  1
  H  H73  1  0.78566400  0.67895100  0.49656800  1
  H  H74  1  0.21433600  0.17895100  0.00343200  1
  H  H75  1  0.21433600  0.32104900  0.50343200  1
  H  H76  1  0.64224000  0.89903800  0.99024400  1
  H  H77  1  0.64224000  0.60096200  0.49024400  1
  H  H78  1  0.35776000  0.10096200  0.00975600  1
  H  H79  1  0.35776000  0.39903800  0.50975600  1
  W  W80  1  0.18730500  0.80690600  0.71425000  1
  W  W81  1  0.18730500  0.69309400  0.21425000  1
  W  W82  1  0.81269500  0.19309400  0.28575000  1
  W  W83  1  0.81269500  0.30690600  0.78575000  1
  C  C84  1  0.91012400  0.77910000  0.85629300  1
  C  C85  1  0.91012400  0.72090000  0.35629300  1
  C  C86  1  0.08987600  0.22090000  0.14370700  1
  C  C87  1  0.08987600  0.27910000  0.64370700  1
  C  C88  1  0.15187900  0.62407100  0.92091800  1
  C  C89  1  0.15187900  0.87592900  0.42091800  1
  C  C90  1  0.84812100  0.37592900  0.07908200  1
  C  C91  1  0.84812100  0.12407100  0.57908200  1
  C  C92  1  0.22650600  0.85541100  0.98202400  1
  C  C93  1  0.22650600  0.64458900  0.48202500  1
  C  C94  1  0.77349400  0.14458900  0.01797600  1
  C  C95  1  0.77349400  0.35541100  0.51797600  1
  C  C96  1  0.58950800  0.61598900  0.86679900  1
  C  C97  1  0.58950800  0.88401100  0.36679900  1
  C  C98  1  0.41049200  0.38401100  0.13320100  1
  C  C99  1  0.41049200  0.11598900  0.63320100  1
  C  C100  1  0.64296700  0.66297700  0.05736200  1
  C  C101  1  0.64296700  0.83702300  0.55736200  1
  C  C102  1  0.35703300  0.33702300  0.94263800  1
  C  C103  1  0.35703300  0.16297700  0.44263800  1
  C  C104  1  0.66073300  0.83894600  0.94952800  1
  C  C105  1  0.66073300  0.66105400  0.44952800  1
  C  C106  1  0.33926700  0.16105400  0.05047200  1
  C  C107  1  0.33926700  0.33894600  0.55047200  1
  Cl  Cl108  1  0.26507100  0.98412700  0.79971200  1
  Cl  Cl109  1  0.26507100  0.51587300  0.29971200  1
  Cl  Cl110  1  0.73492900  0.01587300  0.20028800  1
  Cl  Cl111  1  0.73492900  0.48412700  0.70028800  1
  Cl  Cl112  1  0.12288700  0.61446100  0.66966400  1
  Cl  Cl113  1  0.12288700  0.88553900  0.16966400  1
  Cl  Cl114  1  0.87711300  0.38553900  0.33033600  1
  Cl  Cl115  1  0.87711300  0.11446100  0.83033600  1
  O  O116  1  0.32015400  0.81099700  0.68889800  1
  O  O117  1  0.32015400  0.68900300  0.18889800  1
  O  O118  1  0.67984600  0.18900300  0.31110200  1
  O  O119  1  0.67984600  0.31099700  0.81110200  1
  O  O120  1  0.01281800  0.85386300  0.59657000  1
  O  O121  1  0.01281800  0.64613700  0.09657000  1
  O  O122  1  0.98718200  0.14613700  0.40343000  1
  O  O123  1  0.98718200  0.35386300  0.90343000  1
  O  O124  1  0.07153000  0.78872100  0.78069900  1
  O  O125  1  0.07153000  0.71127900  0.28069900  1
  O  O126  1  0.92847000  0.21127900  0.21930100  1
  O  O127  1  0.92847000  0.28872100  0.71930100  1
  O  O128  1  0.38184800  0.73859400  0.87185600  1
  O  O129  1  0.38184800  0.76140600  0.37185600  1
  O  O130  1  0.61815200  0.26140600  0.12814400  1
  O  O131  1  0.61815200  0.23859400  0.62814400  1
