# generated using pymatgen
data_AlCrMo6(H19O20)2
_symmetry_space_group_name_H-M   'P 1'
_cell_length_a   6.88919996
_cell_length_b   11.46886747
_cell_length_c   11.96694090
_cell_angle_alpha   101.83478401
_cell_angle_beta   96.36675836
_cell_angle_gamma   103.25499672
_symmetry_Int_Tables_number   1
_chemical_formula_structural   AlCrMo6(H19O20)2
_chemical_formula_sum   'Al1 Cr1 Mo6 H38 O40'
_cell_volume   888.30937164
_cell_formula_units_Z   1
loop_
 _symmetry_equiv_pos_site_id
 _symmetry_equiv_pos_as_xyz
  1  'x, y, z'
loop_
 _atom_site_type_symbol
 _atom_site_label
 _atom_site_symmetry_multiplicity
 _atom_site_fract_x
 _atom_site_fract_y
 _atom_site_fract_z
 _atom_site_occupancy
  Al  Al0  1  0.00000000  0.50000000  0.50000000  1
  Cr  Cr1  1  0.00000000  0.00000000  0.00000000  1
  Mo  Mo2  1  0.62592200  0.82938800  0.09952000  1
  Mo  Mo3  1  0.37407800  0.17061200  0.90048000  1
  Mo  Mo4  1  0.65657400  0.75380200  0.81732500  1
  Mo  Mo5  1  0.34342600  0.24619800  0.18267500  1
  Mo  Mo6  1  0.02520200  0.92971800  0.70904000  1
  Mo  Mo7  1  0.97479800  0.07028200  0.29096000  1
  H  H8  1  0.70418300  0.08728400  0.08532500  1
  H  H9  1  0.29581700  0.91271600  0.91467500  1
  H  H10  1  0.95900000  0.76460000  0.01647800  1
  H  H11  1  0.04100000  0.23540000  0.98352200  1
  H  H12  1  0.72123600  0.01591500  0.84118000  1
  H  H13  1  0.27876400  0.98408500  0.15882000  1
  H  H14  1  0.74935900  0.61247700  0.42702400  1
  H  H15  1  0.25064100  0.38752300  0.57297600  1
  H  H16  1  0.97300600  0.68275700  0.41310000  1
  H  H17  1  0.02699400  0.31724300  0.58690000  1
  H  H18  1  0.03087100  0.35110500  0.30925300  1
  H  H19  1  0.96912900  0.64889500  0.69074700  1
  H  H20  1  0.92906700  0.45450500  0.27102500  1
  H  H21  1  0.07093300  0.54549500  0.72897500  1
  H  H22  1  0.65756000  0.34162100  0.41791300  1
  H  H23  1  0.34244000  0.65837900  0.58208700  1
  H  H24  1  0.64919700  0.40525300  0.55332400  1
  H  H25  1  0.35080300  0.59474700  0.44667600  1
  H  H26  1  0.98878300  0.80046500  0.29450800  1
  H  H27  1  0.01121700  0.19953500  0.70549200  1
  H  H28  1  0.20605300  0.78642700  0.33725800  1
  H  H29  1  0.79394700  0.21357300  0.66274200  1
  H  H30  1  0.80346600  0.27011000  0.89213200  1
  H  H31  1  0.19653400  0.72989000  0.10786800  1
  H  H32  1  0.87591600  0.37450200  0.00946400  1
  H  H33  1  0.12408400  0.62549800  0.99053600  1
  H  H34  1  0.89288500  0.55404300  0.11923700  1
  H  H35  1  0.10711500  0.44595700  0.88076300  1
  H  H36  1  0.68007000  0.46470400  0.11675400  1
  H  H37  1  0.31993000  0.53529600  0.88324600  1
  H  H38  1  0.46744200  0.55921100  0.28149700  1
  H  H39  1  0.53255800  0.44078900  0.71850300  1
  H  H40  1  0.51639900  0.70026900  0.35583400  1
  H  H41  1  0.48360100  0.29973100  0.64416600  1
  H  H42  1  0.53923400  0.91472000  0.35760700  1
  H  H43  1  0.46076600  0.08528000  0.64239300  1
  H  H44  1  0.46275700  0.88539800  0.47041200  1
  H  H45  1  0.53724300  0.11460200  0.52958800  1
  O  O46  1  0.79018900  0.03236100  0.09966200  1
  O  O47  1  0.20981100  0.96763900  0.90033800  1
  O  O48  1  0.84818400  0.89099300  0.23079000  1
  O  O49  1  0.15181600  0.10900700  0.76921000  1
  O  O50  1  0.42485600  0.87958200  0.15768700  1
  O  O51  1  0.57514400  0.12041800  0.84231300  1
  O  O52  1  0.57932200  0.67494100  0.10187200  1
  O  O53  1  0.42067800  0.32505900  0.89812800  1
  O  O54  1  0.87536800  0.82186800  0.99433100  1
  O  O55  1  0.12463200  0.17813200  0.00566900  1
  O  O56  1  0.50913900  0.81707500  0.93718100  1
  O  O57  1  0.49086100  0.18292500  0.06281900  1
  O  O58  1  0.62222000  0.59989500  0.82625900  1
  O  O59  1  0.37778000  0.40010500  0.17374100  1
  O  O60  1  0.48308400  0.74730700  0.69761000  1
  O  O61  1  0.51691600  0.25269300  0.30239000  1
  O  O62  1  0.90449500  0.77019600  0.74639000  1
  O  O63  1  0.09550500  0.22980400  0.25361000  1
  O  O64  1  0.81403900  0.96157900  0.84820700  1
  O  O65  1  0.18596100  0.03842100  0.15179300  1
  O  O66  1  0.83762400  0.93709300  0.60409500  1
  O  O67  1  0.16237600  0.06290700  0.39590500  1
  O  O68  1  0.21612600  0.89313200  0.63676600  1
  O  O69  1  0.78387400  0.10686800  0.36323400  1
  O  O70  1  0.89457000  0.62848900  0.46080900  1
  O  O71  1  0.10543000  0.37151100  0.53919100  1
  O  O72  1  0.99264000  0.43061200  0.33866900  1
  O  O73  1  0.00736000  0.56938800  0.66133100  1
  O  O74  1  0.73531900  0.40296000  0.49076900  1
  O  O75  1  0.26468100  0.59704000  0.50923100  1
  O  O76  1  0.06040200  0.74220700  0.31878900  1
  O  O77  1  0.93959800  0.25779300  0.68121100  1
  O  O78  1  0.92425200  0.32686700  0.94322500  1
  O  O79  1  0.07574800  0.67313300  0.05677500  1
  O  O80  1  0.82566000  0.47157300  0.12934800  1
  O  O81  1  0.17434000  0.52842700  0.87065200  1
  O  O82  1  0.51420100  0.61437100  0.35971000  1
  O  O83  1  0.48579900  0.38562900  0.64029000  1
  O  O84  1  0.46193000  0.84969300  0.38905600  1
  O  O85  1  0.53807000  0.15030700  0.61094400  1
