# generated using pymatgen
data_Na2FeP2(HO3)2
_symmetry_space_group_name_H-M   'P 1'
_cell_length_a   5.50472000
_cell_length_b   9.40076800
_cell_length_c   12.34220500
_cell_angle_alpha   90.00000000
_cell_angle_beta   90.00000000
_cell_angle_gamma   90.00000000
_symmetry_Int_Tables_number   1
_chemical_formula_structural   Na2FeP2(HO3)2
_chemical_formula_sum   'Na8 Fe4 P8 H8 O24'
_cell_volume   638.69177567
_cell_formula_units_Z   4
loop_
 _symmetry_equiv_pos_site_id
 _symmetry_equiv_pos_as_xyz
  1  'x, y, z'
loop_
 _atom_site_type_symbol
 _atom_site_label
 _atom_site_symmetry_multiplicity
 _atom_site_fract_x
 _atom_site_fract_y
 _atom_site_fract_z
 _atom_site_occupancy
  Na  Na0  1  0.75000000  0.27342500  0.59736700  1
  Na  Na1  1  0.75000000  0.22657500  0.09736700  1
  Na  Na2  1  0.25000000  0.72657500  0.40263300  1
  Na  Na3  1  0.25000000  0.77342500  0.90263300  1
  Na  Na4  1  0.25000000  0.17355700  0.77801300  1
  Na  Na5  1  0.25000000  0.32644300  0.27801300  1
  Na  Na6  1  0.75000000  0.82644300  0.22198700  1
  Na  Na7  1  0.75000000  0.67355700  0.72198700  1
  Fe  Fe8  1  0.25000000  0.86370600  0.65818400  1
  Fe  Fe9  1  0.25000000  0.63629400  0.15818400  1
  Fe  Fe10  1  0.75000000  0.13629400  0.34181600  1
  Fe  Fe11  1  0.75000000  0.36370600  0.84181600  1
  P  P12  1  0.75000000  0.87182600  0.51522300  1
  P  P13  1  0.75000000  0.62817400  0.01522300  1
  P  P14  1  0.25000000  0.12817400  0.48477700  1
  P  P15  1  0.25000000  0.37182600  0.98477700  1
  P  P16  1  0.25000000  0.49663300  0.68672800  1
  P  P17  1  0.25000000  0.00336700  0.18672800  1
  P  P18  1  0.75000000  0.50336700  0.31327200  1
  P  P19  1  0.75000000  0.99663300  0.81327200  1
  H  H20  1  0.25000000  0.50416600  0.57227700  1
  H  H21  1  0.25000000  0.99583400  0.07227700  1
  H  H22  1  0.75000000  0.49583400  0.42772300  1
  H  H23  1  0.75000000  0.00416600  0.92772300  1
  H  H24  1  0.75000000  0.99718200  0.57760400  1
  H  H25  1  0.75000000  0.50281800  0.07760400  1
  H  H26  1  0.25000000  0.00281800  0.42239600  1
  H  H27  1  0.25000000  0.49718200  0.92239600  1
  O  O28  1  0.97984600  0.78870700  0.54860000  1
  O  O29  1  0.52015400  0.71129300  0.04860000  1
  O  O30  1  0.47984600  0.21129300  0.45140000  1
  O  O31  1  0.02015400  0.28870700  0.95140000  1
  O  O32  1  0.02015400  0.21129300  0.45140000  1
  O  O33  1  0.47984600  0.28870700  0.95140000  1
  O  O34  1  0.52015400  0.78870700  0.54860000  1
  O  O35  1  0.97984600  0.71129300  0.04860000  1
  O  O36  1  0.25000000  0.65028300  0.72980400  1
  O  O37  1  0.25000000  0.84971700  0.22980400  1
  O  O38  1  0.75000000  0.34971700  0.27019600  1
  O  O39  1  0.75000000  0.15028300  0.77019600  1
  O  O40  1  0.98351800  0.91425500  0.78386700  1
  O  O41  1  0.51648200  0.58574500  0.28386700  1
  O  O42  1  0.48351800  0.08574500  0.21613300  1
  O  O43  1  0.01648200  0.41425500  0.71613300  1
  O  O44  1  0.01648200  0.08574500  0.21613300  1
  O  O45  1  0.48351800  0.41425500  0.71613300  1
  O  O46  1  0.51648200  0.91425500  0.78386700  1
  O  O47  1  0.98351800  0.58574500  0.28386700  1
  O  O48  1  0.25000000  0.08288400  0.60447800  1
  O  O49  1  0.25000000  0.41711600  0.10447800  1
  O  O50  1  0.75000000  0.91711600  0.39552200  1
  O  O51  1  0.75000000  0.58288400  0.89552200  1
