# generated using pymatgen
data_V2H10Se2O13
_symmetry_space_group_name_H-M   'P 1'
_cell_length_a   6.36846400
_cell_length_b   9.93273810
_cell_length_c   10.77872253
_cell_angle_alpha   114.31453798
_cell_angle_beta   90.00000000
_cell_angle_gamma   108.69797289
_symmetry_Int_Tables_number   1
_chemical_formula_structural   V2H10Se2O13
_chemical_formula_sum   'V4 H20 Se4 O26'
_cell_volume   581.62823196
_cell_formula_units_Z   2
loop_
 _symmetry_equiv_pos_site_id
 _symmetry_equiv_pos_as_xyz
  1  'x, y, z'
loop_
 _atom_site_type_symbol
 _atom_site_label
 _atom_site_symmetry_multiplicity
 _atom_site_fract_x
 _atom_site_fract_y
 _atom_site_fract_z
 _atom_site_occupancy
  V  V0  1  0.06709300  0.72722000  0.39356400  1
  V  V1  1  0.33987200  0.27278000  0.10643600  1
  V  V2  1  0.93290700  0.27278000  0.60643600  1
  V  V3  1  0.66012800  0.72722000  0.89356400  1
  H  H4  1  0.31757900  0.96733400  0.62059600  1
  H  H5  1  0.35024600  0.03266600  0.87940400  1
  H  H6  1  0.68242100  0.03266600  0.37940400  1
  H  H7  1  0.64975400  0.96733400  0.12059600  1
  H  H8  1  0.21346600  0.05281900  0.55008100  1
  H  H9  1  0.16064700  0.94718100  0.94991900  1
  H  H10  1  0.78653400  0.94718100  0.44991900  1
  H  H11  1  0.83935300  0.05281900  0.05008100  1
  H  H12  1  0.89839600  0.73446100  0.64484000  1
  H  H13  1  0.16393500  0.26553900  0.85516000  1
  H  H14  1  0.10160400  0.26553900  0.35516000  1
  H  H15  1  0.83606500  0.73446100  0.14484000  1
  H  H16  1  0.04571000  0.62540000  0.61611900  1
  H  H17  1  0.42031000  0.37460000  0.88388100  1
  H  H18  1  0.95429000  0.37460000  0.38388100  1
  H  H19  1  0.57969000  0.62540000  0.11611900  1
  H  H20  1  0.36071400  0.90939100  0.23467400  1
  H  H21  1  0.45132300  0.09060900  0.26532600  1
  H  H22  1  0.63928600  0.09060900  0.76532600  1
  H  H23  1  0.54867700  0.90939100  0.73467400  1
  Se  Se24  1  0.91584000  0.39992300  0.11577900  1
  Se  Se25  1  0.51591700  0.60007700  0.38422100  1
  Se  Se26  1  0.08416000  0.60007700  0.88422100  1
  Se  Se27  1  0.48408300  0.39992300  0.61577900  1
  O  O28  1  0.64083100  0.28533100  0.05069300  1
  O  O29  1  0.35550000  0.71466900  0.44930700  1
  O  O30  1  0.35916900  0.71466900  0.94930700  1
  O  O31  1  0.64450000  0.28533100  0.55069300  1
  O  O32  1  0.91474600  0.48688900  0.29427500  1
  O  O33  1  0.42785600  0.51311100  0.20572500  1
  O  O34  1  0.08525400  0.51311100  0.70572500  1
  O  O35  1  0.57214400  0.48688900  0.79427500  1
  O  O36  1  0.00977800  0.24579500  0.09292600  1
  O  O37  1  0.76398300  0.75420500  0.40707400  1
  O  O38  1  0.99022200  0.75420500  0.90707400  1
  O  O39  1  0.23601700  0.24579500  0.59292600  1
  O  O40  1  0.19145400  0.95065700  0.55326100  1
  O  O41  1  0.24079700  0.04934300  0.94673900  1
  O  O42  1  0.80854600  0.04934300  0.44673900  1
  O  O43  1  0.75920300  0.95065700  0.05326100  1
  O  O44  1  0.11535000  0.76430900  0.25678800  1
  O  O45  1  0.35104100  0.23569100  0.24321200  1
  O  O46  1  0.88465000  0.23569100  0.74321200  1
  O  O47  1  0.64895900  0.76430900  0.75678800  1
  O  O48  1  0.97736800  0.67729800  0.57531400  1
  O  O49  1  0.30006900  0.32270200  0.92468600  1
  O  O50  1  0.02263200  0.32270200  0.42468600  1
  O  O51  1  0.69993100  0.67729800  0.07531400  1
  O  O52  1  0.49938100  0.00000000  0.25000000  1
  O  O53  1  0.50061900  0.00000000  0.75000000  1
