# generated using pymatgen
data_Ba(BO4)2
_symmetry_space_group_name_H-M   'P 1'
_cell_length_a   16.28499000
_cell_length_b   8.09882900
_cell_length_c   11.65237173
_cell_angle_alpha   60.54293501
_cell_angle_beta   90.00000000
_cell_angle_gamma   90.00000000
_symmetry_Int_Tables_number   1
_chemical_formula_structural   Ba(BO4)2
_chemical_formula_sum   'Ba8 B16 O64'
_cell_volume   1338.14999721
_cell_formula_units_Z   8
loop_
 _symmetry_equiv_pos_site_id
 _symmetry_equiv_pos_as_xyz
  1  'x, y, z'
loop_
 _atom_site_type_symbol
 _atom_site_label
 _atom_site_symmetry_multiplicity
 _atom_site_fract_x
 _atom_site_fract_y
 _atom_site_fract_z
 _atom_site_occupancy
  Ba  Ba0  1  0.32842400  0.00093300  0.73239500  1
  Ba  Ba1  1  0.17157600  0.00093300  0.23239500  1
  Ba  Ba2  1  0.67157600  0.99906700  0.26760500  1
  Ba  Ba3  1  0.82842400  0.99906700  0.76760500  1
  Ba  Ba4  1  0.08970400  0.47122100  0.76825600  1
  Ba  Ba5  1  0.41029600  0.47122100  0.26825600  1
  Ba  Ba6  1  0.91029600  0.52877900  0.23174400  1
  Ba  Ba7  1  0.58970400  0.52877900  0.73174400  1
  B  B8  1  0.51106100  0.77706800  0.92447100  1
  B  B9  1  0.98893900  0.77706800  0.42447100  1
  B  B10  1  0.48893900  0.22293200  0.07552900  1
  B  B11  1  0.01106100  0.22293200  0.57552900  1
  B  B12  1  0.47085500  0.79522700  0.41785100  1
  B  B13  1  0.02914500  0.79522700  0.91785100  1
  B  B14  1  0.52914500  0.20477300  0.58214900  1
  B  B15  1  0.97085500  0.20477300  0.08214900  1
  B  B16  1  0.23572400  0.71004900  0.05487600  1
  B  B17  1  0.26427600  0.71004900  0.55487600  1
  B  B18  1  0.76427600  0.28995100  0.94512400  1
  B  B19  1  0.73572400  0.28995100  0.44512400  1
  B  B20  1  0.28454900  0.25152000  0.93841300  1
  B  B21  1  0.21545100  0.25152000  0.43841300  1
  B  B22  1  0.71545100  0.74848000  0.06158700  1
  B  B23  1  0.78454900  0.74848000  0.56158700  1
  O  O24  1  0.07821400  0.25974100  0.63906600  1
  O  O25  1  0.42178600  0.25974100  0.13906600  1
  O  O26  1  0.92178600  0.74025900  0.36093400  1
  O  O27  1  0.57821400  0.74025900  0.86093400  1
  O  O28  1  0.48070100  0.31496100  0.93514800  1
  O  O29  1  0.01929900  0.31496100  0.43514800  1
  O  O30  1  0.51929900  0.68503900  0.06485200  1
  O  O31  1  0.98070100  0.68503900  0.56485200  1
  O  O32  1  0.43452200  0.69079400  0.91180100  1
  O  O33  1  0.06547800  0.69079400  0.41180100  1
  O  O34  1  0.56547800  0.30920600  0.08819900  1
  O  O35  1  0.93452200  0.30920600  0.58819900  1
  O  O36  1  0.48221100  0.97030700  0.86302100  1
  O  O37  1  0.01778900  0.97030700  0.36302100  1
  O  O38  1  0.51778900  0.02969300  0.13697900  1
  O  O39  1  0.98221100  0.02969300  0.63697900  1
  O  O40  1  0.51059100  0.00536700  0.64376500  1
  O  O41  1  0.98940900  0.00536700  0.14376500  1
  O  O42  1  0.48940900  0.99463300  0.35623500  1
  O  O43  1  0.01059100  0.99463300  0.85623500  1
  O  O44  1  0.44648900  0.27735400  0.57922500  1
  O  O45  1  0.05351100  0.27735400  0.07922500  1
  O  O46  1  0.55351100  0.72264600  0.42077500  1
  O  O47  1  0.94648900  0.72264600  0.92077500  1
  O  O48  1  0.45754900  0.70495500  0.55907800  1
  O  O49  1  0.04245100  0.70495500  0.05907800  1
  O  O50  1  0.54245100  0.29504500  0.44092200  1
  O  O51  1  0.95754900  0.29504500  0.94092200  1
  O  O52  1  0.40824500  0.71867600  0.37149800  1
  O  O53  1  0.09175500  0.71867600  0.87149800  1
  O  O54  1  0.59175500  0.28132400  0.62850200  1
  O  O55  1  0.90824500  0.28132400  0.12850200  1
  O  O56  1  0.24041900  0.51363100  0.61454900  1
  O  O57  1  0.25958100  0.51363100  0.11454900  1
  O  O58  1  0.75958100  0.48636900  0.38545100  1
  O  O59  1  0.74041900  0.48636900  0.88545100  1
  O  O60  1  0.31469200  0.75379900  0.63630800  1
  O  O61  1  0.18530800  0.75379900  0.13630800  1
  O  O62  1  0.68530800  0.24620100  0.36369200  1
  O  O63  1  0.81469200  0.24620100  0.86369200  1
  O  O64  1  0.28808100  0.80702200  0.41904300  1
  O  O65  1  0.21191900  0.80702200  0.91904300  1
  O  O66  1  0.71191900  0.19297800  0.58095700  1
  O  O67  1  0.78808100  0.19297800  0.08095700  1
  O  O68  1  0.31702300  0.77848600  0.07140200  1
  O  O69  1  0.18297700  0.77848600  0.57140200  1
  O  O70  1  0.68297700  0.22151400  0.92859800  1
  O  O71  1  0.81702300  0.22151400  0.42859800  1
  O  O72  1  0.19227100  0.17436300  0.57367900  1
  O  O73  1  0.30772900  0.17436300  0.07367900  1
  O  O74  1  0.80772900  0.82563700  0.42632100  1
  O  O75  1  0.69227100  0.82563700  0.92632100  1
  O  O76  1  0.33484900  0.24060100  0.84300400  1
  O  O77  1  0.16515100  0.24060100  0.34300400  1
  O  O78  1  0.66515100  0.75939900  0.15699600  1
  O  O79  1  0.83484900  0.75939900  0.65699600  1
  O  O80  1  0.20518700  0.17259900  0.92923500  1
  O  O81  1  0.29481300  0.17259900  0.42923500  1
  O  O82  1  0.79481300  0.82740100  0.07076500  1
  O  O83  1  0.70518700  0.82740100  0.57076500  1
  O  O84  1  0.24428100  0.44418800  0.39226800  1
  O  O85  1  0.25571900  0.44418800  0.89226800  1
  O  O86  1  0.75571900  0.55581200  0.60773200  1
  O  O87  1  0.74428100  0.55581200  0.10773200  1
