# generated using pymatgen
data_KCdN9O
_symmetry_space_group_name_H-M   'P 1'
_cell_length_a   12.04277200
_cell_length_b   3.82163500
_cell_length_c   17.84112400
_cell_angle_alpha   90.00000000
_cell_angle_beta   90.00000000
_cell_angle_gamma   90.00000000
_symmetry_Int_Tables_number   1
_chemical_formula_structural   KCdN9O
_chemical_formula_sum   'K4 Cd4 N36 O4'
_cell_volume   821.10345881
_cell_formula_units_Z   4
loop_
 _symmetry_equiv_pos_site_id
 _symmetry_equiv_pos_as_xyz
  1  'x, y, z'
loop_
 _atom_site_type_symbol
 _atom_site_label
 _atom_site_symmetry_multiplicity
 _atom_site_fract_x
 _atom_site_fract_y
 _atom_site_fract_z
 _atom_site_occupancy
  K  K0  1  0.45553600  0.25000000  0.80389500  1
  K  K1  1  0.95553600  0.25000000  0.69610500  1
  K  K2  1  0.54446400  0.75000000  0.19610500  1
  K  K3  1  0.04446400  0.75000000  0.30389500  1
  Cd  Cd4  1  0.51478700  0.25000000  0.40867500  1
  Cd  Cd5  1  0.01478700  0.25000000  0.09132500  1
  Cd  Cd6  1  0.48521300  0.75000000  0.59132500  1
  Cd  Cd7  1  0.98521300  0.75000000  0.90867500  1
  N  N8  1  0.62251500  0.75000000  0.37587000  1
  N  N9  1  0.12251500  0.75000000  0.12413000  1
  N  N10  1  0.37748500  0.25000000  0.62413000  1
  N  N11  1  0.87748500  0.25000000  0.87587000  1
  N  N12  1  0.72296500  0.75000000  0.36908700  1
  N  N13  1  0.22296500  0.75000000  0.13091300  1
  N  N14  1  0.27703500  0.25000000  0.63091300  1
  N  N15  1  0.77703500  0.25000000  0.86908700  1
  N  N16  1  0.81851500  0.75000000  0.36101700  1
  N  N17  1  0.31851500  0.75000000  0.13898300  1
  N  N18  1  0.18148500  0.25000000  0.63898300  1
  N  N19  1  0.68148500  0.25000000  0.86101700  1
  N  N20  1  0.58774000  0.25000000  0.53601900  1
  N  N21  1  0.08774000  0.25000000  0.96398100  1
  N  N22  1  0.41226000  0.75000000  0.46398100  1
  N  N23  1  0.91226000  0.75000000  0.03601900  1
  N  N24  1  0.68971400  0.25000000  0.53785600  1
  N  N25  1  0.18971400  0.25000000  0.96214400  1
  N  N26  1  0.31028600  0.75000000  0.46214400  1
  N  N27  1  0.81028600  0.75000000  0.03785600  1
  N  N28  1  0.78576000  0.25000000  0.53915600  1
  N  N29  1  0.28576000  0.25000000  0.96084400  1
  N  N30  1  0.21424000  0.75000000  0.46084400  1
  N  N31  1  0.71424000  0.75000000  0.03915600  1
  N  N32  1  0.42150800  0.25000000  0.29585400  1
  N  N33  1  0.92150800  0.25000000  0.20414600  1
  N  N34  1  0.57849200  0.75000000  0.70414600  1
  N  N35  1  0.07849200  0.75000000  0.79585400  1
  N  N36  1  0.32185300  0.25000000  0.29189300  1
  N  N37  1  0.82185300  0.25000000  0.20810700  1
  N  N38  1  0.67814700  0.75000000  0.70810700  1
  N  N39  1  0.17814700  0.75000000  0.79189300  1
  N  N40  1  0.22513800  0.25000000  0.28509900  1
  N  N41  1  0.72513800  0.25000000  0.21490100  1
  N  N42  1  0.77486200  0.75000000  0.71490100  1
  N  N43  1  0.27486200  0.75000000  0.78509900  1
  O  O44  1  0.49207200  0.75000000  0.92357300  1
  O  O45  1  0.99207200  0.75000000  0.57642700  1
  O  O46  1  0.50792800  0.25000000  0.07642700  1
  O  O47  1  0.00792800  0.25000000  0.42357300  1
