# generated using pymatgen
data_Sr2B5H3O11
_symmetry_space_group_name_H-M   'P 1'
_cell_length_a   6.57421100
_cell_length_b   6.61995496
_cell_length_c   11.51095148
_cell_angle_alpha   94.48435108
_cell_angle_beta   88.91880755
_cell_angle_gamma   118.73177807
_symmetry_Int_Tables_number   1
_chemical_formula_structural   Sr2B5H3O11
_chemical_formula_sum   'Sr4 B10 H6 O22'
_cell_volume   437.84340848
_cell_formula_units_Z   2
loop_
 _symmetry_equiv_pos_site_id
 _symmetry_equiv_pos_as_xyz
  1  'x, y, z'
loop_
 _atom_site_type_symbol
 _atom_site_label
 _atom_site_symmetry_multiplicity
 _atom_site_fract_x
 _atom_site_fract_y
 _atom_site_fract_z
 _atom_site_occupancy
  Sr  Sr0  1  0.23615800  0.52524600  0.23181200  1
  Sr  Sr1  1  0.43158300  0.52773600  0.74601000  1
  Sr  Sr2  1  0.38686200  0.12651800  0.43744200  1
  Sr  Sr3  1  0.88070700  0.12140200  0.94288500  1
  B  B4  1  0.95588400  0.65726900  0.73821800  1
  B  B5  1  0.34405400  0.99857400  0.76357200  1
  B  B6  1  0.03061600  0.03178300  0.65838100  1
  B  B7  1  0.34089400  0.10252300  0.98936500  1
  B  B8  1  0.75886100  0.62115800  0.22164100  1
  B  B9  1  0.83974400  0.11537000  0.49639000  1
  B  B10  1  0.58680300  0.17153200  0.16606400  1
  B  B11  1  0.77079200  0.21432200  0.70320500  1
  B  B12  1  0.15079100  0.95230100  0.18102500  1
  B  B13  1  0.83698800  0.03153600  0.26985600  1
  H  H14  1  0.34931500  0.61469800  0.48434400  1
  H  H15  1  0.62111000  0.65676700  0.51329600  1
  H  H16  1  0.08935600  0.64661700  0.48650300  1
  H  H17  1  0.43845600  0.61404400  0.98487400  1
  H  H18  1  0.70601100  0.63113000  0.99347200  1
  H  H19  1  0.16976900  0.63109600  0.00219300  1
  O  O20  1  0.37825700  0.97945900  0.21121900  1
  O  O21  1  0.22556800  0.69207300  0.43875900  1
  O  O22  1  0.27565600  0.08974500  0.66732100  1
  O  O23  1  0.57657200  0.02570100  0.75829900  1
  O  O24  1  0.55854500  0.18018700  0.03642600  1
  O  O25  1  0.98847800  0.20644700  0.72622600  1
  O  O26  1  0.14768000  0.01688700  0.05921200  1
  O  O27  1  0.78663100  0.12082000  0.38244200  1
  O  O28  1  0.68060500  0.77531400  0.25630900  1
  O  O29  1  0.78932000  0.43486100  0.75513100  1
  O  O30  1  0.73510500  0.20268000  0.57482100  1
  O  O31  1  0.08349300  0.08598900  0.26646800  1
  O  O32  1  0.45922700  0.53673500  0.51834300  1
  O  O33  1  0.97895200  0.02697700  0.53066000  1
  O  O34  1  0.87466700  0.79694900  0.69769500  1
  O  O35  1  0.59988000  0.39078400  0.22708600  1
  O  O36  1  0.30189300  0.11490900  0.87379100  1
  O  O37  1  0.18611200  0.74106400  0.76516300  1
  O  O38  1  0.79651800  0.15282900  0.17833900  1
  O  O39  1  0.62411500  0.69465600  0.95281000  1
  O  O40  1  0.98065000  0.69745100  0.18191100  1
  O  O41  1  0.21844200  0.51434800  0.00774300  1
