# generated using pymatgen
data_BaMo6I2O25
_symmetry_space_group_name_H-M   'P 1'
_cell_length_a   7.82534917
_cell_length_b   7.82534917
_cell_length_c   21.38674340
_cell_angle_alpha   74.37044497
_cell_angle_beta   74.37044497
_cell_angle_gamma   58.02487199
_symmetry_Int_Tables_number   1
_chemical_formula_structural   BaMo6I2O25
_chemical_formula_sum   'Ba2 Mo12 I4 O50'
_cell_volume   1056.90530379
_cell_formula_units_Z   2
loop_
 _symmetry_equiv_pos_site_id
 _symmetry_equiv_pos_as_xyz
  1  'x, y, z'
loop_
 _atom_site_type_symbol
 _atom_site_label
 _atom_site_symmetry_multiplicity
 _atom_site_fract_x
 _atom_site_fract_y
 _atom_site_fract_z
 _atom_site_occupancy
  Ba  Ba0  1  0.65075800  0.34924200  0.75000000  1
  Ba  Ba1  1  0.34924200  0.65075800  0.25000000  1
  Mo  Mo2  1  0.08489600  0.02515200  0.41565200  1
  Mo  Mo3  1  0.97484800  0.91510400  0.08434800  1
  Mo  Mo4  1  0.91510400  0.97484800  0.58434800  1
  Mo  Mo5  1  0.02515200  0.08489600  0.91565200  1
  Mo  Mo6  1  0.81405700  0.57355000  0.34265100  1
  Mo  Mo7  1  0.42645000  0.18594300  0.15734900  1
  Mo  Mo8  1  0.18594300  0.42645000  0.65734900  1
  Mo  Mo9  1  0.57355000  0.81405700  0.84265100  1
  Mo  Mo10  1  0.56875700  0.05514600  0.41365100  1
  Mo  Mo11  1  0.94485400  0.43124300  0.08634900  1
  Mo  Mo12  1  0.43124300  0.94485400  0.58634900  1
  Mo  Mo13  1  0.05514600  0.56875700  0.91365100  1
  I  I14  1  0.73888600  0.49989900  0.50283500  1
  I  I15  1  0.50010100  0.26111400  0.99716500  1
  I  I16  1  0.26111400  0.50010100  0.49716500  1
  I  I17  1  0.49989900  0.73888600  0.00283500  1
  O  O18  1  0.88463700  0.18606700  0.50145800  1
  O  O19  1  0.81393300  0.11536300  0.99854200  1
  O  O20  1  0.11536300  0.81393300  0.49854200  1
  O  O21  1  0.18606700  0.88463700  0.00145800  1
  O  O22  1  0.59736900  0.54003100  0.43851900  1
  O  O23  1  0.45996900  0.40263100  0.06148100  1
  O  O24  1  0.40263100  0.45996900  0.56148100  1
  O  O25  1  0.54003100  0.59736900  0.93851900  1
  O  O26  1  0.58215100  0.80984900  0.50310500  1
  O  O27  1  0.19015100  0.41784900  0.99689500  1
  O  O28  1  0.41784900  0.19015100  0.49689500  1
  O  O29  1  0.80984900  0.58215100  0.00310500  1
  O  O30  1  0.94099300  0.51858000  0.43865600  1
  O  O31  1  0.48142000  0.05900700  0.06134400  1
  O  O32  1  0.05900700  0.48142000  0.56134400  1
  O  O33  1  0.51858000  0.94099300  0.93865600  1
  O  O34  1  0.81264000  0.00428200  0.42179000  1
  O  O35  1  0.99571800  0.18736000  0.07821000  1
  O  O36  1  0.18736000  0.99571800  0.57821000  1
  O  O37  1  0.00428200  0.81264000  0.92179000  1
  O  O38  1  0.94477100  0.27486700  0.36164100  1
  O  O39  1  0.72513300  0.05522900  0.13835900  1
  O  O40  1  0.05522900  0.72513300  0.63835900  1
  O  O41  1  0.27486700  0.94477100  0.86164100  1
  O  O42  1  0.21089000  0.84206600  0.36286500  1
  O  O43  1  0.15793400  0.78911000  0.13713500  1
  O  O44  1  0.78911000  0.15793400  0.63713500  1
  O  O45  1  0.84206600  0.21089000  0.86286500  1
  O  O46  1  0.28238700  0.06343100  0.42295300  1
  O  O47  1  0.93656900  0.71761300  0.07704700  1
  O  O48  1  0.71761300  0.93656900  0.57704700  1
  O  O49  1  0.06343100  0.28238700  0.92295300  1
  O  O50  1  0.02390400  0.59002100  0.29420500  1
  O  O51  1  0.40997900  0.97609600  0.20579500  1
  O  O52  1  0.97609600  0.40997900  0.70579500  1
  O  O53  1  0.59002100  0.02390400  0.79420500  1
  O  O54  1  0.67038000  0.60168700  0.28755300  1
  O  O55  1  0.39831300  0.32962000  0.21244700  1
  O  O56  1  0.32962000  0.39831300  0.71244700  1
  O  O57  1  0.60168700  0.67038000  0.78755300  1
  O  O58  1  0.66187100  0.85518500  0.36051000  1
  O  O59  1  0.14481500  0.33812900  0.13949000  1
  O  O60  1  0.33812900  0.14481500  0.63949000  1
  O  O61  1  0.85518500  0.66187100  0.86051000  1
  O  O62  1  0.48036800  0.28628400  0.36058100  1
  O  O63  1  0.71371600  0.51963200  0.13941900  1
  O  O64  1  0.51963300  0.71371600  0.63941900  1
  O  O65  1  0.28628400  0.48036800  0.86058100  1
  O  O66  1  0.04954200  0.95045800  0.75000000  1
  O  O67  1  0.95045800  0.04954200  0.25000000  1
