# generated using pymatgen
data_Sb2Te3H2C(NCl9)2
_symmetry_space_group_name_H-M   'P 1'
_cell_length_a   13.22140600
_cell_length_b   16.00170000
_cell_length_c   16.25731366
_cell_angle_alpha   71.60851049
_cell_angle_beta   90.00000000
_cell_angle_gamma   90.00000000
_symmetry_Int_Tables_number   1
_chemical_formula_structural   Sb2Te3H2C(NCl9)2
_chemical_formula_sum   'Sb8 Te12 H8 C4 N8 Cl72'
_cell_volume   3263.79950047
_cell_formula_units_Z   4
loop_
 _symmetry_equiv_pos_site_id
 _symmetry_equiv_pos_as_xyz
  1  'x, y, z'
loop_
 _atom_site_type_symbol
 _atom_site_label
 _atom_site_symmetry_multiplicity
 _atom_site_fract_x
 _atom_site_fract_y
 _atom_site_fract_z
 _atom_site_occupancy
  Sb  Sb0  1  0.42131200  0.91005800  0.36295900  1
  Sb  Sb1  1  0.92131200  0.08994200  0.13704100  1
  Sb  Sb2  1  0.57868800  0.08994200  0.63704100  1
  Sb  Sb3  1  0.07868800  0.91005800  0.86295900  1
  Sb  Sb4  1  0.71200400  0.57525700  0.42639400  1
  Sb  Sb5  1  0.21200400  0.42474300  0.07360600  1
  Sb  Sb6  1  0.28799600  0.42474300  0.57360600  1
  Sb  Sb7  1  0.78799600  0.57525700  0.92639400  1
  Te  Te8  1  0.59601400  0.69718600  0.10719600  1
  Te  Te9  1  0.09601400  0.30281400  0.39280400  1
  Te  Te10  1  0.40398600  0.30281400  0.89280400  1
  Te  Te11  1  0.90398600  0.69718600  0.60719600  1
  Te  Te12  1  0.40771700  0.74435500  0.24959600  1
  Te  Te13  1  0.90771700  0.25564500  0.25040400  1
  Te  Te14  1  0.59228300  0.25564500  0.75040400  1
  Te  Te15  1  0.09228300  0.74435500  0.74959600  1
  Te  Te16  1  0.61077900  0.86369600  0.21905600  1
  Te  Te17  1  0.11077900  0.13630400  0.28094400  1
  Te  Te18  1  0.38922100  0.13630400  0.78094400  1
  Te  Te19  1  0.88922100  0.86369600  0.71905600  1
  H  H20  1  0.07753500  0.67649500  0.16099600  1
  H  H21  1  0.57753500  0.32350500  0.33900400  1
  H  H22  1  0.92246500  0.32350500  0.83900400  1
  H  H23  1  0.42246500  0.67649500  0.66099600  1
  H  H24  1  0.98699100  0.61786200  0.24307500  1
  H  H25  1  0.48699100  0.38213800  0.25692500  1
  H  H26  1  0.01300900  0.38213800  0.75692500  1
  H  H27  1  0.51300900  0.61786200  0.74307500  1
  C  C28  1  0.05027700  0.66451500  0.22709900  1
  C  C29  1  0.55027700  0.33548500  0.27290100  1
  C  C30  1  0.94972300  0.33548500  0.77290100  1
  C  C31  1  0.44972300  0.66451500  0.72709900  1
  N  N32  1  0.54277200  0.76341000  0.18430600  1
  N  N33  1  0.04277200  0.23659000  0.31569400  1
  N  N34  1  0.45722800  0.23659000  0.81569400  1
  N  N35  1  0.95722800  0.76341000  0.68430600  1
  N  N36  1  0.47542200  0.84436100  0.27858300  1
  N  N37  1  0.97542200  0.15563900  0.22141700  1
  N  N38  1  0.52457800  0.15563900  0.72141700  1
  N  N39  1  0.02457800  0.84436100  0.77858300  1
  Cl  Cl40  1  0.51809100  0.78135100  0.97878500  1
  Cl  Cl41  1  0.01809100  0.21864900  0.52121500  1
  Cl  Cl42  1  0.48190900  0.21864900  0.02121500  1
  Cl  Cl43  1  0.98190900  0.78135100  0.47878500  1
  Cl  Cl44  1  0.73550300  0.80552000  0.09085000  1
  Cl  Cl45  1  0.23550300  0.19448000  0.40915000  1
  Cl  Cl46  1  0.26449700  0.19448000  0.90915000  1
  Cl  Cl47  1  0.76449700  0.80552000  0.59085000  1
  Cl  Cl48  1  0.43319700  0.61355400  0.15922100  1
  Cl  Cl49  1  0.93319700  0.38644600  0.34077900  1
  Cl  Cl50  1  0.56680300  0.38644600  0.84077900  1
  Cl  Cl51  1  0.06680300  0.61355400  0.65922100  1
  Cl  Cl52  1  0.30718400  0.82742400  0.13361600  1
  Cl  Cl53  1  0.80718400  0.17257600  0.36638400  1
  Cl  Cl54  1  0.69281600  0.17257600  0.86638400  1
  Cl  Cl55  1  0.19281600  0.82742400  0.63361600  1
  Cl  Cl56  1  0.56435300  0.98209700  0.09715600  1
  Cl  Cl57  1  0.06435300  0.01790300  0.40284400  1
  Cl  Cl58  1  0.43564700  0.01790300  0.90284400  1
  Cl  Cl59  1  0.93564700  0.98209700  0.59715600  1
  Cl  Cl60  1  0.48766200  0.79746700  0.48398900  1
  Cl  Cl61  1  0.98766200  0.20253300  0.01601100  1
  Cl  Cl62  1  0.51233800  0.20253300  0.51601100  1
  Cl  Cl63  1  0.01233800  0.79746700  0.98398900  1
  Cl  Cl64  1  0.27055400  0.82155200  0.36435700  1
  Cl  Cl65  1  0.77055400  0.17844800  0.13564300  1
  Cl  Cl66  1  0.72944600  0.17844800  0.63564300  1
  Cl  Cl67  1  0.22944600  0.82155200  0.86435700  1
  Cl  Cl68  1  0.35471200  0.02653400  0.24227200  1
  Cl  Cl69  1  0.85471200  0.97346600  0.25772800  1
  Cl  Cl70  1  0.64528800  0.97346600  0.75772800  1
  Cl  Cl71  1  0.14528800  0.02653400  0.74227200  1
  Cl  Cl72  1  0.59013000  0.97867100  0.33149000  1
  Cl  Cl73  1  0.09013000  0.02132900  0.16851000  1
  Cl  Cl74  1  0.40987000  0.02132900  0.66851000  1
  Cl  Cl75  1  0.90987000  0.97867100  0.83149000  1
  Cl  Cl76  1  0.36136000  0.98664200  0.45617700  1
  Cl  Cl77  1  0.86136000  0.01335800  0.04382300  1
  Cl  Cl78  1  0.63864000  0.01335800  0.54382300  1
  Cl  Cl79  1  0.13864000  0.98664200  0.95617700  1
  Cl  Cl80  1  0.67606200  0.57520200  0.57145200  1
  Cl  Cl81  1  0.17606200  0.42479800  0.92854800  1
  Cl  Cl82  1  0.32393800  0.42479800  0.42854800  1
  Cl  Cl83  1  0.82393800  0.57520200  0.07145200  1
  Cl  Cl84  1  0.88980500  0.56642100  0.45899700  1
  Cl  Cl85  1  0.38980500  0.43357900  0.04100300  1
  Cl  Cl86  1  0.11019500  0.43357900  0.54100300  1
  Cl  Cl87  1  0.61019500  0.56642100  0.95899700  1
  Cl  Cl88  1  0.72601600  0.73693200  0.38093700  1
  Cl  Cl89  1  0.22601600  0.26306800  0.11906300  1
  Cl  Cl90  1  0.27398400  0.26306800  0.61906300  1
  Cl  Cl91  1  0.77398400  0.73693200  0.88093700  1
  Cl  Cl92  1  0.74734200  0.58352700  0.27707100  1
  Cl  Cl93  1  0.24734200  0.41647300  0.22292900  1
  Cl  Cl94  1  0.25265800  0.41647300  0.72292900  1
  Cl  Cl95  1  0.75265800  0.58352700  0.77707100  1
  Cl  Cl96  1  0.53185400  0.59116300  0.39191000  1
  Cl  Cl97  1  0.03185400  0.40883700  0.10809000  1
  Cl  Cl98  1  0.46814600  0.40883700  0.60809000  1
  Cl  Cl99  1  0.96814600  0.59116300  0.89191000  1
  Cl  Cl100  1  0.69795900  0.41942800  0.46780300  1
  Cl  Cl101  1  0.19795900  0.58057200  0.03219700  1
  Cl  Cl102  1  0.30204100  0.58057200  0.53219700  1
  Cl  Cl103  1  0.80204100  0.41942800  0.96780300  1
  Cl  Cl104  1  0.15153700  0.61598900  0.29897000  1
  Cl  Cl105  1  0.65153700  0.38401100  0.20103000  1
  Cl  Cl106  1  0.84846300  0.38401100  0.70103000  1
  Cl  Cl107  1  0.34846300  0.61598900  0.79897000  1
  Cl  Cl108  1  0.00881200  0.76537800  0.23840200  1
  Cl  Cl109  1  0.50881200  0.23462200  0.26159800  1
  Cl  Cl110  1  0.99118800  0.23462200  0.76159800  1
  Cl  Cl111  1  0.49118800  0.76537800  0.73840200  1
