# generated using pymatgen
data_ZnB10(H13O4)2
_symmetry_space_group_name_H-M   'P 1'
_cell_length_a   6.90872900
_cell_length_b   7.43949478
_cell_length_c   18.47887034
_cell_angle_alpha   80.44130899
_cell_angle_beta   79.22597710
_cell_angle_gamma   62.33326635
_symmetry_Int_Tables_number   1
_chemical_formula_structural   ZnB10(H13O4)2
_chemical_formula_sum   'Zn2 B20 H52 O16'
_cell_volume   822.90975117
_cell_formula_units_Z   2
loop_
 _symmetry_equiv_pos_site_id
 _symmetry_equiv_pos_as_xyz
  1  'x, y, z'
loop_
 _atom_site_type_symbol
 _atom_site_label
 _atom_site_symmetry_multiplicity
 _atom_site_fract_x
 _atom_site_fract_y
 _atom_site_fract_z
 _atom_site_occupancy
  Zn  Zn0  1  0.50000000  0.00000000  0.50000000  1
  Zn  Zn1  1  0.00000000  0.50000000  0.00000000  1
  B  B2  1  0.34607500  0.61997200  0.34525500  1
  B  B3  1  0.31130200  0.88002800  0.15474500  1
  B  B4  1  0.65392500  0.38002800  0.65474500  1
  B  B5  1  0.68869800  0.11997200  0.84525500  1
  B  B6  1  0.20089200  0.63042300  0.27842300  1
  B  B7  1  0.10973800  0.86957700  0.22157700  1
  B  B8  1  0.79910800  0.36957700  0.72157700  1
  B  B9  1  0.89026200  0.13042300  0.77842300  1
  B  B10  1  0.50169200  0.53526700  0.26374600  1
  B  B11  1  0.30070500  0.96473300  0.23625400  1
  B  B12  1  0.49830800  0.46473300  0.73625400  1
  B  B13  1  0.69929500  0.03526700  0.76374600  1
  B  B14  1  0.46919900  0.76486900  0.29895000  1
  B  B15  1  0.53301900  0.73513100  0.20105000  1
  B  B16  1  0.53080100  0.23513100  0.70105000  1
  B  B17  1  0.46698100  0.26486900  0.79895000  1
  B  B18  1  0.34174600  0.64118300  0.18657800  1
  B  B19  1  0.16950700  0.85881700  0.31342200  1
  B  B20  1  0.65825400  0.35881700  0.81342200  1
  B  B21  1  0.83049300  0.14118300  0.68657800  1
  H  H22  1  0.57055100  0.71120700  0.05647100  1
  H  H23  1  0.33822900  0.78879300  0.44352900  1
  H  H24  1  0.42944900  0.28879300  0.94352900  1
  H  H25  1  0.66177100  0.21120700  0.55647100  1
  H  H26  1  0.55321300  0.74684700  0.97094600  1
  H  H27  1  0.27100600  0.75315300  0.52905400  1
  H  H28  1  0.44678700  0.25315300  0.02905400  1
  H  H29  1  0.72899400  0.24684700  0.47094600  1
  H  H30  1  0.89747700  0.80526200  0.41743200  1
  H  H31  1  0.12017100  0.69473800  0.08256800  1
  H  H32  1  0.10252300  0.19473800  0.58256800  1
  H  H33  1  0.87982900  0.30526200  0.91743200  1
  H  H34  1  0.80709100  0.64094200  0.44308600  1
  H  H35  1  0.89111900  0.85905800  0.05691400  1
  H  H36  1  0.19290900  0.35905800  0.55691400  1
  H  H37  1  0.10888100  0.14094200  0.94308600  1
  H  H38  1  0.41690000  0.27451300  0.37241100  1
  H  H39  1  0.06382300  0.22548700  0.12758900  1
  H  H40  1  0.58310000  0.72548700  0.62758900  1
  H  H41  1  0.93617700  0.77451300  0.87241100  1
  H  H42  1  0.45893300  0.05994600  0.35131600  1
  H  H43  1  0.87019500  0.44005400  0.14868400  1
  H  H44  1  0.54106700  0.94005400  0.64868400  1
  H  H45  1  0.12980500  0.55994600  0.85131600  1
  H  H46  1  0.73094200  0.19148800  0.08671100  1
  H  H47  1  0.00914100  0.30851200  0.41328900  1
  H  H48  1  0.26905800  0.80851200  0.91328900  1
  H  H49  1  0.99085900  0.69148800  0.58671100  1
  H  H50  1  0.60085200  0.07160200  0.12996700  1
  H  H51  1  0.80242000  0.42839800  0.37003300  1
  H  H52  1  0.39914800  0.92839800  0.87003300  1
  H  H53  1  0.19758000  0.57160200  0.62996700  1
  H  H54  1  0.35680400  0.53673700  0.40695700  1
  H  H55  1  0.30049800  0.96326300  0.09304300  1
  H  H56  1  0.64319600  0.46326300  0.59304300  1
  H  H57  1  0.69950200  0.03673700  0.90695700  1
  H  H58  1  0.08764000  0.54384300  0.28988600  1
  H  H59  1  0.92136900  0.95615700  0.21011400  1
  H  H60  1  0.91236000  0.45615700  0.71011400  1
  H  H61  1  0.07863100  0.04384300  0.78988600  1
  H  H62  1  0.65131100  0.36625500  0.26272900  1
  H  H63  1  0.28029500  0.13374500  0.23727100  1
  H  H64  1  0.34868900  0.63374500  0.73727100  1
  H  H65  1  0.71970500  0.86625500  0.76272900  1
  H  H66  1  0.59167500  0.79632600  0.32792300  1
  H  H67  1  0.71592400  0.70367400  0.17207700  1
  H  H68  1  0.40832500  0.20367400  0.67207700  1
  H  H69  1  0.28407600  0.29632600  0.82792300  1
  H  H70  1  0.35828900  0.52631600  0.14413800  1
  H  H71  1  0.02874300  0.97368400  0.35586200  1
  H  H72  1  0.64171100  0.47368400  0.85586200  1
  H  H73  1  0.97125700  0.02631600  0.64413800  1
  O  O74  1  0.65686100  0.66899600  0.00835300  1
  O  O75  1  0.33421000  0.83100400  0.49164700  1
  O  O76  1  0.34313900  0.33100400  0.99164700  1
  O  O77  1  0.66579000  0.16899600  0.50835300  1
  O  O78  1  0.80214600  0.76680500  0.45648800  1
  O  O79  1  0.02543900  0.73319500  0.04351200  1
  O  O80  1  0.19785400  0.23319500  0.54351200  1
  O  O81  1  0.97456100  0.26680500  0.95648800  1
  O  O82  1  0.40183900  0.14972100  0.39181300  1
  O  O83  1  0.94337300  0.35027900  0.10818700  1
  O  O84  1  0.59816100  0.85027900  0.60818700  1
  O  O85  1  0.05662700  0.64972100  0.89181300  1
  O  O86  1  0.66181800  0.10688000  0.08042500  1
  O  O87  1  0.84912400  0.39312000  0.41957500  1
  O  O88  1  0.33818200  0.89312000  0.91957500  1
  O  O89  1  0.15087600  0.60688000  0.58042500  1
