# generated using pymatgen
data_Hg3(SeO3)4
_symmetry_space_group_name_H-M   'P 1'
_cell_length_a   10.04177100
_cell_length_b   7.71038700
_cell_length_c   9.69374540
_cell_angle_alpha   67.56949714
_cell_angle_beta   90.00000000
_cell_angle_gamma   90.00000000
_symmetry_Int_Tables_number   1
_chemical_formula_structural   Hg3(SeO3)4
_chemical_formula_sum   'Hg6 Se8 O24'
_cell_volume   693.76321693
_cell_formula_units_Z   2
loop_
 _symmetry_equiv_pos_site_id
 _symmetry_equiv_pos_as_xyz
  1  'x, y, z'
loop_
 _atom_site_type_symbol
 _atom_site_label
 _atom_site_symmetry_multiplicity
 _atom_site_fract_x
 _atom_site_fract_y
 _atom_site_fract_z
 _atom_site_occupancy
  Hg  Hg0  1  0.62869900  0.54426500  0.83783800  1
  Hg  Hg1  1  0.12869900  0.95573500  0.16216200  1
  Hg  Hg2  1  0.37130100  0.45573500  0.16216200  1
  Hg  Hg3  1  0.87130100  0.04426500  0.83783800  1
  Hg  Hg4  1  0.00000000  0.50000000  0.00000000  1
  Hg  Hg5  1  0.50000000  0.00000000  0.00000000  1
  Se  Se6  1  0.88283600  0.73492300  0.61910700  1
  Se  Se7  1  0.38283600  0.76507700  0.38089300  1
  Se  Se8  1  0.11716400  0.26507700  0.38089300  1
  Se  Se9  1  0.61716400  0.23492300  0.61910700  1
  Se  Se10  1  0.65288500  0.24153600  0.19377000  1
  Se  Se11  1  0.15288500  0.25846400  0.80623000  1
  Se  Se12  1  0.34711500  0.75846400  0.80623000  1
  Se  Se13  1  0.84711500  0.74153600  0.19377000  1
  O  O14  1  0.74509800  0.61889600  0.59948600  1
  O  O15  1  0.24509800  0.88110400  0.40051400  1
  O  O16  1  0.25490200  0.38110400  0.40051400  1
  O  O17  1  0.75490200  0.11889600  0.59948600  1
  O  O18  1  0.85887600  0.73807300  0.79682900  1
  O  O19  1  0.35887600  0.76192700  0.20317100  1
  O  O20  1  0.14112400  0.26192700  0.20317100  1
  O  O21  1  0.64112400  0.23807300  0.79682900  1
  O  O22  1  0.02345100  0.61591900  0.62955500  1
  O  O23  1  0.52345100  0.88408100  0.37044500  1
  O  O24  1  0.97654900  0.38408100  0.37044500  1
  O  O25  1  0.47654900  0.11591900  0.62955500  1
  O  O26  1  0.57014300  0.37360400  0.27424100  1
  O  O27  1  0.07014300  0.12639600  0.72575900  1
  O  O28  1  0.42985700  0.62639600  0.72575900  1
  O  O29  1  0.92985700  0.87360400  0.27424100  1
  O  O30  1  0.74401500  0.40780900  0.04986400  1
  O  O31  1  0.24401500  0.09219100  0.95013600  1
  O  O32  1  0.25598500  0.59219100  0.95013600  1
  O  O33  1  0.75598500  0.90780900  0.04986400  1
  O  O34  1  0.51552900  0.22027400  0.08730600  1
  O  O35  1  0.01552900  0.27972600  0.91269400  1
  O  O36  1  0.48447100  0.77972600  0.91269400  1
  O  O37  1  0.98447100  0.72027400  0.08730600  1
