# generated using pymatgen
data_TbAu6
_symmetry_space_group_name_H-M   'P 1'
_cell_length_a   10.53437200
_cell_length_b   10.53437200
_cell_length_c   9.91404300
_cell_angle_alpha   90.00000000
_cell_angle_beta   90.00000000
_cell_angle_gamma   90.00000000
_symmetry_Int_Tables_number   1
_chemical_formula_structural   TbAu6
_chemical_formula_sum   'Tb8 Au48'
_cell_volume   1100.19102875
_cell_formula_units_Z   8
loop_
 _symmetry_equiv_pos_site_id
 _symmetry_equiv_pos_as_xyz
  1  'x, y, z'
loop_
 _atom_site_type_symbol
 _atom_site_label
 _atom_site_symmetry_multiplicity
 _atom_site_fract_x
 _atom_site_fract_y
 _atom_site_fract_z
 _atom_site_occupancy
  Tb  Tb0  1  0.32571900  0.82571900  0.03775300  1
  Tb  Tb1  1  0.67428100  0.82571900  0.53775300  1
  Tb  Tb2  1  0.32571900  0.17428100  0.53775300  1
  Tb  Tb3  1  0.67428100  0.17428100  0.03775300  1
  Tb  Tb4  1  0.17428100  0.67428100  0.46224700  1
  Tb  Tb5  1  0.82571900  0.67428100  0.96224700  1
  Tb  Tb6  1  0.17428100  0.32571900  0.96224700  1
  Tb  Tb7  1  0.82571900  0.32571900  0.46224700  1
  Au  Au8  1  0.93027800  0.76288300  0.67052300  1
  Au  Au9  1  0.06972200  0.76288300  0.17052300  1
  Au  Au10  1  0.93027800  0.23711700  0.17052300  1
  Au  Au11  1  0.06972200  0.23711700  0.67052300  1
  Au  Au12  1  0.26288300  0.43027800  0.67052300  1
  Au  Au13  1  0.26288300  0.56972200  0.17052300  1
  Au  Au14  1  0.73711700  0.43027800  0.17052300  1
  Au  Au15  1  0.73711700  0.56972200  0.67052300  1
  Au  Au16  1  0.56972200  0.73711700  0.82947700  1
  Au  Au17  1  0.43027800  0.73711700  0.32947700  1
  Au  Au18  1  0.56972200  0.26288300  0.32947700  1
  Au  Au19  1  0.43027800  0.26288300  0.82947700  1
  Au  Au20  1  0.23711700  0.06972200  0.82947700  1
  Au  Au21  1  0.23711700  0.93027800  0.32947700  1
  Au  Au22  1  0.76288300  0.06972200  0.32947700  1
  Au  Au23  1  0.76288300  0.93027800  0.82947700  1
  Au  Au24  1  0.87324600  0.04978400  0.60552700  1
  Au  Au25  1  0.12675400  0.04978400  0.10552700  1
  Au  Au26  1  0.87324600  0.95021600  0.10552700  1
  Au  Au27  1  0.12675400  0.95021600  0.60552700  1
  Au  Au28  1  0.54978400  0.37324600  0.60552700  1
  Au  Au29  1  0.54978400  0.62675400  0.10552700  1
  Au  Au30  1  0.45021600  0.37324600  0.10552700  1
  Au  Au31  1  0.45021600  0.62675400  0.60552700  1
  Au  Au32  1  0.62675400  0.45021600  0.89447300  1
  Au  Au33  1  0.37324600  0.45021600  0.39447300  1
  Au  Au34  1  0.62675400  0.54978400  0.39447300  1
  Au  Au35  1  0.37324600  0.54978400  0.89447300  1
  Au  Au36  1  0.95021600  0.12675400  0.89447300  1
  Au  Au37  1  0.95021600  0.87324600  0.39447300  1
  Au  Au38  1  0.04978400  0.12675400  0.39447300  1
  Au  Au39  1  0.04978400  0.87324600  0.89447300  1
  Au  Au40  1  0.39668200  0.89668200  0.57076300  1
  Au  Au41  1  0.60331800  0.89668200  0.07076300  1
  Au  Au42  1  0.39668200  0.10331800  0.07076300  1
  Au  Au43  1  0.60331800  0.10331800  0.57076300  1
  Au  Au44  1  0.10331800  0.60331800  0.92923700  1
  Au  Au45  1  0.89668200  0.60331800  0.42923700  1
  Au  Au46  1  0.10331800  0.39668200  0.42923700  1
  Au  Au47  1  0.89668200  0.39668200  0.92923700  1
  Au  Au48  1  0.50000000  0.00000000  0.31721100  1
  Au  Au49  1  0.50000000  0.00000000  0.81721100  1
  Au  Au50  1  0.00000000  0.50000000  0.18278900  1
  Au  Au51  1  0.00000000  0.50000000  0.68278900  1
  Au  Au52  1  0.25000000  0.75000000  0.75000000  1
  Au  Au53  1  0.75000000  0.75000000  0.25000000  1
  Au  Au54  1  0.25000000  0.25000000  0.25000000  1
  Au  Au55  1  0.75000000  0.25000000  0.75000000  1
