# generated using pymatgen
data_Na2Mg(SO6)2
_symmetry_space_group_name_H-M   'P 1'
_cell_length_a   4.99100655
_cell_length_b   8.57398900
_cell_length_c   12.20103585
_cell_angle_alpha   90.00000000
_cell_angle_beta   85.18464874
_cell_angle_gamma   90.00000000
_symmetry_Int_Tables_number   1
_chemical_formula_structural   Na2Mg(SO6)2
_chemical_formula_sum   'Na4 Mg2 S4 O24'
_cell_volume   520.27405483
_cell_formula_units_Z   2
loop_
 _symmetry_equiv_pos_site_id
 _symmetry_equiv_pos_as_xyz
  1  'x, y, z'
loop_
 _atom_site_type_symbol
 _atom_site_label
 _atom_site_symmetry_multiplicity
 _atom_site_fract_x
 _atom_site_fract_y
 _atom_site_fract_z
 _atom_site_occupancy
  Na  Na0  1  0.66356700  0.60905300  0.11714900  1
  Na  Na1  1  0.33643300  0.10905300  0.38285100  1
  Na  Na2  1  0.33643300  0.39094700  0.88285100  1
  Na  Na3  1  0.66356700  0.89094700  0.61714900  1
  Mg  Mg4  1  0.00000000  0.50000000  0.50000000  1
  Mg  Mg5  1  0.00000000  0.00000000  0.00000000  1
  S  S6  1  0.53630700  0.71101500  0.40846600  1
  S  S7  1  0.46369300  0.21101500  0.09153400  1
  S  S8  1  0.46369300  0.28898500  0.59153400  1
  S  S9  1  0.53630700  0.78898500  0.90846600  1
  O  O10  1  0.64668700  0.64135100  0.30431400  1
  O  O11  1  0.35331300  0.14135100  0.19568600  1
  O  O12  1  0.35331300  0.35864900  0.69568600  1
  O  O13  1  0.64668700  0.85864900  0.80431400  1
  O  O14  1  0.69099800  0.65288300  0.50242500  1
  O  O15  1  0.30900200  0.15288300  0.99757500  1
  O  O16  1  0.30900200  0.34711700  0.49757500  1
  O  O17  1  0.69099800  0.84711700  0.00242500  1
  O  O18  1  0.55786900  0.88324800  0.40919200  1
  O  O19  1  0.44213100  0.38324800  0.09080800  1
  O  O20  1  0.44213100  0.11675200  0.59080800  1
  O  O21  1  0.55786900  0.61675200  0.90919200  1
  O  O22  1  0.24729500  0.66627800  0.43244900  1
  O  O23  1  0.75270500  0.16627800  0.06755100  1
  O  O24  1  0.75270500  0.33372200  0.56755100  1
  O  O25  1  0.24729500  0.83372200  0.93244900  1
  O  O26  1  0.90281500  0.35509400  0.24343200  1
  O  O27  1  0.09718500  0.85509400  0.25656800  1
  O  O28  1  0.09718500  0.64490600  0.75656800  1
  O  O29  1  0.90281500  0.14490600  0.74343200  1
  O  O30  1  0.09699000  0.81023100  0.16048700  1
  O  O31  1  0.90301000  0.31023100  0.33951300  1
  O  O32  1  0.90301000  0.18976900  0.83951300  1
  O  O33  1  0.09699000  0.68976900  0.66048700  1
