# generated using pymatgen
data_Ba5P3O13
_symmetry_space_group_name_H-M   'P 1'
_cell_length_a   10.23298974
_cell_length_b   10.23298974
_cell_length_c   7.72523500
_cell_angle_alpha   90.00000000
_cell_angle_beta   90.00000000
_cell_angle_gamma   119.99999834
_symmetry_Int_Tables_number   1
_chemical_formula_structural   Ba5P3O13
_chemical_formula_sum   'Ba10 P6 O26'
_cell_volume   700.56335419
_cell_formula_units_Z   2
loop_
 _symmetry_equiv_pos_site_id
 _symmetry_equiv_pos_as_xyz
  1  'x, y, z'
loop_
 _atom_site_type_symbol
 _atom_site_label
 _atom_site_symmetry_multiplicity
 _atom_site_fract_x
 _atom_site_fract_y
 _atom_site_fract_z
 _atom_site_occupancy
  Ba  Ba0  1  0.33333300  0.66666700  0.00187700  1
  Ba  Ba1  1  0.66666700  0.33333300  0.50187700  1
  Ba  Ba2  1  0.66666700  0.33333300  0.99812300  1
  Ba  Ba3  1  0.33333300  0.66666700  0.49812300  1
  Ba  Ba4  1  0.75481500  0.77278500  0.75000000  1
  Ba  Ba5  1  0.01797100  0.24518500  0.75000000  1
  Ba  Ba6  1  0.22721500  0.98202900  0.75000000  1
  Ba  Ba7  1  0.24518500  0.22721500  0.25000000  1
  Ba  Ba8  1  0.98202900  0.75481500  0.25000000  1
  Ba  Ba9  1  0.77278500  0.01797100  0.25000000  1
  P  P10  1  0.97119100  0.59623700  0.75000000  1
  P  P11  1  0.62504500  0.02880900  0.75000000  1
  P  P12  1  0.40376300  0.37495500  0.75000000  1
  P  P13  1  0.02880900  0.40376300  0.25000000  1
  P  P14  1  0.37495500  0.97119100  0.25000000  1
  P  P15  1  0.59623700  0.62504500  0.25000000  1
  O  O16  1  0.14347500  0.66207300  0.75000000  1
  O  O17  1  0.51859800  0.85652500  0.75000000  1
  O  O18  1  0.33792700  0.48140200  0.75000000  1
  O  O19  1  0.85652500  0.33792700  0.25000000  1
  O  O20  1  0.48140200  0.14347500  0.25000000  1
  O  O21  1  0.66207300  0.51859800  0.25000000  1
  O  O22  1  0.88873600  0.42030100  0.75000000  1
  O  O23  1  0.53156500  0.11126400  0.75000000  1
  O  O24  1  0.57969900  0.46843500  0.75000000  1
  O  O25  1  0.11126400  0.57969900  0.25000000  1
  O  O26  1  0.46843500  0.88873600  0.25000000  1
  O  O27  1  0.42030100  0.53156500  0.25000000  1
  O  O28  1  0.92117100  0.65067500  0.91336900  1
  O  O29  1  0.72950400  0.07882900  0.91336900  1
  O  O30  1  0.34932500  0.27049600  0.91336900  1
  O  O31  1  0.07882900  0.34932500  0.41336900  1
  O  O32  1  0.27049600  0.92117100  0.41336900  1
  O  O33  1  0.65067500  0.72950400  0.41336900  1
  O  O34  1  0.07882900  0.34932500  0.08663100  1
  O  O35  1  0.27049600  0.92117100  0.08663100  1
  O  O36  1  0.65067500  0.72950400  0.08663100  1
  O  O37  1  0.92117100  0.65067500  0.58663100  1
  O  O38  1  0.72950400  0.07882900  0.58663100  1
  O  O39  1  0.34932500  0.27049600  0.58663100  1
  O  O40  1  0.00000000  0.00000000  0.00000000  1
  O  O41  1  0.00000000  0.00000000  0.50000000  1
