# generated using pymatgen
data_K2VO6
_symmetry_space_group_name_H-M   'P 1'
_cell_length_a   10.26821000
_cell_length_b   6.65515300
_cell_length_c   17.27619222
_cell_angle_alpha   88.49038887
_cell_angle_beta   90.00000000
_cell_angle_gamma   90.00000000
_symmetry_Int_Tables_number   1
_chemical_formula_structural   K2VO6
_chemical_formula_sum   'K16 V8 O48'
_cell_volume   1180.18489724
_cell_formula_units_Z   8
loop_
 _symmetry_equiv_pos_site_id
 _symmetry_equiv_pos_as_xyz
  1  'x, y, z'
loop_
 _atom_site_type_symbol
 _atom_site_label
 _atom_site_symmetry_multiplicity
 _atom_site_fract_x
 _atom_site_fract_y
 _atom_site_fract_z
 _atom_site_occupancy
  K  K0  1  0.42739900  0.78016800  0.48414600  1
  K  K1  1  0.92739900  0.21983200  0.01585400  1
  K  K2  1  0.57260100  0.21983200  0.51585400  1
  K  K3  1  0.07260100  0.78016800  0.98414600  1
  K  K4  1  0.19849300  0.78460800  0.63854000  1
  K  K5  1  0.69849300  0.21539200  0.86146000  1
  K  K6  1  0.80150700  0.21539200  0.36146000  1
  K  K7  1  0.30150700  0.78460800  0.13854000  1
  K  K8  1  0.93103000  0.69461200  0.79242200  1
  K  K9  1  0.43103000  0.30538800  0.70757800  1
  K  K10  1  0.06897000  0.30538800  0.20757800  1
  K  K11  1  0.56897000  0.69461200  0.29242200  1
  K  K12  1  0.91883200  0.22797900  0.63230500  1
  K  K13  1  0.41883200  0.77202100  0.86769500  1
  K  K14  1  0.08116800  0.77202100  0.36769500  1
  K  K15  1  0.58116800  0.22797900  0.13230500  1
  V  V16  1  0.80137400  0.74234200  0.54159200  1
  V  V17  1  0.30137400  0.25765800  0.95840800  1
  V  V18  1  0.19862600  0.25765800  0.45840800  1
  V  V19  1  0.69862600  0.74234200  0.04159200  1
  V  V20  1  0.62108500  0.75144000  0.68331600  1
  V  V21  1  0.12108500  0.24856000  0.81668400  1
  V  V22  1  0.37891500  0.24856000  0.31668400  1
  V  V23  1  0.87891500  0.75144000  0.18331600  1
  O  O24  1  0.68822000  0.58040600  0.47530500  1
  O  O25  1  0.18822000  0.41959400  0.02469500  1
  O  O26  1  0.31178000  0.41959400  0.52469500  1
  O  O27  1  0.81178000  0.58040600  0.97530500  1
  O  O28  1  0.81366900  0.48957500  0.48640600  1
  O  O29  1  0.31366900  0.51042500  0.01359400  1
  O  O30  1  0.18633100  0.51042500  0.51359400  1
  O  O31  1  0.68633100  0.48957500  0.98640600  1
  O  O32  1  0.87433000  0.80745100  0.64303000  1
  O  O33  1  0.37433000  0.19254900  0.85697000  1
  O  O34  1  0.12567000  0.19254900  0.35697000  1
  O  O35  1  0.62567000  0.80745100  0.14303000  1
  O  O36  1  0.94561200  0.64764300  0.60537800  1
  O  O37  1  0.44561200  0.35235700  0.89462200  1
  O  O38  1  0.05438800  0.35235700  0.39462200  1
  O  O39  1  0.55438800  0.64764300  0.10537800  1
  O  O40  1  0.65906200  0.02261200  0.71786300  1
  O  O41  1  0.15906200  0.97738800  0.78213700  1
  O  O42  1  0.34093800  0.97738800  0.28213700  1
  O  O43  1  0.84093800  0.02261200  0.21786300  1
  O  O44  1  0.66900900  0.87466900  0.78010100  1
  O  O45  1  0.16900900  0.12533100  0.71989900  1
  O  O46  1  0.33099100  0.12533100  0.21989900  1
  O  O47  1  0.83099100  0.87466900  0.28010100  1
  O  O48  1  0.67431700  0.49087300  0.64351000  1
  O  O49  1  0.17431700  0.50912700  0.85649000  1
  O  O50  1  0.32568300  0.50912700  0.35649000  1
  O  O51  1  0.82568300  0.49087300  0.14351000  1
  O  O52  1  0.69144900  0.50658400  0.72736300  1
  O  O53  1  0.19144900  0.49341600  0.77263700  1
  O  O54  1  0.30855100  0.49341600  0.27263700  1
  O  O55  1  0.80855100  0.50658400  0.22736300  1
  O  O56  1  0.86413700  0.91455700  0.48169700  1
  O  O57  1  0.36413700  0.08544300  0.01830300  1
  O  O58  1  0.13586300  0.08544300  0.51830300  1
  O  O59  1  0.63586300  0.91455700  0.98169700  1
  O  O60  1  0.64642800  0.85556700  0.58055800  1
  O  O61  1  0.14642800  0.14443300  0.91944200  1
  O  O62  1  0.35357200  0.14443300  0.41944200  1
  O  O63  1  0.85357200  0.85556700  0.08055800  1
  O  O64  1  0.46057900  0.72361500  0.69468700  1
  O  O65  1  0.96057900  0.27638500  0.80531300  1
  O  O66  1  0.53942100  0.27638500  0.30531300  1
  O  O67  1  0.03942100  0.72361500  0.19468700  1
  O  O68  1  0.61531300  0.95356000  0.40228600  1
  O  O69  1  0.11531300  0.04644000  0.09771400  1
  O  O70  1  0.38468700  0.04644000  0.59771400  1
  O  O71  1  0.88468700  0.95356000  0.90228600  1
