# generated using pymatgen
data_B4Pb6O13
_symmetry_space_group_name_H-M   'P 1'
_cell_length_a   7.60165500
_cell_length_b   12.96861200
_cell_length_c   14.20646200
_cell_angle_alpha   90.00000000
_cell_angle_beta   90.00000000
_cell_angle_gamma   90.00000000
_symmetry_Int_Tables_number   1
_chemical_formula_structural   B4Pb6O13
_chemical_formula_sum   'B16 Pb24 O52'
_cell_volume   1400.51442518
_cell_formula_units_Z   4
loop_
 _symmetry_equiv_pos_site_id
 _symmetry_equiv_pos_as_xyz
  1  'x, y, z'
loop_
 _atom_site_type_symbol
 _atom_site_label
 _atom_site_symmetry_multiplicity
 _atom_site_fract_x
 _atom_site_fract_y
 _atom_site_fract_z
 _atom_site_occupancy
  B  B0  1  0.87590400  0.61268100  0.06219700  1
  B  B1  1  0.62409600  0.88731900  0.56219700  1
  B  B2  1  0.12409600  0.11268100  0.93780300  1
  B  B3  1  0.37590400  0.38731900  0.43780300  1
  B  B4  1  0.12409600  0.38731900  0.93780300  1
  B  B5  1  0.37590400  0.11268100  0.43780300  1
  B  B6  1  0.87590400  0.88731900  0.06219700  1
  B  B7  1  0.62409600  0.61268100  0.56219700  1
  B  B8  1  0.02829200  0.75000000  0.97092000  1
  B  B9  1  0.47170800  0.75000000  0.47092000  1
  B  B10  1  0.97170800  0.25000000  0.02908000  1
  B  B11  1  0.52829200  0.25000000  0.52908000  1
  B  B12  1  0.71498100  0.75000000  0.97289600  1
  B  B13  1  0.78501900  0.75000000  0.47289600  1
  B  B14  1  0.28501900  0.25000000  0.02710400  1
  B  B15  1  0.21498100  0.25000000  0.52710400  1
  Pb  Pb16  1  0.64196900  0.39946900  0.06306900  1
  Pb  Pb17  1  0.85803100  0.10053100  0.56306900  1
  Pb  Pb18  1  0.35803100  0.89946900  0.93693100  1
  Pb  Pb19  1  0.14196900  0.60053100  0.43693100  1
  Pb  Pb20  1  0.35803100  0.60053100  0.93693100  1
  Pb  Pb21  1  0.14196900  0.89946900  0.43693100  1
  Pb  Pb22  1  0.64196900  0.10053100  0.06306900  1
  Pb  Pb23  1  0.85803100  0.39946900  0.56306900  1
  Pb  Pb24  1  0.14515100  0.48978800  0.20349200  1
  Pb  Pb25  1  0.35484900  0.01021200  0.70349200  1
  Pb  Pb26  1  0.85484900  0.98978800  0.79650800  1
  Pb  Pb27  1  0.64515100  0.51021200  0.29650800  1
  Pb  Pb28  1  0.85484900  0.51021200  0.79650800  1
  Pb  Pb29  1  0.64515100  0.98978800  0.29650800  1
  Pb  Pb30  1  0.14515100  0.01021200  0.20349200  1
  Pb  Pb31  1  0.35484900  0.48978800  0.70349200  1
  Pb  Pb32  1  0.12236400  0.75000000  0.74382200  1
  Pb  Pb33  1  0.37763600  0.75000000  0.24382200  1
  Pb  Pb34  1  0.87763600  0.25000000  0.25617800  1
  Pb  Pb35  1  0.62236400  0.25000000  0.75617800  1
  Pb  Pb36  1  0.60294300  0.75000000  0.75765300  1
  Pb  Pb37  1  0.89705700  0.75000000  0.25765300  1
  Pb  Pb38  1  0.39705700  0.25000000  0.24234700  1
  Pb  Pb39  1  0.10294300  0.25000000  0.74234700  1
  O  O40  1  0.87851900  0.52833800  0.12223700  1
  O  O41  1  0.62148100  0.97166200  0.62223700  1
  O  O42  1  0.12148100  0.02833800  0.87776300  1
  O  O43  1  0.37851900  0.47166200  0.37776300  1
  O  O44  1  0.12148100  0.47166200  0.87776300  1
  O  O45  1  0.37851900  0.02833800  0.37776300  1
  O  O46  1  0.87851900  0.97166200  0.12223700  1
  O  O47  1  0.62148100  0.52833800  0.62223700  1
  O  O48  1  0.03411900  0.65612900  0.03335500  1
  O  O49  1  0.46588100  0.84387100  0.53335500  1
  O  O50  1  0.96588100  0.15612900  0.96664500  1
  O  O51  1  0.53411900  0.34387100  0.46664500  1
  O  O52  1  0.96588100  0.34387100  0.96664500  1
  O  O53  1  0.53411900  0.15612900  0.46664500  1
  O  O54  1  0.03411900  0.84387100  0.03335500  1
  O  O55  1  0.46588100  0.65612900  0.53335500  1
  O  O56  1  0.71786900  0.65434600  0.03351800  1
  O  O57  1  0.78213100  0.84565400  0.53351800  1
  O  O58  1  0.28213100  0.15434600  0.96648200  1
  O  O59  1  0.21786900  0.34565400  0.46648200  1
  O  O60  1  0.28213100  0.34565400  0.96648200  1
  O  O61  1  0.21786900  0.15434600  0.46648200  1
  O  O62  1  0.71786900  0.84565400  0.03351800  1
  O  O63  1  0.78213100  0.65434600  0.53351800  1
  O  O64  1  0.18337700  0.75000000  0.91088300  1
  O  O65  1  0.31662300  0.75000000  0.41088300  1
  O  O66  1  0.81662300  0.25000000  0.08911700  1
  O  O67  1  0.68337700  0.25000000  0.58911700  1
  O  O68  1  0.87119100  0.75000000  0.91094900  1
  O  O69  1  0.62880900  0.75000000  0.41094900  1
  O  O70  1  0.12880900  0.25000000  0.08905100  1
  O  O71  1  0.37119100  0.25000000  0.58905100  1
  O  O72  1  0.55516500  0.75000000  0.91723100  1
  O  O73  1  0.94483500  0.75000000  0.41723100  1
  O  O74  1  0.44483500  0.25000000  0.08276900  1
  O  O75  1  0.05516500  0.25000000  0.58276900  1
  O  O76  1  0.62428300  0.35933500  0.22782500  1
  O  O77  1  0.87571700  0.14066500  0.72782500  1
  O  O78  1  0.37571700  0.85933500  0.77217500  1
  O  O79  1  0.12428300  0.64066500  0.27217500  1
  O  O80  1  0.37571700  0.64066500  0.77217500  1
  O  O81  1  0.12428300  0.85933500  0.27217500  1
  O  O82  1  0.62428300  0.14066500  0.22782500  1
  O  O83  1  0.87571700  0.35933500  0.72782500  1
  O  O84  1  0.06163300  0.56509200  0.69320700  1
  O  O85  1  0.43836700  0.93490800  0.19320700  1
  O  O86  1  0.93836700  0.06509200  0.30679300  1
  O  O87  1  0.56163300  0.43490800  0.80679300  1
  O  O88  1  0.93836700  0.43490800  0.30679300  1
  O  O89  1  0.56163300  0.06509200  0.80679300  1
  O  O90  1  0.06163300  0.93490800  0.69320700  1
  O  O91  1  0.43836700  0.56509200  0.19320700  1
