# generated using pymatgen
data_SiH2CS(OF)3
_symmetry_space_group_name_H-M   'P 1'
_cell_length_a   7.01825100
_cell_length_b   9.56246200
_cell_length_c   11.40132104
_cell_angle_alpha   69.09849088
_cell_angle_beta   90.00000000
_cell_angle_gamma   90.00000000
_symmetry_Int_Tables_number   1
_chemical_formula_structural   SiH2CS(OF)3
_chemical_formula_sum   'Si4 H8 C4 S4 O12 F12'
_cell_volume   714.81123220
_cell_formula_units_Z   4
loop_
 _symmetry_equiv_pos_site_id
 _symmetry_equiv_pos_as_xyz
  1  'x, y, z'
loop_
 _atom_site_type_symbol
 _atom_site_label
 _atom_site_symmetry_multiplicity
 _atom_site_fract_x
 _atom_site_fract_y
 _atom_site_fract_z
 _atom_site_occupancy
  Si  Si0  1  0.45341800  0.00600400  0.09862600  1
  Si  Si1  1  0.95341800  0.99399600  0.40137400  1
  Si  Si2  1  0.54658200  0.99399600  0.90137400  1
  Si  Si3  1  0.04658200  0.00600400  0.59862600  1
  H  H4  1  0.39141500  0.86321200  0.19530600  1
  H  H5  1  0.89141500  0.13678800  0.30469400  1
  H  H6  1  0.60858500  0.13678800  0.80469400  1
  H  H7  1  0.10858500  0.86321200  0.69530600  1
  H  H8  1  0.58219700  0.09656600  0.14619500  1
  H  H9  1  0.08219700  0.90343400  0.35380500  1
  H  H10  1  0.41780300  0.90343400  0.85380500  1
  H  H11  1  0.91780300  0.09656600  0.64619500  1
  C  C12  1  0.24396500  0.39423700  0.93207200  1
  C  C13  1  0.74396500  0.60576300  0.56792800  1
  C  C14  1  0.75603500  0.60576300  0.06792800  1
  C  C15  1  0.25603500  0.39423700  0.43207200  1
  S  S16  1  0.14359000  0.20740800  0.94875100  1
  S  S17  1  0.64359000  0.79259200  0.55124900  1
  S  S18  1  0.85641000  0.79259200  0.05124900  1
  S  S19  1  0.35641000  0.20740800  0.44875100  1
  O  O20  1  0.23983800  0.10868800  0.07302300  1
  O  O21  1  0.73983800  0.89131200  0.42697700  1
  O  O22  1  0.76016200  0.89131200  0.92697700  1
  O  O23  1  0.26016200  0.10868800  0.57302300  1
  O  O24  1  0.94313700  0.21483500  0.96811500  1
  O  O25  1  0.44313700  0.78516500  0.53188500  1
  O  O26  1  0.05686300  0.78516500  0.03188500  1
  O  O27  1  0.55686300  0.21483500  0.46811500  1
  O  O28  1  0.21860800  0.17265800  0.84410100  1
  O  O29  1  0.71860800  0.82734200  0.65589900  1
  O  O30  1  0.78139200  0.82734200  0.15589900  1
  O  O31  1  0.28139200  0.17265800  0.34410100  1
  F  F32  1  0.43611900  0.38903900  0.92451200  1
  F  F33  1  0.93611900  0.61096100  0.57548800  1
  F  F34  1  0.56388100  0.61096100  0.07548800  1
  F  F35  1  0.06388100  0.38903900  0.42451200  1
  F  F36  1  0.19653100  0.43081000  0.03174600  1
  F  F37  1  0.69653100  0.56919000  0.46825400  1
  F  F38  1  0.80346900  0.56919000  0.96825400  1
  F  F39  1  0.30346900  0.43081000  0.53174600  1
  F  F40  1  0.17512700  0.49766100  0.82622900  1
  F  F41  1  0.67512700  0.50233900  0.67377100  1
  F  F42  1  0.82487300  0.50233900  0.17377100  1
  F  F43  1  0.32487300  0.49766100  0.32622900  1
