# generated using pymatgen
data_MnFe2Pb8F24
_symmetry_space_group_name_H-M   'P 1'
_cell_length_a   5.73335700
_cell_length_b   9.56957600
_cell_length_c   20.45005373
_cell_angle_alpha   75.41398329
_cell_angle_beta   90.00000000
_cell_angle_gamma   90.00000000
_symmetry_Int_Tables_number   1
_chemical_formula_structural   MnFe2Pb8F24
_chemical_formula_sum   'Mn2 Fe4 Pb16 F48'
_cell_volume   1085.84687476
_cell_formula_units_Z   2
loop_
 _symmetry_equiv_pos_site_id
 _symmetry_equiv_pos_as_xyz
  1  'x, y, z'
loop_
 _atom_site_type_symbol
 _atom_site_label
 _atom_site_symmetry_multiplicity
 _atom_site_fract_x
 _atom_site_fract_y
 _atom_site_fract_z
 _atom_site_occupancy
  Mn  Mn0  1  0.50000000  0.00000000  0.50000000  1
  Mn  Mn1  1  0.00000000  0.00000000  0.00000000  1
  Fe  Fe2  1  0.49822200  0.25084000  0.04705500  1
  Fe  Fe3  1  0.99822200  0.74916000  0.45294500  1
  Fe  Fe4  1  0.50177800  0.74916000  0.95294500  1
  Fe  Fe5  1  0.00177800  0.25084000  0.54705500  1
  Pb  Pb6  1  0.50007000  0.44084900  0.41154100  1
  Pb  Pb7  1  0.00007000  0.55915100  0.08845900  1
  Pb  Pb8  1  0.49993000  0.55915100  0.58845900  1
  Pb  Pb9  1  0.99993000  0.44084900  0.91154100  1
  Pb  Pb10  1  0.47044500  0.82464300  0.13137400  1
  Pb  Pb11  1  0.97044500  0.17535700  0.36862600  1
  Pb  Pb12  1  0.52955500  0.17535700  0.86862600  1
  Pb  Pb13  1  0.02955500  0.82464300  0.63137400  1
  Pb  Pb14  1  0.50197000  0.90224700  0.32066300  1
  Pb  Pb15  1  0.00197000  0.09775300  0.17933700  1
  Pb  Pb16  1  0.49803000  0.09775300  0.67933700  1
  Pb  Pb17  1  0.99803000  0.90224700  0.82066300  1
  Pb  Pb18  1  0.47154600  0.35721500  0.22570500  1
  Pb  Pb19  1  0.97154600  0.64278500  0.27429500  1
  Pb  Pb20  1  0.52845400  0.64278500  0.77429500  1
  Pb  Pb21  1  0.02845400  0.35721500  0.72570500  1
  F  F22  1  0.24159400  0.12505800  0.27540600  1
  F  F23  1  0.74159400  0.87494200  0.22459400  1
  F  F24  1  0.75840600  0.87494200  0.72459400  1
  F  F25  1  0.25840600  0.12505800  0.77540600  1
  F  F26  1  0.74392000  0.13202200  0.27146100  1
  F  F27  1  0.24392000  0.86797800  0.22853900  1
  F  F28  1  0.25608000  0.86797800  0.72853900  1
  F  F29  1  0.75608000  0.13202200  0.77146100  1
  F  F30  1  0.24799300  0.39102600  0.32097200  1
  F  F31  1  0.74799300  0.60897400  0.17902800  1
  F  F32  1  0.75200700  0.60897400  0.67902800  1
  F  F33  1  0.25200700  0.39102600  0.82097200  1
  F  F34  1  0.75997600  0.39119300  0.31632400  1
  F  F35  1  0.25997600  0.60880700  0.18367600  1
  F  F36  1  0.24002400  0.60880700  0.68367600  1
  F  F37  1  0.74002400  0.39119300  0.81632400  1
  F  F38  1  0.56326400  0.64538100  0.32061100  1
  F  F39  1  0.06326400  0.35461900  0.17938900  1
  F  F40  1  0.43673600  0.35461900  0.67938900  1
  F  F41  1  0.93673600  0.64538100  0.82061100  1
  F  F42  1  0.42589600  0.13689300  0.14022700  1
  F  F43  1  0.92589600  0.86310700  0.35977300  1
  F  F44  1  0.57410400  0.86310700  0.85977300  1
  F  F45  1  0.07410400  0.13689300  0.64022700  1
  F  F46  1  0.21373100  0.36641400  0.04247100  1
  F  F47  1  0.71373100  0.63358600  0.45752900  1
  F  F48  1  0.78626900  0.63358600  0.95752900  1
  F  F49  1  0.28626900  0.36641400  0.54247100  1
  F  F50  1  0.92593900  0.33927000  0.45286400  1
  F  F51  1  0.42593900  0.66073000  0.04713600  1
  F  F52  1  0.07406100  0.66073000  0.54713600  1
  F  F53  1  0.57406100  0.33927000  0.95286400  1
  F  F54  1  0.55746000  0.14486400  0.40544800  1
  F  F55  1  0.05746000  0.85513600  0.09455200  1
  F  F56  1  0.44254000  0.85513600  0.59455200  1
  F  F57  1  0.94254000  0.14486400  0.90544800  1
  F  F58  1  0.78246700  0.12642900  0.05271100  1
  F  F59  1  0.28246700  0.87357100  0.44728900  1
  F  F60  1  0.21753300  0.87357100  0.94728900  1
  F  F61  1  0.71753300  0.12642900  0.55271100  1
  F  F62  1  0.17888500  0.62271000  0.41089200  1
  F  F63  1  0.67888500  0.37729000  0.08910800  1
  F  F64  1  0.82111500  0.37729000  0.58910800  1
  F  F65  1  0.32111500  0.62271000  0.91089200  1
  F  F66  1  0.31751100  0.10691300  0.01443800  1
  F  F67  1  0.81751100  0.89308700  0.48556200  1
  F  F68  1  0.68248900  0.89308700  0.98556200  1
  F  F69  1  0.18248900  0.10691300  0.51443800  1
