# generated using pymatgen
data_CaCeAl2FeSi3O13
_symmetry_space_group_name_H-M   'P 1'
_cell_length_a   5.77121100
_cell_length_b   8.97181600
_cell_length_c   10.23951008
_cell_angle_alpha   64.86472650
_cell_angle_beta   90.00000000
_cell_angle_gamma   90.00000000
_symmetry_Int_Tables_number   1
_chemical_formula_structural   CaCeAl2FeSi3O13
_chemical_formula_sum   'Ca2 Ce2 Al4 Fe2 Si6 O26'
_cell_volume   479.97939543
_cell_formula_units_Z   2
loop_
 _symmetry_equiv_pos_site_id
 _symmetry_equiv_pos_as_xyz
  1  'x, y, z'
loop_
 _atom_site_type_symbol
 _atom_site_label
 _atom_site_symmetry_multiplicity
 _atom_site_fract_x
 _atom_site_fract_y
 _atom_site_fract_z
 _atom_site_occupancy
  Ca  Ca0  1  0.75000000  0.61761300  0.14854400  1
  Ca  Ca1  1  0.25000000  0.38238700  0.85145600  1
  Ce  Ce2  1  0.75000000  0.19575000  0.43650400  1
  Ce  Ce3  1  0.25000000  0.80425000  0.56349600  1
  Al  Al4  1  0.50000000  0.00000000  0.00000000  1
  Al  Al5  1  0.00000000  0.00000000  0.00000000  1
  Al  Al6  1  0.50000000  0.50000000  0.50000000  1
  Al  Al7  1  0.00000000  0.50000000  0.50000000  1
  Fe  Fe8  1  0.25000000  0.06980700  0.22481600  1
  Fe  Fe9  1  0.75000000  0.93019300  0.77518400  1
  Si  Si10  1  0.75000000  0.29386700  0.04431200  1
  Si  Si11  1  0.25000000  0.70613300  0.95568800  1
  Si  Si12  1  0.25000000  0.41386400  0.26825000  1
  Si  Si13  1  0.75000000  0.58613600  0.73175000  1
  Si  Si14  1  0.75000000  0.86317500  0.32667100  1
  Si  Si15  1  0.25000000  0.13682500  0.67332900  1
  O  O16  1  0.51008500  0.20196300  0.03155900  1
  O  O17  1  0.01008500  0.79803700  0.96844100  1
  O  O18  1  0.48991500  0.79803700  0.96844100  1
  O  O19  1  0.98991500  0.20196300  0.03155900  1
  O  O20  1  0.52556800  0.94476400  0.37331900  1
  O  O21  1  0.02556800  0.05523600  0.62668100  1
  O  O22  1  0.47443200  0.05523600  0.62668100  1
  O  O23  1  0.97443200  0.94476400  0.37331900  1
  O  O24  1  0.48344300  0.46469200  0.33113900  1
  O  O25  1  0.98344300  0.53530800  0.66886100  1
  O  O26  1  0.51655700  0.53530800  0.66886100  1
  O  O27  1  0.01655700  0.46469200  0.33113900  1
  O  O28  1  0.25000000  0.93320300  0.11966800  1
  O  O29  1  0.75000000  0.06679700  0.88033200  1
  O  O30  1  0.75000000  0.89975200  0.15325600  1
  O  O31  1  0.25000000  0.10024800  0.84674400  1
  O  O32  1  0.75000000  0.66026000  0.41172000  1
  O  O33  1  0.25000000  0.33974000  0.58828000  1
  O  O34  1  0.75000000  0.32312100  0.19057400  1
  O  O35  1  0.25000000  0.67687900  0.80942600  1
  O  O36  1  0.25000000  0.21725000  0.32105600  1
  O  O37  1  0.75000000  0.78275000  0.67894400  1
  O  O38  1  0.25000000  0.51629000  0.09017400  1
  O  O39  1  0.75000000  0.48371000  0.90982600  1
  O  O40  1  0.25000000  0.65004700  0.44841500  1
  O  O41  1  0.75000000  0.34995300  0.55158500  1
