# generated using pymatgen
data_Ni(SbO9)2
_symmetry_space_group_name_H-M   'P 1'
_cell_length_a   14.29034400
_cell_length_b   14.29034406
_cell_length_c   8.59684900
_cell_angle_alpha   90.00000000
_cell_angle_beta   90.00000000
_cell_angle_gamma   119.99999987
_symmetry_Int_Tables_number   1
_chemical_formula_structural   Ni(SbO9)2
_chemical_formula_sum   'Ni6 Sb12 O108'
_cell_volume   1520.39103228
_cell_formula_units_Z   6
loop_
 _symmetry_equiv_pos_site_id
 _symmetry_equiv_pos_as_xyz
  1  'x, y, z'
loop_
 _atom_site_type_symbol
 _atom_site_label
 _atom_site_symmetry_multiplicity
 _atom_site_fract_x
 _atom_site_fract_y
 _atom_site_fract_z
 _atom_site_occupancy
  Ni  Ni0  1  0.00429500  0.33688100  0.03349200  1
  Ni  Ni1  1  0.66311900  0.66741400  0.03349200  1
  Ni  Ni2  1  0.33258600  0.99570500  0.03349200  1
  Ni  Ni3  1  0.99603300  0.66541800  0.05071500  1
  Ni  Ni4  1  0.33458200  0.33061500  0.05071500  1
  Ni  Ni5  1  0.66938500  0.00396700  0.05071500  1
  Sb  Sb6  1  0.00000000  0.00000000  0.01053200  1
  Sb  Sb7  1  0.33333300  0.66666700  0.07872600  1
  Sb  Sb8  1  0.66666700  0.33333300  0.00287700  1
  Sb  Sb9  1  0.00000000  0.00000000  0.51777800  1
  Sb  Sb10  1  0.33333300  0.66666700  0.57150000  1
  Sb  Sb11  1  0.66666700  0.33333300  0.50930100  1
  Sb  Sb12  1  0.98982600  0.32536200  0.53427000  1
  Sb  Sb13  1  0.67463800  0.66446400  0.53427000  1
  Sb  Sb14  1  0.33553600  0.01017400  0.53427000  1
  Sb  Sb15  1  0.00852300  0.66649200  0.54538100  1
  Sb  Sb16  1  0.33350800  0.34203000  0.54538100  1
  Sb  Sb17  1  0.65797000  0.99147700  0.54538100  1
  O  O18  1  0.13565600  0.03495600  0.12850700  1
  O  O19  1  0.96504400  0.10070000  0.12850700  1
  O  O20  1  0.89930000  0.86434400  0.12850700  1
  O  O21  1  0.09457700  0.12883400  0.87214200  1
  O  O22  1  0.87116600  0.96574300  0.87214200  1
  O  O23  1  0.03425700  0.90542300  0.87214200  1
  O  O24  1  0.20757700  0.56633600  0.21766500  1
  O  O25  1  0.43366400  0.64124100  0.21766500  1
  O  O26  1  0.35875900  0.79242300  0.21766500  1
  O  O27  1  0.23241200  0.70243100  0.96419700  1
  O  O28  1  0.29756900  0.52998100  0.96419700  1
  O  O29  1  0.47001900  0.76758800  0.96419700  1
  O  O30  1  0.53751400  0.30281500  0.86815500  1
  O  O31  1  0.69718500  0.23469900  0.86815500  1
  O  O32  1  0.76530100  0.46248600  0.86815500  1
  O  O33  1  0.80338800  0.37181500  0.11982400  1
  O  O34  1  0.62818500  0.43157300  0.11982400  1
  O  O35  1  0.56842700  0.19661200  0.11982400  1
  O  O36  1  0.09045800  0.30582000  0.15360100  1
  O  O37  1  0.69418000  0.78463800  0.15360100  1
  O  O38  1  0.21536200  0.90954200  0.15360100  1
  O  O39  1  0.11391100  0.41532000  0.89519700  1
  O  O40  1  0.58468000  0.69859100  0.89519700  1
  O  O41  1  0.30140900  0.88608900  0.89519700  1
  O  O42  1  0.03046900  0.45363300  0.15422300  1
  O  O43  1  0.54636700  0.57683600  0.15422300  1
  O  O44  1  0.42316400  0.96953100  0.15422300  1
  O  O45  1  0.91733900  0.36574700  0.90929900  1
  O  O46  1  0.63425300  0.55159200  0.90929900  1
  O  O47  1  0.44840800  0.08266100  0.90929900  1
  O  O48  1  0.89218800  0.25545500  0.16759100  1
  O  O49  1  0.74454500  0.63673200  0.16759100  1
  O  O50  1  0.36326800  0.10781200  0.16759100  1
  O  O51  1  0.97204100  0.21921900  0.91029500  1
  O  O52  1  0.78078100  0.75282100  0.91029500  1
  O  O53  1  0.24717900  0.02795900  0.91029500  1
  O  O54  1  0.03072900  0.58299800  0.92692900  1
  O  O55  1  0.41700200  0.44773000  0.92692900  1
  O  O56  1  0.55227000  0.96927100  0.92692900  1
  O  O57  1  0.11352000  0.69777000  0.17464500  1
  O  O58  1  0.30223000  0.41575000  0.17464500  1
  O  O59  1  0.58425000  0.88648000  0.17464500  1
  O  O60  1  0.08423400  0.78240600  0.92701500  1
  O  O61  1  0.21759400  0.30182800  0.92701500  1
  O  O62  1  0.69817200  0.91576600  0.92701500  1
  O  O63  1  0.96708200  0.74553400  0.18883100  1
  O  O64  1  0.25446600  0.22154800  0.18883100  1
  O  O65  1  0.77845200  0.03291800  0.18883100  1
  O  O66  1  0.87690200  0.63855800  0.93568600  1
  O  O67  1  0.36144200  0.23834300  0.93568600  1
  O  O68  1  0.76165700  0.12309800  0.93568600  1
  O  O69  1  0.91360600  0.55046100  0.17990000  1
  O  O70  1  0.44953900  0.36314500  0.17990000  1
  O  O71  1  0.63685500  0.08639400  0.17990000  1
  O  O72  1  0.13321700  0.06757000  0.65906300  1
  O  O73  1  0.93243000  0.06564700  0.65906300  1
  O  O74  1  0.93435300  0.86678300  0.65906300  1
  O  O75  1  0.03798100  0.12679300  0.37312600  1
  O  O76  1  0.87320700  0.91118800  0.37312600  1
  O  O77  1  0.08881200  0.96201900  0.37312600  1
  O  O78  1  0.26980800  0.53241600  0.43232400  1
  O  O79  1  0.46758400  0.73739200  0.43232400  1
  O  O80  1  0.26260800  0.73019200  0.43232400  1
  O  O81  1  0.20485300  0.62501700  0.71460500  1
  O  O82  1  0.37498300  0.57983600  0.71460500  1
  O  O83  1  0.42016400  0.79514700  0.71460500  1
  O  O84  1  0.53742900  0.24554900  0.36799000  1
  O  O85  1  0.75445100  0.29188000  0.36799000  1
  O  O86  1  0.70812000  0.46257100  0.36799000  1
  O  O87  1  0.79819800  0.39466500  0.65222800  1
  O  O88  1  0.60533500  0.40353400  0.65222800  1
  O  O89  1  0.59646600  0.20180200  0.65222800  1
  O  O90  1  0.04920600  0.25356400  0.67785400  1
  O  O91  1  0.74643600  0.79564300  0.67785400  1
  O  O92  1  0.20435700  0.95079400  0.67785400  1
  O  O93  1  0.12634600  0.37392300  0.40287600  1
  O  O94  1  0.62607700  0.75242300  0.40287600  1
  O  O95  1  0.24757700  0.87365400  0.40287600  1
  O  O96  1  0.06467200  0.46354500  0.66577900  1
  O  O97  1  0.53645500  0.60112700  0.66577900  1
  O  O98  1  0.39887300  0.93532800  0.66577900  1
  O  O99  1  0.94207400  0.40545000  0.38837000  1
  O  O100  1  0.59455000  0.53662400  0.38837000  1
  O  O101  1  0.46337600  0.05792600  0.38837000  1
  O  O102  1  0.85923700  0.27163500  0.67618000  1
  O  O103  1  0.72836500  0.58760200  0.67618000  1
  O  O104  1  0.41239800  0.14076300  0.67618000  1
  O  O105  1  0.91833200  0.19289100  0.39572000  1
  O  O106  1  0.80710900  0.72544100  0.39572000  1
  O  O107  1  0.27455900  0.08166800  0.39572000  1
  O  O108  1  0.08097900  0.60933600  0.40121000  1
  O  O109  1  0.39066400  0.47164300  0.40121000  1
  O  O110  1  0.52835700  0.91902100  0.40121000  1
  O  O111  1  0.13504000  0.74122700  0.69339300  1
  O  O112  1  0.25877300  0.39381300  0.69339300  1
  O  O113  1  0.60618700  0.86496000  0.69339300  1
  O  O114  1  0.07220900  0.80327400  0.41349100  1
  O  O115  1  0.19672600  0.26893500  0.41349100  1
  O  O116  1  0.73106500  0.92779100  0.41349100  1
  O  O117  1  0.91842700  0.70742700  0.68416200  1
  O  O118  1  0.29257300  0.21099900  0.68416200  1
  O  O119  1  0.78900100  0.08157300  0.68416200  1
  O  O120  1  0.87368800  0.60571400  0.40739400  1
  O  O121  1  0.39428600  0.26797500  0.40739400  1
  O  O122  1  0.73202500  0.12631200  0.40739400  1
  O  O123  1  0.95843000  0.53290200  0.68032800  1
  O  O124  1  0.46709800  0.42552700  0.68032800  1
  O  O125  1  0.57447300  0.04157000  0.68032800  1
