# generated using pymatgen
data_MnP3(HO2)6
_symmetry_space_group_name_H-M   'P 1'
_cell_length_a   7.93648600
_cell_length_b   5.01671500
_cell_length_c   12.54021470
_cell_angle_alpha   90.00000000
_cell_angle_beta   94.88349364
_cell_angle_gamma   90.00000000
_symmetry_Int_Tables_number   1
_chemical_formula_structural   MnP3(HO2)6
_chemical_formula_sum   'Mn2 P6 H12 O24'
_cell_volume   497.47726605
_cell_formula_units_Z   2
loop_
 _symmetry_equiv_pos_site_id
 _symmetry_equiv_pos_as_xyz
  1  'x, y, z'
loop_
 _atom_site_type_symbol
 _atom_site_label
 _atom_site_symmetry_multiplicity
 _atom_site_fract_x
 _atom_site_fract_y
 _atom_site_fract_z
 _atom_site_occupancy
  Mn  Mn0  1  0.50000000  0.00000000  0.50000000  1
  Mn  Mn1  1  0.50000000  0.00000000  0.00000000  1
  P  P2  1  0.71720000  0.48613700  0.59734100  1
  P  P3  1  0.28280000  0.48613700  0.90265900  1
  P  P4  1  0.28280000  0.51386300  0.40265900  1
  P  P5  1  0.71720000  0.51386300  0.09734100  1
  P  P6  1  0.50000000  0.75399000  0.75000000  1
  P  P7  1  0.50000000  0.24601000  0.25000000  1
  H  H8  1  0.97713200  0.32476600  0.62783900  1
  H  H9  1  0.02286800  0.32476600  0.87216100  1
  H  H10  1  0.02286800  0.67523400  0.37216100  1
  H  H11  1  0.97713200  0.67523400  0.12783900  1
  H  H12  1  0.81755000  0.97785600  0.36303200  1
  H  H13  1  0.18245000  0.97785600  0.13696800  1
  H  H14  1  0.18245000  0.02214400  0.63696800  1
  H  H15  1  0.81755000  0.02214400  0.86303200  1
  H  H16  1  0.00093500  0.10264500  0.37380300  1
  H  H17  1  0.99906500  0.10264500  0.12619700  1
  H  H18  1  0.99906500  0.89735500  0.62619700  1
  H  H19  1  0.00093500  0.89735500  0.87380300  1
  O  O20  1  0.65112600  0.68259400  0.51202400  1
  O  O21  1  0.34887400  0.68259400  0.98797600  1
  O  O22  1  0.34887400  0.31740600  0.48797600  1
  O  O23  1  0.65112600  0.31740600  0.01202400  1
  O  O24  1  0.41255700  0.90298600  0.65695800  1
  O  O25  1  0.58744300  0.90298600  0.84304200  1
  O  O26  1  0.58744300  0.09701400  0.34304200  1
  O  O27  1  0.41255700  0.09701400  0.15695800  1
  O  O28  1  0.68301000  0.19304200  0.57168600  1
  O  O29  1  0.31699000  0.19304200  0.92831400  1
  O  O30  1  0.31699000  0.80695800  0.42831400  1
  O  O31  1  0.68301000  0.80695800  0.07168600  1
  O  O32  1  0.91152000  0.51034100  0.62397000  1
  O  O33  1  0.08848000  0.51034100  0.87603000  1
  O  O34  1  0.08848000  0.48965900  0.37603000  1
  O  O35  1  0.91152000  0.48965900  0.12397000  1
  O  O36  1  0.63744600  0.55050300  0.70858600  1
  O  O37  1  0.36255400  0.55050300  0.79141400  1
  O  O38  1  0.36255400  0.44949700  0.29141400  1
  O  O39  1  0.63744600  0.44949700  0.20858600  1
  O  O40  1  0.93887300  0.93487600  0.36622700  1
  O  O41  1  0.06112700  0.93487600  0.13377300  1
  O  O42  1  0.06112700  0.06512400  0.63377300  1
  O  O43  1  0.93887300  0.06512400  0.86622700  1
