# generated using pymatgen
data_SiB2H50C21N2
_symmetry_space_group_name_H-M   'P 1'
_cell_length_a   10.64150472
_cell_length_b   14.36567356
_cell_length_c   19.44763852
_cell_angle_alpha   90.00000000
_cell_angle_beta   90.00000000
_cell_angle_gamma   90.00000000
_symmetry_Int_Tables_number   1
_chemical_formula_structural   SiB2H50C21N2
_chemical_formula_sum   'Si4 B8 H200 C84 N8'
_cell_volume   2973.00684417
_cell_formula_units_Z   4
loop_
 _symmetry_equiv_pos_site_id
 _symmetry_equiv_pos_as_xyz
  1  'x, y, z'
loop_
 _atom_site_type_symbol
 _atom_site_label
 _atom_site_symmetry_multiplicity
 _atom_site_fract_x
 _atom_site_fract_y
 _atom_site_fract_z
 _atom_site_occupancy
  Si  Si0  1  0.29136409  0.40164994  0.48834055  1
  Si  Si1  1  0.70863591  0.90164994  0.51165945  1
  Si  Si2  1  0.79136409  0.90164994  0.01165945  1
  Si  Si3  1  0.20863591  0.40164994  0.98834055  1
  B  B4  1  0.13656399  0.46062879  0.58641317  1
  B  B5  1  0.86343601  0.96062879  0.41358683  1
  B  B6  1  0.63656399  0.96062879  0.91358683  1
  B  B7  1  0.36343601  0.46062879  0.08641317  1
  B  B8  1  0.93986998  0.44348822  0.65887903  1
  B  B9  1  0.06013002  0.94348822  0.34112097  1
  B  B10  1  0.43986998  0.94348822  0.84112097  1
  B  B11  1  0.56013002  0.44348822  0.15887903  1
  H  H12  1  0.12606044  0.51295003  0.53762715  1
  H  H13  1  0.87393956  0.01295003  0.46237285  1
  H  H14  1  0.62606044  0.01295003  0.96237285  1
  H  H15  1  0.37393956  0.51295003  0.03762715  1
  H  H16  1  0.19155140  0.37420019  0.37562377  1
  H  H17  1  0.80844860  0.87420019  0.62437623  1
  H  H18  1  0.69155140  0.87420019  0.12437623  1
  H  H19  1  0.30844860  0.37420019  0.87562377  1
  H  H20  1  0.07327282  0.40717678  0.43463579  1
  H  H21  1  0.92672718  0.90717678  0.56536421  1
  H  H22  1  0.57327282  0.90717678  0.06536421  1
  H  H23  1  0.42672718  0.40717678  0.93463579  1
  H  H24  1  0.17262859  0.49309645  0.39833670  1
  H  H25  1  0.82737141  0.99309645  0.60166330  1
  H  H26  1  0.67262859  0.99309645  0.10166330  1
  H  H27  1  0.32737141  0.49309645  0.89833670  1
  H  H28  1  0.43926394  0.52451095  0.53950131  1
  H  H29  1  0.56073606  0.02451095  0.46049869  1
  H  H30  1  0.93926394  0.02451095  0.96049869  1
  H  H31  1  0.06073606  0.52451095  0.03950131  1
  H  H32  1  0.35901490  0.56386700  0.46500379  1
  H  H33  1  0.64098510  0.06386700  0.53499621  1
  H  H34  1  0.85901490  0.06386700  0.03499621  1
  H  H35  1  0.14098510  0.56386700  0.96500379  1
  H  H36  1  0.48674673  0.48502203  0.45700211  1
  H  H37  1  0.51325327  0.98502203  0.54299789  1
  H  H38  1  0.98674673  0.98502203  0.04299789  1
  H  H39  1  0.01325327  0.48502203  0.95700211  1
  H  H40  1  0.45244138  0.26384915  0.47994705  1
  H  H41  1  0.54755862  0.76384915  0.52005295  1
  H  H42  1  0.95244138  0.76384915  0.02005295  1
  H  H43  1  0.04755862  0.26384915  0.97994705  1
  H  H44  1  0.31248511  0.24394756  0.43222076  1
  H  H45  1  0.68751489  0.74394756  0.56777924  1
  H  H46  1  0.81248511  0.74394756  0.06777924  1
  H  H47  1  0.18751489  0.24394756  0.93222076  1
  H  H48  1  0.42306036  0.32733862  0.40408538  1
  H  H49  1  0.57693964  0.82733862  0.59591462  1
  H  H50  1  0.92306036  0.82733862  0.09591462  1
  H  H51  1  0.07693964  0.32733862  0.90408538  1
  H  H52  1  0.44803470  0.39292379  0.64514958  1
  H  H53  1  0.55196530  0.89292379  0.35485042  1
  H  H54  1  0.94803470  0.89292379  0.85485042  1
  H  H55  1  0.05196530  0.39292379  0.14514958  1
  H  H56  1  0.46552079  0.31328819  0.57612545  1
  H  H57  1  0.53447921  0.81328819  0.42387455  1
  H  H58  1  0.96552079  0.81328819  0.92387455  1
  H  H59  1  0.03447921  0.31328819  0.07612545  1
  H  H60  1  0.45811928  0.27155117  0.66131227  1
  H  H61  1  0.54188072  0.77155117  0.33868773  1
  H  H62  1  0.95811928  0.77155117  0.83868773  1
  H  H63  1  0.04188072  0.27155117  0.16131227  1
  H  H64  1  0.27657583  0.20379772  0.54473811  1
  H  H65  1  0.72342417  0.70379772  0.45526189  1
  H  H66  1  0.77657583  0.70379772  0.95526189  1
  H  H67  1  0.22342417  0.20379772  0.04473811  1
  H  H68  1  0.13732498  0.20785124  0.59519910  1
  H  H69  1  0.86267502  0.70785124  0.40480090  1
  H  H70  1  0.63732498  0.70785124  0.90480090  1
  H  H71  1  0.36267502  0.20785124  0.09519910  1
  H  H72  1  0.27915166  0.16377063  0.63072002  1
  H  H73  1  0.72084834  0.66377063  0.36927998  1
  H  H74  1  0.77915166  0.66377063  0.86927998  1
  H  H75  1  0.22084834  0.16377063  0.13072002  1
  H  H76  1  0.12365716  0.31767351  0.69965016  1
  H  H77  1  0.87634284  0.81767351  0.30034984  1
  H  H78  1  0.62365716  0.81767351  0.80034984  1
  H  H79  1  0.37634284  0.31767351  0.19965016  1
  H  H80  1  0.25088160  0.39331154  0.71835442  1
  H  H81  1  0.74911840  0.89331154  0.28164558  1
  H  H82  1  0.75088160  0.89331154  0.78164558  1
  H  H83  1  0.24911840  0.39331154  0.21835442  1
  H  H84  1  0.26952268  0.27132283  0.72794544  1
  H  H85  1  0.73047732  0.77132283  0.27205456  1
  H  H86  1  0.76952268  0.77132283  0.77205456  1
  H  H87  1  0.23047732  0.27132283  0.22794544  1
  H  H88  1  0.24676141  0.61028146  0.60400755  1
  H  H89  1  0.75323859  0.11028146  0.39599245  1
  H  H90  1  0.74676141  0.11028146  0.89599245  1
  H  H91  1  0.25323859  0.61028146  0.10400755  1
  H  H92  1  0.30699085  0.54163763  0.67301839  1
  H  H93  1  0.69300915  0.04163763  0.32698161  1
  H  H94  1  0.80699085  0.04163763  0.82698161  1
  H  H95  1  0.19300915  0.54163763  0.17301839  1
  H  H96  1  0.27226326  0.66097453  0.68573752  1
  H  H97  1  0.72773674  0.16097453  0.31426248  1
  H  H98  1  0.77226326  0.16097453  0.81426248  1
  H  H99  1  0.22773674  0.66097453  0.18573752  1
  H  H100  1  0.17594199  0.50857387  0.77753131  1
  H  H101  1  0.82405801  0.00857387  0.22246869  1
  H  H102  1  0.67594199  0.00857387  0.72246869  1
  H  H103  1  0.32405801  0.50857387  0.27753131  1
  H  H104  1  0.02247227  0.55531161  0.78703296  1
  H  H105  1  0.97752773  0.05531161  0.21296704  1
  H  H106  1  0.52247227  0.05531161  0.71296704  1
  H  H107  1  0.47752773  0.55531161  0.28703296  1
  H  H108  1  0.15364164  0.63055050  0.78233828  1
  H  H109  1  0.84635836  0.13055050  0.21766172  1
  H  H110  1  0.65364164  0.13055050  0.71766172  1
  H  H111  1  0.34635836  0.63055050  0.28233828  1
  H  H112  1  0.92415591  0.64818635  0.67964635  1
  H  H113  1  0.07584409  0.14818635  0.32035365  1
  H  H114  1  0.42415591  0.14818635  0.82035365  1
  H  H115  1  0.57584409  0.64818635  0.17964635  1
  H  H116  1  0.02215259  0.66750098  0.60700779  1
  H  H117  1  0.97784741  0.16750098  0.39299221  1
  H  H118  1  0.52215259  0.16750098  0.89299221  1
  H  H119  1  0.47784741  0.66750098  0.10700779  1
  H  H120  1  0.05819679  0.72142786  0.68692740  1
  H  H121  1  0.94180321  0.22142786  0.31307260  1
  H  H122  1  0.55819679  0.22142786  0.81307260  1
  H  H123  1  0.44180321  0.72142786  0.18692740  1
  H  H124  1  0.98724051  0.34728475  0.57358715  1
  H  H125  1  0.01275949  0.84728475  0.42641285  1
  H  H126  1  0.48724051  0.84728475  0.92641285  1
  H  H127  1  0.51275949  0.34728475  0.07358715  1
  H  H128  1  0.93765929  0.24678101  0.67839092  1
  H  H129  1  0.06234071  0.74678101  0.32160908  1
  H  H130  1  0.43765929  0.74678101  0.82160908  1
  H  H131  1  0.56234071  0.24678101  0.17839092  1
  H  H132  1  0.85865724  0.21161533  0.60322255  1
  H  H133  1  0.14134276  0.71161533  0.39677745  1
  H  H134  1  0.35865724  0.71161533  0.89677745  1
  H  H135  1  0.64134276  0.21161533  0.10322255  1
  H  H136  1  0.77694828  0.27485685  0.66742009  1
  H  H137  1  0.22305172  0.77485685  0.33257991  1
  H  H138  1  0.27694828  0.77485685  0.83257991  1
  H  H139  1  0.72305172  0.27485685  0.16742009  1
  H  H140  1  0.71159352  0.40214779  0.58106173  1
  H  H141  1  0.28840648  0.90214779  0.41893827  1
  H  H142  1  0.21159352  0.90214779  0.91893827  1
  H  H143  1  0.78840648  0.40214779  0.08106173  1
  H  H144  1  0.85217530  0.53907245  0.54781958  1
  H  H145  1  0.14782470  0.03907245  0.45218042  1
  H  H146  1  0.35217530  0.03907245  0.95218042  1
  H  H147  1  0.64782470  0.53907245  0.04781958  1
  H  H148  1  0.75541131  0.50079269  0.47903156  1
  H  H149  1  0.24458869  0.00079269  0.52096844  1
  H  H150  1  0.25541131  0.00079269  0.02096844  1
  H  H151  1  0.74458869  0.50079269  0.97903156  1
  H  H152  1  0.91664725  0.46968067  0.48177760  1
  H  H153  1  0.08335275  0.96968067  0.51822240  1
  H  H154  1  0.41664725  0.96968067  0.01822240  1
  H  H155  1  0.58335275  0.46968067  0.98177760  1
  H  H156  1  0.74474046  0.24769106  0.52284761  1
  H  H157  1  0.25525954  0.74769106  0.47715239  1
  H  H158  1  0.24474046  0.74769106  0.97715239  1
  H  H159  1  0.75525954  0.24769106  0.02284761  1
  H  H160  1  0.86055912  0.29987873  0.46943595  1
  H  H161  1  0.13944088  0.79987873  0.53056405  1
  H  H162  1  0.36055912  0.79987873  0.03056405  1
  H  H163  1  0.63944088  0.29987873  0.96943595  1
  H  H164  1  0.70041394  0.33428886  0.46295656  1
  H  H165  1  0.29958606  0.83428886  0.53704344  1
  H  H166  1  0.20041394  0.83428886  0.03704344  1
  H  H167  1  0.79958606  0.33428886  0.96295656  1
  H  H168  1  0.87251350  0.53783162  0.74299291  1
  H  H169  1  0.12748650  0.03783162  0.25700709  1
  H  H170  1  0.37251350  0.03783162  0.75700709  1
  H  H171  1  0.62748650  0.53783162  0.24299291  1
  H  H172  1  0.98835941  0.39420083  0.78975194  1
  H  H173  1  0.01164059  0.89420083  0.21024806  1
  H  H174  1  0.48835941  0.89420083  0.71024806  1
  H  H175  1  0.51164059  0.39420083  0.28975194  1
  H  H176  1  0.85231050  0.32824320  0.77126269  1
  H  H177  1  0.14768950  0.82824320  0.22873731  1
  H  H178  1  0.35231050  0.82824320  0.72873731  1
  H  H179  1  0.64768950  0.32824320  0.27126269  1
  H  H180  1  0.84540914  0.41998304  0.83198834  1
  H  H181  1  0.15459086  0.91998304  0.16801166  1
  H  H182  1  0.34540914  0.91998304  0.66801166  1
  H  H183  1  0.65459086  0.41998304  0.33198834  1
  H  H184  1  0.67802109  0.40620726  0.68444512  1
  H  H185  1  0.32197891  0.90620726  0.31555488  1
  H  H186  1  0.17802109  0.90620726  0.81555488  1
  H  H187  1  0.82197891  0.40620726  0.18444512  1
  H  H188  1  0.71740407  0.56045978  0.62122784  1
  H  H189  1  0.28259593  0.06045978  0.37877216  1
  H  H190  1  0.21740407  0.06045978  0.87877216  1
  H  H191  1  0.78259593  0.56045978  0.12122784  1
  H  H192  1  0.68674033  0.61900852  0.69986484  1
  H  H193  1  0.31325967  0.11900852  0.30013516  1
  H  H194  1  0.18674033  0.11900852  0.80013516  1
  H  H195  1  0.81325967  0.61900852  0.19986484  1
  H  H196  1  0.56570939  0.55544202  0.65892413  1
  H  H197  1  0.43429061  0.05544202  0.34107587  1
  H  H198  1  0.06570939  0.05544202  0.84107587  1
  H  H199  1  0.93429061  0.55544202  0.15892413  1
  H  H200  1  0.64539671  0.41100552  0.81268986  1
  H  H201  1  0.35460329  0.91100552  0.18731014  1
  H  H202  1  0.14539671  0.91100552  0.68731014  1
  H  H203  1  0.85460329  0.41100552  0.31268986  1
  H  H204  1  0.52799780  0.47459783  0.76883188  1
  H  H205  1  0.47200220  0.97459783  0.23116812  1
  H  H206  1  0.02799780  0.97459783  0.73116812  1
  H  H207  1  0.97200220  0.47459783  0.26883188  1
  H  H208  1  0.65269462  0.53462896  0.80973876  1
  H  H209  1  0.34730538  0.03462896  0.19026124  1
  H  H210  1  0.15269462  0.03462896  0.69026124  1
  H  H211  1  0.84730538  0.53462896  0.30973876  1
  C  C212  1  0.17015826  0.42155600  0.41844656  1
  C  C213  1  0.82984174  0.92155600  0.58155344  1
  C  C214  1  0.67015826  0.92155600  0.08155344  1
  C  C215  1  0.32984174  0.42155600  0.91844656  1
  C  C216  1  0.40470833  0.50315377  0.48867138  1
  C  C217  1  0.59529167  0.00315377  0.51132862  1
  C  C218  1  0.90470833  0.00315377  0.01132862  1
  C  C219  1  0.09529167  0.50315377  0.98867138  1
  C  C220  1  0.37779442  0.29784258  0.45035121  1
  C  C221  1  0.62220558  0.79784258  0.54964879  1
  C  C222  1  0.87779442  0.79784258  0.04964879  1
  C  C223  1  0.12220558  0.29784258  0.95035121  1
  C  C224  1  0.41982560  0.32415595  0.62600278  1
  C  C225  1  0.58017440  0.82415595  0.37399722  1
  C  C226  1  0.91982560  0.82415595  0.87399722  1
  C  C227  1  0.08017440  0.32415595  0.12600278  1
  C  C228  1  0.23970161  0.21716901  0.59642102  1
  C  C229  1  0.76029839  0.71716901  0.40357898  1
  C  C230  1  0.73970161  0.71716901  0.90357898  1
  C  C231  1  0.26029839  0.21716901  0.09642102  1
  C  C232  1  0.22583890  0.32562818  0.69606033  1
  C  C233  1  0.77416110  0.82562818  0.30393967  1
  C  C234  1  0.72583890  0.82562818  0.80393967  1
  C  C235  1  0.27416110  0.32562818  0.19606033  1
  C  C236  1  0.10572470  0.57441346  0.68314985  1
  C  C237  1  0.89427530  0.07441346  0.31685015  1
  C  C238  1  0.60572470  0.07441346  0.81685015  1
  C  C239  1  0.39427530  0.57441346  0.18314985  1
  C  C240  1  0.24073105  0.59735999  0.65947198  1
  C  C241  1  0.75926895  0.09735999  0.34052802  1
  C  C242  1  0.74073105  0.09735999  0.84052802  1
  C  C243  1  0.25926895  0.59735999  0.15947198  1
  C  C244  1  0.11341863  0.56568281  0.76204795  1
  C  C245  1  0.88658137  0.06568281  0.23795205  1
  C  C246  1  0.61341863  0.06568281  0.73795205  1
  C  C247  1  0.38658137  0.56568281  0.26204795  1
  C  C248  1  0.02192376  0.65750805  0.66301893  1
  C  C249  1  0.97807624  0.15750805  0.33698107  1
  C  C250  1  0.52192376  0.15750805  0.83698107  1
  C  C251  1  0.47807624  0.65750805  0.16301893  1
  C  C252  1  0.90268626  0.36155288  0.60508367  1
  C  C253  1  0.09731374  0.86155288  0.39491633  1
  C  C254  1  0.40268626  0.86155288  0.89491633  1
  C  C255  1  0.59731374  0.36155288  0.10508367  1
  C  C256  1  0.86750144  0.26894113  0.64035340  1
  C  C257  1  0.13249856  0.76894113  0.35964660  1
  C  C258  1  0.36750144  0.76894113  0.85964660  1
  C  C259  1  0.63249856  0.26894113  0.14035340  1
  C  C260  1  0.79952486  0.39039078  0.55229557  1
  C  C261  1  0.20047514  0.89039078  0.44770443  1
  C  C262  1  0.29952486  0.89039078  0.94770443  1
  C  C263  1  0.70047514  0.39039078  0.05229557  1
  C  C264  1  0.83226691  0.48009860  0.51359447  1
  C  C265  1  0.16773309  0.98009860  0.48640553  1
  C  C266  1  0.33226691  0.98009860  0.98640553  1
  C  C267  1  0.66773309  0.48009860  0.01359447  1
  C  C268  1  0.77437874  0.31348836  0.49929483  1
  C  C269  1  0.22562126  0.81348836  0.50070517  1
  C  C270  1  0.27437874  0.81348836  0.00070517  1
  C  C271  1  0.72562126  0.31348836  0.99929483  1
  C  C272  1  0.84990866  0.46743136  0.72412904  1
  C  C273  1  0.15009134  0.96743136  0.27587096  1
  C  C274  1  0.34990866  0.96743136  0.77587096  1
  C  C275  1  0.65009134  0.46743136  0.22412904  1
  C  C276  1  0.88619520  0.39889991  0.78244929  1
  C  C277  1  0.11380480  0.89889991  0.21755071  1
  C  C278  1  0.38619520  0.89889991  0.71755071  1
  C  C279  1  0.61380480  0.39889991  0.28244929  1
  C  C280  1  0.70536350  0.46977830  0.71261089  1
  C  C281  1  0.29463650  0.96977830  0.28738911  1
  C  C282  1  0.20536350  0.96977830  0.78738911  1
  C  C283  1  0.79463650  0.46977830  0.21261089  1
  C  C284  1  0.66699406  0.55517775  0.67022936  1
  C  C285  1  0.33300594  0.05517775  0.32977064  1
  C  C286  1  0.16699406  0.05517775  0.82977064  1
  C  C287  1  0.83300594  0.55517775  0.17022936  1
  C  C288  1  0.62932415  0.47180104  0.77974157  1
  C  C289  1  0.37067585  0.97180104  0.22025843  1
  C  C290  1  0.12932415  0.97180104  0.72025843  1
  C  C291  1  0.87067585  0.47180104  0.27974157  1
  C  C292  1  0.27516443  0.31516706  0.62229255  1
  C  C293  1  0.72483557  0.81516706  0.37770745  1
  C  C294  1  0.77516443  0.81516706  0.87770745  1
  C  C295  1  0.22483557  0.31516706  0.12229255  1
  N  N296  1  0.22424007  0.38763425  0.57385620  1
  N  N297  1  0.77575993  0.88763425  0.42614380  1
  N  N298  1  0.72424007  0.88763425  0.92614380  1
  N  N299  1  0.27575993  0.38763425  0.07385620  1
  N  N300  1  0.05937656  0.48620891  0.64843274  1
  N  N301  1  0.94062344  0.98620891  0.35156726  1
  N  N302  1  0.55937656  0.98620891  0.85156726  1
  N  N303  1  0.44062344  0.48620891  0.14843274  1
