# generated using pymatgen
data_ReRhBr6N5Cl
_symmetry_space_group_name_H-M   'P 1'
_cell_length_a   8.29398300
_cell_length_b   11.54604905
_cell_length_c   16.03169981
_cell_angle_alpha   75.92656806
_cell_angle_beta   89.42801552
_cell_angle_gamma   88.98769808
_symmetry_Int_Tables_number   1
_chemical_formula_structural   ReRhBr6N5Cl
_chemical_formula_sum   'Re4 Rh4 Br24 N20 Cl4'
_cell_volume   1488.90099281
_cell_formula_units_Z   4
loop_
 _symmetry_equiv_pos_site_id
 _symmetry_equiv_pos_as_xyz
  1  'x, y, z'
loop_
 _atom_site_type_symbol
 _atom_site_label
 _atom_site_symmetry_multiplicity
 _atom_site_fract_x
 _atom_site_fract_y
 _atom_site_fract_z
 _atom_site_occupancy
  Re  Re0  1  0.24625500  0.29745300  0.63694800  1
  Re  Re1  1  0.75374500  0.70254700  0.36305200  1
  Re  Re2  1  0.75205900  0.71665100  0.86004800  1
  Re  Re3  1  0.24794100  0.28334900  0.13995200  1
  Rh  Rh4  1  0.26662100  0.78021100  0.14235400  1
  Rh  Rh5  1  0.73337900  0.21978900  0.85764600  1
  Rh  Rh6  1  0.24245900  0.77882200  0.61802800  1
  Rh  Rh7  1  0.75754100  0.22117800  0.38197200  1
  Br  Br8  1  0.25590700  0.33930800  0.48055300  1
  Br  Br9  1  0.74409300  0.66069200  0.51944700  1
  Br  Br10  1  0.03025500  0.15739600  0.64043000  1
  Br  Br11  1  0.96974500  0.84260400  0.35957000  1
  Br  Br12  1  0.45048800  0.14157100  0.64727000  1
  Br  Br13  1  0.54951200  0.85842900  0.35273000  1
  Br  Br14  1  0.45817600  0.44738900  0.63384800  1
  Br  Br15  1  0.54182400  0.55261100  0.36615200  1
  Br  Br16  1  0.04439100  0.46216400  0.62701800  1
  Br  Br17  1  0.95560900  0.53783600  0.37298200  1
  Br  Br18  1  0.23733500  0.26252700  0.79515300  1
  Br  Br19  1  0.76266500  0.73747300  0.20484700  1
  Br  Br20  1  0.73920200  0.59147400  0.75353500  1
  Br  Br21  1  0.26079800  0.40852600  0.24646500  1
  Br  Br22  1  0.76618000  0.89589400  0.74116800  1
  Br  Br23  1  0.23382000  0.10410600  0.25883200  1
  Br  Br24  1  0.45901600  0.73166600  0.85782400  1
  Br  Br25  1  0.54098400  0.26833400  0.14217600  1
  Br  Br26  1  0.73852600  0.53066900  0.97533400  1
  Br  Br27  1  0.26147400  0.46933100  0.02466600  1
  Br  Br28  1  0.04558600  0.69598100  0.85666200  1
  Br  Br29  1  0.95441400  0.30401900  0.14333800  1
  Br  Br30  1  0.76634800  0.83577400  0.96453400  1
  Br  Br31  1  0.23365200  0.16422600  0.03546600  1
  N  N32  1  0.27209600  0.70322500  0.24702500  1
  N  N33  1  0.72790400  0.29677500  0.75297500  1
  N  N34  1  0.10711400  0.91219600  0.13501500  1
  N  N35  1  0.89288600  0.08780400  0.86498500  1
  N  N36  1  0.09534000  0.70386300  0.08730600  1
  N  N37  1  0.90466000  0.29613700  0.91269400  1
  N  N38  1  0.42178000  0.69887100  0.07809200  1
  N  N39  1  0.57822000  0.30112900  0.92190800  1
  N  N40  1  0.43321800  0.90519700  0.12668300  1
  N  N41  1  0.56678200  0.09480300  0.87331700  1
  N  N42  1  0.23525900  0.64949100  0.69567200  1
  N  N43  1  0.76474100  0.35050900  0.30432800  1
  N  N44  1  0.28533600  0.73772700  0.50676900  1
  N  N45  1  0.71466400  0.26227300  0.49323100  1
  N  N46  1  0.01684600  0.81445200  0.57543600  1
  N  N47  1  0.98315400  0.18554800  0.42456400  1
  N  N48  1  0.20478500  0.91034200  0.67857400  1
  N  N49  1  0.79521500  0.08965800  0.32142600  1
  N  N50  1  0.47333900  0.82723600  0.61239100  1
  N  N51  1  0.52666100  0.17276400  0.38760900  1
  Cl  Cl52  1  0.25068900  0.89776900  0.97622200  1
  Cl  Cl53  1  0.74931100  0.10223100  0.02377800  1
  Cl  Cl54  1  0.25614300  0.98220600  0.49930900  1
  Cl  Cl55  1  0.74385700  0.01779400  0.50069100  1
