# generated using pymatgen
data_Ca2Mn2B4O13
_symmetry_space_group_name_H-M   'P 1'
_cell_length_a   8.93631000
_cell_length_b   8.35613600
_cell_length_c   12.14212100
_cell_angle_alpha   90.00000000
_cell_angle_beta   90.00000000
_cell_angle_gamma   90.00000000
_symmetry_Int_Tables_number   1
_chemical_formula_structural   Ca2Mn2B4O13
_chemical_formula_sum   'Ca8 Mn8 B16 O52'
_cell_volume   906.68886489
_cell_formula_units_Z   4
loop_
 _symmetry_equiv_pos_site_id
 _symmetry_equiv_pos_as_xyz
  1  'x, y, z'
loop_
 _atom_site_type_symbol
 _atom_site_label
 _atom_site_symmetry_multiplicity
 _atom_site_fract_x
 _atom_site_fract_y
 _atom_site_fract_z
 _atom_site_occupancy
  Ca  Ca0  1  0.23781400  0.76209800  0.38096500  1
  Ca  Ca1  1  0.23781400  0.23790200  0.61903500  1
  Ca  Ca2  1  0.76218600  0.26209800  0.11903500  1
  Ca  Ca3  1  0.76218600  0.73790200  0.88096500  1
  Ca  Ca4  1  0.76218600  0.23790200  0.61903500  1
  Ca  Ca5  1  0.76218600  0.76209800  0.38096500  1
  Ca  Ca6  1  0.23781400  0.73790200  0.88096500  1
  Ca  Ca7  1  0.23781400  0.26209800  0.11903500  1
  Mn  Mn8  1  0.00000000  0.50000000  0.50000000  1
  Mn  Mn9  1  0.00000000  0.00000000  0.00000000  1
  Mn  Mn10  1  0.00000000  0.00000000  0.50000000  1
  Mn  Mn11  1  0.00000000  0.50000000  0.00000000  1
  Mn  Mn12  1  0.00000000  0.00088700  0.26339000  1
  Mn  Mn13  1  0.00000000  0.99911300  0.73661000  1
  Mn  Mn14  1  0.00000000  0.50088700  0.23661000  1
  Mn  Mn15  1  0.00000000  0.49911300  0.76339000  1
  B  B16  1  0.50000000  0.76509400  0.22524100  1
  B  B17  1  0.50000000  0.23490600  0.77475900  1
  B  B18  1  0.50000000  0.26509400  0.27475900  1
  B  B19  1  0.50000000  0.73490600  0.72524100  1
  B  B20  1  0.50000000  0.76399300  0.03630000  1
  B  B21  1  0.50000000  0.23600700  0.96370000  1
  B  B22  1  0.50000000  0.26399300  0.46370000  1
  B  B23  1  0.50000000  0.73600700  0.53630000  1
  B  B24  1  0.28961300  0.89919700  0.13231900  1
  B  B25  1  0.28961300  0.10080300  0.86768100  1
  B  B26  1  0.71038700  0.39919700  0.36768100  1
  B  B27  1  0.71038700  0.60080300  0.63231900  1
  B  B28  1  0.71038700  0.10080300  0.86768100  1
  B  B29  1  0.71038700  0.89919700  0.13231900  1
  B  B30  1  0.28961300  0.60080300  0.63231900  1
  B  B31  1  0.28961300  0.39919700  0.36768100  1
  O  O32  1  0.50000000  0.67930600  0.33838100  1
  O  O33  1  0.50000000  0.32069400  0.66161900  1
  O  O34  1  0.50000000  0.17930600  0.16161900  1
  O  O35  1  0.50000000  0.82069400  0.83838100  1
  O  O36  1  0.50000000  0.68353500  0.92215300  1
  O  O37  1  0.50000000  0.31646500  0.07784700  1
  O  O38  1  0.50000000  0.18353500  0.57784700  1
  O  O39  1  0.50000000  0.81646500  0.42215300  1
  O  O40  1  0.50000000  0.66116500  0.13100100  1
  O  O41  1  0.50000000  0.33883500  0.86899900  1
  O  O42  1  0.50000000  0.16116500  0.36899900  1
  O  O43  1  0.50000000  0.83883500  0.63100100  1
  O  O44  1  0.36120100  0.86399700  0.22897600  1
  O  O45  1  0.36120100  0.13600300  0.77102400  1
  O  O46  1  0.63879900  0.36399700  0.27102400  1
  O  O47  1  0.63879900  0.63600300  0.72897600  1
  O  O48  1  0.63879900  0.13600300  0.77102400  1
  O  O49  1  0.63879900  0.86399700  0.22897600  1
  O  O50  1  0.36120100  0.63600300  0.72897600  1
  O  O51  1  0.36120100  0.36399700  0.27102400  1
  O  O52  1  0.35518900  0.85525500  0.03492400  1
  O  O53  1  0.35518900  0.14474500  0.96507600  1
  O  O54  1  0.64481100  0.35525500  0.46507600  1
  O  O55  1  0.64481100  0.64474500  0.53492400  1
  O  O56  1  0.64481100  0.14474500  0.96507600  1
  O  O57  1  0.64481100  0.85525500  0.03492400  1
  O  O58  1  0.35518900  0.64474500  0.53492400  1
  O  O59  1  0.35518900  0.35525500  0.46507600  1
  O  O60  1  0.15458200  0.98319300  0.13505200  1
  O  O61  1  0.15458200  0.01680700  0.86494800  1
  O  O62  1  0.84541800  0.48319300  0.36494800  1
  O  O63  1  0.84541800  0.51680700  0.63505200  1
  O  O64  1  0.84541800  0.01680700  0.86494800  1
  O  O65  1  0.84541800  0.98319300  0.13505200  1
  O  O66  1  0.15458200  0.51680700  0.63505200  1
  O  O67  1  0.15458200  0.48319300  0.36494800  1
  O  O68  1  0.00000000  0.73583000  0.47468800  1
  O  O69  1  0.00000000  0.26417000  0.52531200  1
  O  O70  1  0.00000000  0.23583000  0.02531200  1
  O  O71  1  0.00000000  0.76417000  0.97468800  1
  O  O72  1  0.00000000  0.75274300  0.27744800  1
  O  O73  1  0.00000000  0.24725700  0.72255200  1
  O  O74  1  0.00000000  0.25274300  0.22255200  1
  O  O75  1  0.00000000  0.74725700  0.77744800  1
  O  O76  1  0.13814100  0.01601800  0.37896900  1
  O  O77  1  0.13814100  0.98398200  0.62103100  1
  O  O78  1  0.86185900  0.51601800  0.12103100  1
  O  O79  1  0.86185900  0.48398200  0.87896900  1
  O  O80  1  0.86185900  0.98398200  0.62103100  1
  O  O81  1  0.86185900  0.01601800  0.37896900  1
  O  O82  1  0.13814100  0.48398200  0.87896900  1
  O  O83  1  0.13814100  0.51601800  0.12103100  1
