# generated using pymatgen
data_CuPNO5
_symmetry_space_group_name_H-M   'P 1'
_cell_length_a   7.62841300
_cell_length_b   7.93777900
_cell_length_c   8.65406244
_cell_angle_alpha   79.08044508
_cell_angle_beta   90.00000000
_cell_angle_gamma   90.00000000
_symmetry_Int_Tables_number   1
_chemical_formula_structural   CuPNO5
_chemical_formula_sum   'Cu4 P4 N4 O20'
_cell_volume   514.53850855
_cell_formula_units_Z   4
loop_
 _symmetry_equiv_pos_site_id
 _symmetry_equiv_pos_as_xyz
  1  'x, y, z'
loop_
 _atom_site_type_symbol
 _atom_site_label
 _atom_site_symmetry_multiplicity
 _atom_site_fract_x
 _atom_site_fract_y
 _atom_site_fract_z
 _atom_site_occupancy
  Cu  Cu0  1  0.72710700  0.58761900  0.01366800  1
  Cu  Cu1  1  0.22710700  0.91238100  0.98633200  1
  Cu  Cu2  1  0.27289300  0.41238100  0.98633200  1
  Cu  Cu3  1  0.77289300  0.08761900  0.01366800  1
  P  P4  1  0.53170200  0.82290700  0.19634600  1
  P  P5  1  0.03170200  0.67709300  0.80365400  1
  P  P6  1  0.46829800  0.17709300  0.80365400  1
  P  P7  1  0.96829800  0.32290700  0.19634600  1
  N  N8  1  0.30698700  0.62709800  0.43527700  1
  N  N9  1  0.80698700  0.87290200  0.56472300  1
  N  N10  1  0.69301300  0.37290200  0.56472300  1
  N  N11  1  0.19301300  0.12709800  0.43527700  1
  O  O12  1  0.86599100  0.56303600  0.84239200  1
  O  O13  1  0.36599100  0.93696400  0.15760800  1
  O  O14  1  0.13400900  0.43696400  0.15760800  1
  O  O15  1  0.63400900  0.06303600  0.84239200  1
  O  O16  1  0.51328700  0.71950600  0.37063200  1
  O  O17  1  0.01328700  0.78049400  0.62936800  1
  O  O18  1  0.48671300  0.28049400  0.62936800  1
  O  O19  1  0.98671300  0.21950600  0.37063200  1
  O  O20  1  0.53375100  0.69682900  0.07901100  1
  O  O21  1  0.03375100  0.80317100  0.92098900  1
  O  O22  1  0.46624900  0.30317100  0.92098900  1
  O  O23  1  0.96624900  0.19682900  0.07901100  1
  O  O24  1  0.70137900  0.92805900  0.19605300  1
  O  O25  1  0.20137900  0.57194100  0.80394700  1
  O  O26  1  0.29862100  0.07194100  0.80394700  1
  O  O27  1  0.79862100  0.42805900  0.19605300  1
  O  O28  1  0.69102900  0.82785500  0.64471100  1
  O  O29  1  0.19102900  0.67214500  0.35528900  1
  O  O30  1  0.30897100  0.17214500  0.35528900  1
  O  O31  1  0.80897100  0.32785500  0.64471100  1
