# generated using pymatgen
data_Na2U2FeH8(C3O7)4
_symmetry_space_group_name_H-M   'P 1'
_cell_length_a   6.54680800
_cell_length_b   7.97538040
_cell_length_c   13.03154572
_cell_angle_alpha   75.63254088
_cell_angle_beta   84.51677701
_cell_angle_gamma   67.80861256
_symmetry_Int_Tables_number   1
_chemical_formula_structural   Na2U2FeH8(C3O7)4
_chemical_formula_sum   'Na2 U2 Fe1 H8 C12 O28'
_cell_volume   610.31371560
_cell_formula_units_Z   1
loop_
 _symmetry_equiv_pos_site_id
 _symmetry_equiv_pos_as_xyz
  1  'x, y, z'
loop_
 _atom_site_type_symbol
 _atom_site_label
 _atom_site_symmetry_multiplicity
 _atom_site_fract_x
 _atom_site_fract_y
 _atom_site_fract_z
 _atom_site_occupancy
  Na  Na0  1  0.74963100  0.83699600  0.79258900  1
  Na  Na1  1  0.25036900  0.16300400  0.20741100  1
  U  U2  1  0.76364000  0.33798600  0.80391500  1
  U  U3  1  0.23636000  0.66201400  0.19608500  1
  Fe  Fe4  1  0.50000000  0.00000000  0.50000000  1
  H  H5  1  0.91927300  0.85033100  0.57396700  1
  H  H6  1  0.08072700  0.14966900  0.42603300  1
  H  H7  1  0.81714500  0.05597400  0.59570600  1
  H  H8  1  0.18285500  0.94402600  0.40429400  1
  H  H9  1  0.74159800  0.98013900  0.31050500  1
  H  H10  1  0.25840200  0.01986100  0.68949500  1
  H  H11  1  0.65446000  0.19267700  0.31947500  1
  H  H12  1  0.34554000  0.80732300  0.68052500  1
  C  C13  1  0.31050300  0.25146400  0.77468800  1
  C  C14  1  0.68949700  0.74853600  0.22531200  1
  C  C15  1  0.21635300  0.45510700  0.78128000  1
  C  C16  1  0.78364700  0.54489300  0.21872000  1
  C  C17  1  0.80514200  0.38298000  0.54583600  1
  C  C18  1  0.19485800  0.61702000  0.45416400  1
  C  C19  1  0.70079800  0.58435000  0.56150200  1
  C  C20  1  0.29920200  0.41565000  0.43849800  1
  C  C21  1  0.52441800  0.58926300  0.97861300  1
  C  C22  1  0.47558200  0.41073700  0.02138700  1
  C  C23  1  0.97365800  0.93302900  0.97485400  1
  C  C24  1  0.02634200  0.06697100  0.02514600  1
  O  O25  1  0.17099900  0.17888900  0.76739300  1
  O  O26  1  0.82900100  0.82111100  0.23260700  1
  O  O27  1  0.00894800  0.52729300  0.79069700  1
  O  O28  1  0.99105200  0.47270700  0.20930300  1
  O  O29  1  0.35391700  0.53359400  0.77626800  1
  O  O30  1  0.64608300  0.46640600  0.22373200  1
  O  O31  1  0.51805600  0.17098200  0.77585900  1
  O  O32  1  0.48194400  0.82901800  0.22414100  1
  O  O33  1  0.82314000  0.25840600  0.63391800  1
  O  O34  1  0.17686000  0.74159400  0.36608200  1
  O  O35  1  0.68450200  0.59562100  0.65878200  1
  O  O36  1  0.31549800  0.40437900  0.34121800  1
  O  O37  1  0.63999400  0.71851100  0.48313200  1
  O  O38  1  0.36000600  0.28148900  0.51686800  1
  O  O39  1  0.86175500  0.35225300  0.45684500  1
  O  O40  1  0.13824500  0.64774700  0.54315500  1
  O  O41  1  0.63237200  0.59796400  0.89215400  1
  O  O42  1  0.36762800  0.40203600  0.10784600  1
  O  O43  1  0.45600700  0.71238600  0.03154000  1
  O  O44  1  0.54399300  0.28761400  0.96846000  1
  O  O45  1  0.88811600  0.00138000  0.88258700  1
  O  O46  1  0.11188400  0.99862000  0.11741300  1
  O  O47  1  0.01727700  0.76847500  0.02764200  1
  O  O48  1  0.98272300  0.23152500  0.97235800  1
  O  O49  1  0.78476300  0.94298400  0.59832000  1
  O  O50  1  0.21523700  0.05701600  0.40168000  1
  O  O51  1  0.68294900  0.06495200  0.35971100  1
  O  O52  1  0.31705100  0.93504800  0.64028900  1
