# generated using pymatgen
data_Co3(SO6)2
_symmetry_space_group_name_H-M   'P 1'
_cell_length_a   7.05159800
_cell_length_b   9.61325200
_cell_length_c   12.70405800
_cell_angle_alpha   90.00000000
_cell_angle_beta   90.00000000
_cell_angle_gamma   90.00000000
_symmetry_Int_Tables_number   1
_chemical_formula_structural   Co3(SO6)2
_chemical_formula_sum   'Co12 S8 O48'
_cell_volume   861.19270183
_cell_formula_units_Z   4
loop_
 _symmetry_equiv_pos_site_id
 _symmetry_equiv_pos_as_xyz
  1  'x, y, z'
loop_
 _atom_site_type_symbol
 _atom_site_label
 _atom_site_symmetry_multiplicity
 _atom_site_fract_x
 _atom_site_fract_y
 _atom_site_fract_z
 _atom_site_occupancy
  Co  Co0  1  0.05004200  0.02736900  0.63449500  1
  Co  Co1  1  0.94995800  0.97263100  0.13449500  1
  Co  Co2  1  0.05004200  0.47263100  0.36550500  1
  Co  Co3  1  0.94995800  0.52736900  0.86550500  1
  Co  Co4  1  0.94995800  0.97263100  0.36550500  1
  Co  Co5  1  0.05004200  0.02736900  0.86550500  1
  Co  Co6  1  0.94995800  0.52736900  0.63449500  1
  Co  Co7  1  0.05004200  0.47263100  0.13449500  1
  Co  Co8  1  0.72231800  0.24884600  0.75000000  1
  Co  Co9  1  0.27768200  0.75115400  0.25000000  1
  Co  Co10  1  0.72231800  0.25115400  0.25000000  1
  Co  Co11  1  0.27768200  0.74884600  0.75000000  1
  S  S12  1  0.79854000  0.25000000  0.50000000  1
  S  S13  1  0.20146000  0.75000000  0.00000000  1
  S  S14  1  0.20146000  0.75000000  0.50000000  1
  S  S15  1  0.79854000  0.25000000  0.00000000  1
  S  S16  1  0.30413900  0.42798300  0.75000000  1
  S  S17  1  0.69586100  0.57201700  0.25000000  1
  S  S18  1  0.30413900  0.07201700  0.25000000  1
  S  S19  1  0.69586100  0.92798300  0.75000000  1
  O  O20  1  0.92032000  0.37942000  0.49919800  1
  O  O21  1  0.07968000  0.62058000  0.99919800  1
  O  O22  1  0.92032000  0.12058000  0.50080200  1
  O  O23  1  0.07968000  0.87942000  0.00080200  1
  O  O24  1  0.07968000  0.62058000  0.50080200  1
  O  O25  1  0.92032000  0.37942000  0.00080200  1
  O  O26  1  0.07968000  0.87942000  0.49919800  1
  O  O27  1  0.92032000  0.12058000  0.99919800  1
  O  O28  1  0.67796100  0.25437400  0.59404100  1
  O  O29  1  0.32203900  0.74562600  0.09404100  1
  O  O30  1  0.67796100  0.24562600  0.40595900  1
  O  O31  1  0.32203900  0.75437400  0.90595900  1
  O  O32  1  0.32203900  0.74562600  0.40595900  1
  O  O33  1  0.67796100  0.25437400  0.90595900  1
  O  O34  1  0.32203900  0.75437400  0.59404100  1
  O  O35  1  0.67796100  0.24562600  0.09404100  1
  O  O36  1  0.18208900  0.41879400  0.65279600  1
  O  O37  1  0.81791100  0.58120600  0.15279600  1
  O  O38  1  0.18208900  0.08120600  0.34720400  1
  O  O39  1  0.81791100  0.91879400  0.84720400  1
  O  O40  1  0.81791100  0.58120600  0.34720400  1
  O  O41  1  0.18208900  0.41879400  0.84720400  1
  O  O42  1  0.81791100  0.91879400  0.65279600  1
  O  O43  1  0.18208900  0.08120600  0.15279600  1
  O  O44  1  0.43612900  0.31239000  0.75000000  1
  O  O45  1  0.56387100  0.68761000  0.25000000  1
  O  O46  1  0.43612900  0.18761000  0.25000000  1
  O  O47  1  0.56387100  0.81239000  0.75000000  1
  O  O48  1  0.59164700  0.06373000  0.75000000  1
  O  O49  1  0.40835300  0.93627000  0.25000000  1
  O  O50  1  0.59164700  0.43627000  0.25000000  1
  O  O51  1  0.40835300  0.56373000  0.75000000  1
  O  O52  1  0.24750300  0.10472700  0.60599300  1
  O  O53  1  0.75249700  0.89527300  0.10599300  1
  O  O54  1  0.24750300  0.39527300  0.39400700  1
  O  O55  1  0.75249700  0.60472700  0.89400700  1
  O  O56  1  0.75249700  0.89527300  0.39400700  1
  O  O57  1  0.24750300  0.10472700  0.89400700  1
  O  O58  1  0.75249700  0.60472700  0.60599300  1
  O  O59  1  0.24750300  0.39527300  0.10599300  1
  O  O60  1  0.83903500  0.42045900  0.75000000  1
  O  O61  1  0.16096500  0.57954100  0.25000000  1
  O  O62  1  0.83903500  0.07954100  0.25000000  1
  O  O63  1  0.16096500  0.92045900  0.75000000  1
  O  O64  1  0.96434900  0.14469200  0.75000000  1
  O  O65  1  0.03565100  0.85530800  0.25000000  1
  O  O66  1  0.96434900  0.35530800  0.25000000  1
  O  O67  1  0.03565100  0.64469200  0.75000000  1
