# generated using pymatgen
data_UP2H2CO13
_symmetry_space_group_name_H-M   'P 1'
_cell_length_a   9.57389900
_cell_length_b   9.80070900
_cell_length_c   13.14732974
_cell_angle_alpha   84.57309598
_cell_angle_beta   90.00000000
_cell_angle_gamma   90.00000000
_symmetry_Int_Tables_number   1
_chemical_formula_structural   UP2H2CO13
_chemical_formula_sum   'U4 P8 H8 C4 O52'
_cell_volume   1228.09754163
_cell_formula_units_Z   4
loop_
 _symmetry_equiv_pos_site_id
 _symmetry_equiv_pos_as_xyz
  1  'x, y, z'
loop_
 _atom_site_type_symbol
 _atom_site_label
 _atom_site_symmetry_multiplicity
 _atom_site_fract_x
 _atom_site_fract_y
 _atom_site_fract_z
 _atom_site_occupancy
  U  U0  1  0.75000000  0.37009700  0.97373000  1
  U  U1  1  0.25000000  0.62990300  0.02627000  1
  U  U2  1  0.75000000  0.01331500  0.38638000  1
  U  U3  1  0.25000000  0.98668500  0.61362000  1
  P  P4  1  0.40928200  0.30425200  0.09008400  1
  P  P5  1  0.90928200  0.69574800  0.90991600  1
  P  P6  1  0.59071800  0.69574800  0.90991600  1
  P  P7  1  0.09071800  0.30425200  0.09008400  1
  P  P8  1  0.59260400  0.14954900  0.60909000  1
  P  P9  1  0.09260400  0.85045100  0.39091000  1
  P  P10  1  0.40739600  0.85045100  0.39091000  1
  P  P11  1  0.90739600  0.14954900  0.60909000  1
  H  H12  1  0.25000000  0.28522800  0.95023600  1
  H  H13  1  0.75000000  0.71477200  0.04976400  1
  H  H14  1  0.25000000  0.13497300  0.04001800  1
  H  H15  1  0.75000000  0.86502700  0.95998200  1
  H  H16  1  0.75000000  0.96972500  0.66961500  1
  H  H17  1  0.25000000  0.03027500  0.33038500  1
  H  H18  1  0.75000000  0.10590500  0.75124500  1
  H  H19  1  0.25000000  0.89409500  0.24875500  1
  C  C20  1  0.25000000  0.24743200  0.03199600  1
  C  C21  1  0.75000000  0.75256800  0.96800400  1
  C  C22  1  0.75000000  0.08184200  0.67114900  1
  C  C23  1  0.25000000  0.91815800  0.32885100  1
  O  O24  1  0.75000000  0.27063200  0.86483000  1
  O  O25  1  0.25000000  0.72936800  0.13517000  1
  O  O26  1  0.75000000  0.45264600  0.09048900  1
  O  O27  1  0.25000000  0.54735400  0.90951100  1
  O  O28  1  0.75000000  0.03896900  0.08599200  1
  O  O29  1  0.25000000  0.96103100  0.91400800  1
  O  O30  1  0.53428900  0.26437300  0.02513300  1
  O  O31  1  0.03428900  0.73562700  0.97486700  1
  O  O32  1  0.46571100  0.73562700  0.97486700  1
  O  O33  1  0.96571100  0.26437300  0.02513300  1
  O  O34  1  0.60413600  0.54028600  0.90291800  1
  O  O35  1  0.10413600  0.45971400  0.09708200  1
  O  O36  1  0.39586400  0.45971400  0.09708200  1
  O  O37  1  0.89586400  0.54028600  0.90291800  1
  O  O38  1  0.43031400  0.22642600  0.19735100  1
  O  O39  1  0.93031400  0.77357400  0.80264900  1
  O  O40  1  0.56968600  0.77357400  0.80264900  1
  O  O41  1  0.06968600  0.22642600  0.19735100  1
  O  O42  1  0.75000000  0.87177400  0.48466600  1
  O  O43  1  0.25000000  0.12822600  0.51533400  1
  O  O44  1  0.75000000  0.15146000  0.28518100  1
  O  O45  1  0.25000000  0.84854000  0.71481900  1
  O  O46  1  0.60452800  0.12764100  0.49409500  1
  O  O47  1  0.10452800  0.87235900  0.50590500  1
  O  O48  1  0.39547200  0.87235900  0.50590500  1
  O  O49  1  0.89547200  0.12764100  0.49409500  1
  O  O50  1  0.53067800  0.92896700  0.33817400  1
  O  O51  1  0.03067800  0.07103300  0.66182600  1
  O  O52  1  0.46932200  0.07103300  0.66182600  1
  O  O53  1  0.96932200  0.92896700  0.33817400  1
  O  O54  1  0.75000000  0.85464600  0.24100700  1
  O  O55  1  0.25000000  0.14535400  0.75899300  1
  O  O56  1  0.57852800  0.30589600  0.61269700  1
  O  O57  1  0.07852800  0.69410400  0.38730300  1
  O  O58  1  0.42147200  0.69410400  0.38730300  1
  O  O59  1  0.92147200  0.30589600  0.61269700  1
  O  O60  1  0.75000000  0.54253700  0.31554200  1
  O  O61  1  0.25000000  0.45746300  0.68445800  1
  O  O62  1  0.36508000  0.01802500  0.88095900  1
  O  O63  1  0.86508000  0.98197500  0.11904100  1
  O  O64  1  0.63492000  0.98197500  0.11904100  1
  O  O65  1  0.13492000  0.01802500  0.88095900  1
  O  O66  1  0.75000000  0.61715200  0.60846800  1
  O  O67  1  0.25000000  0.38284800  0.39153200  1
  O  O68  1  0.63499900  0.58724400  0.27427000  1
  O  O69  1  0.13499900  0.41275600  0.72573000  1
  O  O70  1  0.36500100  0.41275600  0.72573000  1
  O  O71  1  0.86500100  0.58724400  0.27427000  1
  O  O72  1  0.36568600  0.36162900  0.34689800  1
  O  O73  1  0.86568600  0.63837100  0.65310200  1
  O  O74  1  0.63431400  0.63837100  0.65310200  1
  O  O75  1  0.13431400  0.36162900  0.34689800  1
