# generated using pymatgen
data_K3TaO2F7
_symmetry_space_group_name_H-M   'P 1'
_cell_length_a   7.25164700
_cell_length_b   9.52096600
_cell_length_c   14.10889600
_cell_angle_alpha   90.00000000
_cell_angle_beta   90.00000000
_cell_angle_gamma   90.00000000
_symmetry_Int_Tables_number   1
_chemical_formula_structural   K3TaO2F7
_chemical_formula_sum   'K12 Ta4 O8 F28'
_cell_volume   974.11605561
_cell_formula_units_Z   4
loop_
 _symmetry_equiv_pos_site_id
 _symmetry_equiv_pos_as_xyz
  1  'x, y, z'
loop_
 _atom_site_type_symbol
 _atom_site_label
 _atom_site_symmetry_multiplicity
 _atom_site_fract_x
 _atom_site_fract_y
 _atom_site_fract_z
 _atom_site_occupancy
  K  K0  1  0.23767200  0.49839000  0.34395600  1
  K  K1  1  0.76232800  0.99839000  0.65604400  1
  K  K2  1  0.26232800  0.99839000  0.84395600  1
  K  K3  1  0.73767200  0.49839000  0.15604400  1
  K  K4  1  0.78419300  0.76250800  0.34661500  1
  K  K5  1  0.21580700  0.26250800  0.65338500  1
  K  K6  1  0.71580700  0.26250800  0.84661500  1
  K  K7  1  0.28419300  0.76250800  0.15338500  1
  K  K8  1  0.27257600  0.23623200  0.15781500  1
  K  K9  1  0.72742400  0.73623200  0.84218500  1
  K  K10  1  0.22742400  0.73623200  0.65781500  1
  K  K11  1  0.77257600  0.23623200  0.34218500  1
  Ta  Ta12  1  0.21543300  0.99861300  0.42883700  1
  Ta  Ta13  1  0.78456700  0.49861300  0.57116300  1
  Ta  Ta14  1  0.28456700  0.49861300  0.92883700  1
  Ta  Ta15  1  0.71543300  0.99861300  0.07116300  1
  O  O16  1  0.48521300  0.91690800  0.44596300  1
  O  O17  1  0.51478700  0.41690800  0.55403700  1
  O  O18  1  0.01478700  0.41690800  0.94596300  1
  O  O19  1  0.98521300  0.91690800  0.05403700  1
  O  O20  1  0.49374400  0.06034100  0.44849400  1
  O  O21  1  0.50625600  0.56034100  0.55150600  1
  O  O22  1  0.00625600  0.56034100  0.94849400  1
  O  O23  1  0.99374400  0.06034100  0.05150600  1
  F  F24  1  0.94884900  0.00685800  0.41259400  1
  F  F25  1  0.05115100  0.50685800  0.58740600  1
  F  F26  1  0.55115100  0.50685800  0.91259400  1
  F  F27  1  0.44884900  0.00685800  0.08740600  1
  F  F28  1  0.25848100  0.00533400  0.29433600  1
  F  F29  1  0.74151900  0.50533400  0.70566400  1
  F  F30  1  0.24151900  0.50533400  0.79433600  1
  F  F31  1  0.75848100  0.00533400  0.20566400  1
  F  F32  1  0.18343800  0.20279500  0.43618100  1
  F  F33  1  0.81656200  0.70279500  0.56381900  1
  F  F34  1  0.31656200  0.70279500  0.93618100  1
  F  F35  1  0.68343800  0.20279500  0.06381900  1
  F  F36  1  0.16190100  0.79693800  0.42853700  1
  F  F37  1  0.83809900  0.29693800  0.57146300  1
  F  F38  1  0.33809900  0.29693800  0.92853700  1
  F  F39  1  0.66190100  0.79693800  0.07146300  1
  F  F40  1  0.19300500  0.99501700  0.56558400  1
  F  F41  1  0.80699500  0.49501700  0.43441600  1
  F  F42  1  0.30699500  0.49501700  0.06558400  1
  F  F43  1  0.69300500  0.99501700  0.93441600  1
  F  F44  1  0.98882300  0.67061900  0.21853800  1
  F  F45  1  0.01117700  0.17061900  0.78146200  1
  F  F46  1  0.51117700  0.17061900  0.71853800  1
  F  F47  1  0.48882300  0.67061900  0.28146200  1
  F  F48  1  0.50481800  0.34964600  0.26142100  1
  F  F49  1  0.49518200  0.84964600  0.73857900  1
  F  F50  1  0.99518200  0.84964600  0.76142100  1
  F  F51  1  0.00481800  0.34964600  0.23857900  1
