# generated using pymatgen
data_CsB6(H5N)3
_symmetry_space_group_name_H-M   'P 1'
_cell_length_a   8.14979000
_cell_length_b   14.48859200
_cell_length_c   18.98250000
_cell_angle_alpha   90.00000000
_cell_angle_beta   90.00000000
_cell_angle_gamma   90.00000000
_symmetry_Int_Tables_number   1
_chemical_formula_structural   CsB6(H5N)3
_chemical_formula_sum   'Cs8 B48 H120 N24'
_cell_volume   2241.43427953
_cell_formula_units_Z   8
loop_
 _symmetry_equiv_pos_site_id
 _symmetry_equiv_pos_as_xyz
  1  'x, y, z'
loop_
 _atom_site_type_symbol
 _atom_site_label
 _atom_site_symmetry_multiplicity
 _atom_site_fract_x
 _atom_site_fract_y
 _atom_site_fract_z
 _atom_site_occupancy
  Cs  Cs0  1  0.49873300  0.32958300  0.40127000  1
  Cs  Cs1  1  0.99873300  0.17041700  0.59873000  1
  Cs  Cs2  1  0.50126700  0.82958300  0.09873000  1
  Cs  Cs3  1  0.00126700  0.67041700  0.90127000  1
  Cs  Cs4  1  0.50126700  0.67041700  0.59873000  1
  Cs  Cs5  1  0.00126700  0.82958300  0.40127000  1
  Cs  Cs6  1  0.49873300  0.17041700  0.90127000  1
  Cs  Cs7  1  0.99873300  0.32958300  0.09873000  1
  B  B8  1  0.54316900  0.06077200  0.42578100  1
  B  B9  1  0.04316900  0.43922800  0.57421900  1
  B  B10  1  0.45683100  0.56077200  0.07421900  1
  B  B11  1  0.95683100  0.93922800  0.92578100  1
  B  B12  1  0.45683100  0.93922800  0.57421900  1
  B  B13  1  0.95683100  0.56077200  0.42578100  1
  B  B14  1  0.54316900  0.43922800  0.92578100  1
  B  B15  1  0.04316900  0.06077200  0.07421900  1
  B  B16  1  0.38632700  0.09572600  0.48597800  1
  B  B17  1  0.88632700  0.40427400  0.51402200  1
  B  B18  1  0.61367300  0.59572600  0.01402200  1
  B  B19  1  0.11367300  0.90427400  0.98597800  1
  B  B20  1  0.61367300  0.90427400  0.51402200  1
  B  B21  1  0.11367300  0.59572600  0.48597800  1
  B  B22  1  0.38632700  0.40427400  0.98597800  1
  B  B23  1  0.88632700  0.09572600  0.01402200  1
  B  B24  1  0.35962000  0.99439500  0.43400300  1
  B  B25  1  0.85962000  0.50560500  0.56599700  1
  B  B26  1  0.64038000  0.49439500  0.06599700  1
  B  B27  1  0.14038000  0.00560500  0.93400300  1
  B  B28  1  0.64038000  0.00560500  0.56599700  1
  B  B29  1  0.14038000  0.49439500  0.43400300  1
  B  B30  1  0.35962000  0.50560500  0.93400300  1
  B  B31  1  0.85962000  0.99439500  0.06599700  1
  B  B32  1  0.55382200  0.93797500  0.42748400  1
  B  B33  1  0.05382200  0.56202500  0.57251600  1
  B  B34  1  0.44617800  0.43797500  0.07251600  1
  B  B35  1  0.94617800  0.06202500  0.92748400  1
  B  B36  1  0.44617800  0.06202500  0.57251600  1
  B  B37  1  0.94617800  0.43797500  0.42748400  1
  B  B38  1  0.55382200  0.56202500  0.92748400  1
  B  B39  1  0.05382200  0.93797500  0.07251600  1
  B  B40  1  0.69994500  0.00485300  0.47530900  1
  B  B41  1  0.19994500  0.49514700  0.52469100  1
  B  B42  1  0.30005500  0.50485300  0.02469100  1
  B  B43  1  0.80005500  0.99514700  0.97530900  1
  B  B44  1  0.30005500  0.99514700  0.52469100  1
  B  B45  1  0.80005500  0.50485300  0.47530900  1
  B  B46  1  0.69994500  0.49514700  0.97530900  1
  B  B47  1  0.19994500  0.00485300  0.02469100  1
  B  B48  1  0.59620000  0.10194400  0.51124900  1
  B  B49  1  0.09620000  0.39805600  0.48875100  1
  B  B50  1  0.40380000  0.60194400  0.98875100  1
  B  B51  1  0.90380000  0.89805600  0.01124900  1
  B  B52  1  0.40380000  0.89805600  0.48875100  1
  B  B53  1  0.90380000  0.60194400  0.51124900  1
  B  B54  1  0.59620000  0.39805600  0.01124900  1
  B  B55  1  0.09620000  0.10194400  0.98875100  1
  H  H56  1  0.37964400  0.35214800  0.60202100  1
  H  H57  1  0.87964400  0.14785200  0.39797900  1
  H  H58  1  0.62035600  0.85214800  0.89797900  1
  H  H59  1  0.12035600  0.64785200  0.10202100  1
  H  H60  1  0.62035600  0.64785200  0.39797900  1
  H  H61  1  0.12035600  0.85214800  0.60202100  1
  H  H62  1  0.37964400  0.14785200  0.10202100  1
  H  H63  1  0.87964400  0.35214800  0.89797900  1
  H  H64  1  0.58022600  0.35517100  0.60610200  1
  H  H65  1  0.08022600  0.14482900  0.39389800  1
  H  H66  1  0.41977400  0.85517100  0.89389800  1
  H  H67  1  0.91977400  0.64482900  0.10610200  1
  H  H68  1  0.41977400  0.64482900  0.39389800  1
  H  H69  1  0.91977400  0.85517100  0.60610200  1
  H  H70  1  0.58022600  0.14482900  0.10610200  1
  H  H71  1  0.08022600  0.35517100  0.89389800  1
  H  H72  1  0.48537800  0.25566700  0.60627400  1
  H  H73  1  0.98537800  0.24433300  0.39372600  1
  H  H74  1  0.51462200  0.75566700  0.89372600  1
  H  H75  1  0.01462200  0.74433300  0.10627400  1
  H  H76  1  0.51462200  0.74433300  0.39372600  1
  H  H77  1  0.01462200  0.75566700  0.60627400  1
  H  H78  1  0.48537800  0.24433300  0.10627400  1
  H  H79  1  0.98537800  0.25566700  0.89372600  1
  H  H80  1  0.55282100  0.53979100  0.29700900  1
  H  H81  1  0.05282100  0.96020900  0.70299100  1
  H  H82  1  0.44717900  0.03979100  0.20299100  1
  H  H83  1  0.94717900  0.46020900  0.79700900  1
  H  H84  1  0.44717900  0.46020900  0.70299100  1
  H  H85  1  0.94717900  0.03979100  0.29700900  1
  H  H86  1  0.55282100  0.96020900  0.79700900  1
  H  H87  1  0.05282100  0.53979100  0.20299100  1
  H  H88  1  0.59244400  0.48203600  0.22504500  1
  H  H89  1  0.09244400  0.01796400  0.77495500  1
  H  H90  1  0.40755600  0.98203600  0.27495500  1
  H  H91  1  0.90755600  0.51796400  0.72504500  1
  H  H92  1  0.40755600  0.51796400  0.77495500  1
  H  H93  1  0.90755600  0.98203600  0.22504500  1
  H  H94  1  0.59244400  0.01796400  0.72504500  1
  H  H95  1  0.09244400  0.48203600  0.27495500  1
  H  H96  1  0.73006800  0.49015100  0.28769600  1
  H  H97  1  0.23006800  0.00984900  0.71230400  1
  H  H98  1  0.26993200  0.99015100  0.21230400  1
  H  H99  1  0.76993200  0.50984900  0.78769600  1
  H  H100  1  0.26993200  0.50984900  0.71230400  1
  H  H101  1  0.76993200  0.99015100  0.28769600  1
  H  H102  1  0.73006800  0.00984900  0.78769600  1
  H  H103  1  0.23006800  0.49015100  0.21230400  1
  H  H104  1  0.34453400  0.23217200  0.23035900  1
  H  H105  1  0.84453400  0.26782800  0.76964100  1
  H  H106  1  0.65546600  0.73217200  0.26964100  1
  H  H107  1  0.15546600  0.76782800  0.73035900  1
  H  H108  1  0.65546600  0.76782800  0.76964100  1
  H  H109  1  0.15546600  0.73217200  0.23035900  1
  H  H110  1  0.34453400  0.26782800  0.73035900  1
  H  H111  1  0.84453400  0.23217200  0.26964100  1
  H  H112  1  0.23323000  0.32378400  0.24988100  1
  H  H113  1  0.73323000  0.17621600  0.75011900  1
  H  H114  1  0.76677000  0.82378400  0.25011900  1
  H  H115  1  0.26677000  0.67621600  0.74988100  1
  H  H116  1  0.76677000  0.67621600  0.75011900  1
  H  H117  1  0.26677000  0.82378400  0.24988100  1
  H  H118  1  0.23323000  0.17621600  0.74988100  1
  H  H119  1  0.73323000  0.32378400  0.25011900  1
  H  H120  1  0.18494400  0.22371900  0.28400600  1
  H  H121  1  0.68494400  0.27628100  0.71599400  1
  H  H122  1  0.81505600  0.72371900  0.21599400  1
  H  H123  1  0.31505600  0.77628100  0.78400600  1
  H  H124  1  0.81505600  0.77628100  0.71599400  1
  H  H125  1  0.31505600  0.72371900  0.28400600  1
  H  H126  1  0.18494400  0.27628100  0.78400600  1
  H  H127  1  0.68494400  0.22371900  0.21599400  1
  H  H128  1  0.57314700  0.10549600  0.37378500  1
  H  H129  1  0.07314700  0.39450400  0.62621500  1
  H  H130  1  0.42685300  0.60549600  0.12621500  1
  H  H131  1  0.92685300  0.89450400  0.87378500  1
  H  H132  1  0.42685300  0.89450400  0.62621500  1
  H  H133  1  0.92685300  0.60549600  0.37378500  1
  H  H134  1  0.57314700  0.39450400  0.87378500  1
  H  H135  1  0.07314700  0.10549600  0.12621500  1
  H  H136  1  0.30743800  0.16501500  0.47565600  1
  H  H137  1  0.80743800  0.33498500  0.52434400  1
  H  H138  1  0.69256200  0.66501500  0.02434400  1
  H  H139  1  0.19256200  0.83498500  0.97565600  1
  H  H140  1  0.69256200  0.83498500  0.52434400  1
  H  H141  1  0.19256200  0.66501500  0.47565600  1
  H  H142  1  0.30743800  0.33498500  0.97565600  1
  H  H143  1  0.80743800  0.16501500  0.02434400  1
  H  H144  1  0.25794100  0.99238800  0.38776800  1
  H  H145  1  0.75794100  0.50761200  0.61223200  1
  H  H146  1  0.74205900  0.49238800  0.11223200  1
  H  H147  1  0.24205900  0.00761200  0.88776800  1
  H  H148  1  0.74205900  0.00761200  0.61223200  1
  H  H149  1  0.24205900  0.49238800  0.38776800  1
  H  H150  1  0.25794100  0.50761200  0.88776800  1
  H  H151  1  0.75794100  0.99238800  0.11223200  1
  H  H152  1  0.58973500  0.89217200  0.37669400  1
  H  H153  1  0.08973500  0.60782800  0.62330600  1
  H  H154  1  0.41026500  0.39217200  0.12330600  1
  H  H155  1  0.91026500  0.10782800  0.87669400  1
  H  H156  1  0.41026500  0.10782800  0.62330600  1
  H  H157  1  0.91026500  0.39217200  0.37669400  1
  H  H158  1  0.58973500  0.60782800  0.87669400  1
  H  H159  1  0.08973500  0.89217200  0.12330600  1
  H  H160  1  0.84281800  0.00895300  0.45920700  1
  H  H161  1  0.34281800  0.49104700  0.54079300  1
  H  H162  1  0.15718200  0.50895300  0.04079300  1
  H  H163  1  0.65718200  0.99104700  0.95920700  1
  H  H164  1  0.15718200  0.99104700  0.54079300  1
  H  H165  1  0.65718200  0.50895300  0.45920700  1
  H  H166  1  0.84281800  0.49104700  0.95920700  1
  H  H167  1  0.34281800  0.00895300  0.04079300  1
  H  H168  1  0.65990300  0.17641800  0.51861100  1
  H  H169  1  0.15990300  0.32358200  0.48138900  1
  H  H170  1  0.34009700  0.67641800  0.98138900  1
  H  H171  1  0.84009700  0.82358200  0.01861100  1
  H  H172  1  0.34009700  0.82358200  0.48138900  1
  H  H173  1  0.84009700  0.67641800  0.51861100  1
  H  H174  1  0.65990300  0.32358200  0.01861100  1
  H  H175  1  0.15990300  0.17641800  0.98138900  1
  N  N176  1  0.47918600  0.32198300  0.62523600  1
  N  N177  1  0.97918600  0.17801700  0.37476400  1
  N  N178  1  0.52081400  0.82198300  0.87476400  1
  N  N179  1  0.02081400  0.67801700  0.12523600  1
  N  N180  1  0.52081400  0.67801700  0.37476400  1
  N  N181  1  0.02081400  0.82198300  0.62523600  1
  N  N182  1  0.47918600  0.17801700  0.12523600  1
  N  N183  1  0.97918600  0.32198300  0.87476400  1
  N  N184  1  0.60728700  0.48098600  0.27854800  1
  N  N185  1  0.10728700  0.01901400  0.72145200  1
  N  N186  1  0.39271300  0.98098600  0.22145200  1
  N  N187  1  0.89271300  0.51901400  0.77854800  1
  N  N188  1  0.39271300  0.51901400  0.72145200  1
  N  N189  1  0.89271300  0.98098600  0.27854800  1
  N  N190  1  0.60728700  0.01901400  0.77854800  1
  N  N191  1  0.10728700  0.48098600  0.22145200  1
  N  N192  1  0.28221400  0.26466500  0.27020800  1
  N  N193  1  0.78221400  0.23533500  0.72979200  1
  N  N194  1  0.71778600  0.76466500  0.22979200  1
  N  N195  1  0.21778600  0.73533500  0.77020800  1
  N  N196  1  0.71778600  0.73533500  0.72979200  1
  N  N197  1  0.21778600  0.76466500  0.27020800  1
  N  N198  1  0.28221400  0.23533500  0.77020800  1
  N  N199  1  0.78221400  0.26466500  0.22979200  1
