# generated using pymatgen
data_Rb4Cu5Cl9
_symmetry_space_group_name_H-M   'P 1'
_cell_length_a   8.65565800
_cell_length_b   14.79577600
_cell_length_c   15.83104801
_cell_angle_alpha   73.79085125
_cell_angle_beta   90.00000000
_cell_angle_gamma   90.00000000
_symmetry_Int_Tables_number   1
_chemical_formula_structural   Rb4Cu5Cl9
_chemical_formula_sum   'Rb16 Cu20 Cl36'
_cell_volume   1946.84520645
_cell_formula_units_Z   4
loop_
 _symmetry_equiv_pos_site_id
 _symmetry_equiv_pos_as_xyz
  1  'x, y, z'
loop_
 _atom_site_type_symbol
 _atom_site_label
 _atom_site_symmetry_multiplicity
 _atom_site_fract_x
 _atom_site_fract_y
 _atom_site_fract_z
 _atom_site_occupancy
  Rb  Rb0  1  0.66729000  0.99703400  0.50128600  1
  Rb  Rb1  1  0.33271000  0.99703400  0.00128600  1
  Rb  Rb2  1  0.84057600  0.98430700  0.79517100  1
  Rb  Rb3  1  0.15942400  0.98430700  0.29517100  1
  Rb  Rb4  1  0.51581000  0.47234300  0.97811900  1
  Rb  Rb5  1  0.48419000  0.47234300  0.47811900  1
  Rb  Rb6  1  0.97901000  0.47974800  0.61164900  1
  Rb  Rb7  1  0.02099000  0.47974800  0.11164900  1
  Rb  Rb8  1  0.83391500  0.73155300  0.38124000  1
  Rb  Rb9  1  0.16608500  0.73155300  0.88124000  1
  Rb  Rb10  1  0.65658500  0.74372400  0.08210900  1
  Rb  Rb11  1  0.34341500  0.74372400  0.58210900  1
  Rb  Rb12  1  0.52126800  0.25550200  0.26488600  1
  Rb  Rb13  1  0.47873200  0.25550200  0.76488600  1
  Rb  Rb14  1  0.98369600  0.26280000  0.89931700  1
  Rb  Rb15  1  0.01630400  0.26280000  0.39931700  1
  Cu  Cu16  1  0.39247600  0.55916200  0.21391200  1
  Cu  Cu17  1  0.60752400  0.55916200  0.71391200  1
  Cu  Cu18  1  0.11425500  0.55967400  0.33117700  1
  Cu  Cu19  1  0.88574500  0.55967400  0.83117700  1
  Cu  Cu20  1  0.62489200  0.16621500  0.04849500  1
  Cu  Cu21  1  0.37510800  0.16621500  0.54849500  1
  Cu  Cu22  1  0.89568200  0.17091000  0.16497900  1
  Cu  Cu23  1  0.10431800  0.17091000  0.66497900  1
  Cu  Cu24  1  0.37118200  0.74801300  0.32937100  1
  Cu  Cu25  1  0.62881800  0.74801300  0.82937100  1
  Cu  Cu26  1  0.90152400  0.77512900  0.62267500  1
  Cu  Cu27  1  0.09847600  0.77512900  0.12267500  1
  Cu  Cu28  1  0.62793400  0.97252800  0.25777900  1
  Cu  Cu29  1  0.37206600  0.97252800  0.75777900  1
  Cu  Cu30  1  0.85003600  0.99162700  0.05831200  1
  Cu  Cu31  1  0.14996400  0.99162700  0.55831200  1
  Cu  Cu32  1  0.75394000  0.51730900  0.28705800  1
  Cu  Cu33  1  0.24606000  0.51730900  0.78705800  1
  Cu  Cu34  1  0.25568400  0.21892500  0.08867300  1
  Cu  Cu35  1  0.74431600  0.21892500  0.58867300  1
  Cl  Cl36  1  0.65825600  0.46916500  0.17840200  1
  Cl  Cl37  1  0.34174400  0.46916500  0.67840200  1
  Cl  Cl38  1  0.87441700  0.47855600  0.41546400  1
  Cl  Cl39  1  0.12558300  0.47855600  0.91546400  1
  Cl  Cl40  1  0.81990600  0.09796100  0.30363200  1
  Cl  Cl41  1  0.18009400  0.09796100  0.80363200  1
  Cl  Cl42  1  0.69944000  0.08433100  0.95037400  1
  Cl  Cl43  1  0.30056000  0.08433100  0.45037400  1
  Cl  Cl44  1  0.29021100  0.83389700  0.18825600  1
  Cl  Cl45  1  0.70978900  0.83389700  0.68825600  1
  Cl  Cl46  1  0.79500300  0.89223500  0.19274500  1
  Cl  Cl47  1  0.20499700  0.89223500  0.69274500  1
  Cl  Cl48  1  0.99602800  0.86756100  0.99601000  1
  Cl  Cl49  1  0.00397200  0.86756100  0.49601000  1
  Cl  Cl50  1  0.50553100  0.86664000  0.37675800  1
  Cl  Cl51  1  0.49446900  0.86664000  0.87675800  1
  Cl  Cl52  1  0.97140100  0.64812000  0.20948100  1
  Cl  Cl53  1  0.02859900  0.64812000  0.70948100  1
  Cl  Cl54  1  0.54951100  0.63915800  0.29133400  1
  Cl  Cl55  1  0.45048900  0.63915800  0.79133400  1
  Cl  Cl56  1  0.32484500  0.62537700  0.07193000  1
  Cl  Cl57  1  0.67515500  0.62537700  0.57193000  1
  Cl  Cl58  1  0.20458200  0.64734000  0.42313100  1
  Cl  Cl59  1  0.79541800  0.64734000  0.92313100  1
  Cl  Cl60  1  0.15515300  0.26072700  0.19981400  1
  Cl  Cl61  1  0.84484700  0.26072700  0.69981400  1
  Cl  Cl62  1  0.37679400  0.25535200  0.96200300  1
  Cl  Cl63  1  0.62320600  0.25535200  0.46200300  1
  Cl  Cl64  1  0.47161000  0.08509400  0.16766400  1
  Cl  Cl65  1  0.52839000  0.08509400  0.66766400  1
  Cl  Cl66  1  0.05206300  0.09237200  0.08560900  1
  Cl  Cl67  1  0.94793700  0.09237200  0.58560900  1
  Cl  Cl68  1  0.76399900  0.29123200  0.06810100  1
  Cl  Cl69  1  0.23600100  0.29123200  0.56810100  1
  Cl  Cl70  1  0.26308600  0.43937800  0.31058200  1
  Cl  Cl71  1  0.73691400  0.43937800  0.81058200  1
