# generated using pymatgen
data_Ba3Fe26O41
_symmetry_space_group_name_H-M   'P 1'
_cell_length_a   6.02284768
_cell_length_b   6.02284768
_cell_length_c   52.87936600
_cell_angle_alpha   90.00000000
_cell_angle_beta   90.00000000
_cell_angle_gamma   119.99999647
_symmetry_Int_Tables_number   1
_chemical_formula_structural   Ba3Fe26O41
_chemical_formula_sum   'Ba6 Fe52 O82'
_cell_volume   1661.19511812
_cell_formula_units_Z   2
loop_
 _symmetry_equiv_pos_site_id
 _symmetry_equiv_pos_as_xyz
  1  'x, y, z'
loop_
 _atom_site_type_symbol
 _atom_site_label
 _atom_site_symmetry_multiplicity
 _atom_site_fract_x
 _atom_site_fract_y
 _atom_site_fract_z
 _atom_site_occupancy
  Ba  Ba0  1  0.33333300  0.66666700  0.47173700  1
  Ba  Ba1  1  0.66666700  0.33333300  0.52826300  1
  Ba  Ba2  1  0.66666700  0.33333300  0.97173700  1
  Ba  Ba3  1  0.33333300  0.66666700  0.02826300  1
  Ba  Ba4  1  0.00000000  0.00000000  0.25000000  1
  Ba  Ba5  1  0.00000000  0.00000000  0.75000000  1
  Fe  Fe6  1  0.00000000  0.00000000  0.50000000  1
  Fe  Fe7  1  0.00000000  0.00000000  0.00000000  1
  Fe  Fe8  1  0.66666700  0.33333300  0.46496200  1
  Fe  Fe9  1  0.33333300  0.66666700  0.53503800  1
  Fe  Fe10  1  0.33333300  0.66666700  0.96496200  1
  Fe  Fe11  1  0.66666700  0.33333300  0.03503800  1
  Fe  Fe12  1  0.00000000  0.00000000  0.44748500  1
  Fe  Fe13  1  0.00000000  0.00000000  0.55251500  1
  Fe  Fe14  1  0.00000000  0.00000000  0.94748500  1
  Fe  Fe15  1  0.00000000  0.00000000  0.05251500  1
  Fe  Fe16  1  0.49479300  0.50520700  0.40934500  1
  Fe  Fe17  1  0.49479300  0.98958500  0.40934500  1
  Fe  Fe18  1  0.01041500  0.50520700  0.40934500  1
  Fe  Fe19  1  0.50520700  0.49479300  0.59065500  1
  Fe  Fe20  1  0.50520700  0.01041500  0.59065500  1
  Fe  Fe21  1  0.98958500  0.49479300  0.59065500  1
  Fe  Fe22  1  0.50520700  0.49479300  0.90934500  1
  Fe  Fe23  1  0.50520700  0.01041500  0.90934500  1
  Fe  Fe24  1  0.98958500  0.49479300  0.90934500  1
  Fe  Fe25  1  0.49479300  0.50520700  0.09065500  1
  Fe  Fe26  1  0.49479300  0.98958500  0.09065500  1
  Fe  Fe27  1  0.01041500  0.50520700  0.09065500  1
  Fe  Fe28  1  0.00000000  0.00000000  0.37387700  1
  Fe  Fe29  1  0.00000000  0.00000000  0.62612300  1
  Fe  Fe30  1  0.00000000  0.00000000  0.87387700  1
  Fe  Fe31  1  0.00000000  0.00000000  0.12612300  1
  Fe  Fe32  1  0.66666700  0.33333300  0.36152000  1
  Fe  Fe33  1  0.33333300  0.66666700  0.63848000  1
  Fe  Fe34  1  0.33333300  0.66666700  0.86152000  1
  Fe  Fe35  1  0.66666700  0.33333300  0.13848000  1
  Fe  Fe36  1  0.33333300  0.66666700  0.34833700  1
  Fe  Fe37  1  0.66666700  0.33333300  0.65166300  1
  Fe  Fe38  1  0.66666700  0.33333300  0.84833700  1
  Fe  Fe39  1  0.33333300  0.66666700  0.15166300  1
  Fe  Fe40  1  0.83472800  0.66945600  0.31303700  1
  Fe  Fe41  1  0.33054400  0.16527200  0.31303700  1
  Fe  Fe42  1  0.83472800  0.16527200  0.31303700  1
  Fe  Fe43  1  0.16527200  0.33054400  0.68696300  1
  Fe  Fe44  1  0.66945600  0.83472800  0.68696300  1
  Fe  Fe45  1  0.16527200  0.83472800  0.68696300  1
  Fe  Fe46  1  0.16527200  0.33054400  0.81303700  1
  Fe  Fe47  1  0.66945600  0.83472800  0.81303700  1
  Fe  Fe48  1  0.16527200  0.83472800  0.81303700  1
  Fe  Fe49  1  0.83472800  0.66945600  0.18696300  1
  Fe  Fe50  1  0.33054400  0.16527200  0.18696300  1
  Fe  Fe51  1  0.83472800  0.16527200  0.18696300  1
  Fe  Fe52  1  0.33333300  0.66666700  0.27653400  1
  Fe  Fe53  1  0.66666700  0.33333300  0.72346600  1
  Fe  Fe54  1  0.66666700  0.33333300  0.77653400  1
  Fe  Fe55  1  0.33333300  0.66666700  0.22346600  1
  Fe  Fe56  1  0.66666700  0.33333300  0.25000000  1
  Fe  Fe57  1  0.33333300  0.66666700  0.75000000  1
  O  O58  1  0.83843700  0.67687400  0.47650500  1
  O  O59  1  0.32312600  0.16156300  0.47650500  1
  O  O60  1  0.83843700  0.16156300  0.47650500  1
  O  O61  1  0.16156300  0.32312600  0.52349500  1
  O  O62  1  0.67687400  0.83843700  0.52349500  1
  O  O63  1  0.16156300  0.83843700  0.52349500  1
  O  O64  1  0.16156300  0.32312600  0.97650500  1
  O  O65  1  0.67687400  0.83843700  0.97650500  1
  O  O66  1  0.16156300  0.83843700  0.97650500  1
  O  O67  1  0.83843700  0.67687400  0.02349500  1
  O  O68  1  0.32312600  0.16156300  0.02349500  1
  O  O69  1  0.83843700  0.16156300  0.02349500  1
  O  O70  1  0.66666700  0.33333300  0.42785900  1
  O  O71  1  0.33333300  0.66666700  0.57214100  1
  O  O72  1  0.33333300  0.66666700  0.92785900  1
  O  O73  1  0.66666700  0.33333300  0.07214100  1
  O  O74  1  0.17511600  0.82488400  0.42844900  1
  O  O75  1  0.17511600  0.35023300  0.42844900  1
  O  O76  1  0.64976700  0.82488400  0.42844900  1
  O  O77  1  0.82488400  0.17511600  0.57155100  1
  O  O78  1  0.82488400  0.64976700  0.57155100  1
  O  O79  1  0.35023300  0.17511600  0.57155100  1
  O  O80  1  0.82488400  0.17511600  0.92844900  1
  O  O81  1  0.82488400  0.64976700  0.92844900  1
  O  O82  1  0.35023300  0.17511600  0.92844900  1
  O  O83  1  0.17511600  0.82488400  0.07155100  1
  O  O84  1  0.17511600  0.35023300  0.07155100  1
  O  O85  1  0.64976700  0.82488400  0.07155100  1
  O  O86  1  0.33333300  0.66666700  0.38522600  1
  O  O87  1  0.66666700  0.33333300  0.61477400  1
  O  O88  1  0.66666700  0.33333300  0.88522600  1
  O  O89  1  0.33333300  0.66666700  0.11477400  1
  O  O90  1  0.82195100  0.64390200  0.38476600  1
  O  O91  1  0.35609800  0.17804900  0.38476600  1
  O  O92  1  0.82195100  0.17804900  0.38476600  1
  O  O93  1  0.17804900  0.35609800  0.61523400  1
  O  O94  1  0.64390200  0.82195100  0.61523400  1
  O  O95  1  0.17804900  0.82195100  0.61523400  1
  O  O96  1  0.17804900  0.35609800  0.88476600  1
  O  O97  1  0.64390200  0.82195100  0.88476600  1
  O  O98  1  0.17804900  0.82195100  0.88476600  1
  O  O99  1  0.82195100  0.64390200  0.11523400  1
  O  O100  1  0.35609800  0.17804900  0.11523400  1
  O  O101  1  0.82195100  0.17804900  0.11523400  1
  O  O102  1  0.51188400  0.02376800  0.33789200  1
  O  O103  1  0.97623200  0.48811600  0.33789200  1
  O  O104  1  0.51188400  0.48811600  0.33789200  1
  O  O105  1  0.48811600  0.97623200  0.66210800  1
  O  O106  1  0.02376800  0.51188400  0.66210800  1
  O  O107  1  0.48811600  0.51188400  0.66210800  1
  O  O108  1  0.48811600  0.97623200  0.83789200  1
  O  O109  1  0.02376800  0.51188400  0.83789200  1
  O  O110  1  0.48811600  0.51188400  0.83789200  1
  O  O111  1  0.51188400  0.02376800  0.16210800  1
  O  O112  1  0.97623200  0.48811600  0.16210800  1
  O  O113  1  0.51188400  0.48811600  0.16210800  1
  O  O114  1  0.00000000  0.00000000  0.33695000  1
  O  O115  1  0.00000000  0.00000000  0.66305000  1
  O  O116  1  0.00000000  0.00000000  0.83695000  1
  O  O117  1  0.00000000  0.00000000  0.16305000  1
  O  O118  1  0.16233400  0.83766600  0.29494700  1
  O  O119  1  0.16233400  0.32466800  0.29494700  1
  O  O120  1  0.67533200  0.83766600  0.29494700  1
  O  O121  1  0.83766600  0.16233400  0.70505300  1
  O  O122  1  0.83766600  0.67533200  0.70505300  1
  O  O123  1  0.32466800  0.16233400  0.70505300  1
  O  O124  1  0.83766600  0.16233400  0.79494700  1
  O  O125  1  0.83766600  0.67533200  0.79494700  1
  O  O126  1  0.32466800  0.16233400  0.79494700  1
  O  O127  1  0.16233400  0.83766600  0.20505300  1
  O  O128  1  0.16233400  0.32466800  0.20505300  1
  O  O129  1  0.67533200  0.83766600  0.20505300  1
  O  O130  1  0.66666700  0.33333300  0.29392000  1
  O  O131  1  0.33333300  0.66666700  0.70608000  1
  O  O132  1  0.33333300  0.66666700  0.79392000  1
  O  O133  1  0.66666700  0.33333300  0.20608000  1
  O  O134  1  0.48325800  0.51674200  0.25000000  1
  O  O135  1  0.48325800  0.96651600  0.25000000  1
  O  O136  1  0.03348400  0.51674200  0.25000000  1
  O  O137  1  0.51674200  0.48325800  0.75000000  1
  O  O138  1  0.51674200  0.03348400  0.75000000  1
  O  O139  1  0.96651600  0.48325800  0.75000000  1
