# generated using pymatgen
data_Sr3(GaO6)2
_symmetry_space_group_name_H-M   'P 1'
_cell_length_a   11.92890065
_cell_length_b   11.92890065
_cell_length_c   11.92890065
_cell_angle_alpha   109.47122063
_cell_angle_beta   109.47122063
_cell_angle_gamma   109.47122063
_symmetry_Int_Tables_number   1
_chemical_formula_structural   Sr3(GaO6)2
_chemical_formula_sum   'Sr12 Ga8 O48'
_cell_volume   1306.71047843
_cell_formula_units_Z   4
loop_
 _symmetry_equiv_pos_site_id
 _symmetry_equiv_pos_as_xyz
  1  'x, y, z'
loop_
 _atom_site_type_symbol
 _atom_site_label
 _atom_site_symmetry_multiplicity
 _atom_site_fract_x
 _atom_site_fract_y
 _atom_site_fract_z
 _atom_site_occupancy
  Sr  Sr0  1  0.25000000  0.37500000  0.12500000  1
  Sr  Sr1  1  0.75000000  0.12500000  0.37500000  1
  Sr  Sr2  1  0.37500000  0.12500000  0.25000000  1
  Sr  Sr3  1  0.12500000  0.37500000  0.75000000  1
  Sr  Sr4  1  0.12500000  0.25000000  0.37500000  1
  Sr  Sr5  1  0.37500000  0.75000000  0.12500000  1
  Sr  Sr6  1  0.75000000  0.62500000  0.87500000  1
  Sr  Sr7  1  0.25000000  0.87500000  0.62500000  1
  Sr  Sr8  1  0.62500000  0.87500000  0.75000000  1
  Sr  Sr9  1  0.87500000  0.62500000  0.25000000  1
  Sr  Sr10  1  0.87500000  0.75000000  0.62500000  1
  Sr  Sr11  1  0.62500000  0.25000000  0.87500000  1
  Ga  Ga12  1  0.00000000  0.50000000  0.00000000  1
  Ga  Ga13  1  0.00000000  0.00000000  0.50000000  1
  Ga  Ga14  1  0.50000000  0.00000000  0.00000000  1
  Ga  Ga15  1  0.50000000  0.50000000  0.50000000  1
  Ga  Ga16  1  0.50000000  0.50000000  0.00000000  1
  Ga  Ga17  1  0.50000000  0.00000000  0.50000000  1
  Ga  Ga18  1  0.00000000  0.50000000  0.50000000  1
  Ga  Ga19  1  0.00000000  0.00000000  0.00000000  1
  O  O20  1  0.31210900  0.44819000  0.38068200  1
  O  O21  1  0.56750700  0.93142700  0.11931800  1
  O  O22  1  0.93249300  0.05181000  0.36391900  1
  O  O23  1  0.18789100  0.56857300  0.13608100  1
  O  O24  1  0.44819000  0.38068200  0.31210900  1
  O  O25  1  0.93142700  0.11931800  0.56750700  1
  O  O26  1  0.05181000  0.36391900  0.93249300  1
  O  O27  1  0.56857300  0.13608100  0.18789100  1
  O  O28  1  0.38068200  0.31210900  0.44819000  1
  O  O29  1  0.11931800  0.56750700  0.93142700  1
  O  O30  1  0.36391900  0.93249300  0.05181000  1
  O  O31  1  0.13608100  0.18789100  0.56857300  1
  O  O32  1  0.68789100  0.55181000  0.61931800  1
  O  O33  1  0.43249300  0.06857300  0.88068200  1
  O  O34  1  0.06750700  0.94819000  0.63608100  1
  O  O35  1  0.81210900  0.43142700  0.86391900  1
  O  O36  1  0.55181000  0.61931800  0.68789100  1
  O  O37  1  0.06857300  0.88068200  0.43249300  1
  O  O38  1  0.94819000  0.63608100  0.06750700  1
  O  O39  1  0.43142700  0.86391900  0.81210900  1
  O  O40  1  0.61931800  0.68789100  0.55181000  1
  O  O41  1  0.88068200  0.43249300  0.06857300  1
  O  O42  1  0.63608100  0.06750700  0.94819000  1
  O  O43  1  0.86391900  0.81210900  0.43142700  1
  O  O44  1  0.81210900  0.88068200  0.94819000  1
  O  O45  1  0.06750700  0.61931800  0.43142700  1
  O  O46  1  0.43249300  0.86391900  0.55181000  1
  O  O47  1  0.68789100  0.63608100  0.06857300  1
  O  O48  1  0.94819000  0.81210900  0.88068200  1
  O  O49  1  0.43142700  0.06750700  0.61931800  1
  O  O50  1  0.55181000  0.43249300  0.86391900  1
  O  O51  1  0.06857300  0.68789100  0.63608100  1
  O  O52  1  0.88068200  0.94819000  0.81210900  1
  O  O53  1  0.61931800  0.43142700  0.06750700  1
  O  O54  1  0.86391900  0.55181000  0.43249300  1
  O  O55  1  0.63608100  0.06857300  0.68789100  1
  O  O56  1  0.18789100  0.11931800  0.05181000  1
  O  O57  1  0.93249300  0.38068200  0.56857300  1
  O  O58  1  0.56750700  0.13608100  0.44819000  1
  O  O59  1  0.31210900  0.36391900  0.93142700  1
  O  O60  1  0.05181000  0.18789100  0.11931800  1
  O  O61  1  0.56857300  0.93249300  0.38068200  1
  O  O62  1  0.44819000  0.56750700  0.13608100  1
  O  O63  1  0.93142700  0.31210900  0.36391900  1
  O  O64  1  0.11931800  0.05181000  0.18789100  1
  O  O65  1  0.38068200  0.56857300  0.93249300  1
  O  O66  1  0.13608100  0.44819000  0.56750700  1
  O  O67  1  0.36391900  0.93142700  0.31210900  1
