# generated using pymatgen
data_Ba2SnSe4O5
_symmetry_space_group_name_H-M   'P 1'
_cell_length_a   6.16259800
_cell_length_b   12.96878200
_cell_length_c   14.56892400
_cell_angle_alpha   90.00000000
_cell_angle_beta   90.00000000
_cell_angle_gamma   90.00000000
_symmetry_Int_Tables_number   1
_chemical_formula_structural   Ba2SnSe4O5
_chemical_formula_sum   'Ba8 Sn4 Se16 O20'
_cell_volume   1164.36865711
_cell_formula_units_Z   4
loop_
 _symmetry_equiv_pos_site_id
 _symmetry_equiv_pos_as_xyz
  1  'x, y, z'
loop_
 _atom_site_type_symbol
 _atom_site_label
 _atom_site_symmetry_multiplicity
 _atom_site_fract_x
 _atom_site_fract_y
 _atom_site_fract_z
 _atom_site_occupancy
  Ba  Ba0  1  0.61313300  0.59043600  0.10637600  1
  Ba  Ba1  1  0.88686700  0.90956400  0.60637600  1
  Ba  Ba2  1  0.38686700  0.09043600  0.89362400  1
  Ba  Ba3  1  0.11313300  0.40956400  0.39362400  1
  Ba  Ba4  1  0.38686700  0.40956400  0.89362400  1
  Ba  Ba5  1  0.11313300  0.09043600  0.39362400  1
  Ba  Ba6  1  0.61313300  0.90956400  0.10637600  1
  Ba  Ba7  1  0.88686700  0.59043600  0.60637600  1
  Sn  Sn8  1  0.41121500  0.75000000  0.34095900  1
  Sn  Sn9  1  0.08878500  0.75000000  0.84095900  1
  Sn  Sn10  1  0.58878500  0.25000000  0.65904100  1
  Sn  Sn11  1  0.91121500  0.25000000  0.15904100  1
  Se  Se12  1  0.57444600  0.55264700  0.35488000  1
  Se  Se13  1  0.92555400  0.94735300  0.85488000  1
  Se  Se14  1  0.42555400  0.05264700  0.64512000  1
  Se  Se15  1  0.07444600  0.44735300  0.14512000  1
  Se  Se16  1  0.42555400  0.44735300  0.64512000  1
  Se  Se17  1  0.07444600  0.05264700  0.14512000  1
  Se  Se18  1  0.57444600  0.94735300  0.35488000  1
  Se  Se19  1  0.92555400  0.55264700  0.85488000  1
  Se  Se20  1  0.99765700  0.75000000  0.38038800  1
  Se  Se21  1  0.50234300  0.75000000  0.88038800  1
  Se  Se22  1  0.00234300  0.25000000  0.61961200  1
  Se  Se23  1  0.49765700  0.25000000  0.11961200  1
  Se  Se24  1  0.37190700  0.75000000  0.61350700  1
  Se  Se25  1  0.12809300  0.75000000  0.11350700  1
  Se  Se26  1  0.62809300  0.25000000  0.38649300  1
  Se  Se27  1  0.87190700  0.25000000  0.88649300  1
  O  O28  1  0.72397000  0.53416000  0.93989000  1
  O  O29  1  0.77603000  0.96584000  0.43989000  1
  O  O30  1  0.27603000  0.03416000  0.06011000  1
  O  O31  1  0.22397000  0.46584000  0.56011000  1
  O  O32  1  0.27603000  0.46584000  0.06011000  1
  O  O33  1  0.22397000  0.03416000  0.56011000  1
  O  O34  1  0.72397000  0.96584000  0.93989000  1
  O  O35  1  0.77603000  0.53416000  0.43989000  1
  O  O36  1  0.51452400  0.75000000  0.00346600  1
  O  O37  1  0.98547600  0.75000000  0.50346600  1
  O  O38  1  0.48547600  0.25000000  0.99653400  1
  O  O39  1  0.01452400  0.25000000  0.49653400  1
  O  O40  1  0.36370000  0.75000000  0.19869600  1
  O  O41  1  0.13630000  0.75000000  0.69869600  1
  O  O42  1  0.63630000  0.25000000  0.80130400  1
  O  O43  1  0.86370000  0.25000000  0.30130400  1
  O  O44  1  0.87896500  0.75000000  0.17237800  1
  O  O45  1  0.62103500  0.75000000  0.67237800  1
  O  O46  1  0.12103500  0.25000000  0.82762200  1
  O  O47  1  0.37896500  0.25000000  0.32762200  1
