# generated using pymatgen
data_Dy5(CoSn3)6
_symmetry_space_group_name_H-M   'P 1'
_cell_length_a   13.74378300
_cell_length_b   13.74378300
_cell_length_c   16.74563284
_cell_angle_alpha   114.22802778
_cell_angle_beta   114.22802778
_cell_angle_gamma   90.00000000
_symmetry_Int_Tables_number   1
_chemical_formula_structural   Dy5(CoSn3)6
_chemical_formula_sum   'Dy20 Co24 Sn72'
_cell_volume   2575.93281049
_cell_formula_units_Z   4
loop_
 _symmetry_equiv_pos_site_id
 _symmetry_equiv_pos_as_xyz
  1  'x, y, z'
loop_
 _atom_site_type_symbol
 _atom_site_label
 _atom_site_symmetry_multiplicity
 _atom_site_fract_x
 _atom_site_fract_y
 _atom_site_fract_z
 _atom_site_occupancy
  Dy  Dy0  1  0.00000000  0.50000000  0.00000000  1
  Dy  Dy1  1  0.50000000  -0.00000000  0.00000000  1
  Dy  Dy2  1  0.25000000  0.25000000  0.50000000  1
  Dy  Dy3  1  0.75000000  0.75000000  0.50000000  1
  Dy  Dy4  1  0.54532526  0.05145378  0.36349032  1
  Dy  Dy5  1  0.31816506  0.55145378  0.36349032  1
  Dy  Dy6  1  0.43183494  0.43796346  0.13650968  1
  Dy  Dy7  1  0.20467474  0.93796346  0.13650968  1
  Dy  Dy8  1  0.81816506  0.31203654  0.36349032  1
  Dy  Dy9  1  0.04532526  0.81203654  0.36349032  1
  Dy  Dy10  1  0.70467474  0.69854622  0.13650968  1
  Dy  Dy11  1  0.93183494  0.19854622  0.13650968  1
  Dy  Dy12  1  0.68796346  0.45467474  0.63650968  1
  Dy  Dy13  1  0.18796346  0.68183494  0.63650968  1
  Dy  Dy14  1  0.30145378  0.56816506  0.86349032  1
  Dy  Dy15  1  0.80145378  0.79532526  0.86349032  1
  Dy  Dy16  1  0.94854622  0.18183494  0.63650968  1
  Dy  Dy17  1  0.44854622  0.95467474  0.63650968  1
  Dy  Dy18  1  0.56203654  0.29532526  0.86349032  1
  Dy  Dy19  1  0.06203654  0.06816506  0.86349032  1
  Co  Co20  1  0.87340963  0.37340963  0.74681926  1
  Co  Co21  1  0.37340963  0.87340963  0.74681926  1
  Co  Co22  1  0.37659037  0.37659037  0.75318074  1
  Co  Co23  1  0.87659037  0.87659037  0.75318074  1
  Co  Co24  1  0.62659037  0.12659037  0.25318074  1
  Co  Co25  1  0.12659037  0.62659037  0.25318074  1
  Co  Co26  1  0.62340963  0.62340963  0.24681926  1
  Co  Co27  1  0.12340963  0.12340963  0.24681926  1
  Co  Co28  1  0.74929040  0.00401885  0.49994997  1
  Co  Co29  1  0.25065957  0.50401885  0.49994997  1
  Co  Co30  1  0.49934043  0.25406888  0.00005003  1
  Co  Co31  1  0.00070960  0.75406888  0.00005003  1
  Co  Co32  1  0.75065957  0.49593112  0.49994997  1
  Co  Co33  1  0.24929040  0.99593112  0.49994997  1
  Co  Co34  1  0.50070960  0.74598115  0.00005003  1
  Co  Co35  1  0.99934043  0.24598115  0.00005003  1
  Co  Co36  1  0.50406888  0.25070960  0.50005003  1
  Co  Co37  1  0.00406888  0.74934043  0.50005003  1
  Co  Co38  1  0.25401885  0.50065957  0.99994997  1
  Co  Co39  1  0.75401885  0.99929040  0.99994997  1
  Co  Co40  1  0.99598115  0.24934043  0.50005003  1
  Co  Co41  1  0.49598115  0.75070960  0.50005003  1
  Co  Co42  1  0.74593112  0.49929040  0.99994997  1
  Co  Co43  1  0.24593112  0.00065957  0.99994997  1
  Sn  Sn44  1  0.66507463  0.12500000  0.75000000  1
  Sn  Sn45  1  0.58492537  0.62500000  0.75000000  1
  Sn  Sn46  1  0.16507463  0.12500000  0.75000000  1
  Sn  Sn47  1  0.08492537  0.62500000  0.75000000  1
  Sn  Sn48  1  0.37500000  0.33492537  0.25000000  1
  Sn  Sn49  1  0.87500000  0.41507463  0.25000000  1
  Sn  Sn50  1  0.37500000  0.83492537  0.25000000  1
  Sn  Sn51  1  0.87500000  0.91507463  0.25000000  1
  Sn  Sn52  1  0.82619858  0.32619858  0.00000000  1
  Sn  Sn53  1  0.67380142  0.82619858  0.00000000  1
  Sn  Sn54  1  0.07619858  0.07619858  0.50000000  1
  Sn  Sn55  1  0.92380142  0.57619858  0.50000000  1
  Sn  Sn56  1  0.17380142  0.67380142  0.00000000  1
  Sn  Sn57  1  0.32619858  0.17380142  0.00000000  1
  Sn  Sn58  1  0.42380142  0.42380142  0.50000000  1
  Sn  Sn59  1  0.57619858  0.92380142  0.50000000  1
  Sn  Sn60  1  0.67256056  0.17256056  0.00000000  1
  Sn  Sn61  1  0.82743944  0.67256056  0.00000000  1
  Sn  Sn62  1  0.92256056  0.92256056  0.50000000  1
  Sn  Sn63  1  0.07743944  0.42256056  0.50000000  1
  Sn  Sn64  1  0.32743944  0.82743944  0.00000000  1
  Sn  Sn65  1  0.17256056  0.32743944  0.00000000  1
  Sn  Sn66  1  0.57743944  0.57743944  0.50000000  1
  Sn  Sn67  1  0.42256056  0.07743944  0.50000000  1
  Sn  Sn68  1  0.70343010  0.20513915  0.58917660  1
  Sn  Sn69  1  0.38574650  0.70513915  0.58917660  1
  Sn  Sn70  1  0.36425350  0.36596255  0.91082340  1
  Sn  Sn71  1  0.04656990  0.86596255  0.91082340  1
  Sn  Sn72  1  0.88574650  0.38403745  0.58917660  1
  Sn  Sn73  1  0.20343010  0.88403745  0.58917660  1
  Sn  Sn74  1  0.54656990  0.54486085  0.91082340  1
  Sn  Sn75  1  0.86425350  0.04486085  0.91082340  1
  Sn  Sn76  1  0.61596255  0.29656990  0.41082340  1
  Sn  Sn77  1  0.11596255  0.61425350  0.41082340  1
  Sn  Sn78  1  0.45513915  0.63574650  0.08917660  1
  Sn  Sn79  1  0.95513915  0.95343010  0.08917660  1
  Sn  Sn80  1  0.79486085  0.11425350  0.41082340  1
  Sn  Sn81  1  0.29486085  0.79656990  0.41082340  1
  Sn  Sn82  1  0.63403745  0.45343010  0.08917660  1
  Sn  Sn83  1  0.13403745  0.13574650  0.08917660  1
  Sn  Sn84  1  0.82698799  0.00712946  0.67122475  1
  Sn  Sn85  1  0.34423675  0.50712946  0.67122475  1
  Sn  Sn86  1  0.40576325  0.08590471  0.82877525  1
  Sn  Sn87  1  0.92301201  0.58590471  0.82877525  1
  Sn  Sn88  1  0.84423675  0.66409529  0.67122475  1
  Sn  Sn89  1  0.32698799  0.16409529  0.67122475  1
  Sn  Sn90  1  0.42301201  0.74287054  0.82877525  1
  Sn  Sn91  1  0.90576325  0.24287054  0.82877525  1
  Sn  Sn92  1  0.33590471  0.17301201  0.32877525  1
  Sn  Sn93  1  0.83590471  0.65576325  0.32877525  1
  Sn  Sn94  1  0.25712946  0.59423675  0.17122475  1
  Sn  Sn95  1  0.75712946  0.07698799  0.17122475  1
  Sn  Sn96  1  0.99287054  0.15576325  0.32877525  1
  Sn  Sn97  1  0.49287054  0.67301201  0.32877525  1
  Sn  Sn98  1  0.91409529  0.57698799  0.17122475  1
  Sn  Sn99  1  0.41409529  0.09423675  0.17122475  1
  Sn  Sn100  1  0.50936070  0.33528962  0.67136126  1
  Sn  Sn101  1  0.66200056  0.83528962  0.67136126  1
  Sn  Sn102  1  0.08799944  0.41392837  0.82863874  1
  Sn  Sn103  1  0.24063930  0.91392837  0.82863874  1
  Sn  Sn104  1  0.16200056  0.33607163  0.67136126  1
  Sn  Sn105  1  0.00936070  0.83607163  0.67136126  1
  Sn  Sn106  1  0.74063930  0.41471038  0.82863874  1
  Sn  Sn107  1  0.58799944  0.91471038  0.82863874  1
  Sn  Sn108  1  0.66392837  0.49063930  0.32863874  1
  Sn  Sn109  1  0.16392837  0.33799944  0.32863874  1
  Sn  Sn110  1  0.58528962  0.91200056  0.17136126  1
  Sn  Sn111  1  0.08528962  0.75936070  0.17136126  1
  Sn  Sn112  1  0.66471038  0.83799944  0.32863874  1
  Sn  Sn113  1  0.16471038  0.99063930  0.32863874  1
  Sn  Sn114  1  0.58607163  0.25936070  0.17136126  1
  Sn  Sn115  1  0.08607163  0.41200056  0.17136126  1
