# generated using pymatgen
data_Cs2Al2Si3O10
_symmetry_space_group_name_H-M   'P 1'
_cell_length_a   13.38817812
_cell_length_b   10.23014248
_cell_length_c   9.84872328
_cell_angle_alpha   83.61487631
_cell_angle_beta   49.40936293
_cell_angle_gamma   46.97576076
_symmetry_Int_Tables_number   1
_chemical_formula_structural   Cs2Al2Si3O10
_chemical_formula_sum   'Cs4 Al4 Si6 O20'
_cell_volume   599.44684979
_cell_formula_units_Z   2
loop_
 _symmetry_equiv_pos_site_id
 _symmetry_equiv_pos_as_xyz
  1  'x, y, z'
loop_
 _atom_site_type_symbol
 _atom_site_label
 _atom_site_symmetry_multiplicity
 _atom_site_fract_x
 _atom_site_fract_y
 _atom_site_fract_z
 _atom_site_occupancy
  Cs  Cs0  1  0.13292600  0.97135800  0.27851300  1
  Cs  Cs1  1  0.61720300  0.27851300  0.97135800  1
  Cs  Cs2  1  0.97148700  0.63279700  0.11707400  1
  Cs  Cs3  1  0.27864200  0.11707400  0.63279700  1
  Al  Al4  1  0.73339800  0.58883800  0.68022400  1
  Al  Al5  1  0.99754000  0.68022400  0.58883800  1
  Al  Al6  1  0.56977600  0.25246000  0.51660200  1
  Al  Al7  1  0.66116200  0.51660200  0.25246000  1
  Si  Si8  1  0.25126300  0.24873700  0.24873700  1
  Si  Si9  1  0.00126300  0.99873700  0.99873700  1
  Si  Si10  1  0.51165700  0.57025100  0.67834200  1
  Si  Si11  1  0.23975000  0.67834200  0.57025100  1
  Si  Si12  1  0.57165800  0.01025000  0.73834300  1
  Si  Si13  1  0.67974900  0.73834300  0.01025000  1
  O  O14  1  0.02207900  0.35165500  0.41537200  1
  O  O15  1  0.21089400  0.41537200  0.35165500  1
  O  O16  1  0.83462800  0.03910600  0.22792100  1
  O  O17  1  0.89834500  0.22792100  0.03910600  1
  O  O18  1  0.60690000  0.54360200  0.74348700  1
  O  O19  1  0.10601200  0.74348700  0.54360200  1
  O  O20  1  0.50651300  0.14398800  0.64310000  1
  O  O21  1  0.70639800  0.64310000  0.14398800  1
  O  O22  1  0.60461100  0.82971900  0.68885800  1
  O  O23  1  0.87681300  0.68885800  0.82971800  1
  O  O24  1  0.56114200  0.37318700  0.64538900  1
  O  O25  1  0.42028200  0.64538900  0.37318700  1
  O  O26  1  0.62298700  0.56276800  0.45680800  1
  O  O27  1  0.35743600  0.45680800  0.56276800  1
  O  O28  1  0.79319200  0.89256400  0.62701300  1
  O  O29  1  0.68723200  0.62701300  0.89256400  1
  O  O30  1  0.23832400  0.82026000  0.89331000  1
  O  O31  1  0.04810600  0.89331000  0.82026000  1
  O  O32  1  0.35669000  0.20189400  0.01167600  1
  O  O33  1  0.42974000  0.01167600  0.20189400  1
