# generated using pymatgen
data_Ge3Pb3O10
_symmetry_space_group_name_H-M   'P 1'
_cell_length_a   9.49778038
_cell_length_b   9.49778038
_cell_length_c   9.49777981
_cell_angle_alpha   113.49127925
_cell_angle_beta   113.49127925
_cell_angle_gamma   113.49128124
_symmetry_Int_Tables_number   1
_chemical_formula_structural   Ge3Pb3O10
_chemical_formula_sum   'Ge6 Pb6 O20'
_cell_volume   539.60561467
_cell_formula_units_Z   2
loop_
 _symmetry_equiv_pos_site_id
 _symmetry_equiv_pos_as_xyz
  1  'x, y, z'
loop_
 _atom_site_type_symbol
 _atom_site_label
 _atom_site_symmetry_multiplicity
 _atom_site_fract_x
 _atom_site_fract_y
 _atom_site_fract_z
 _atom_site_occupancy
  Ge  Ge0  1  0.84589700  0.24221300  0.97752900  1
  Ge  Ge1  1  0.97752900  0.84589700  0.24221300  1
  Ge  Ge2  1  0.24221300  0.97752900  0.84589700  1
  Ge  Ge3  1  0.15410300  0.75778700  0.02247100  1
  Ge  Ge4  1  0.02247100  0.15410300  0.75778700  1
  Ge  Ge5  1  0.75778700  0.02247100  0.15410300  1
  Pb  Pb6  1  0.48910500  0.32756900  0.79338300  1
  Pb  Pb7  1  0.79338300  0.48910500  0.32756900  1
  Pb  Pb8  1  0.32756900  0.79338300  0.48910500  1
  Pb  Pb9  1  0.51089500  0.67243100  0.20661700  1
  Pb  Pb10  1  0.20661700  0.51089500  0.67243100  1
  Pb  Pb11  1  0.67243100  0.20661700  0.51089500  1
  O  O12  1  0.72096900  0.02220400  0.95344900  1
  O  O13  1  0.95344900  0.72096900  0.02220400  1
  O  O14  1  0.02220400  0.95344900  0.72096900  1
  O  O15  1  0.27903100  0.97779600  0.04655100  1
  O  O16  1  0.04655100  0.27903100  0.97779600  1
  O  O17  1  0.97779600  0.04655100  0.27903100  1
  O  O18  1  0.96294100  0.46759200  0.21182600  1
  O  O19  1  0.21182600  0.96294100  0.46759200  1
  O  O20  1  0.46759200  0.21182600  0.96294100  1
  O  O21  1  0.03705900  0.53240800  0.78817400  1
  O  O22  1  0.78817400  0.03705900  0.53240800  1
  O  O23  1  0.53240800  0.78817400  0.03705900  1
  O  O24  1  0.65121400  0.17935100  0.76028800  1
  O  O25  1  0.76028800  0.65121400  0.17935100  1
  O  O26  1  0.17935100  0.76028800  0.65121400  1
  O  O27  1  0.34878600  0.82064900  0.23971200  1
  O  O28  1  0.23971200  0.34878600  0.82064900  1
  O  O29  1  0.82064900  0.23971200  0.34878600  1
  O  O30  1  0.58375900  0.58375900  0.58375900  1
  O  O31  1  0.41624100  0.41624100  0.41624100  1
