# generated using pymatgen
data_Na2ErPWO8
_symmetry_space_group_name_H-M   'P 1'
_cell_length_a   11.50897686
_cell_length_b   11.50897686
_cell_length_c   11.50897686
_cell_angle_alpha   145.09290418
_cell_angle_beta   116.01280342
_cell_angle_gamma   75.00984942
_symmetry_Int_Tables_number   1
_chemical_formula_structural   Na2ErPWO8
_chemical_formula_sum   'Na8 Er4 P4 W4 O32'
_cell_volume   768.71206267
_cell_formula_units_Z   4
loop_
 _symmetry_equiv_pos_site_id
 _symmetry_equiv_pos_as_xyz
  1  'x, y, z'
loop_
 _atom_site_type_symbol
 _atom_site_label
 _atom_site_symmetry_multiplicity
 _atom_site_fract_x
 _atom_site_fract_y
 _atom_site_fract_z
 _atom_site_occupancy
  Na  Na0  1  0.90751900  0.85728700  0.07114500  1
  Na  Na1  1  0.28614200  0.83637400  0.42885500  1
  Na  Na2  1  0.21385800  0.64271300  0.55023100  1
  Na  Na3  1  0.59248100  0.66362600  0.94976900  1
  Na  Na4  1  0.09248100  0.14271300  0.92885500  1
  Na  Na5  1  0.71385800  0.16362600  0.57114500  1
  Na  Na6  1  0.78614200  0.35728700  0.44976900  1
  Na  Na7  1  0.40751900  0.33637400  0.05023100  1
  Er  Er8  1  0.17740200  0.75000000  0.92740200  1
  Er  Er9  1  0.32259800  0.25000000  0.57259800  1
  Er  Er10  1  0.82259800  0.25000000  0.07259800  1
  Er  Er11  1  0.67740200  0.75000000  0.42740200  1
  P  P12  1  0.56953200  0.25000000  0.81953100  1
  P  P13  1  0.93046900  0.75000000  0.68046800  1
  P  P14  1  0.43046900  0.75000000  0.18046800  1
  P  P15  1  0.06953200  0.25000000  0.31953200  1
  W  W16  1  0.92694100  0.67694100  0.25000000  1
  W  W17  1  0.57305900  0.82305900  0.75000000  1
  W  W18  1  0.07305900  0.32305900  0.75000000  1
  W  W19  1  0.42694100  0.17694100  0.25000000  1
  O  O20  1  0.42581400  0.16748900  0.72842100  1
  O  O21  1  0.93906900  0.69739300  0.77157900  1
  O  O22  1  0.56093100  0.33251100  0.75832400  1
  O  O23  1  0.07418600  0.80260700  0.74167600  1
  O  O24  1  0.57418600  0.83251100  0.27157900  1
  O  O25  1  0.06093100  0.30260700  0.22842100  1
  O  O26  1  0.43906900  0.66748900  0.24167600  1
  O  O27  1  0.92581400  0.19739300  0.25832400  1
  O  O28  1  0.64132000  0.41709100  0.07451600  1
  O  O29  1  0.84257500  0.56680300  0.42548400  1
  O  O30  1  0.65742500  0.08290900  0.72422900  1
  O  O31  1  0.85868000  0.93319700  0.77577100  1
  O  O32  1  0.35868000  0.58290900  0.92548400  1
  O  O33  1  0.15742500  0.43319700  0.57451600  1
  O  O34  1  0.34257500  0.91709100  0.27577100  1
  O  O35  1  0.14132000  0.06680300  0.22422900  1
  O  O36  1  0.89561900  0.40718500  0.06371000  1
  O  O37  1  0.84347500  0.83190900  0.43629000  1
  O  O38  1  0.65652500  0.09281500  0.98843400  1
  O  O39  1  0.60438100  0.66809100  0.51156600  1
  O  O40  1  0.10438100  0.59281500  0.93629000  1
  O  O41  1  0.15652500  0.16809100  0.56371000  1
  O  O42  1  0.34347500  0.90718500  0.01156600  1
  O  O43  1  0.39561900  0.33190900  0.48843400  1
  O  O44  1  0.10226900  0.77625500  0.41400800  1
  O  O45  1  0.86224700  0.68826100  0.08599200  1
  O  O46  1  0.63775300  0.72374500  0.82601500  1
  O  O47  1  0.39773100  0.81173900  0.67398500  1
  O  O48  1  0.89773100  0.22374500  0.58599200  1
  O  O49  1  0.13775300  0.31173900  0.91400800  1
  O  O50  1  0.36224700  0.27625500  0.17398500  1
  O  O51  1  0.60226900  0.18826100  0.32601500  1
