# generated using pymatgen
data_BaNa6Th(CO4)6
_symmetry_space_group_name_H-M   'P 1'
_cell_length_a   8.52362932
_cell_length_b   8.52362932
_cell_length_c   8.52362924
_cell_angle_alpha   109.09798598
_cell_angle_beta   109.09798598
_cell_angle_gamma   109.09799065
_symmetry_Int_Tables_number   1
_chemical_formula_structural   BaNa6Th(CO4)6
_chemical_formula_sum   'Ba1 Na6 Th1 C6 O24'
_cell_volume   483.18240523
_cell_formula_units_Z   1
loop_
 _symmetry_equiv_pos_site_id
 _symmetry_equiv_pos_as_xyz
  1  'x, y, z'
loop_
 _atom_site_type_symbol
 _atom_site_label
 _atom_site_symmetry_multiplicity
 _atom_site_fract_x
 _atom_site_fract_y
 _atom_site_fract_z
 _atom_site_occupancy
  Ba  Ba0  1  0.50000000  0.50000000  0.50000000  1
  Na  Na1  1  0.95013200  0.19629800  0.46333200  1
  Na  Na2  1  0.19629800  0.46333200  0.95013200  1
  Na  Na3  1  0.46333200  0.95013200  0.19629800  1
  Na  Na4  1  0.04986800  0.80370200  0.53666800  1
  Na  Na5  1  0.80370200  0.53666800  0.04986800  1
  Na  Na6  1  0.53666800  0.04986800  0.80370200  1
  Th  Th7  1  0.00000000  0.00000000  0.00000000  1
  C  C8  1  0.01539900  0.37335500  0.21528300  1
  C  C9  1  0.37335500  0.21528300  0.01539900  1
  C  C10  1  0.21528300  0.01539900  0.37335500  1
  C  C11  1  0.98460100  0.62664500  0.78471700  1
  C  C12  1  0.62664500  0.78471700  0.98460100  1
  C  C13  1  0.78471700  0.98460100  0.62664500  1
  O  O14  1  0.29812700  0.03169500  0.93682800  1
  O  O15  1  0.03169500  0.93682800  0.29812700  1
  O  O16  1  0.93682800  0.29812700  0.03169500  1
  O  O17  1  0.70187300  0.96830500  0.06317200  1
  O  O18  1  0.96830500  0.06317200  0.70187300  1
  O  O19  1  0.06317200  0.70187300  0.96830500  1
  O  O20  1  0.28944800  0.29336000  0.09006900  1
  O  O21  1  0.29336000  0.09006900  0.28944800  1
  O  O22  1  0.09006900  0.28944800  0.29336000  1
  O  O23  1  0.71055200  0.70664000  0.90993100  1
  O  O24  1  0.70664000  0.90993100  0.71055200  1
  O  O25  1  0.90993100  0.71055200  0.70664000  1
  O  O26  1  0.98273500  0.47377000  0.68569600  1
  O  O27  1  0.47377000  0.68569600  0.98273500  1
  O  O28  1  0.68569600  0.98273500  0.47377000  1
  O  O29  1  0.01726500  0.52623000  0.31430400  1
  O  O30  1  0.52623000  0.31430400  0.01726500  1
  O  O31  1  0.31430400  0.01726500  0.52623000  1
  O  O32  1  0.27399600  0.67137500  0.60274400  1
  O  O33  1  0.67137500  0.60274400  0.27399600  1
  O  O34  1  0.60274400  0.27399600  0.67137500  1
  O  O35  1  0.72600400  0.32862500  0.39725600  1
  O  O36  1  0.32862500  0.39725600  0.72600400  1
  O  O37  1  0.39725600  0.72600400  0.32862500  1
