# generated using pymatgen
data_Y3InS6
_symmetry_space_group_name_H-M   'P 1'
_cell_length_a   3.87745400
_cell_length_b   13.44844400
_cell_length_c   16.60662300
_cell_angle_alpha   90.00000000
_cell_angle_beta   90.00000000
_cell_angle_gamma   90.00000000
_symmetry_Int_Tables_number   1
_chemical_formula_structural   Y3InS6
_chemical_formula_sum   'Y12 In4 S24'
_cell_volume   865.96436262
_cell_formula_units_Z   4
loop_
 _symmetry_equiv_pos_site_id
 _symmetry_equiv_pos_as_xyz
  1  'x, y, z'
loop_
 _atom_site_type_symbol
 _atom_site_label
 _atom_site_symmetry_multiplicity
 _atom_site_fract_x
 _atom_site_fract_y
 _atom_site_fract_z
 _atom_site_occupancy
  Y  Y0  1  0.25397100  0.03613100  0.77657100  1
  Y  Y1  1  0.25397100  0.96386900  0.22342900  1
  Y  Y2  1  0.74602900  0.46386900  0.27657100  1
  Y  Y3  1  0.74602900  0.53613100  0.72342900  1
  Y  Y4  1  0.26359800  0.24678400  0.61058300  1
  Y  Y5  1  0.26359800  0.75321600  0.38941700  1
  Y  Y6  1  0.73640200  0.25321600  0.11058300  1
  Y  Y7  1  0.73640200  0.74678400  0.88941700  1
  Y  Y8  1  0.74723500  0.30939600  0.85635600  1
  Y  Y9  1  0.74723500  0.69060400  0.14364400  1
  Y  Y10  1  0.25276500  0.19060400  0.35635600  1
  Y  Y11  1  0.25276500  0.80939600  0.64364400  1
  In  In12  1  0.75319900  0.00000000  0.50000000  1
  In  In13  1  0.24680100  0.50000000  0.00000000  1
  In  In14  1  0.39159900  0.50000000  0.50000000  1
  In  In15  1  0.60840100  0.00000000  0.00000000  1
  S  S16  1  0.76820500  0.39704500  0.59309400  1
  S  S17  1  0.76820500  0.60295500  0.40690600  1
  S  S18  1  0.23179500  0.10295500  0.09309400  1
  S  S19  1  0.23179500  0.89704500  0.90690600  1
  S  S20  1  0.24606500  0.30736200  0.98069300  1
  S  S21  1  0.24606500  0.69263800  0.01930700  1
  S  S22  1  0.75393500  0.19263800  0.48069300  1
  S  S23  1  0.75393500  0.80736200  0.51930700  1
  S  S24  1  0.75163500  0.10770400  0.88480600  1
  S  S25  1  0.75163500  0.89229600  0.11519400  1
  S  S26  1  0.24836500  0.39229600  0.38480600  1
  S  S27  1  0.24836500  0.60770400  0.61519400  1
  S  S28  1  0.75912300  0.17891500  0.71724200  1
  S  S29  1  0.75912300  0.82108500  0.28275800  1
  S  S30  1  0.24087700  0.32108500  0.21724200  1
  S  S31  1  0.24087700  0.67891500  0.78275800  1
  S  S32  1  0.24863200  0.38454100  0.75612000  1
  S  S33  1  0.24863200  0.61545900  0.24388000  1
  S  S34  1  0.75136800  0.11545900  0.25612000  1
  S  S35  1  0.75136800  0.88454100  0.74388000  1
  S  S36  1  0.25361500  0.02066900  0.60550000  1
  S  S37  1  0.25361500  0.97933100  0.39450000  1
  S  S38  1  0.74638500  0.47933100  0.10550000  1
  S  S39  1  0.74638500  0.52066900  0.89450000  1
