# generated using pymatgen
data_BaFeCoPbO5
_symmetry_space_group_name_H-M   'P 1'
_cell_length_a   4.03059500
_cell_length_b   5.79661200
_cell_length_c   21.28521300
_cell_angle_alpha   90.00000000
_cell_angle_beta   90.00000000
_cell_angle_gamma   90.00000000
_symmetry_Int_Tables_number   1
_chemical_formula_structural   BaFeCoPbO5
_chemical_formula_sum   'Ba4 Fe4 Co4 Pb4 O20'
_cell_volume   497.30336039
_cell_formula_units_Z   4
loop_
 _symmetry_equiv_pos_site_id
 _symmetry_equiv_pos_as_xyz
  1  'x, y, z'
loop_
 _atom_site_type_symbol
 _atom_site_label
 _atom_site_symmetry_multiplicity
 _atom_site_fract_x
 _atom_site_fract_y
 _atom_site_fract_z
 _atom_site_occupancy
  Ba  Ba0  1  0.25000000  0.50950400  0.31183100  1
  Ba  Ba1  1  0.25000000  0.00950400  0.18816900  1
  Ba  Ba2  1  0.75000000  0.49049600  0.68816900  1
  Ba  Ba3  1  0.75000000  0.99049600  0.81183100  1
  Fe  Fe4  1  0.25000000  0.49937500  0.55453100  1
  Fe  Fe5  1  0.25000000  0.99937500  0.94546900  1
  Fe  Fe6  1  0.75000000  0.50062500  0.44546900  1
  Fe  Fe7  1  0.75000000  0.00062500  0.05453100  1
  Co  Co8  1  0.25000000  0.98959700  0.68556500  1
  Co  Co9  1  0.25000000  0.48959700  0.81443500  1
  Co  Co10  1  0.75000000  0.01040300  0.31443500  1
  Co  Co11  1  0.75000000  0.51040300  0.18556500  1
  Pb  Pb12  1  0.25000000  0.01143500  0.42790100  1
  Pb  Pb13  1  0.25000000  0.51143500  0.07209900  1
  Pb  Pb14  1  0.75000000  0.98856500  0.57209900  1
  Pb  Pb15  1  0.75000000  0.48856500  0.92790100  1
  O  O16  1  0.75000000  0.98939600  0.67795600  1
  O  O17  1  0.75000000  0.48939600  0.82204400  1
  O  O18  1  0.25000000  0.01060400  0.32204400  1
  O  O19  1  0.25000000  0.51060400  0.17795600  1
  O  O20  1  0.25000000  0.73089300  0.75283700  1
  O  O21  1  0.25000000  0.23089300  0.74716300  1
  O  O22  1  0.75000000  0.26910700  0.24716300  1
  O  O23  1  0.75000000  0.76910700  0.25283700  1
  O  O24  1  0.25000000  0.23378300  0.60657300  1
  O  O25  1  0.25000000  0.73378300  0.89342700  1
  O  O26  1  0.75000000  0.76621700  0.39342700  1
  O  O27  1  0.75000000  0.26621700  0.10657300  1
  O  O28  1  0.25000000  0.75689900  0.61336500  1
  O  O29  1  0.25000000  0.25689900  0.88663500  1
  O  O30  1  0.75000000  0.24310100  0.38663500  1
  O  O31  1  0.75000000  0.74310100  0.11336500  1
  O  O32  1  0.75000000  0.52161900  0.53992500  1
  O  O33  1  0.75000000  0.02161900  0.96007500  1
  O  O34  1  0.25000000  0.47838100  0.46007500  1
  O  O35  1  0.25000000  0.97838100  0.03992500  1
