# generated using pymatgen
data_Sc57Ir13
_symmetry_space_group_name_H-M   'P 1'
_cell_length_a   14.40781705
_cell_length_b   14.40781705
_cell_length_c   14.40781705
_cell_angle_alpha   90.00000000
_cell_angle_beta   90.00000000
_cell_angle_gamma   90.00000000
_symmetry_Int_Tables_number   1
_chemical_formula_structural   Sc57Ir13
_chemical_formula_sum   'Sc114 Ir26'
_cell_volume   2990.84947073
_cell_formula_units_Z   2
loop_
 _symmetry_equiv_pos_site_id
 _symmetry_equiv_pos_as_xyz
  1  'x, y, z'
loop_
 _atom_site_type_symbol
 _atom_site_label
 _atom_site_symmetry_multiplicity
 _atom_site_fract_x
 _atom_site_fract_y
 _atom_site_fract_z
 _atom_site_occupancy
  Sc  Sc0  1  -0.00000000  0.37357991  -0.00000000  1
  Sc  Sc1  1  -0.00000000  0.62642009  -0.00000000  1
  Sc  Sc2  1  -0.00000000  -0.00000000  0.37357991  1
  Sc  Sc3  1  -0.00000000  -0.00000000  0.62642009  1
  Sc  Sc4  1  0.37357991  -0.00000000  -0.00000000  1
  Sc  Sc5  1  0.62642009  -0.00000000  -0.00000000  1
  Sc  Sc6  1  -0.00000000  0.22737371  0.50000000  1
  Sc  Sc7  1  -0.00000000  0.77262629  0.50000000  1
  Sc  Sc8  1  0.50000000  -0.00000000  0.22737371  1
  Sc  Sc9  1  0.50000000  -0.00000000  0.77262629  1
  Sc  Sc10  1  0.22737371  0.50000000  -0.00000000  1
  Sc  Sc11  1  0.77262629  0.50000000  -0.00000000  1
  Sc  Sc12  1  0.50000000  0.86122488  0.50000000  1
  Sc  Sc13  1  0.50000000  0.13877512  0.50000000  1
  Sc  Sc14  1  0.50000000  0.50000000  0.86122488  1
  Sc  Sc15  1  0.50000000  0.50000000  0.13877512  1
  Sc  Sc16  1  0.86122488  0.50000000  0.50000000  1
  Sc  Sc17  1  0.13877512  0.50000000  0.50000000  1
  Sc  Sc18  1  0.62970036  -0.00000000  0.39269939  1
  Sc  Sc19  1  0.37029964  -0.00000000  0.60730061  1
  Sc  Sc20  1  0.37029964  -0.00000000  0.39269939  1
  Sc  Sc21  1  0.62970036  -0.00000000  0.60730061  1
  Sc  Sc22  1  0.39269939  0.62970036  -0.00000000  1
  Sc  Sc23  1  0.60730061  0.37029964  -0.00000000  1
  Sc  Sc24  1  0.39269939  0.37029964  -0.00000000  1
  Sc  Sc25  1  0.60730061  0.62970036  -0.00000000  1
  Sc  Sc26  1  -0.00000000  0.39269939  0.62970036  1
  Sc  Sc27  1  -0.00000000  0.60730061  0.37029964  1
  Sc  Sc28  1  -0.00000000  0.39269939  0.37029964  1
  Sc  Sc29  1  -0.00000000  0.60730061  0.62970036  1
  Sc  Sc30  1  0.89259580  -0.00000000  0.17733257  1
  Sc  Sc31  1  0.10740420  -0.00000000  0.82266743  1
  Sc  Sc32  1  0.10740420  -0.00000000  0.17733257  1
  Sc  Sc33  1  0.89259580  -0.00000000  0.82266743  1
  Sc  Sc34  1  0.17733257  0.89259580  -0.00000000  1
  Sc  Sc35  1  0.82266743  0.10740420  -0.00000000  1
  Sc  Sc36  1  0.17733257  0.10740420  -0.00000000  1
  Sc  Sc37  1  0.82266743  0.89259580  -0.00000000  1
  Sc  Sc38  1  -0.00000000  0.17733257  0.89259580  1
  Sc  Sc39  1  -0.00000000  0.82266743  0.10740420  1
  Sc  Sc40  1  -0.00000000  0.17733257  0.10740420  1
  Sc  Sc41  1  -0.00000000  0.82266743  0.89259580  1
  Sc  Sc42  1  0.10290682  0.50000000  0.82670374  1
  Sc  Sc43  1  0.89709318  0.50000000  0.17329626  1
  Sc  Sc44  1  0.89709318  0.50000000  0.82670374  1
  Sc  Sc45  1  0.10290682  0.50000000  0.17329626  1
  Sc  Sc46  1  0.82670374  0.10290682  0.50000000  1
  Sc  Sc47  1  0.17329626  0.89709318  0.50000000  1
  Sc  Sc48  1  0.82670374  0.89709318  0.50000000  1
  Sc  Sc49  1  0.17329626  0.10290682  0.50000000  1
  Sc  Sc50  1  0.50000000  0.82670374  0.10290682  1
  Sc  Sc51  1  0.50000000  0.17329626  0.89709318  1
  Sc  Sc52  1  0.50000000  0.82670374  0.89709318  1
  Sc  Sc53  1  0.50000000  0.17329626  0.10290682  1
  Sc  Sc54  1  0.39094419  0.50000000  0.67435842  1
  Sc  Sc55  1  0.60905581  0.50000000  0.32564158  1
  Sc  Sc56  1  0.60905581  0.50000000  0.67435842  1
  Sc  Sc57  1  0.39094419  0.50000000  0.32564158  1
  Sc  Sc58  1  0.67435842  0.39094419  0.50000000  1
  Sc  Sc59  1  0.32564158  0.60905581  0.50000000  1
  Sc  Sc60  1  0.67435842  0.60905581  0.50000000  1
  Sc  Sc61  1  0.32564158  0.39094419  0.50000000  1
  Sc  Sc62  1  0.50000000  0.67435842  0.39094419  1
  Sc  Sc63  1  0.50000000  0.32564158  0.60905581  1
  Sc  Sc64  1  0.50000000  0.67435842  0.60905581  1
  Sc  Sc65  1  0.50000000  0.32564158  0.39094419  1
  Sc  Sc66  1  0.70248059  0.11155451  0.18782697  1
  Sc  Sc67  1  0.29751941  0.11155451  0.81217303  1
  Sc  Sc68  1  0.29751941  0.88844549  0.18782697  1
  Sc  Sc69  1  0.70248059  0.88844549  0.81217303  1
  Sc  Sc70  1  0.18782697  0.70248059  0.11155451  1
  Sc  Sc71  1  0.81217303  0.29751941  0.11155451  1
  Sc  Sc72  1  0.18782697  0.29751941  0.88844549  1
  Sc  Sc73  1  0.81217303  0.70248059  0.88844549  1
  Sc  Sc74  1  0.11155451  0.18782697  0.70248059  1
  Sc  Sc75  1  0.11155451  0.81217303  0.29751941  1
  Sc  Sc76  1  0.88844549  0.18782697  0.29751941  1
  Sc  Sc77  1  0.88844549  0.81217303  0.70248059  1
  Sc  Sc78  1  0.29751941  0.88844549  0.81217303  1
  Sc  Sc79  1  0.70248059  0.88844549  0.18782697  1
  Sc  Sc80  1  0.70248059  0.11155451  0.81217303  1
  Sc  Sc81  1  0.29751941  0.11155451  0.18782697  1
  Sc  Sc82  1  0.81217303  0.29751941  0.88844549  1
  Sc  Sc83  1  0.18782697  0.70248059  0.88844549  1
  Sc  Sc84  1  0.81217303  0.70248059  0.11155451  1
  Sc  Sc85  1  0.18782697  0.29751941  0.11155451  1
  Sc  Sc86  1  0.88844549  0.81217303  0.29751941  1
  Sc  Sc87  1  0.88844549  0.18782697  0.70248059  1
  Sc  Sc88  1  0.11155451  0.81217303  0.70248059  1
  Sc  Sc89  1  0.11155451  0.18782697  0.29751941  1
  Sc  Sc90  1  0.20802169  0.61455017  0.67894176  1
  Sc  Sc91  1  0.79197831  0.61455017  0.32105824  1
  Sc  Sc92  1  0.79197831  0.38544983  0.67894176  1
  Sc  Sc93  1  0.20802169  0.38544983  0.32105824  1
  Sc  Sc94  1  0.67894176  0.20802169  0.61455017  1
  Sc  Sc95  1  0.32105824  0.79197831  0.61455017  1
  Sc  Sc96  1  0.67894176  0.79197831  0.38544983  1
  Sc  Sc97  1  0.32105824  0.20802169  0.38544983  1
  Sc  Sc98  1  0.61455017  0.67894176  0.20802169  1
  Sc  Sc99  1  0.61455017  0.32105824  0.79197831  1
  Sc  Sc100  1  0.38544983  0.67894176  0.79197831  1
  Sc  Sc101  1  0.38544983  0.32105824  0.20802169  1
  Sc  Sc102  1  0.79197831  0.38544983  0.32105824  1
  Sc  Sc103  1  0.20802169  0.38544983  0.67894176  1
  Sc  Sc104  1  0.20802169  0.61455017  0.32105824  1
  Sc  Sc105  1  0.79197831  0.61455017  0.67894176  1
  Sc  Sc106  1  0.32105824  0.79197831  0.38544983  1
  Sc  Sc107  1  0.67894176  0.20802169  0.38544983  1
  Sc  Sc108  1  0.32105824  0.20802169  0.61455017  1
  Sc  Sc109  1  0.67894176  0.79197831  0.61455017  1
  Sc  Sc110  1  0.38544983  0.32105824  0.79197831  1
  Sc  Sc111  1  0.38544983  0.67894176  0.20802169  1
  Sc  Sc112  1  0.61455017  0.32105824  0.20802169  1
  Sc  Sc113  1  0.61455017  0.67894176  0.79197831  1
  Ir  Ir114  1  -0.00000000  -0.00000000  -0.00000000  1
  Ir  Ir115  1  0.50000000  0.50000000  0.50000000  1
  Ir  Ir116  1  0.79886006  -0.00000000  0.33302026  1
  Ir  Ir117  1  0.20113994  -0.00000000  0.66697974  1
  Ir  Ir118  1  0.20113994  -0.00000000  0.33302026  1
  Ir  Ir119  1  0.79886006  -0.00000000  0.66697974  1
  Ir  Ir120  1  0.33302026  0.79886006  -0.00000000  1
  Ir  Ir121  1  0.66697974  0.20113994  -0.00000000  1
  Ir  Ir122  1  0.33302026  0.20113994  -0.00000000  1
  Ir  Ir123  1  0.66697974  0.79886006  -0.00000000  1
  Ir  Ir124  1  -0.00000000  0.33302026  0.79886006  1
  Ir  Ir125  1  -0.00000000  0.66697974  0.20113994  1
  Ir  Ir126  1  -0.00000000  0.33302026  0.20113994  1
  Ir  Ir127  1  -0.00000000  0.66697974  0.79886006  1
  Ir  Ir128  1  0.29909505  0.50000000  0.83163880  1
  Ir  Ir129  1  0.70090495  0.50000000  0.16836120  1
  Ir  Ir130  1  0.70090495  0.50000000  0.83163880  1
  Ir  Ir131  1  0.29909505  0.50000000  0.16836120  1
  Ir  Ir132  1  0.83163880  0.29909505  0.50000000  1
  Ir  Ir133  1  0.16836120  0.70090495  0.50000000  1
  Ir  Ir134  1  0.83163880  0.70090495  0.50000000  1
  Ir  Ir135  1  0.16836120  0.29909505  0.50000000  1
  Ir  Ir136  1  0.50000000  0.83163880  0.29909505  1
  Ir  Ir137  1  0.50000000  0.16836120  0.70090495  1
  Ir  Ir138  1  0.50000000  0.83163880  0.70090495  1
  Ir  Ir139  1  0.50000000  0.16836120  0.29909505  1
