# generated using pymatgen
data_H10CN2O5
_symmetry_space_group_name_H-M   'P 1'
_cell_length_a   7.65409140
_cell_length_b   7.66460683
_cell_length_c   9.85257600
_cell_angle_alpha   90.00000000
_cell_angle_beta   90.00000000
_cell_angle_gamma   97.02534370
_symmetry_Int_Tables_number   1
_chemical_formula_structural   H10CN2O5
_chemical_formula_sum   'H40 C4 N8 O20'
_cell_volume   573.66770164
_cell_formula_units_Z   4
loop_
 _symmetry_equiv_pos_site_id
 _symmetry_equiv_pos_as_xyz
  1  'x, y, z'
loop_
 _atom_site_type_symbol
 _atom_site_label
 _atom_site_symmetry_multiplicity
 _atom_site_fract_x
 _atom_site_fract_y
 _atom_site_fract_z
 _atom_site_occupancy
  H  H0  1  0.40419900  0.69696800  0.01138900  1
  H  H1  1  0.59580100  0.30303200  0.98861100  1
  H  H2  1  0.09580100  0.80303200  0.01138900  1
  H  H3  1  0.90419900  0.19696800  0.98861100  1
  H  H4  1  0.30835400  0.09743900  0.50121900  1
  H  H5  1  0.69164600  0.90256100  0.49878100  1
  H  H6  1  0.19164600  0.40256100  0.50121900  1
  H  H7  1  0.80835400  0.59743900  0.49878100  1
  H  H8  1  0.58194700  0.06633700  0.70443400  1
  H  H9  1  0.41805300  0.93366300  0.29556600  1
  H  H10  1  0.91805300  0.43366300  0.70443400  1
  H  H11  1  0.08194700  0.56633700  0.29556600  1
  H  H12  1  0.39758000  0.91859900  0.71253000  1
  H  H13  1  0.60242000  0.08140100  0.28747000  1
  H  H14  1  0.10242000  0.58140100  0.71253000  1
  H  H15  1  0.89758000  0.41859900  0.28747000  1
  H  H16  1  0.41391700  0.09932400  0.81316900  1
  H  H17  1  0.58608300  0.90067600  0.18683100  1
  H  H18  1  0.08608300  0.40067600  0.81316900  1
  H  H19  1  0.91391700  0.59932400  0.18683100  1
  H  H20  1  0.54268000  0.93442700  0.84311100  1
  H  H21  1  0.45732000  0.06557300  0.15688900  1
  H  H22  1  0.95732000  0.56557300  0.84311100  1
  H  H23  1  0.04268000  0.43442700  0.15688900  1
  H  H24  1  0.91579100  0.08235900  0.32824900  1
  H  H25  1  0.08420900  0.91764100  0.67175100  1
  H  H26  1  0.58420900  0.41764100  0.32824900  1
  H  H27  1  0.41579100  0.58235900  0.67175100  1
  H  H28  1  0.05713100  0.09176700  0.19651900  1
  H  H29  1  0.94286900  0.90823300  0.80348100  1
  H  H30  1  0.44286900  0.40823300  0.19651900  1
  H  H31  1  0.55713100  0.59176700  0.80348100  1
  H  H32  1  0.08573600  0.95650500  0.33266200  1
  H  H33  1  0.91426400  0.04349500  0.66733800  1
  H  H34  1  0.41426400  0.54349500  0.33266200  1
  H  H35  1  0.58573600  0.45650500  0.66733800  1
  H  H36  1  0.91305100  0.90701100  0.22343700  1
  H  H37  1  0.08694900  0.09298900  0.77656300  1
  H  H38  1  0.58694900  0.59298900  0.22343700  1
  H  H39  1  0.41305100  0.40701100  0.77656300  1
  C  C40  1  0.25000000  0.75000000  0.49656500  1
  C  C41  1  0.75000000  0.25000000  0.50343500  1
  C  C42  1  0.25000000  0.25000000  0.99807800  1
  C  C43  1  0.75000000  0.75000000  0.00192200  1
  N  N44  1  0.48477000  0.00568000  0.76969700  1
  N  N45  1  0.51523000  0.99432000  0.23030300  1
  N  N46  1  0.01523000  0.49432000  0.76969700  1
  N  N47  1  0.98477000  0.50568000  0.23030300  1
  N  N48  1  0.99394100  0.00855300  0.27124800  1
  N  N49  1  0.00605900  0.99144700  0.72875200  1
  N  N50  1  0.50605900  0.49144700  0.27124800  1
  N  N51  1  0.49394100  0.50855300  0.72875200  1
  O  O52  1  0.28470200  0.66429700  0.05423000  1
  O  O53  1  0.71529800  0.33570300  0.94577000  1
  O  O54  1  0.21529800  0.83570300  0.05423000  1
  O  O55  1  0.78470200  0.16429700  0.94577000  1
  O  O56  1  0.33787300  0.21955000  0.53985200  1
  O  O57  1  0.66212700  0.78045000  0.46014800  1
  O  O58  1  0.16212700  0.28045000  0.53985200  1
  O  O59  1  0.83787300  0.71955000  0.46014800  1
  O  O60  1  0.25000000  0.75000000  0.62909900  1
  O  O61  1  0.75000000  0.25000000  0.37090100  1
  O  O62  1  0.26387700  0.89801000  0.43071200  1
  O  O63  1  0.73612300  0.10199000  0.56928800  1
  O  O64  1  0.23612300  0.60199000  0.43071200  1
  O  O65  1  0.76387700  0.39801000  0.56928800  1
  O  O66  1  0.25000000  0.25000000  0.86542900  1
  O  O67  1  0.75000000  0.75000000  0.13457100  1
  O  O68  1  0.39791700  0.25888900  0.06387300  1
  O  O69  1  0.60208300  0.74111100  0.93612700  1
  O  O70  1  0.10208300  0.24111100  0.06387300  1
  O  O71  1  0.89791700  0.75888900  0.93612700  1
