# generated using pymatgen
data_Sc3InS6
_symmetry_space_group_name_H-M   'P 1'
_cell_length_a   3.68268200
_cell_length_b   12.84213800
_cell_length_c   16.16754100
_cell_angle_alpha   90.00000000
_cell_angle_beta   90.00000000
_cell_angle_gamma   90.00000000
_symmetry_Int_Tables_number   1
_chemical_formula_structural   Sc3InS6
_chemical_formula_sum   'Sc12 In4 S24'
_cell_volume   764.61976930
_cell_formula_units_Z   4
loop_
 _symmetry_equiv_pos_site_id
 _symmetry_equiv_pos_as_xyz
  1  'x, y, z'
loop_
 _atom_site_type_symbol
 _atom_site_label
 _atom_site_symmetry_multiplicity
 _atom_site_fract_x
 _atom_site_fract_y
 _atom_site_fract_z
 _atom_site_occupancy
  Sc  Sc0  1  0.25229900  0.03495700  0.77368100  1
  Sc  Sc1  1  0.25229900  0.96504300  0.22631900  1
  Sc  Sc2  1  0.74770100  0.46504300  0.27368100  1
  Sc  Sc3  1  0.74770100  0.53495700  0.72631900  1
  Sc  Sc4  1  0.26797300  0.24685400  0.61360000  1
  Sc  Sc5  1  0.26797300  0.75314600  0.38640000  1
  Sc  Sc6  1  0.73202700  0.25314600  0.11360000  1
  Sc  Sc7  1  0.73202700  0.74685400  0.88640000  1
  Sc  Sc8  1  0.74871800  0.30869800  0.85560900  1
  Sc  Sc9  1  0.74871800  0.69130200  0.14439100  1
  Sc  Sc10  1  0.25128200  0.19130200  0.35560900  1
  Sc  Sc11  1  0.25128200  0.80869800  0.64439100  1
  In  In12  1  0.75529100  0.00000000  0.50000000  1
  In  In13  1  0.24470900  0.50000000  0.00000000  1
  In  In14  1  0.36752000  0.50000000  0.50000000  1
  In  In15  1  0.63248000  0.00000000  0.00000000  1
  S  S16  1  0.77257000  0.39579300  0.59803300  1
  S  S17  1  0.77257000  0.60420700  0.40196700  1
  S  S18  1  0.22743000  0.10420700  0.09803300  1
  S  S19  1  0.22743000  0.89579300  0.90196700  1
  S  S20  1  0.24911600  0.30114400  0.97740400  1
  S  S21  1  0.24911600  0.69885600  0.02259600  1
  S  S22  1  0.75088400  0.19885600  0.47740400  1
  S  S23  1  0.75088400  0.80114400  0.52259600  1
  S  S24  1  0.74853600  0.10856600  0.87758900  1
  S  S25  1  0.74853600  0.89143400  0.12241100  1
  S  S26  1  0.25146400  0.39143400  0.37758900  1
  S  S27  1  0.25146400  0.60856600  0.62241100  1
  S  S28  1  0.76233200  0.18056100  0.71630500  1
  S  S29  1  0.76233200  0.81943900  0.28369500  1
  S  S30  1  0.23766800  0.31943900  0.21630500  1
  S  S31  1  0.23766800  0.68056100  0.78369500  1
  S  S32  1  0.25177000  0.38179300  0.75651600  1
  S  S33  1  0.25177000  0.61820700  0.24348400  1
  S  S34  1  0.74823000  0.11820700  0.25651600  1
  S  S35  1  0.74823000  0.88179300  0.74348400  1
  S  S36  1  0.25420200  0.02148800  0.60973300  1
  S  S37  1  0.25420200  0.97851200  0.39026700  1
  S  S38  1  0.74579800  0.47851200  0.10973300  1
  S  S39  1  0.74579800  0.52148800  0.89026700  1
