# generated using pymatgen
data_NdMoI4O15
_symmetry_space_group_name_H-M   'P 1'
_cell_length_a   14.22912900
_cell_length_b   7.07575300
_cell_length_c   7.24442418
_cell_angle_alpha   65.90542418
_cell_angle_beta   90.00000000
_cell_angle_gamma   90.00000000
_symmetry_Int_Tables_number   1
_chemical_formula_structural   NdMoI4O15
_chemical_formula_sum   'Nd2 Mo2 I8 O30'
_cell_volume   665.83272028
_cell_formula_units_Z   2
loop_
 _symmetry_equiv_pos_site_id
 _symmetry_equiv_pos_as_xyz
  1  'x, y, z'
loop_
 _atom_site_type_symbol
 _atom_site_label
 _atom_site_symmetry_multiplicity
 _atom_site_fract_x
 _atom_site_fract_y
 _atom_site_fract_z
 _atom_site_occupancy
  Nd  Nd0  1  0.05945800  0.91791400  0.43099700  1
  Nd  Nd1  1  0.55945800  0.08208600  0.56900300  1
  Mo  Mo2  1  0.22803800  0.41513200  0.78351700  1
  Mo  Mo3  1  0.72803800  0.58486800  0.21648300  1
  I  I4  1  0.47026100  0.47787500  0.75703700  1
  I  I5  1  0.97026100  0.52212500  0.24296300  1
  I  I6  1  0.30946500  0.23774100  0.30173400  1
  I  I7  1  0.80946500  0.76225900  0.69826600  1
  I  I8  1  0.18941100  0.85155900  0.95504300  1
  I  I9  1  0.68941100  0.14844100  0.04495700  1
  I  I10  1  0.96487600  0.24211400  0.86879700  1
  I  I11  1  0.46487600  0.75788600  0.13120300  1
  O  O12  1  0.35059300  0.59611800  0.70962200  1
  O  O13  1  0.85059300  0.40388200  0.29037800  1
  O  O14  1  0.53741100  0.71449400  0.64371500  1
  O  O15  1  0.03741100  0.28550600  0.35628500  1
  O  O16  1  0.47274900  0.40187100  0.54177300  1
  O  O17  1  0.97274900  0.59812900  0.45822700  1
  O  O18  1  0.31596400  0.23417800  0.04376700  1
  O  O19  1  0.81596400  0.76582200  0.95623300  1
  O  O20  1  0.41035300  0.07386600  0.40890800  1
  O  O21  1  0.91035300  0.92613400  0.59109200  1
  O  O22  1  0.21697600  0.04683000  0.39724200  1
  O  O23  1  0.71697600  0.95317000  0.60275800  1
  O  O24  1  0.21525400  0.58197600  0.98893100  1
  O  O25  1  0.71525400  0.41802400  0.01106900  1
  O  O26  1  0.12200400  0.77119400  0.18852800  1
  O  O27  1  0.62200400  0.22880600  0.81147200  1
  O  O28  1  0.09216000  0.90860700  0.77506300  1
  O  O29  1  0.59216000  0.09139300  0.22493700  1
  O  O30  1  0.96443100  0.48220400  0.90837700  1
  O  O31  1  0.46443100  0.51779600  0.09162300  1
  O  O32  1  0.84034500  0.24569100  0.79893400  1
  O  O33  1  0.34034500  0.75430900  0.20106600  1
  O  O34  1  0.95867000  0.03951800  0.12388700  1
  O  O35  1  0.45867000  0.96048200  0.87611300  1
  O  O36  1  0.13255100  0.23132700  0.93481000  1
  O  O37  1  0.63255100  0.76867300  0.06519000  1
  O  O38  1  0.15764800  0.61051000  0.60869000  1
  O  O39  1  0.65764800  0.38949000  0.39131000  1
  O  O40  1  0.26882100  0.26822300  0.65319200  1
  O  O41  1  0.76882100  0.73177700  0.34680800  1
