# generated using pymatgen
data_SrPH10S3O5
_symmetry_space_group_name_H-M   'P 1'
_cell_length_a   8.47620700
_cell_length_b   9.29656724
_cell_length_c   12.92057768
_cell_angle_alpha   91.68269375
_cell_angle_beta   100.38174262
_cell_angle_gamma   91.82105610
_symmetry_Int_Tables_number   1
_chemical_formula_structural   SrPH10S3O5
_chemical_formula_sum   'Sr4 P4 H40 S12 O20'
_cell_volume   1000.32514161
_cell_formula_units_Z   4
loop_
 _symmetry_equiv_pos_site_id
 _symmetry_equiv_pos_as_xyz
  1  'x, y, z'
loop_
 _atom_site_type_symbol
 _atom_site_label
 _atom_site_symmetry_multiplicity
 _atom_site_fract_x
 _atom_site_fract_y
 _atom_site_fract_z
 _atom_site_occupancy
  Sr  Sr0  1  0.00467200  0.50324400  0.32325700  1
  Sr  Sr1  1  0.99532800  0.49675600  0.67674300  1
  Sr  Sr2  1  0.48197000  0.99331400  0.81807300  1
  Sr  Sr3  1  0.51803000  0.00668600  0.18192700  1
  P  P4  1  0.10664700  0.42598400  0.01119400  1
  P  P5  1  0.89335300  0.57401600  0.98880600  1
  P  P6  1  0.45423600  0.11399500  0.49846300  1
  P  P7  1  0.54576400  0.88600500  0.50153700  1
  H  H8  1  0.66448300  0.63885500  0.34394900  1
  H  H9  1  0.33551700  0.36114500  0.65605100  1
  H  H10  1  0.71745900  0.53535000  0.43476200  1
  H  H11  1  0.28254100  0.46465000  0.56523800  1
  H  H12  1  0.89184900  0.16008400  0.26744400  1
  H  H13  1  0.10815100  0.83991600  0.73255600  1
  H  H14  1  0.93830000  0.24193500  0.16963500  1
  H  H15  1  0.06170000  0.75806500  0.83036500  1
  H  H16  1  0.63616600  0.59717600  0.59610600  1
  H  H17  1  0.36383400  0.40282400  0.40389400  1
  H  H18  1  0.63669200  0.42670400  0.58750800  1
  H  H19  1  0.36330800  0.57329600  0.41249200  1
  H  H20  1  0.14919400  0.81682100  0.30568400  1
  H  H21  1  0.85080600  0.18317900  0.69431600  1
  H  H22  1  0.04576100  0.77438300  0.19499500  1
  H  H23  1  0.95423900  0.22561700  0.80500500  1
  H  H24  1  0.02508100  0.26157900  0.49258400  1
  H  H25  1  0.97491900  0.73842100  0.50741600  1
  H  H26  1  0.83735000  0.28448100  0.46618900  1
  H  H27  1  0.16265000  0.71551900  0.53381100  1
  H  H28  1  0.61023400  0.32697600  0.11522100  1
  H  H29  1  0.38976600  0.67302400  0.88477900  1
  H  H30  1  0.43693000  0.32866600  0.14243300  1
  H  H31  1  0.56307000  0.67133400  0.85756700  1
  H  H32  1  0.52337400  0.70964300  0.06714600  1
  H  H33  1  0.47662600  0.29035700  0.93285400  1
  H  H34  1  0.63099000  0.31846900  0.88504000  1
  H  H35  1  0.36901000  0.68153100  0.11496000  1
  H  H36  1  0.83371200  0.88188000  0.84937700  1
  H  H37  1  0.16628800  0.11812000  0.15062300  1
  H  H38  1  0.78090500  0.91569800  0.72882700  1
  H  H39  1  0.21909500  0.08430200  0.27117300  1
  H  H40  1  0.88572100  0.91056900  0.27774500  1
  H  H41  1  0.11427900  0.08943100  0.72225500  1
  H  H42  1  0.79651400  0.97210500  0.36523600  1
  H  H43  1  0.20348600  0.02789500  0.63476400  1
  H  H44  1  0.74345700  0.08336200  0.01739300  1
  H  H45  1  0.25654300  0.91663800  0.98260700  1
  H  H46  1  0.77210300  0.91818500  0.02727600  1
  H  H47  1  0.22789700  0.08181500  0.97272400  1
  S  S48  1  0.76885500  0.54267500  0.10603900  1
  S  S49  1  0.23114500  0.45732500  0.89396100  1
  S  S50  1  0.23574600  0.47892300  0.15654900  1
  S  S51  1  0.76425400  0.52107700  0.84345100  1
  S  S52  1  0.00908900  0.21917700  0.00091600  1
  S  S53  1  0.99091100  0.78082300  0.99908400  1
  S  S54  1  0.45340500  0.77987600  0.61334300  1
  S  S55  1  0.54659500  0.22012400  0.38665700  1
  S  S56  1  0.21122900  0.08485700  0.46574800  1
  S  S57  1  0.78877100  0.91514300  0.53425200  1
  S  S58  1  0.54000100  0.20737500  0.64433900  1
  S  S59  1  0.45999900  0.79262500  0.35566100  1
  O  O60  1  0.73852000  0.56131800  0.36512100  1
  O  O61  1  0.26148000  0.43868200  0.63487900  1
  O  O62  1  0.92868200  0.25428900  0.24462700  1
  O  O63  1  0.07131800  0.74571100  0.75537300  1
  O  O64  1  0.30055800  0.48452300  0.42319000  1
  O  O65  1  0.69944200  0.51547700  0.57681000  1
  O  O66  1  0.04311600  0.77641600  0.27126300  1
  O  O67  1  0.95688400  0.22358400  0.72873700  1
  O  O68  1  0.05712600  0.66376400  0.51243300  1
  O  O69  1  0.94287400  0.33623600  0.48756700  1
  O  O70  1  0.52016900  0.26344300  0.12603600  1
  O  O71  1  0.47983100  0.73655700  0.87396400  1
  O  O72  1  0.55799600  0.24095300  0.90162000  1
  O  O73  1  0.44200400  0.75904700  0.09838000  1
  O  O74  1  0.76929000  0.94604400  0.80055600  1
  O  O75  1  0.23071000  0.05395600  0.19944400  1
  O  O76  1  0.19213200  0.01617400  0.70968200  1
  O  O77  1  0.80786800  0.98382600  0.29031800  1
  O  O78  1  0.31017000  0.00817800  0.97070400  1
  O  O79  1  0.68983000  0.99182200  0.02929600  1
