# generated using pymatgen
data_TiO2
_symmetry_space_group_name_H-M   'P 1'
_cell_length_a   2.98182700
_cell_length_b   10.79551500
_cell_length_c   17.73849700
_cell_angle_alpha   90.00000000
_cell_angle_beta   90.00000000
_cell_angle_gamma   90.00000000
_symmetry_Int_Tables_number   1
_chemical_formula_structural   TiO2
_chemical_formula_sum   'Ti16 O32'
_cell_volume   571.00857069
_cell_formula_units_Z   16
loop_
 _symmetry_equiv_pos_site_id
 _symmetry_equiv_pos_as_xyz
  1  'x, y, z'
loop_
 _atom_site_type_symbol
 _atom_site_label
 _atom_site_symmetry_multiplicity
 _atom_site_fract_x
 _atom_site_fract_y
 _atom_site_fract_z
 _atom_site_occupancy
  Ti  Ti0  1  0.25000000  0.21765800  0.10071100  1
  Ti  Ti1  1  0.25000000  0.28234200  0.60071100  1
  Ti  Ti2  1  0.75000000  0.78234200  0.89928900  1
  Ti  Ti3  1  0.75000000  0.71765800  0.39928900  1
  Ti  Ti4  1  0.75000000  0.49746600  0.17231000  1
  Ti  Ti5  1  0.75000000  0.00253400  0.67231000  1
  Ti  Ti6  1  0.25000000  0.50253400  0.82769000  1
  Ti  Ti7  1  0.25000000  0.99746600  0.32769000  1
  Ti  Ti8  1  0.75000000  0.30482400  0.92330300  1
  Ti  Ti9  1  0.75000000  0.19517600  0.42330300  1
  Ti  Ti10  1  0.25000000  0.69517600  0.07669700  1
  Ti  Ti11  1  0.25000000  0.80482400  0.57669700  1
  Ti  Ti12  1  0.75000000  0.97650500  0.14545300  1
  Ti  Ti13  1  0.75000000  0.52349500  0.64545300  1
  Ti  Ti14  1  0.25000000  0.02349500  0.85454700  1
  Ti  Ti15  1  0.25000000  0.47650500  0.35454700  1
  O  O16  1  0.25000000  0.02666400  0.08361400  1
  O  O17  1  0.25000000  0.47333600  0.58361400  1
  O  O18  1  0.75000000  0.97333600  0.91638600  1
  O  O19  1  0.75000000  0.52666400  0.41638600  1
  O  O20  1  0.75000000  0.45843300  0.27678000  1
  O  O21  1  0.75000000  0.04156700  0.77678000  1
  O  O22  1  0.25000000  0.54156700  0.72322000  1
  O  O23  1  0.25000000  0.95843300  0.22322000  1
  O  O24  1  0.25000000  0.38215800  0.14096300  1
  O  O25  1  0.25000000  0.11784200  0.64096300  1
  O  O26  1  0.75000000  0.61784200  0.85903700  1
  O  O27  1  0.75000000  0.88215800  0.35903700  1
  O  O28  1  0.75000000  0.16890800  0.16169800  1
  O  O29  1  0.75000000  0.33109200  0.66169800  1
  O  O30  1  0.25000000  0.83109200  0.83830200  1
  O  O31  1  0.25000000  0.66890800  0.33830200  1
  O  O32  1  0.25000000  0.41467100  0.93489000  1
  O  O33  1  0.25000000  0.08532900  0.43489000  1
  O  O34  1  0.75000000  0.58532900  0.06511000  1
  O  O35  1  0.75000000  0.91467100  0.56511000  1
  O  O36  1  0.75000000  0.81197100  0.11047200  1
  O  O37  1  0.75000000  0.68802900  0.61047200  1
  O  O38  1  0.25000000  0.18802900  0.88952800  1
  O  O39  1  0.25000000  0.31197100  0.38952800  1
  O  O40  1  0.75000000  0.24846300  0.02510300  1
  O  O41  1  0.75000000  0.25153700  0.52510300  1
  O  O42  1  0.25000000  0.75153700  0.97489700  1
  O  O43  1  0.25000000  0.74846300  0.47489700  1
  O  O44  1  0.25000000  0.60960900  0.18105200  1
  O  O45  1  0.25000000  0.89039100  0.68105200  1
  O  O46  1  0.75000000  0.39039100  0.81894800  1
  O  O47  1  0.75000000  0.10960900  0.31894800  1
