# generated using pymatgen
data_Fe3P3H12C2N2O13F2
_symmetry_space_group_name_H-M   'P 1'
_cell_length_a   10.45981300
_cell_length_b   8.95602200
_cell_length_c   18.93820003
_cell_angle_alpha   65.33645319
_cell_angle_beta   90.00000000
_cell_angle_gamma   90.00000000
_symmetry_Int_Tables_number   1
_chemical_formula_structural   Fe3P3H12C2N2O13F2
_chemical_formula_sum   'Fe12 P12 H48 C8 N8 O52 F8'
_cell_volume   1612.25448704
_cell_formula_units_Z   4
loop_
 _symmetry_equiv_pos_site_id
 _symmetry_equiv_pos_as_xyz
  1  'x, y, z'
loop_
 _atom_site_type_symbol
 _atom_site_label
 _atom_site_symmetry_multiplicity
 _atom_site_fract_x
 _atom_site_fract_y
 _atom_site_fract_z
 _atom_site_occupancy
  Fe  Fe0  1  0.68406200  0.42904300  0.80082900  1
  Fe  Fe1  1  0.81593800  0.42904300  0.30082900  1
  Fe  Fe2  1  0.31593800  0.57095700  0.19917100  1
  Fe  Fe3  1  0.18406200  0.57095700  0.69917100  1
  Fe  Fe4  1  0.84696200  0.80225400  0.76866600  1
  Fe  Fe5  1  0.65303800  0.80225400  0.26866600  1
  Fe  Fe6  1  0.15303800  0.19774600  0.23133400  1
  Fe  Fe7  1  0.34696200  0.19774600  0.73133400  1
  Fe  Fe8  1  0.65208700  0.49308300  0.59669100  1
  Fe  Fe9  1  0.84791300  0.49308300  0.09669100  1
  Fe  Fe10  1  0.34791300  0.50691700  0.40330900  1
  Fe  Fe11  1  0.15208700  0.50691700  0.90330900  1
  P  P12  1  0.65892700  0.13459000  0.74255200  1
  P  P13  1  0.84107300  0.13459000  0.24255200  1
  P  P14  1  0.34107300  0.86541000  0.25744800  1
  P  P15  1  0.15892700  0.86541000  0.75744800  1
  P  P16  1  0.88196000  0.62512900  0.66078000  1
  P  P17  1  0.61804000  0.62512900  0.16078000  1
  P  P18  1  0.11804000  0.37487100  0.33922000  1
  P  P19  1  0.38196000  0.37487100  0.83922000  1
  P  P20  1  0.86718600  0.46645600  0.93004500  1
  P  P21  1  0.63281400  0.46645600  0.43004500  1
  P  P22  1  0.13281400  0.53354400  0.06995500  1
  P  P23  1  0.36718600  0.53354400  0.56995500  1
  H  H24  1  0.56447700  0.09725600  0.04802500  1
  H  H25  1  0.93552300  0.09725600  0.54802500  1
  H  H26  1  0.43552300  0.90274400  0.95197500  1
  H  H27  1  0.06447700  0.90274400  0.45197500  1
  H  H28  1  0.61141200  0.28448200  0.98659800  1
  H  H29  1  0.88858800  0.28448200  0.48659800  1
  H  H30  1  0.38858800  0.71551800  0.01340200  1
  H  H31  1  0.11141200  0.71551800  0.51340200  1
  H  H32  1  0.68040000  0.19653500  0.07341800  1
  H  H33  1  0.81960000  0.19653500  0.57341800  1
  H  H34  1  0.31960000  0.80346500  0.92658200  1
  H  H35  1  0.18040000  0.80346500  0.42658200  1
  H  H36  1  0.37853000  0.82106400  0.67647000  1
  H  H37  1  0.12147000  0.82106400  0.17647000  1
  H  H38  1  0.62147000  0.17893600  0.32353000  1
  H  H39  1  0.87853000  0.17893600  0.82353000  1
  H  H40  1  0.51763600  0.72057800  0.69508000  1
  H  H41  1  0.98236400  0.72057800  0.19508000  1
  H  H42  1  0.48236400  0.27942200  0.30492000  1
  H  H43  1  0.01763600  0.27942200  0.80492000  1
  H  H44  1  0.49695300  0.88266800  0.71745800  1
  H  H45  1  0.00304700  0.88266800  0.21745800  1
  H  H46  1  0.50304700  0.11733200  0.28254200  1
  H  H47  1  0.99695300  0.11733200  0.78254200  1
  H  H48  1  0.46550500  0.60702300  0.91984300  1
  H  H49  1  0.03449500  0.60702300  0.41984300  1
  H  H50  1  0.53449500  0.39297700  0.08015700  1
  H  H51  1  0.96550500  0.39297700  0.58015700  1
  H  H52  1  0.52199700  0.80978300  0.86110600  1
  H  H53  1  0.97800300  0.80978300  0.36110600  1
  H  H54  1  0.47800300  0.19021700  0.13889400  1
  H  H55  1  0.02199700  0.19021700  0.63889400  1
  H  H56  1  0.59095200  0.69576800  0.95500600  1
  H  H57  1  0.90904800  0.69576800  0.45500600  1
  H  H58  1  0.40904800  0.30423200  0.04499400  1
  H  H59  1  0.09095200  0.30423200  0.54499400  1
  H  H60  1  0.46998000  0.06301200  0.57839600  1
  H  H61  1  0.03002000  0.06301200  0.07839600  1
  H  H62  1  0.53002000  0.93698800  0.42160400  1
  H  H63  1  0.96998000  0.93698800  0.92160400  1
  H  H64  1  0.62643100  0.97863500  0.60688400  1
  H  H65  1  0.87356900  0.97863500  0.10688400  1
  H  H66  1  0.37356900  0.02136500  0.39311600  1
  H  H67  1  0.12643100  0.02136500  0.89311600  1
  H  H68  1  0.52138700  0.88887000  0.56094700  1
  H  H69  1  0.97861300  0.88887000  0.06094700  1
  H  H70  1  0.47861300  0.11113000  0.43905300  1
  H  H71  1  0.02138700  0.11113000  0.93905300  1
  C  C72  1  0.50338400  0.72013800  0.92047200  1
  C  C73  1  0.99661600  0.72013800  0.42047200  1
  C  C74  1  0.49661600  0.27986200  0.07952800  1
  C  C75  1  0.00338400  0.27986200  0.57952800  1
  C  C76  1  0.52678800  0.95025200  0.60002200  1
  C  C77  1  0.97321200  0.95025200  0.10002200  1
  C  C78  1  0.47321200  0.04974800  0.39997800  1
  C  C79  1  0.02678800  0.04974800  0.89997800  1
  N  N80  1  0.59457400  0.20973500  0.04462200  1
  N  N81  1  0.90542600  0.20973500  0.54462200  1
  N  N82  1  0.40542600  0.79026500  0.95537800  1
  N  N83  1  0.09457400  0.79026500  0.45537800  1
  N  N84  1  0.47686000  0.83572600  0.67714100  1
  N  N85  1  0.02314000  0.83572600  0.17714100  1
  N  N86  1  0.52314000  0.16427400  0.32285900  1
  N  N87  1  0.97686000  0.16427400  0.82285900  1
  O  O88  1  0.68837100  0.20054300  0.80481900  1
  O  O89  1  0.81162900  0.20054300  0.30481900  1
  O  O90  1  0.31162900  0.79945700  0.19518100  1
  O  O91  1  0.18837100  0.79945700  0.69518100  1
  O  O92  1  0.86474100  0.78923000  0.66986800  1
  O  O93  1  0.63525900  0.78923000  0.16986800  1
  O  O94  1  0.13525900  0.21077000  0.33013200  1
  O  O95  1  0.36474100  0.21077000  0.83013200  1
  O  O96  1  0.84409800  0.47831300  0.73683200  1
  O  O97  1  0.65590200  0.47831300  0.23683200  1
  O  O98  1  0.15590200  0.52168700  0.26316800  1
  O  O99  1  0.34409800  0.52168700  0.76316800  1
  O  O100  1  0.80031400  0.46291300  0.00340700  1
  O  O101  1  0.69968600  0.46291300  0.50340700  1
  O  O102  1  0.19968600  0.53708700  0.99659300  1
  O  O103  1  0.30031400  0.53708700  0.49659300  1
  O  O104  1  0.00042300  0.38218600  0.95063900  1
  O  O105  1  0.49957700  0.38218600  0.45063900  1
  O  O106  1  0.99957700  0.61781400  0.04936100  1
  O  O107  1  0.50042300  0.61781400  0.54936100  1
  O  O108  1  0.79686000  0.63168400  0.59192800  1
  O  O109  1  0.70314000  0.63168400  0.09192800  1
  O  O110  1  0.20314000  0.36831600  0.40807200  1
  O  O111  1  0.29686000  0.36831600  0.90807200  1
  O  O112  1  0.69348100  0.26349300  0.65959100  1
  O  O113  1  0.80651900  0.26349300  0.15959100  1
  O  O114  1  0.30651900  0.73650700  0.34040900  1
  O  O115  1  0.19348100  0.73650700  0.84040900  1
  O  O116  1  0.78124300  0.36970700  0.89741000  1
  O  O117  1  0.71875700  0.36970700  0.39741000  1
  O  O118  1  0.21875700  0.63029300  0.10259000  1
  O  O119  1  0.28124300  0.63029300  0.60259000  1
  O  O120  1  0.89174800  0.64697400  0.87104800  1
  O  O121  1  0.60825200  0.64697400  0.37104800  1
  O  O122  1  0.10825200  0.35302600  0.12895200  1
  O  O123  1  0.39174800  0.35302600  0.62895200  1
  O  O124  1  0.51741900  0.08002600  0.74536400  1
  O  O125  1  0.98258100  0.08002600  0.24536400  1
  O  O126  1  0.48258100  0.91997400  0.25463600  1
  O  O127  1  0.01741900  0.91997400  0.75463600  1
  O  O128  1  0.02194700  0.60728800  0.63966000  1
  O  O129  1  0.47805300  0.60728800  0.13966000  1
  O  O130  1  0.97805300  0.39271200  0.36034000  1
  O  O131  1  0.52194700  0.39271200  0.86034000  1
  O  O132  1  0.74679100  0.98516500  0.76006700  1
  O  O133  1  0.75320900  0.98516500  0.26006700  1
  O  O134  1  0.25320900  0.01483500  0.23993300  1
  O  O135  1  0.24679100  0.01483500  0.73993300  1
  O  O136  1  0.64347200  0.98183400  0.97343900  1
  O  O137  1  0.85652800  0.98183400  0.47343900  1
  O  O138  1  0.35652800  0.01816600  0.02656100  1
  O  O139  1  0.14347200  0.01816600  0.52656100  1
  F  F140  1  0.68232000  0.66795400  0.78364000  1
  F  F141  1  0.81768000  0.66795400  0.28364000  1
  F  F142  1  0.31768000  0.33204600  0.21636000  1
  F  F143  1  0.18232000  0.33204600  0.71636000  1
  F  F144  1  0.59150300  0.50975600  0.69717300  1
  F  F145  1  0.90849700  0.50975600  0.19717300  1
  F  F146  1  0.40849700  0.49024400  0.30282700  1
  F  F147  1  0.09150300  0.49024400  0.80282700  1
