# generated using pymatgen
data_Sr2As2O7
_symmetry_space_group_name_H-M   'P 1'
_cell_length_a   7.24380400
_cell_length_b   7.24380400
_cell_length_c   26.12124500
_cell_angle_alpha   90.00000000
_cell_angle_beta   90.00000000
_cell_angle_gamma   90.00000000
_symmetry_Int_Tables_number   1
_chemical_formula_structural   Sr2As2O7
_chemical_formula_sum   'Sr16 As16 O56'
_cell_volume   1370.65215822
_cell_formula_units_Z   8
loop_
 _symmetry_equiv_pos_site_id
 _symmetry_equiv_pos_as_xyz
  1  'x, y, z'
loop_
 _atom_site_type_symbol
 _atom_site_label
 _atom_site_symmetry_multiplicity
 _atom_site_fract_x
 _atom_site_fract_y
 _atom_site_fract_z
 _atom_site_occupancy
  Sr  Sr0  1  0.12379500  0.75701100  0.51230100  1
  Sr  Sr1  1  0.87620500  0.24298900  0.01230100  1
  Sr  Sr2  1  0.75701100  0.87620500  0.26230100  1
  Sr  Sr3  1  0.24298900  0.12379500  0.76230100  1
  Sr  Sr4  1  0.23289200  0.72739600  0.87457600  1
  Sr  Sr5  1  0.76710800  0.27260400  0.37457600  1
  Sr  Sr6  1  0.72739600  0.76710800  0.62457600  1
  Sr  Sr7  1  0.27260400  0.23289200  0.12457600  1
  Sr  Sr8  1  0.10371700  0.34663800  0.62677400  1
  Sr  Sr9  1  0.89628300  0.65336200  0.12677400  1
  Sr  Sr10  1  0.34663800  0.89628300  0.37677400  1
  Sr  Sr11  1  0.65336200  0.10371700  0.87677400  1
  Sr  Sr12  1  0.52629300  0.15386800  0.52151000  1
  Sr  Sr13  1  0.47370700  0.84613200  0.02151000  1
  Sr  Sr14  1  0.15386800  0.47370700  0.27151000  1
  Sr  Sr15  1  0.84613200  0.52629300  0.77151000  1
  As  As16  1  0.25022300  0.85543600  0.63724300  1
  As  As17  1  0.74977700  0.14456400  0.13724300  1
  As  As18  1  0.85543600  0.74977700  0.38724300  1
  As  As19  1  0.14456400  0.25022300  0.88724300  1
  As  As20  1  0.01760200  0.27783100  0.49632700  1
  As  As21  1  0.98239800  0.72216900  0.99632700  1
  As  As22  1  0.27783100  0.98239800  0.24632700  1
  As  As23  1  0.72216900  0.01760200  0.74632700  1
  As  As24  1  0.31185300  0.60539200  0.73862900  1
  As  As25  1  0.68814700  0.39460800  0.23862900  1
  As  As26  1  0.60539200  0.68814700  0.48862900  1
  As  As27  1  0.39460800  0.31185300  0.98862900  1
  As  As28  1  0.26534400  0.35404100  0.39408300  1
  As  As29  1  0.73465600  0.64595900  0.89408300  1
  As  As30  1  0.35404100  0.73465600  0.14408300  1
  As  As31  1  0.64595900  0.26534400  0.64408300  1
  O  O32  1  0.20089300  0.76499200  0.77546200  1
  O  O33  1  0.79910700  0.23500800  0.27546200  1
  O  O34  1  0.76499200  0.79910700  0.52546200  1
  O  O35  1  0.23500800  0.20089300  0.02546200  1
  O  O36  1  0.40801300  0.88702500  0.58962800  1
  O  O37  1  0.59198700  0.11297500  0.08962800  1
  O  O38  1  0.88702500  0.59198700  0.33962800  1
  O  O39  1  0.11297500  0.40801300  0.83962800  1
  O  O40  1  0.07891700  0.71552200  0.61427200  1
  O  O41  1  0.92108300  0.28447800  0.11427200  1
  O  O42  1  0.71552200  0.92108300  0.36427200  1
  O  O43  1  0.28447800  0.07891700  0.86427200  1
  O  O44  1  0.98589100  0.44558100  0.54089200  1
  O  O45  1  0.01410900  0.55441900  0.04089200  1
  O  O46  1  0.44558100  0.01410900  0.29089200  1
  O  O47  1  0.55441900  0.98589100  0.79089200  1
  O  O48  1  0.16712400  0.11487300  0.51855400  1
  O  O49  1  0.83287600  0.88512700  0.01855400  1
  O  O50  1  0.11487300  0.83287600  0.26855400  1
  O  O51  1  0.88512700  0.16712400  0.76855400  1
  O  O52  1  0.13172100  0.42413500  0.44901200  1
  O  O53  1  0.86827900  0.57586500  0.94901200  1
  O  O54  1  0.42413500  0.86827900  0.19901200  1
  O  O55  1  0.57586500  0.13172100  0.69901200  1
  O  O56  1  0.49834900  0.49930900  0.76306400  1
  O  O57  1  0.50165100  0.50069100  0.26306400  1
  O  O58  1  0.49930900  0.50165100  0.51306400  1
  O  O59  1  0.50069100  0.49834900  0.01306400  1
  O  O60  1  0.17139000  0.04359400  0.66878800  1
  O  O61  1  0.82861000  0.95640600  0.16878800  1
  O  O62  1  0.04359400  0.82861000  0.41878800  1
  O  O63  1  0.95640600  0.17139000  0.91878800  1
  O  O64  1  0.15385300  0.44385700  0.71864500  1
  O  O65  1  0.84614700  0.55614300  0.21864500  1
  O  O66  1  0.44385700  0.84614700  0.46864500  1
  O  O67  1  0.55614300  0.15385300  0.96864500  1
  O  O68  1  0.82408400  0.19778800  0.46772700  1
  O  O69  1  0.17591600  0.80221200  0.96772700  1
  O  O70  1  0.19778800  0.17591600  0.21772700  1
  O  O71  1  0.80221200  0.82408400  0.71772700  1
  O  O72  1  0.32869700  0.55290800  0.36529200  1
  O  O73  1  0.67130300  0.44709200  0.86529200  1
  O  O74  1  0.55290800  0.67130300  0.11529200  1
  O  O75  1  0.44709200  0.32869700  0.61529200  1
  O  O76  1  0.39304900  0.72511800  0.68125400  1
  O  O77  1  0.60695100  0.27488200  0.18125400  1
  O  O78  1  0.72511800  0.60695100  0.43125400  1
  O  O79  1  0.27488200  0.39304900  0.93125400  1
  O  O80  1  0.12043100  0.22693100  0.35624100  1
  O  O81  1  0.87956900  0.77306900  0.85624100  1
  O  O82  1  0.22693100  0.87956900  0.10624100  1
  O  O83  1  0.77306900  0.12043100  0.60624100  1
  O  O84  1  0.44372900  0.21750000  0.41432400  1
  O  O85  1  0.55627100  0.78250100  0.91432400  1
  O  O86  1  0.21750000  0.55627100  0.16432400  1
  O  O87  1  0.78250100  0.44372900  0.66432400  1
