# generated using pymatgen
data_CoN5ClO4
_symmetry_space_group_name_H-M   'P 1'
_cell_length_a   10.44044020
_cell_length_b   10.44044020
_cell_length_c   10.44044020
_cell_angle_alpha   122.87988825
_cell_angle_beta   122.87988825
_cell_angle_gamma   85.08030568
_symmetry_Int_Tables_number   1
_chemical_formula_structural   CoN5ClO4
_chemical_formula_sum   'Co4 N20 Cl4 O16'
_cell_volume   766.59986432
_cell_formula_units_Z   4
loop_
 _symmetry_equiv_pos_site_id
 _symmetry_equiv_pos_as_xyz
  1  'x, y, z'
loop_
 _atom_site_type_symbol
 _atom_site_label
 _atom_site_symmetry_multiplicity
 _atom_site_fract_x
 _atom_site_fract_y
 _atom_site_fract_z
 _atom_site_occupancy
  Co  Co0  1  0.72789400  0.72789400  0.00000000  1
  Co  Co1  1  0.02210600  0.52210600  0.50000000  1
  Co  Co2  1  0.27210600  0.27210600  0.00000000  1
  Co  Co3  1  0.47789400  0.97789400  0.50000000  1
  N  N4  1  0.93041300  0.81243500  0.27806700  1
  N  N5  1  0.53436800  0.65234600  0.72193300  1
  N  N6  1  0.21563200  0.59765400  0.77806700  1
  N  N7  1  0.81958700  0.43756500  0.22193300  1
  N  N8  1  0.34765400  0.06958700  0.88202200  1
  N  N9  1  0.18756500  0.46563200  0.11797800  1
  N  N10  1  0.56243500  0.78436800  0.38202200  1
  N  N11  1  0.40234600  0.18041300  0.61797800  1
  N  N12  1  0.62536100  0.62536100  0.00000000  1
  N  N13  1  0.12463900  0.62463900  0.50000000  1
  N  N14  1  0.37463900  0.37463900  0.00000000  1
  N  N15  1  0.37536100  0.87536100  0.50000000  1
  N  N16  1  0.80239600  0.55158600  0.89309800  1
  N  N17  1  0.65848800  0.90929800  0.10690200  1
  N  N18  1  0.09151200  0.34070200  0.39309800  1
  N  N19  1  0.94760400  0.69841400  0.60690200  1
  N  N20  1  0.09070200  0.19760400  0.74919000  1
  N  N21  1  0.44841400  0.34151200  0.25081000  1
  N  N22  1  0.30158600  0.90848800  0.24919000  1
  N  N23  1  0.65929800  0.05239600  0.75081000  1
  Cl  Cl24  1  0.87275100  0.87275100  0.00000000  1
  Cl  Cl25  1  0.87724900  0.37724900  0.50000000  1
  Cl  Cl26  1  0.12724900  0.12724900  0.00000000  1
  Cl  Cl27  1  0.62275100  0.12275100  0.50000000  1
  O  O28  1  0.90725100  0.88293000  0.39858900  1
  O  O29  1  0.48434100  0.50866100  0.60141100  1
  O  O30  1  0.26565900  0.74133900  0.89858900  1
  O  O31  1  0.84274900  0.36707000  0.10141100  1
  O  O32  1  0.49133900  0.09274900  0.97568000  1
  O  O33  1  0.11707000  0.51565900  0.02432000  1
  O  O34  1  0.63293000  0.73434100  0.47568000  1
  O  O35  1  0.25866100  0.15725100  0.52432000  1
  O  O36  1  0.05065800  0.78323100  0.29116900  1
  O  O37  1  0.49206100  0.75948800  0.70883100  1
  O  O38  1  0.25793900  0.49051200  0.79116900  1
  O  O39  1  0.69934200  0.46676900  0.20883100  1
  O  O40  1  0.24051200  0.94934200  0.73257300  1
  O  O41  1  0.21676900  0.50793900  0.26742700  1
  O  O42  1  0.53323100  0.74206100  0.23257300  1
  O  O43  1  0.50948800  0.30065800  0.76742700  1
