# generated using pymatgen
data_SiO2
_symmetry_space_group_name_H-M   'P 1'
_cell_length_a   24.99805900
_cell_length_b   7.22631300
_cell_length_c   7.25259069
_cell_angle_alpha   60.33262624
_cell_angle_beta   90.00000000
_cell_angle_gamma   90.00000000
_symmetry_Int_Tables_number   1
_chemical_formula_structural   SiO2
_chemical_formula_sum   'Si32 O64'
_cell_volume   1138.39445846
_cell_formula_units_Z   32
loop_
 _symmetry_equiv_pos_site_id
 _symmetry_equiv_pos_as_xyz
  1  'x, y, z'
loop_
 _atom_site_type_symbol
 _atom_site_label
 _atom_site_symmetry_multiplicity
 _atom_site_fract_x
 _atom_site_fract_y
 _atom_site_fract_z
 _atom_site_occupancy
  Si  Si0  1  0.70468100  0.73500500  0.25987100  1
  Si  Si1  1  0.79531900  0.23500500  0.25987100  1
  Si  Si2  1  0.29531900  0.26499500  0.74012900  1
  Si  Si3  1  0.20468100  0.76499500  0.74012900  1
  Si  Si4  1  0.82136100  0.87240900  0.15703300  1
  Si  Si5  1  0.67863900  0.37240900  0.15703300  1
  Si  Si6  1  0.17863900  0.12759100  0.84296700  1
  Si  Si7  1  0.32136100  0.62759100  0.84296700  1
  Si  Si8  1  0.56809500  0.10911900  0.30947400  1
  Si  Si9  1  0.93190500  0.60911900  0.30947400  1
  Si  Si10  1  0.43190500  0.89088100  0.69052600  1
  Si  Si11  1  0.06809500  0.39088100  0.69052600  1
  Si  Si12  1  0.79588700  0.22309000  0.69486800  1
  Si  Si13  1  0.70411300  0.72309000  0.69486800  1
  Si  Si14  1  0.20411300  0.77691000  0.30513200  1
  Si  Si15  1  0.29588700  0.27691000  0.30513200  1
  Si  Si16  1  0.57416300  0.39584200  0.66934000  1
  Si  Si17  1  0.92583700  0.89584200  0.66934000  1
  Si  Si18  1  0.42583700  0.60415800  0.33066000  1
  Si  Si19  1  0.07416300  0.10415800  0.33066000  1
  Si  Si20  1  0.45560400  0.26346600  0.78924700  1
  Si  Si21  1  0.04439600  0.76346600  0.78924700  1
  Si  Si22  1  0.54439600  0.73653400  0.21075300  1
  Si  Si23  1  0.95560400  0.23653400  0.21075300  1
  Si  Si24  1  0.67824100  0.08821100  0.79838400  1
  Si  Si25  1  0.82175900  0.58821100  0.79838400  1
  Si  Si26  1  0.32175900  0.91178900  0.20161600  1
  Si  Si27  1  0.17824100  0.41178900  0.20161600  1
  Si  Si28  1  0.45205500  0.24276900  0.22658000  1
  Si  Si29  1  0.04794500  0.74276900  0.22658000  1
  Si  Si30  1  0.54794500  0.75723100  0.77342000  1
  Si  Si31  1  0.95205500  0.25723100  0.77342000  1
  O  O32  1  0.81448000  0.99945600  0.89952200  1
  O  O33  1  0.68552000  0.49945600  0.89952200  1
  O  O34  1  0.18552000  0.00054400  0.10047800  1
  O  O35  1  0.31448000  0.50054400  0.10047800  1
  O  O36  1  0.76977800  0.71333100  0.25633600  1
  O  O37  1  0.73022200  0.21333100  0.25633600  1
  O  O38  1  0.23022200  0.28666900  0.74366400  1
  O  O39  1  0.26977800  0.78666900  0.74366400  1
  O  O40  1  0.82340700  0.42174500  0.70682400  1
  O  O41  1  0.67659300  0.92174500  0.70682400  1
  O  O42  1  0.17659300  0.57825500  0.29317600  1
  O  O43  1  0.32340700  0.07825500  0.29317600  1
  O  O44  1  0.62538700  0.23776400  0.73433000  1
  O  O45  1  0.87461300  0.73776400  0.73433000  1
  O  O46  1  0.37461300  0.76223600  0.26567000  1
  O  O47  1  0.12538700  0.26223600  0.26567000  1
  O  O48  1  0.68403100  0.95584100  0.05608500  1
  O  O49  1  0.81596900  0.45584100  0.05608500  1
  O  O50  1  0.31596900  0.04415900  0.94391500  1
  O  O51  1  0.18403100  0.54415900  0.94391500  1
  O  O52  1  0.52073300  0.25541800  0.78179000  1
  O  O53  1  0.97926700  0.75541800  0.78179000  1
  O  O54  1  0.47926700  0.74458200  0.21821000  1
  O  O55  1  0.02073300  0.24458200  0.21821000  1
  O  O56  1  0.51719000  0.27408200  0.21761200  1
  O  O57  1  0.98281000  0.77408200  0.21761200  1
  O  O58  1  0.48281000  0.72591800  0.78238800  1
  O  O59  1  0.01719000  0.22591800  0.78238800  1
  O  O60  1  0.56368700  0.98581800  0.56822700  1
  O  O61  1  0.93631300  0.48581800  0.56822700  1
  O  O62  1  0.43631300  0.01418200  0.43177300  1
  O  O63  1  0.06368700  0.51418200  0.43177300  1
  O  O64  1  0.57858900  0.57083200  0.74971200  1
  O  O65  1  0.92141100  0.07083200  0.74971200  1
  O  O66  1  0.42141100  0.42916800  0.25028800  1
  O  O67  1  0.07858900  0.92916800  0.25028800  1
  O  O68  1  0.68527700  0.72911600  0.47708200  1
  O  O69  1  0.81472300  0.22911600  0.47708200  1
  O  O70  1  0.31472300  0.27088400  0.52291800  1
  O  O71  1  0.18527700  0.77088400  0.52291800  1
  O  O72  1  0.67817100  0.53609600  0.24983200  1
  O  O73  1  0.82182900  0.03609600  0.24983200  1
  O  O74  1  0.32182900  0.46390400  0.75016800  1
  O  O75  1  0.17817100  0.96390400  0.75016800  1
  O  O76  1  0.73073400  0.24163100  0.69803600  1
  O  O77  1  0.76926600  0.74163100  0.69803600  1
  O  O78  1  0.26926600  0.75836900  0.30196400  1
  O  O79  1  0.23073400  0.25836900  0.30196400  1
  O  O80  1  0.43365100  0.24947300  0.00773600  1
  O  O81  1  0.06634900  0.74947300  0.00773600  1
  O  O82  1  0.56634900  0.75052700  0.99226400  1
  O  O83  1  0.93365100  0.25052700  0.99226400  1
  O  O84  1  0.56625100  0.94104100  0.22257000  1
  O  O85  1  0.93374900  0.44104100  0.22257000  1
  O  O86  1  0.43374900  0.05895900  0.77743000  1
  O  O87  1  0.06625100  0.55895900  0.77743000  1
  O  O88  1  0.62360900  0.23940000  0.22626800  1
  O  O89  1  0.87639100  0.73940000  0.22626800  1
  O  O90  1  0.37639100  0.76060000  0.77373200  1
  O  O91  1  0.12360900  0.26060000  0.77373200  1
  O  O92  1  0.56730600  0.51860500  0.41199600  1
  O  O93  1  0.93269400  0.01860500  0.41199600  1
  O  O94  1  0.43269400  0.48139500  0.58800400  1
  O  O95  1  0.06730600  0.98139500  0.58800400  1
