# generated using pymatgen
data_ZnS
_symmetry_space_group_name_H-M   'P 1'
_cell_length_a   3.87397992
_cell_length_b   3.87397992
_cell_length_c   56.37147796
_cell_angle_alpha   88.03086266
_cell_angle_beta   88.03086266
_cell_angle_gamma   60.00000139
_symmetry_Int_Tables_number   1
_chemical_formula_structural   ZnS
_chemical_formula_sum   'Zn18 S18'
_cell_volume   732.08696715
_cell_formula_units_Z   18
loop_
 _symmetry_equiv_pos_site_id
 _symmetry_equiv_pos_as_xyz
  1  'x, y, z'
loop_
 _atom_site_type_symbol
 _atom_site_label
 _atom_site_symmetry_multiplicity
 _atom_site_fract_x
 _atom_site_fract_y
 _atom_site_fract_z
 _atom_site_occupancy
  Zn  Zn0  1  0.99999400  0.99999400  0.00001700  1
  Zn  Zn1  1  0.94444100  0.94444100  0.16667600  1
  Zn  Zn2  1  0.88888200  0.88888200  0.33335400  1
  Zn  Zn3  1  0.83333000  0.83333000  0.50000900  1
  Zn  Zn4  1  0.77777900  0.77777900  0.66666200  1
  Zn  Zn5  1  0.72221400  0.72221400  0.83335700  1
  Zn  Zn6  1  0.64815100  0.64815100  0.05554700  1
  Zn  Zn7  1  0.59258800  0.59258800  0.22223700  1
  Zn  Zn8  1  0.53703000  0.53703000  0.38890900  1
  Zn  Zn9  1  0.46296400  0.46296400  0.61110900  1
  Zn  Zn10  1  0.40740400  0.40740400  0.77778800  1
  Zn  Zn11  1  0.35184900  0.35184900  0.94445300  1
  Zn  Zn12  1  0.29630000  0.29630000  0.11110000  1
  Zn  Zn13  1  0.24073700  0.24073700  0.27779000  1
  Zn  Zn14  1  0.18518500  0.18518500  0.44444500  1
  Zn  Zn15  1  0.14814300  0.14814300  0.55557000  1
  Zn  Zn16  1  0.09258900  0.09258900  0.72223200  1
  Zn  Zn17  1  0.03703400  0.03703400  0.88889800  1
  S  S18  1  0.98611800  0.98611800  0.04164600  1
  S  S19  1  0.93056200  0.93056200  0.20831500  1
  S  S20  1  0.87501400  0.87501400  0.37495900  1
  S  S21  1  0.81944000  0.81944000  0.54167900  1
  S  S22  1  0.76389800  0.76389800  0.70830600  1
  S  S23  1  0.70835000  0.70835000  0.87495000  1
  S  S24  1  0.63427000  0.63427000  0.09719100  1
  S  S25  1  0.57871200  0.57871200  0.26386400  1
  S  S26  1  0.52316700  0.52316700  0.43050000  1
  S  S27  1  0.44908100  0.44908100  0.65275700  1
  S  S28  1  0.39353300  0.39353300  0.81940000  1
  S  S29  1  0.33796100  0.33796100  0.98611700  1
  S  S30  1  0.28241800  0.28241800  0.15274600  1
  S  S31  1  0.22686200  0.22686200  0.31941300  1
  S  S32  1  0.17133000  0.17133000  0.48601100  1
  S  S33  1  0.13426600  0.13426600  0.59720200  1
  S  S34  1  0.07871400  0.07871400  0.76385700  1
  S  S35  1  0.02317900  0.02317900  0.93046300  1
