# generated using pymatgen
data_Np2Co(O4F5)2
_symmetry_space_group_name_H-M   'P 1'
_cell_length_a   6.76806900
_cell_length_b   8.70559300
_cell_length_c   11.04989475
_cell_angle_alpha   82.35842189
_cell_angle_beta   90.00000000
_cell_angle_gamma   90.00000000
_symmetry_Int_Tables_number   1
_chemical_formula_structural   Np2Co(O4F5)2
_chemical_formula_sum   'Np4 Co2 O16 F20'
_cell_volume   645.27852748
_cell_formula_units_Z   2
loop_
 _symmetry_equiv_pos_site_id
 _symmetry_equiv_pos_as_xyz
  1  'x, y, z'
loop_
 _atom_site_type_symbol
 _atom_site_label
 _atom_site_symmetry_multiplicity
 _atom_site_fract_x
 _atom_site_fract_y
 _atom_site_fract_z
 _atom_site_occupancy
  Np  Np0  1  0.36730900  0.69344600  0.93555400  1
  Np  Np1  1  0.86730900  0.80655400  0.06444600  1
  Np  Np2  1  0.63269100  0.30655400  0.06444600  1
  Np  Np3  1  0.13269100  0.19344600  0.93555400  1
  Co  Co4  1  0.50000000  0.50000000  0.50000000  1
  Co  Co5  1  0.00000000  0.00000000  0.50000000  1
  O  O6  1  0.85217300  0.57423300  0.65911300  1
  O  O7  1  0.35217300  0.92576700  0.34088700  1
  O  O8  1  0.14782700  0.42576700  0.34088700  1
  O  O9  1  0.64782700  0.07423300  0.65911300  1
  O  O10  1  0.04522100  0.87599100  0.63388700  1
  O  O11  1  0.54522100  0.62400900  0.36611300  1
  O  O12  1  0.95477900  0.12400900  0.36611300  1
  O  O13  1  0.45477900  0.37599100  0.63388700  1
  O  O14  1  0.69607900  0.63359100  0.62152900  1
  O  O15  1  0.19607900  0.86640900  0.37847100  1
  O  O16  1  0.30392100  0.36640900  0.37847100  1
  O  O17  1  0.80392100  0.13359100  0.62152900  1
  O  O18  1  0.27463100  0.56314900  0.55089800  1
  O  O19  1  0.77463100  0.93685100  0.44910200  1
  O  O20  1  0.72536900  0.43685100  0.44910200  1
  O  O21  1  0.22536900  0.06314900  0.55089800  1
  F  F22  1  0.30731000  0.93519700  0.91340700  1
  F  F23  1  0.80731000  0.56480300  0.08659300  1
  F  F24  1  0.69269000  0.06480300  0.08659300  1
  F  F25  1  0.19269000  0.43519700  0.91340700  1
  F  F26  1  0.03631300  0.71730400  0.90671400  1
  F  F27  1  0.53631300  0.78269600  0.09328600  1
  F  F28  1  0.96368700  0.28269600  0.09328600  1
  F  F29  1  0.46368700  0.21730400  0.90671400  1
  F  F30  1  0.57397600  0.50464200  0.90135300  1
  F  F31  1  0.07397600  0.99535800  0.09864700  1
  F  F32  1  0.42602400  0.49535800  0.09864700  1
  F  F33  1  0.92602400  0.00464200  0.90135300  1
  F  F34  1  0.65999500  0.79282200  0.88789500  1
  F  F35  1  0.15999500  0.70717800  0.11210500  1
  F  F36  1  0.34000500  0.20717800  0.11210500  1
  F  F37  1  0.84000500  0.29282200  0.88789500  1
  F  F38  1  0.34644800  0.70746400  0.75494900  1
  F  F39  1  0.84644800  0.79253600  0.24505100  1
  F  F40  1  0.65355200  0.29253600  0.24505100  1
  F  F41  1  0.15355200  0.20746400  0.75494900  1
