# generated using pymatgen
data_AgH4CSN2Cl
_symmetry_space_group_name_H-M   'P 1'
_cell_length_a   7.50474600
_cell_length_b   8.60325700
_cell_length_c   16.94059400
_cell_angle_alpha   90.00000000
_cell_angle_beta   90.00000000
_cell_angle_gamma   90.00000000
_symmetry_Int_Tables_number   1
_chemical_formula_structural   AgH4CSN2Cl
_chemical_formula_sum   'Ag8 H32 C8 S8 N16 Cl8'
_cell_volume   1093.77383173
_cell_formula_units_Z   8
loop_
 _symmetry_equiv_pos_site_id
 _symmetry_equiv_pos_as_xyz
  1  'x, y, z'
loop_
 _atom_site_type_symbol
 _atom_site_label
 _atom_site_symmetry_multiplicity
 _atom_site_fract_x
 _atom_site_fract_y
 _atom_site_fract_z
 _atom_site_occupancy
  Ag  Ag0  1  0.33997000  0.33003900  0.20727000  1
  Ag  Ag1  1  0.16003000  0.83003900  0.79273000  1
  Ag  Ag2  1  0.83997000  0.66996100  0.29273000  1
  Ag  Ag3  1  0.66003000  0.16996100  0.70727000  1
  Ag  Ag4  1  0.66003000  0.66996100  0.79273000  1
  Ag  Ag5  1  0.83997000  0.16996100  0.20727000  1
  Ag  Ag6  1  0.16003000  0.33003900  0.70727000  1
  Ag  Ag7  1  0.33997000  0.83003900  0.29273000  1
  H  H8  1  0.60916200  0.14801800  0.45345200  1
  H  H9  1  0.89083800  0.64801800  0.54654800  1
  H  H10  1  0.10916200  0.85198200  0.04654800  1
  H  H11  1  0.39083800  0.35198200  0.95345200  1
  H  H12  1  0.39083800  0.85198200  0.54654800  1
  H  H13  1  0.10916200  0.35198200  0.45345200  1
  H  H14  1  0.89083800  0.14801800  0.95345200  1
  H  H15  1  0.60916200  0.64801800  0.04654800  1
  H  H16  1  0.64683000  0.09866500  0.35471700  1
  H  H17  1  0.85317000  0.59866500  0.64528300  1
  H  H18  1  0.14683000  0.90133500  0.14528300  1
  H  H19  1  0.35317000  0.40133500  0.85471700  1
  H  H20  1  0.35317000  0.90133500  0.64528300  1
  H  H21  1  0.14683000  0.40133500  0.35471700  1
  H  H22  1  0.85317000  0.09866500  0.85471700  1
  H  H23  1  0.64683000  0.59866500  0.14528300  1
  H  H24  1  0.63322800  0.39398000  0.49505900  1
  H  H25  1  0.86677200  0.89398000  0.50494100  1
  H  H26  1  0.13322800  0.60602000  0.00494100  1
  H  H27  1  0.36677200  0.10602000  0.99505900  1
  H  H28  1  0.36677200  0.60602000  0.50494100  1
  H  H29  1  0.13322800  0.10602000  0.49505900  1
  H  H30  1  0.86677200  0.39398000  0.99505900  1
  H  H31  1  0.63322800  0.89398000  0.00494100  1
  H  H32  1  0.66013900  0.54926600  0.42719400  1
  H  H33  1  0.83986100  0.04926600  0.57280600  1
  H  H34  1  0.16013900  0.45073400  0.07280600  1
  H  H35  1  0.33986100  0.95073400  0.92719400  1
  H  H36  1  0.33986100  0.45073400  0.57280600  1
  H  H37  1  0.16013900  0.95073400  0.42719400  1
  H  H38  1  0.83986100  0.54926600  0.92719400  1
  H  H39  1  0.66013900  0.04926600  0.07280600  1
  C  C40  1  0.66833300  0.32981900  0.38070900  1
  C  C41  1  0.83166700  0.82981900  0.61929100  1
  C  C42  1  0.16833300  0.67018100  0.11929100  1
  C  C43  1  0.33166700  0.17018100  0.88070900  1
  C  C44  1  0.33166700  0.67018100  0.61929100  1
  C  C45  1  0.16833300  0.17018100  0.38070900  1
  C  C46  1  0.83166700  0.32981900  0.88070900  1
  C  C47  1  0.66833300  0.82981900  0.11929100  1
  S  S48  1  0.70415400  0.39078700  0.28425200  1
  S  S49  1  0.79584600  0.89078700  0.71574800  1
  S  S50  1  0.20415400  0.60921300  0.21574800  1
  S  S51  1  0.29584600  0.10921300  0.78425200  1
  S  S52  1  0.29584600  0.60921300  0.71574800  1
  S  S53  1  0.20415400  0.10921300  0.28425200  1
  S  S54  1  0.79584600  0.39078700  0.78425200  1
  S  S55  1  0.70415400  0.89078700  0.21574800  1
  N  N56  1  0.65273800  0.17935600  0.39834400  1
  N  N57  1  0.84726200  0.67935600  0.60165600  1
  N  N58  1  0.15273800  0.82064400  0.10165600  1
  N  N59  1  0.34726200  0.32064400  0.89834400  1
  N  N60  1  0.34726200  0.82064400  0.60165600  1
  N  N61  1  0.15273800  0.32064400  0.39834400  1
  N  N62  1  0.84726200  0.17935600  0.89834400  1
  N  N63  1  0.65273800  0.67935600  0.10165600  1
  N  N64  1  0.65399300  0.43274100  0.43873300  1
  N  N65  1  0.84600700  0.93274100  0.56126700  1
  N  N66  1  0.15399300  0.56725900  0.06126700  1
  N  N67  1  0.34600700  0.06725900  0.93873300  1
  N  N68  1  0.34600700  0.56725900  0.56126700  1
  N  N69  1  0.15399300  0.06725900  0.43873300  1
  N  N70  1  0.84600700  0.43274100  0.93873300  1
  N  N71  1  0.65399300  0.93274100  0.06126700  1
  Cl  Cl72  1  0.52683500  0.30127500  0.08162400  1
  Cl  Cl73  1  0.97316500  0.80127500  0.91837600  1
  Cl  Cl74  1  0.02683500  0.69872500  0.41837600  1
  Cl  Cl75  1  0.47316500  0.19872500  0.58162400  1
  Cl  Cl76  1  0.47316500  0.69872500  0.91837600  1
  Cl  Cl77  1  0.02683500  0.19872500  0.08162400  1
  Cl  Cl78  1  0.97316500  0.30127500  0.58162400  1
  Cl  Cl79  1  0.52683500  0.80127500  0.41837600  1
