# generated using pymatgen
data_FeH21C7S3N
_symmetry_space_group_name_H-M   'P 1'
_cell_length_a   10.30225100
_cell_length_b   9.90137800
_cell_length_c   18.74979872
_cell_angle_alpha   90.00000000
_cell_angle_beta   121.20038170
_cell_angle_gamma   90.00000000
_symmetry_Int_Tables_number   1
_chemical_formula_structural   FeH21C7S3N
_chemical_formula_sum   'Fe4 H84 C28 S12 N4'
_cell_volume   1635.96393371
_cell_formula_units_Z   4
loop_
 _symmetry_equiv_pos_site_id
 _symmetry_equiv_pos_as_xyz
  1  'x, y, z'
loop_
 _atom_site_type_symbol
 _atom_site_label
 _atom_site_symmetry_multiplicity
 _atom_site_fract_x
 _atom_site_fract_y
 _atom_site_fract_z
 _atom_site_occupancy
  Fe  Fe0  1  0.01452500  0.39472600  0.44624800  1
  Fe  Fe1  1  0.01452500  0.10527400  0.94624800  1
  Fe  Fe2  1  0.98547500  0.60527400  0.55375200  1
  Fe  Fe3  1  0.98547500  0.89472600  0.05375200  1
  H  H4  1  0.85187000  0.46112300  0.24458600  1
  H  H5  1  0.85187000  0.03887700  0.74458600  1
  H  H6  1  0.14813000  0.53887700  0.75541400  1
  H  H7  1  0.14813000  0.96112300  0.25541400  1
  H  H8  1  0.86862600  0.28725800  0.22579400  1
  H  H9  1  0.86862600  0.21274200  0.72579400  1
  H  H10  1  0.13137400  0.71274200  0.77420600  1
  H  H11  1  0.13137400  0.78725800  0.27420600  1
  H  H12  1  0.68578400  0.36135600  0.18347100  1
  H  H13  1  0.68578400  0.13864400  0.68347100  1
  H  H14  1  0.31421600  0.63864400  0.81652900  1
  H  H15  1  0.31421600  0.86135600  0.31652900  1
  H  H16  1  0.34911700  0.08655300  0.49791900  1
  H  H17  1  0.34911700  0.41344700  0.99791900  1
  H  H18  1  0.65088300  0.91344700  0.50208100  1
  H  H19  1  0.65088300  0.58655300  0.00208100  1
  H  H20  1  0.16415300  0.08307700  0.48410200  1
  H  H21  1  0.16415300  0.41692300  0.98410200  1
  H  H22  1  0.83584700  0.91692300  0.51589800  1
  H  H23  1  0.83584700  0.58307700  0.01589800  1
  H  H24  1  0.18511300  0.09540600  0.39599100  1
  H  H25  1  0.18511300  0.40459400  0.89599100  1
  H  H26  1  0.81488700  0.90459400  0.60400900  1
  H  H27  1  0.81488700  0.59540600  0.10400900  1
  H  H28  1  0.73115200  0.27514400  0.45720700  1
  H  H29  1  0.73115200  0.22485600  0.95720700  1
  H  H30  1  0.26884800  0.72485600  0.54279300  1
  H  H31  1  0.26884800  0.77514400  0.04279300  1
  H  H32  1  0.79489200  0.21573200  0.56030700  1
  H  H33  1  0.79489200  0.28426800  0.06030700  1
  H  H34  1  0.20510800  0.78426800  0.43969300  1
  H  H35  1  0.20510800  0.71573200  0.93969300  1
  H  H36  1  0.71799000  0.38246500  0.53005000  1
  H  H37  1  0.71799000  0.11753500  0.03005000  1
  H  H38  1  0.28201000  0.61753500  0.46995000  1
  H  H39  1  0.28201000  0.88246500  0.96995000  1
  H  H40  1  0.69543200  0.48052000  0.83627400  1
  H  H41  1  0.69543200  0.01948000  0.33627400  1
  H  H42  1  0.30456800  0.51948000  0.16372600  1
  H  H43  1  0.30456800  0.98052000  0.66372600  1
  H  H44  1  0.54475200  0.60463800  0.79636100  1
  H  H45  1  0.54475200  0.89536200  0.29636100  1
  H  H46  1  0.45524800  0.39536200  0.20363900  1
  H  H47  1  0.45524800  0.10463800  0.70363900  1
  H  H48  1  0.73982300  0.65743100  0.86046000  1
  H  H49  1  0.73982300  0.84256900  0.36046000  1
  H  H50  1  0.26017700  0.34256900  0.13954000  1
  H  H51  1  0.26017700  0.15743100  0.63954000  1
  H  H52  1  0.90659600  0.63989900  0.80513300  1
  H  H53  1  0.90659600  0.86010100  0.30513300  1
  H  H54  1  0.09340400  0.36010100  0.19486700  1
  H  H55  1  0.09340400  0.13989900  0.69486700  1
  H  H56  1  0.83267400  0.58149200  0.69969500  1
  H  H57  1  0.83267400  0.91850800  0.19969500  1
  H  H58  1  0.16732600  0.41850800  0.30030500  1
  H  H59  1  0.16732600  0.08149200  0.80030500  1
  H  H60  1  0.85544900  0.46448300  0.78011600  1
  H  H61  1  0.85544900  0.03551700  0.28011600  1
  H  H62  1  0.14455100  0.53551700  0.21988400  1
  H  H63  1  0.14455100  0.96448300  0.71988400  1
  H  H64  1  0.56978900  0.51693400  0.61531700  1
  H  H65  1  0.56978900  0.98306600  0.11531700  1
  H  H66  1  0.43021100  0.48306600  0.38468300  1
  H  H67  1  0.43021100  0.01693400  0.88468300  1
  H  H68  1  0.59292800  0.40133400  0.69536200  1
  H  H69  1  0.59292800  0.09866600  0.19536200  1
  H  H70  1  0.40707200  0.59866600  0.30463800  1
  H  H71  1  0.40707200  0.90133400  0.80463800  1
  H  H72  1  0.44656100  0.52895800  0.65691000  1
  H  H73  1  0.44656100  0.97104200  0.15691000  1
  H  H74  1  0.55343900  0.47104200  0.34309000  1
  H  H75  1  0.55343900  0.02895800  0.84309000  1
  H  H76  1  0.51548400  0.76171300  0.69149600  1
  H  H77  1  0.51548400  0.73828700  0.19149600  1
  H  H78  1  0.48451600  0.23828700  0.30850400  1
  H  H79  1  0.48451600  0.26171300  0.80850400  1
  H  H80  1  0.63793700  0.75028700  0.64899400  1
  H  H81  1  0.63793700  0.74971300  0.14899400  1
  H  H82  1  0.36206300  0.24971300  0.35100600  1
  H  H83  1  0.36206300  0.25028700  0.85100600  1
  H  H84  1  0.71277900  0.81008800  0.75428400  1
  H  H85  1  0.71277900  0.68991200  0.25428400  1
  H  H86  1  0.28722100  0.18991200  0.24571600  1
  H  H87  1  0.28722100  0.31008800  0.74571600  1
  C  C88  1  0.80196800  0.36038700  0.23790000  1
  C  C89  1  0.80196800  0.13961300  0.73790000  1
  C  C90  1  0.19803200  0.63961300  0.76210000  1
  C  C91  1  0.19803200  0.86038700  0.26210000  1
  C  C92  1  0.23336500  0.12746500  0.46107800  1
  C  C93  1  0.23336500  0.37253500  0.96107800  1
  C  C94  1  0.76663500  0.87253500  0.53892200  1
  C  C95  1  0.76663500  0.62746500  0.03892200  1
  C  C96  1  0.78626000  0.30443700  0.52302300  1
  C  C97  1  0.78626000  0.19556300  0.02302300  1
  C  C98  1  0.21374000  0.69556300  0.47697700  1
  C  C99  1  0.21374000  0.80443700  0.97697700  1
  C  C100  1  0.66225100  0.58444200  0.81371800  1
  C  C101  1  0.66225100  0.91555800  0.31371800  1
  C  C102  1  0.33774900  0.41555800  0.18628200  1
  C  C103  1  0.33774900  0.08444200  0.68628200  1
  C  C104  1  0.82923700  0.56869800  0.75688400  1
  C  C105  1  0.82923700  0.93130200  0.25688400  1
  C  C106  1  0.17076300  0.43130200  0.24311600  1
  C  C107  1  0.17076300  0.06869800  0.74311600  1
  C  C108  1  0.56121600  0.50425400  0.67075800  1
  C  C109  1  0.56121600  0.99574600  0.17075800  1
  C  C110  1  0.43878400  0.49574600  0.32924200  1
  C  C111  1  0.43878400  0.00425400  0.82924200  1
  C  C112  1  0.63112800  0.74211800  0.70531500  1
  C  C113  1  0.63112800  0.75788200  0.20531500  1
  C  C114  1  0.36887200  0.25788200  0.29468500  1
  C  C115  1  0.36887200  0.24211800  0.79468500  1
  S  S116  1  0.79810400  0.31424200  0.33141300  1
  S  S117  1  0.79810400  0.18575800  0.83141300  1
  S  S118  1  0.20189600  0.68575800  0.66858700  1
  S  S119  1  0.20189600  0.81424200  0.16858700  1
  S  S120  1  0.24062000  0.31245000  0.46889700  1
  S  S121  1  0.24062000  0.18755000  0.96889700  1
  S  S122  1  0.75938000  0.68755000  0.53110300  1
  S  S123  1  0.75938000  0.81245000  0.03110300  1
  S  S124  1  0.97808900  0.36736000  0.55966700  1
  S  S125  1  0.97808900  0.13264000  0.05966700  1
  S  S126  1  0.02191100  0.63264000  0.44033300  1
  S  S127  1  0.02191100  0.86736000  0.94033300  1
  N  N128  1  0.67114100  0.59990700  0.73674200  1
  N  N129  1  0.67114100  0.90009300  0.23674200  1
  N  N130  1  0.32885900  0.40009300  0.26325800  1
  N  N131  1  0.32885900  0.09990700  0.76325800  1
