# generated using pymatgen
data_Fe6Pb(SO7)4
_symmetry_space_group_name_H-M   'P 1'
_cell_length_a   12.62466416
_cell_length_b   12.62466416
_cell_length_c   12.62466375
_cell_angle_alpha   32.40722777
_cell_angle_beta   32.40722777
_cell_angle_gamma   32.40723077
_symmetry_Int_Tables_number   1
_chemical_formula_structural   Fe6Pb(SO7)4
_chemical_formula_sum   'Fe6 Pb1 S4 O28'
_cell_volume   513.82527575
_cell_formula_units_Z   1
loop_
 _symmetry_equiv_pos_site_id
 _symmetry_equiv_pos_as_xyz
  1  'x, y, z'
loop_
 _atom_site_type_symbol
 _atom_site_label
 _atom_site_symmetry_multiplicity
 _atom_site_fract_x
 _atom_site_fract_y
 _atom_site_fract_z
 _atom_site_occupancy
  Fe  Fe0  1  0.25861700  0.73972900  0.25861700  1
  Fe  Fe1  1  0.25861700  0.25861700  0.73972900  1
  Fe  Fe2  1  0.73972900  0.25861700  0.25861700  1
  Fe  Fe3  1  0.74138300  0.26027100  0.74138300  1
  Fe  Fe4  1  0.74138300  0.74138300  0.26027100  1
  Fe  Fe5  1  0.26027100  0.74138300  0.74138300  1
  Pb  Pb6  1  0.00000000  0.00000000  0.00000000  1
  S  S7  1  0.84682100  0.84682100  0.84682100  1
  S  S8  1  0.15317900  0.15317900  0.15317900  1
  S  S9  1  0.34582800  0.34582800  0.34582800  1
  S  S10  1  0.65417200  0.65417200  0.65417200  1
  O  O11  1  0.80606900  0.80606900  0.80606900  1
  O  O12  1  0.19393100  0.19393100  0.19393100  1
  O  O13  1  0.30545900  0.30545900  0.30545900  1
  O  O14  1  0.69454100  0.69454100  0.69454100  1
  O  O15  1  0.75465600  0.40800800  0.75465600  1
  O  O16  1  0.75465600  0.75465600  0.40800800  1
  O  O17  1  0.40800800  0.75465600  0.75465600  1
  O  O18  1  0.24534400  0.59199200  0.24534400  1
  O  O19  1  0.24534400  0.24534400  0.59199200  1
  O  O20  1  0.59199200  0.24534400  0.24534400  1
  O  O21  1  0.25550400  0.90741300  0.25550400  1
  O  O22  1  0.25550400  0.25550400  0.90741300  1
  O  O23  1  0.90741300  0.25550400  0.25550400  1
  O  O24  1  0.74449600  0.09258700  0.74449600  1
  O  O25  1  0.74449600  0.74449600  0.09258700  1
  O  O26  1  0.09258700  0.74449600  0.74449600  1
  O  O27  1  0.95824500  0.28911600  0.95824500  1
  O  O28  1  0.95824500  0.95824500  0.28911600  1
  O  O29  1  0.28911600  0.95824500  0.95824500  1
  O  O30  1  0.04175500  0.71088400  0.04175500  1
  O  O31  1  0.04175500  0.04175500  0.71088400  1
  O  O32  1  0.71088400  0.04175500  0.04175500  1
  O  O33  1  0.44276500  0.82665600  0.44276500  1
  O  O34  1  0.44276500  0.44276500  0.82665600  1
  O  O35  1  0.82665600  0.44276500  0.44276500  1
  O  O36  1  0.55723500  0.17334400  0.55723500  1
  O  O37  1  0.55723500  0.55723500  0.17334400  1
  O  O38  1  0.17334400  0.55723500  0.55723500  1
