# generated using pymatgen
data_SnH16Se3N7
_symmetry_space_group_name_H-M   'P 1'
_cell_length_a   6.72416600
_cell_length_b   9.70079890
_cell_length_c   10.07636626
_cell_angle_alpha   94.77331863
_cell_angle_beta   99.26727808
_cell_angle_gamma   104.26669399
_symmetry_Int_Tables_number   1
_chemical_formula_structural   SnH16Se3N7
_chemical_formula_sum   'Sn2 H32 Se6 N14'
_cell_volume   623.48261018
_cell_formula_units_Z   2
loop_
 _symmetry_equiv_pos_site_id
 _symmetry_equiv_pos_as_xyz
  1  'x, y, z'
loop_
 _atom_site_type_symbol
 _atom_site_label
 _atom_site_symmetry_multiplicity
 _atom_site_fract_x
 _atom_site_fract_y
 _atom_site_fract_z
 _atom_site_occupancy
  Sn  Sn0  1  0.69698000  0.61537700  0.62597100  1
  Sn  Sn1  1  0.30302000  0.38462300  0.37402900  1
  H  H2  1  0.50740900  0.16164900  0.79849500  1
  H  H3  1  0.49259100  0.83835100  0.20150500  1
  H  H4  1  0.86354600  0.96237000  0.87253200  1
  H  H5  1  0.13645400  0.03763000  0.12746800  1
  H  H6  1  0.48441200  0.17232000  0.63466000  1
  H  H7  1  0.51558800  0.82768000  0.36534000  1
  H  H8  1  0.78077900  0.11008400  0.05730200  1
  H  H9  1  0.21922100  0.88991600  0.94269800  1
  H  H10  1  0.82295900  0.19238600  0.71014300  1
  H  H11  1  0.17704100  0.80761400  0.28985700  1
  H  H12  1  0.00935800  0.22169200  0.60752000  1
  H  H13  1  0.99064200  0.77830800  0.39248000  1
  H  H14  1  0.30713100  0.95205400  0.62533600  1
  H  H15  1  0.69286900  0.04794600  0.37466400  1
  H  H16  1  0.54633300  0.92641200  0.63397300  1
  H  H17  1  0.45366700  0.07358800  0.36602700  1
  H  H18  1  0.09745600  0.32427800  0.89199400  1
  H  H19  1  0.90254400  0.67572200  0.10800600  1
  H  H20  1  0.86145600  0.26674700  0.16664300  1
  H  H21  1  0.13854400  0.73325300  0.83335700  1
  H  H22  1  0.51817000  0.30205100  0.09710700  1
  H  H23  1  0.48183000  0.69794900  0.90289300  1
  H  H24  1  0.65243500  0.12804700  0.19024300  1
  H  H25  1  0.34756500  0.87195300  0.80975700  1
  H  H26  1  0.82818700  0.88522200  0.00769000  1
  H  H27  1  0.17181300  0.11477800  0.99231000  1
  H  H28  1  0.93929600  0.36105000  0.68519300  1
  H  H29  1  0.06070400  0.63895000  0.31480700  1
  H  H30  1  0.66498800  0.31589000  0.98239300  1
  H  H31  1  0.33501200  0.68411000  0.01760700  1
  H  H32  1  0.26343600  0.33836600  0.78866200  1
  H  H33  1  0.73656400  0.66163400  0.21133800  1
  Se  Se34  1  0.87359300  0.86406700  0.58655100  1
  Se  Se35  1  0.12640700  0.13593300  0.41344900  1
  Se  Se36  1  0.28823200  0.57162000  0.57379600  1
  Se  Se37  1  0.71176800  0.42838000  0.42620400  1
  Se  Se38  1  0.81404500  0.53944800  0.85172900  1
  Se  Se39  1  0.18595500  0.46055200  0.14827100  1
  N  N40  1  0.72896000  0.18606500  0.11841600  1
  N  N41  1  0.27104000  0.81393500  0.88158400  1
  N  N42  1  0.45256900  0.97125300  0.68598400  1
  N  N43  1  0.54743100  0.02874700  0.31401600  1
  N  N44  1  0.96766500  0.26151300  0.69672200  1
  N  N45  1  0.03233500  0.73848700  0.30327800  1
  N  N46  1  0.58024000  0.24196100  0.03359400  1
  N  N47  1  0.41976000  0.75803900  0.96640600  1
  N  N48  1  0.54921100  0.12412800  0.71182100  1
  N  N49  1  0.45078900  0.87587200  0.28817900  1
  N  N50  1  0.88631800  0.98298100  0.97658300  1
  N  N51  1  0.11368200  0.01701900  0.02341700  1
  N  N52  1  0.13329200  0.26968500  0.81018300  1
  N  N53  1  0.86670800  0.73031500  0.18981700  1
