# generated using pymatgen
data_TbCrO5
_symmetry_space_group_name_H-M   'P 1'
_cell_length_a   8.26378872
_cell_length_b   8.35388021
_cell_length_c   11.55779100
_cell_angle_alpha   90.00000000
_cell_angle_beta   90.00000000
_cell_angle_gamma   90.77077671
_symmetry_Int_Tables_number   1
_chemical_formula_structural   TbCrO5
_chemical_formula_sum   'Tb8 Cr8 O40'
_cell_volume   797.81645034
_cell_formula_units_Z   8
loop_
 _symmetry_equiv_pos_site_id
 _symmetry_equiv_pos_as_xyz
  1  'x, y, z'
loop_
 _atom_site_type_symbol
 _atom_site_label
 _atom_site_symmetry_multiplicity
 _atom_site_fract_x
 _atom_site_fract_y
 _atom_site_fract_z
 _atom_site_occupancy
  Tb  Tb0  1  0.13286700  0.33344200  0.94016300  1
  Tb  Tb1  1  0.36713300  0.16655800  0.44016300  1
  Tb  Tb2  1  0.86713300  0.66655800  0.05983700  1
  Tb  Tb3  1  0.63286700  0.83344200  0.55983700  1
  Tb  Tb4  1  0.56972100  0.32122500  0.92241700  1
  Tb  Tb5  1  0.93027900  0.17877500  0.42241700  1
  Tb  Tb6  1  0.43027900  0.67877500  0.07758300  1
  Tb  Tb7  1  0.06972100  0.82122500  0.57758300  1
  Cr  Cr8  1  0.36300900  0.50042800  0.67331100  1
  Cr  Cr9  1  0.13699100  0.99957200  0.17331100  1
  Cr  Cr10  1  0.63699100  0.49957200  0.32668900  1
  Cr  Cr11  1  0.86300900  0.00042800  0.82668900  1
  Cr  Cr12  1  0.86125300  0.45655500  0.68973700  1
  Cr  Cr13  1  0.63874700  0.04344500  0.18973700  1
  Cr  Cr14  1  0.13874700  0.54344500  0.31026300  1
  Cr  Cr15  1  0.36125300  0.95655500  0.81026300  1
  O  O16  1  0.34349500  0.43446400  0.81175100  1
  O  O17  1  0.15650500  0.06553600  0.31175100  1
  O  O18  1  0.65650500  0.56553600  0.18824900  1
  O  O19  1  0.84349500  0.93446400  0.68824900  1
  O  O20  1  0.19335200  0.58392600  0.63161900  1
  O  O21  1  0.30664800  0.91607400  0.13161900  1
  O  O22  1  0.80664800  0.41607400  0.36838100  1
  O  O23  1  0.69335200  0.08392600  0.86838100  1
  O  O24  1  0.50478400  0.63985100  0.66757700  1
  O  O25  1  0.99521600  0.86014900  0.16757700  1
  O  O26  1  0.49521600  0.36014900  0.33242300  1
  O  O27  1  0.00478400  0.13985100  0.83242300  1
  O  O28  1  0.40365700  0.34872800  0.58608600  1
  O  O29  1  0.09634300  0.15127200  0.08608600  1
  O  O30  1  0.59634300  0.65127200  0.41391400  1
  O  O31  1  0.90365700  0.84872800  0.91391400  1
  O  O32  1  0.68617700  0.39330200  0.74075800  1
  O  O33  1  0.81382300  0.10669800  0.24075800  1
  O  O34  1  0.31382300  0.60669800  0.25924200  1
  O  O35  1  0.18617700  0.89330200  0.75924200  1
  O  O36  1  0.84224000  0.63432700  0.62003500  1
  O  O37  1  0.65776000  0.86567300  0.12003500  1
  O  O38  1  0.15776000  0.36567300  0.37996500  1
  O  O39  1  0.34224000  0.13432700  0.87996500  1
  O  O40  1  0.98175100  0.48002200  0.80621400  1
  O  O41  1  0.51824900  0.01997800  0.30621400  1
  O  O42  1  0.01824900  0.51997800  0.19378600  1
  O  O43  1  0.48175100  0.98002200  0.69378600  1
  O  O44  1  0.92759800  0.32053200  0.59826600  1
  O  O45  1  0.57240200  0.17946800  0.09826600  1
  O  O46  1  0.07240200  0.67946800  0.40173400  1
  O  O47  1  0.42759800  0.82053200  0.90173400  1
  O  O48  1  0.35634500  0.41974800  0.04122500  1
  O  O49  1  0.14365500  0.08025200  0.54122500  1
  O  O50  1  0.64365500  0.58025200  0.95877500  1
  O  O51  1  0.85634500  0.91974800  0.45877500  1
  O  O52  1  0.16016200  0.59872600  0.01428400  1
  O  O53  1  0.33983800  0.90127400  0.51428400  1
  O  O54  1  0.83983800  0.40127400  0.98571600  1
  O  O55  1  0.66016200  0.09872600  0.48571600  1
