# generated using pymatgen
data_Nb2O5
_symmetry_space_group_name_H-M   'P 1'
_cell_length_a   14.81151645
_cell_length_b   14.81151645
_cell_length_c   18.06531327
_cell_angle_alpha   55.23246139
_cell_angle_beta   55.23246139
_cell_angle_gamma   14.70283526
_symmetry_Int_Tables_number   1
_chemical_formula_structural   Nb2O5
_chemical_formula_sum   'Nb16 O40'
_cell_volume   822.98202817
_cell_formula_units_Z   8
loop_
 _symmetry_equiv_pos_site_id
 _symmetry_equiv_pos_as_xyz
  1  'x, y, z'
loop_
 _atom_site_type_symbol
 _atom_site_label
 _atom_site_symmetry_multiplicity
 _atom_site_fract_x
 _atom_site_fract_y
 _atom_site_fract_z
 _atom_site_occupancy
  Nb  Nb0  1  0.06088300  0.06088300  0.89816900  1
  Nb  Nb1  1  0.93911700  0.93911700  0.10183100  1
  Nb  Nb2  1  0.66013400  0.66013400  0.89838000  1
  Nb  Nb3  1  0.33986600  0.33986600  0.10162000  1
  Nb  Nb4  1  0.79426300  0.79426300  0.90024700  1
  Nb  Nb5  1  0.20573700  0.20573700  0.09975300  1
  Nb  Nb6  1  0.92482400  0.92482400  0.90314900  1
  Nb  Nb7  1  0.07517600  0.07517600  0.09685100  1
  Nb  Nb8  1  0.02340700  0.02340700  0.62669300  1
  Nb  Nb9  1  0.97659300  0.97659300  0.37330700  1
  Nb  Nb10  1  0.15511100  0.15511100  0.62771400  1
  Nb  Nb11  1  0.84488900  0.84488900  0.37228600  1
  Nb  Nb12  1  0.75313700  0.75313700  0.63416300  1
  Nb  Nb13  1  0.24686300  0.24686300  0.36583700  1
  Nb  Nb14  1  0.88944600  0.88944600  0.63374600  1
  Nb  Nb15  1  0.11055400  0.11055400  0.36625400  1
  O  O16  1  0.57405800  0.57405800  0.91252000  1
  O  O17  1  0.42594200  0.42594200  0.08748000  1
  O  O18  1  0.13188500  0.13188500  0.92398800  1
  O  O19  1  0.86811500  0.86811500  0.07601200  1
  O  O20  1  0.27395200  0.27395200  0.93793800  1
  O  O21  1  0.72604800  0.72604800  0.06206200  1
  O  O22  1  0.41092100  0.41092100  0.94646800  1
  O  O23  1  0.58907900  0.58907900  0.05353200  1
  O  O24  1  0.51581500  0.51581500  0.65750200  1
  O  O25  1  0.48418500  0.48418500  0.34249800  1
  O  O26  1  0.66936100  0.66936100  0.64010800  1
  O  O27  1  0.33063900  0.33063900  0.35989200  1
  O  O28  1  0.22971900  0.22971900  0.64259600  1
  O  O29  1  0.77028100  0.77028100  0.35740400  1
  O  O30  1  0.37128700  0.37128700  0.64365200  1
  O  O31  1  0.62871300  0.62871300  0.35634800  1
  O  O32  1  0.71828400  0.71828400  0.90893600  1
  O  O33  1  0.28171600  0.28171600  0.09106400  1
  O  O34  1  0.85401700  0.85401700  0.91705500  1
  O  O35  1  0.14598300  0.14598300  0.08294500  1
  O  O36  1  0.98511900  0.98511900  0.93873500  1
  O  O37  1  0.01488100  0.01488100  0.06126500  1
  O  O38  1  0.10235500  0.10235500  0.77613700  1
  O  O39  1  0.89764500  0.89764500  0.22386300  1
  O  O40  1  0.69497700  0.69497700  0.77644300  1
  O  O41  1  0.30502300  0.30502300  0.22355700  1
  O  O42  1  0.83764100  0.83764100  0.77735100  1
  O  O43  1  0.16235900  0.16235900  0.22264900  1
  O  O44  1  0.97286200  0.97286200  0.78388200  1
  O  O45  1  0.02713800  0.02713800  0.21611800  1
  O  O46  1  0.09041000  0.09041000  0.63460000  1
  O  O47  1  0.90959000  0.90959000  0.36540000  1
  O  O48  1  0.80991300  0.80991300  0.64474200  1
  O  O49  1  0.19008700  0.19008700  0.35525800  1
  O  O50  1  0.95341200  0.95341200  0.63611100  1
  O  O51  1  0.04658800  0.04658800  0.36388900  1
  O  O52  1  0.07063800  0.07063800  0.49790600  1
  O  O53  1  0.92936200  0.92936200  0.50209400  1
  O  O54  1  0.20484000  0.20484000  0.49898500  1
  O  O55  1  0.79516000  0.79516000  0.50101500  1
