# generated using pymatgen
data_NaNpH2SeO7
_symmetry_space_group_name_H-M   'P 1'
_cell_length_a   5.84738600
_cell_length_b   9.87600759
_cell_length_c   24.38864093
_cell_angle_alpha   79.31877595
_cell_angle_beta   83.11486379
_cell_angle_gamma   72.78009094
_symmetry_Int_Tables_number   1
_chemical_formula_structural   NaNpH2SeO7
_chemical_formula_sum   'Na8 Np8 H16 Se8 O56'
_cell_volume   1318.80045331
_cell_formula_units_Z   8
loop_
 _symmetry_equiv_pos_site_id
 _symmetry_equiv_pos_as_xyz
  1  'x, y, z'
loop_
 _atom_site_type_symbol
 _atom_site_label
 _atom_site_symmetry_multiplicity
 _atom_site_fract_x
 _atom_site_fract_y
 _atom_site_fract_z
 _atom_site_occupancy
  Na  Na0  1  0.54577200  0.00685300  0.42385400  1
  Na  Na1  1  0.97647900  0.49314700  0.07614600  1
  Na  Na2  1  0.45422800  0.99314700  0.57614600  1
  Na  Na3  1  0.02352100  0.50685300  0.92385400  1
  Na  Na4  1  0.36467100  0.75000000  0.25000000  1
  Na  Na5  1  0.63532900  0.25000000  0.75000000  1
  Na  Na6  1  0.50000000  0.50000000  0.50000000  1
  Na  Na7  1  0.50000000  0.00000000  0.00000000  1
  Np  Np8  1  0.05345100  0.55496000  0.36147000  1
  Np  Np9  1  0.96988100  0.94504000  0.13853000  1
  Np  Np10  1  0.94654900  0.44504000  0.63853000  1
  Np  Np11  1  0.03011900  0.05496000  0.86147000  1
  Np  Np12  1  0.32298700  0.20459200  0.19203100  1
  Np  Np13  1  0.71961000  0.29540800  0.30796900  1
  Np  Np14  1  0.67701300  0.79540800  0.80796900  1
  Np  Np15  1  0.28039000  0.70459200  0.69203100  1
  H  H16  1  0.45279700  0.43415800  0.09417200  1
  H  H17  1  0.98112600  0.06584200  0.40582800  1
  H  H18  1  0.54720300  0.56584200  0.90582800  1
  H  H19  1  0.01887400  0.93415800  0.59417200  1
  H  H20  1  0.51106200  0.64700000  0.05094000  1
  H  H21  1  0.20900100  0.85300000  0.44906000  1
  H  H22  1  0.48893800  0.35300000  0.94906000  1
  H  H23  1  0.79099900  0.14700000  0.55094000  1
  H  H24  1  0.47770400  0.29553600  0.06605900  1
  H  H25  1  0.83929900  0.20446400  0.43394100  1
  H  H26  1  0.52229600  0.70446400  0.93394100  1
  H  H27  1  0.16070100  0.79553600  0.56605900  1
  H  H28  1  0.47054900  0.65093600  0.11424700  1
  H  H29  1  0.23573200  0.84906400  0.38575300  1
  H  H30  1  0.52945100  0.34906400  0.88575300  1
  H  H31  1  0.76426800  0.15093600  0.61424700  1
  Se  Se32  1  0.13434500  0.29409500  0.49947200  1
  Se  Se33  1  0.92791100  0.20590500  0.00052800  1
  Se  Se34  1  0.86565500  0.70590500  0.50052800  1
  Se  Se35  1  0.07208900  0.79409500  0.99947200  1
  Se  Se36  1  0.71582100  0.92577300  0.28471100  1
  Se  Se37  1  0.92630600  0.57422700  0.21528900  1
  Se  Se38  1  0.28417900  0.07422700  0.71528900  1
  Se  Se39  1  0.07369400  0.42577300  0.78471100  1
  O  O40  1  0.27593500  0.82221700  0.14501700  1
  O  O41  1  0.24316900  0.67778300  0.35498300  1
  O  O42  1  0.72406500  0.17778300  0.85498300  1
  O  O43  1  0.75683100  0.32221700  0.64501700  1
  O  O44  1  0.21366600  0.42334700  0.45226100  1
  O  O45  1  0.08927400  0.07665300  0.04773900  1
  O  O46  1  0.78633400  0.57665300  0.54773900  1
  O  O47  1  0.91072600  0.92334700  0.95226100  1
  O  O48  1  0.12325600  0.57507500  0.25997600  1
  O  O49  1  0.95830800  0.92492500  0.24002400  1
  O  O50  1  0.87674400  0.42492500  0.74002400  1
  O  O51  1  0.04169200  0.07507500  0.75997600  1
  O  O52  1  0.35980000  0.79751300  0.99513700  1
  O  O53  1  0.15245000  0.70248700  0.50486300  1
  O  O54  1  0.64020000  0.20248700  0.00486300  1
  O  O55  1  0.84755000  0.29751300  0.49513700  1
  O  O56  1  0.41053700  0.36183500  0.34114300  1
  O  O57  1  0.11351500  0.13816500  0.15885700  1
  O  O58  1  0.58946300  0.63816500  0.65885700  1
  O  O59  1  0.88648500  0.86183500  0.84114300  1
  O  O60  1  0.30609800  0.13215700  0.49027200  1
  O  O61  1  0.92852600  0.36784300  0.00972800  1
  O  O62  1  0.69390200  0.86784300  0.50972800  1
  O  O63  1  0.07147400  0.63215700  0.99027200  1
  O  O64  1  0.53830400  0.26402000  0.22676100  1
  O  O65  1  0.02908500  0.23598000  0.27323900  1
  O  O66  1  0.46169600  0.73598000  0.77323900  1
  O  O67  1  0.97091500  0.76402000  0.72676100  1
  O  O68  1  0.38530000  0.35124300  0.09515600  1
  O  O69  1  0.83170000  0.14875700  0.40484400  1
  O  O70  1  0.61470000  0.64875700  0.90484400  1
  O  O71  1  0.16830000  0.85124300  0.59515600  1
  O  O72  1  0.69592200  0.04091500  0.32852500  1
  O  O73  1  0.06536200  0.45908500  0.17147500  1
  O  O74  1  0.30407800  0.95908500  0.67147500  1
  O  O75  1  0.93463800  0.54091500  0.82852500  1
  O  O76  1  0.46219400  0.97410800  0.25059600  1
  O  O77  1  0.68689700  0.52589200  0.24940400  1
  O  O78  1  0.53780600  0.02589200  0.74940400  1
  O  O79  1  0.31310300  0.47410800  0.75059600  1
  O  O80  1  0.65338200  0.06359300  0.13682900  1
  O  O81  1  0.85380500  0.43640700  0.36317100  1
  O  O82  1  0.34661800  0.93640700  0.86317100  1
  O  O83  1  0.14619500  0.56359300  0.63682900  1
  O  O84  1  0.81029000  0.67958000  0.43792800  1
  O  O85  1  0.92779800  0.82042000  0.06207200  1
  O  O86  1  0.18971000  0.32042000  0.56207200  1
  O  O87  1  0.07220200  0.17958000  0.93792800  1
  O  O88  1  0.72698600  0.76263900  0.32004700  1
  O  O89  1  0.80967200  0.73736100  0.17995300  1
  O  O90  1  0.27301400  0.23736100  0.67995300  1
  O  O91  1  0.19032800  0.26263900  0.82004700  1
  O  O92  1  0.55101100  0.58509900  0.08745500  1
  O  O93  1  0.22356500  0.91490100  0.41254500  1
  O  O94  1  0.44898900  0.41490100  0.91254500  1
  O  O95  1  0.77643500  0.08509900  0.58745500  1
