# generated using pymatgen
data_Ba20Hg103
_symmetry_space_group_name_H-M   'P 1'
_cell_length_a   17.15726157
_cell_length_b   17.15726157
_cell_length_c   17.15726157
_cell_angle_alpha   60.00000000
_cell_angle_beta   60.00000000
_cell_angle_gamma   60.00000000
_symmetry_Int_Tables_number   1
_chemical_formula_structural   Ba20Hg103
_chemical_formula_sum   'Ba20 Hg103'
_cell_volume   3571.32125776
_cell_formula_units_Z   1
loop_
 _symmetry_equiv_pos_site_id
 _symmetry_equiv_pos_as_xyz
  1  'x, y, z'
loop_
 _atom_site_type_symbol
 _atom_site_label
 _atom_site_symmetry_multiplicity
 _atom_site_fract_x
 _atom_site_fract_y
 _atom_site_fract_z
 _atom_site_occupancy
  Ba  Ba0  1  0.59524900  0.59524900  0.21425300  1
  Ba  Ba1  1  0.59524900  0.21425300  0.59524900  1
  Ba  Ba2  1  0.21425300  0.59524900  0.59524900  1
  Ba  Ba3  1  0.59524900  0.59524900  0.59524900  1
  Ba  Ba4  1  0.84181100  0.84181100  0.47456800  1
  Ba  Ba5  1  0.84181100  0.47456800  0.84181100  1
  Ba  Ba6  1  0.47456800  0.84181100  0.84181100  1
  Ba  Ba7  1  0.84181100  0.84181100  0.84181100  1
  Ba  Ba8  1  0.18348000  0.18348000  0.81652000  1
  Ba  Ba9  1  0.81652000  0.18348000  0.81652000  1
  Ba  Ba10  1  0.18348000  0.81652000  0.81652000  1
  Ba  Ba11  1  0.81652000  0.81652000  0.18348000  1
  Ba  Ba12  1  0.18348000  0.81652000  0.18348000  1
  Ba  Ba13  1  0.81652000  0.18348000  0.18348000  1
  Ba  Ba14  1  0.05510700  0.05510700  0.44489300  1
  Ba  Ba15  1  0.44489300  0.05510700  0.44489300  1
  Ba  Ba16  1  0.05510700  0.44489300  0.44489300  1
  Ba  Ba17  1  0.44489300  0.44489300  0.05510700  1
  Ba  Ba18  1  0.05510700  0.44489300  0.05510700  1
  Ba  Ba19  1  0.44489300  0.05510700  0.05510700  1
  Hg  Hg20  1  0.42013400  0.82608200  0.10651000  1
  Hg  Hg21  1  0.64727400  0.42013400  0.10651000  1
  Hg  Hg22  1  0.82608200  0.64727400  0.10651000  1
  Hg  Hg23  1  0.64727400  0.82608200  0.10651000  1
  Hg  Hg24  1  0.82608200  0.42013400  0.10651000  1
  Hg  Hg25  1  0.42013400  0.64727400  0.10651000  1
  Hg  Hg26  1  0.64727400  0.10651000  0.82608200  1
  Hg  Hg27  1  0.82608200  0.10651000  0.42013400  1
  Hg  Hg28  1  0.42013400  0.10651000  0.64727400  1
  Hg  Hg29  1  0.42013400  0.10651000  0.82608200  1
  Hg  Hg30  1  0.64727400  0.10651000  0.42013400  1
  Hg  Hg31  1  0.82608200  0.10651000  0.64727400  1
  Hg  Hg32  1  0.10651000  0.64727400  0.42013400  1
  Hg  Hg33  1  0.10651000  0.82608200  0.64727400  1
  Hg  Hg34  1  0.10651000  0.42013400  0.82608200  1
  Hg  Hg35  1  0.10651000  0.42013400  0.64727400  1
  Hg  Hg36  1  0.10651000  0.64727400  0.82608200  1
  Hg  Hg37  1  0.10651000  0.82608200  0.42013400  1
  Hg  Hg38  1  0.82608200  0.42013400  0.64727400  1
  Hg  Hg39  1  0.42013400  0.64727400  0.82608200  1
  Hg  Hg40  1  0.64727400  0.82608200  0.42013400  1
  Hg  Hg41  1  0.82608200  0.64727400  0.42013400  1
  Hg  Hg42  1  0.42013400  0.82608200  0.64727400  1
  Hg  Hg43  1  0.64727400  0.42013400  0.82608200  1
  Hg  Hg44  1  0.61861600  0.79507300  0.96769500  1
  Hg  Hg45  1  0.61861600  0.61861600  0.96769500  1
  Hg  Hg46  1  0.79507300  0.61861600  0.96769500  1
  Hg  Hg47  1  0.61861600  0.96769500  0.79507300  1
  Hg  Hg48  1  0.79507300  0.96769500  0.61861600  1
  Hg  Hg49  1  0.61861600  0.96769500  0.61861600  1
  Hg  Hg50  1  0.96769500  0.61861600  0.61861600  1
  Hg  Hg51  1  0.96769500  0.79507300  0.61861600  1
  Hg  Hg52  1  0.96769500  0.61861600  0.79507300  1
  Hg  Hg53  1  0.79507300  0.61861600  0.61861600  1
  Hg  Hg54  1  0.61861600  0.61861600  0.79507300  1
  Hg  Hg55  1  0.61861600  0.79507300  0.61861600  1
  Hg  Hg56  1  0.99259300  0.30150700  0.71330700  1
  Hg  Hg57  1  0.99259300  0.99259300  0.71330700  1
  Hg  Hg58  1  0.30150700  0.99259300  0.71330700  1
  Hg  Hg59  1  0.99259300  0.71330700  0.30150700  1
  Hg  Hg60  1  0.30150700  0.71330700  0.99259300  1
  Hg  Hg61  1  0.99259300  0.71330700  0.99259300  1
  Hg  Hg62  1  0.71330700  0.99259300  0.99259300  1
  Hg  Hg63  1  0.71330700  0.30150700  0.99259300  1
  Hg  Hg64  1  0.71330700  0.99259300  0.30150700  1
  Hg  Hg65  1  0.30150700  0.99259300  0.99259300  1
  Hg  Hg66  1  0.99259300  0.99259300  0.30150700  1
  Hg  Hg67  1  0.99259300  0.30150700  0.99259300  1
  Hg  Hg68  1  0.45530700  0.81984500  0.26954000  1
  Hg  Hg69  1  0.45530700  0.45530700  0.26954000  1
  Hg  Hg70  1  0.81984500  0.45530700  0.26954000  1
  Hg  Hg71  1  0.45530700  0.26954000  0.81984500  1
  Hg  Hg72  1  0.81984500  0.26954000  0.45530700  1
  Hg  Hg73  1  0.45530700  0.26954000  0.45530700  1
  Hg  Hg74  1  0.26954000  0.45530700  0.45530700  1
  Hg  Hg75  1  0.26954000  0.81984500  0.45530700  1
  Hg  Hg76  1  0.26954000  0.45530700  0.81984500  1
  Hg  Hg77  1  0.81984500  0.45530700  0.45530700  1
  Hg  Hg78  1  0.45530700  0.45530700  0.81984500  1
  Hg  Hg79  1  0.45530700  0.81984500  0.45530700  1
  Hg  Hg80  1  0.20113200  0.20113200  0.39660400  1
  Hg  Hg81  1  0.20113200  0.39660400  0.20113200  1
  Hg  Hg82  1  0.39660400  0.20113200  0.20113200  1
  Hg  Hg83  1  0.20113200  0.20113200  0.20113200  1
  Hg  Hg84  1  0.32648200  0.32648200  0.02055500  1
  Hg  Hg85  1  0.32648200  0.02055500  0.32648200  1
  Hg  Hg86  1  0.02055500  0.32648200  0.32648200  1
  Hg  Hg87  1  0.32648200  0.32648200  0.32648200  1
  Hg  Hg88  1  0.45425000  0.45425000  0.63725000  1
  Hg  Hg89  1  0.45425000  0.63725000  0.45425000  1
  Hg  Hg90  1  0.63725000  0.45425000  0.45425000  1
  Hg  Hg91  1  0.45425000  0.45425000  0.45425000  1
  Hg  Hg92  1  0.04864800  0.04864800  0.85405500  1
  Hg  Hg93  1  0.04864800  0.85405500  0.04864800  1
  Hg  Hg94  1  0.85405500  0.04864800  0.04864800  1
  Hg  Hg95  1  0.04864800  0.04864800  0.04864800  1
  Hg  Hg96  1  0.92656600  0.92656600  0.22030200  1
  Hg  Hg97  1  0.92656600  0.22030200  0.92656600  1
  Hg  Hg98  1  0.22030200  0.92656600  0.92656600  1
  Hg  Hg99  1  0.92656600  0.92656600  0.92656600  1
  Hg  Hg100  1  0.24122000  0.95676000  0.56080100  1
  Hg  Hg101  1  0.24122000  0.24122000  0.56080100  1
  Hg  Hg102  1  0.95676000  0.24122000  0.56080100  1
  Hg  Hg103  1  0.24122000  0.56080100  0.95676000  1
  Hg  Hg104  1  0.95676000  0.56080100  0.24122000  1
  Hg  Hg105  1  0.24122000  0.56080100  0.24122000  1
  Hg  Hg106  1  0.56080100  0.24122000  0.24122000  1
  Hg  Hg107  1  0.56080100  0.95676000  0.24122000  1
  Hg  Hg108  1  0.56080100  0.24122000  0.95676000  1
  Hg  Hg109  1  0.95676000  0.24122000  0.24122000  1
  Hg  Hg110  1  0.24122000  0.24122000  0.95676000  1
  Hg  Hg111  1  0.24122000  0.95676000  0.24122000  1
  Hg  Hg112  1  0.32336700  0.32336700  0.67663300  1
  Hg  Hg113  1  0.67663300  0.32336700  0.67663300  1
  Hg  Hg114  1  0.32336700  0.67663300  0.67663300  1
  Hg  Hg115  1  0.67663300  0.67663300  0.32336700  1
  Hg  Hg116  1  0.32336700  0.67663300  0.32336700  1
  Hg  Hg117  1  0.67663300  0.32336700  0.32336700  1
  Hg  Hg118  1  0.75000000  0.75000000  0.75000000  1
  Hg  Hg119  1  0.12364000  0.12364000  0.62908100  1
  Hg  Hg120  1  0.12364000  0.62908100  0.12364000  1
  Hg  Hg121  1  0.62908100  0.12364000  0.12364000  1
  Hg  Hg122  1  0.12364000  0.12364000  0.12364000  1
