# generated using pymatgen
data_K3IrC4Cl2O9
_symmetry_space_group_name_H-M   'P 1'
_cell_length_a   14.49589788
_cell_length_b   14.49589788
_cell_length_c   14.50228881
_cell_angle_alpha   60.08461107
_cell_angle_beta   60.08461107
_cell_angle_gamma   30.78331139
_symmetry_Int_Tables_number   1
_chemical_formula_structural   K3IrC4Cl2O9
_chemical_formula_sum   'K12 Ir4 C16 Cl8 O36'
_cell_volume   1334.76093231
_cell_formula_units_Z   4
loop_
 _symmetry_equiv_pos_site_id
 _symmetry_equiv_pos_as_xyz
  1  'x, y, z'
loop_
 _atom_site_type_symbol
 _atom_site_label
 _atom_site_symmetry_multiplicity
 _atom_site_fract_x
 _atom_site_fract_y
 _atom_site_fract_z
 _atom_site_occupancy
  K  K0  1  0.24278900  0.47621700  0.50569500  1
  K  K1  1  0.52378300  0.75721100  0.99430500  1
  K  K2  1  0.75721100  0.52378300  0.49430500  1
  K  K3  1  0.47621700  0.24278900  0.00569500  1
  K  K4  1  0.81262600  0.14291500  0.40187300  1
  K  K5  1  0.85708500  0.18737400  0.09812700  1
  K  K6  1  0.18737400  0.85708500  0.59812700  1
  K  K7  1  0.14291500  0.81262600  0.90187300  1
  K  K8  1  0.57677700  0.06211000  0.34937900  1
  K  K9  1  0.93789000  0.42322300  0.15062100  1
  K  K10  1  0.42322300  0.93789000  0.65062100  1
  K  K11  1  0.06211000  0.57677700  0.84937900  1
  Ir  Ir12  1  0.71309000  0.06138200  0.70129100  1
  Ir  Ir13  1  0.93861800  0.28691000  0.79870900  1
  Ir  Ir14  1  0.28691000  0.93861800  0.29870900  1
  Ir  Ir15  1  0.06138200  0.71309000  0.20129100  1
  C  C16  1  0.57406200  0.05454400  0.62271300  1
  C  C17  1  0.94545600  0.42593800  0.87728700  1
  C  C18  1  0.42593800  0.94545600  0.37728700  1
  C  C19  1  0.05454400  0.57406200  0.12271300  1
  C  C20  1  0.61932900  0.93506800  0.73564000  1
  C  C21  1  0.06493200  0.38067100  0.76436000  1
  C  C22  1  0.38067100  0.06493200  0.26436000  1
  C  C23  1  0.93506800  0.61932900  0.23564000  1
  C  C24  1  0.58043000  0.38109100  0.63093000  1
  C  C25  1  0.61890900  0.41957000  0.86907000  1
  C  C26  1  0.41957000  0.61890900  0.36907000  1
  C  C27  1  0.38109100  0.58043000  0.13093000  1
  C  C28  1  0.43592300  0.42534100  0.72656500  1
  C  C29  1  0.57465900  0.56407700  0.77343500  1
  C  C30  1  0.56407700  0.57465900  0.27343500  1
  C  C31  1  0.42534100  0.43592300  0.22656500  1
  Cl  Cl32  1  0.99671200  0.80807900  0.61199300  1
  Cl  Cl33  1  0.19192100  0.00328800  0.88800700  1
  Cl  Cl34  1  0.00328800  0.19192100  0.38800700  1
  Cl  Cl35  1  0.80807900  0.99671200  0.11199300  1
  Cl  Cl36  1  0.83972200  0.97049300  0.83249400  1
  Cl  Cl37  1  0.02950700  0.16027800  0.66750600  1
  Cl  Cl38  1  0.16027800  0.02950700  0.16750600  1
  Cl  Cl39  1  0.97049300  0.83972200  0.33249400  1
  O  O40  1  0.59068800  0.14054900  0.59567800  1
  O  O41  1  0.85945100  0.40931200  0.90432200  1
  O  O42  1  0.40931200  0.85945100  0.40432200  1
  O  O43  1  0.14054900  0.59068800  0.09567800  1
  O  O44  1  0.51856900  0.07167400  0.56426500  1
  O  O45  1  0.92832600  0.48143100  0.93573500  1
  O  O46  1  0.48143100  0.92832600  0.43573500  1
  O  O47  1  0.07167400  0.51856900  0.06426500  1
  O  O48  1  0.68495000  0.92131800  0.78582700  1
  O  O49  1  0.07868200  0.31505000  0.71417300  1
  O  O50  1  0.31505000  0.07868200  0.21417300  1
  O  O51  1  0.92131800  0.68495000  0.28582700  1
  O  O52  1  0.58789200  0.86441300  0.77397500  1
  O  O53  1  0.13558700  0.41210800  0.72602500  1
  O  O54  1  0.41210800  0.13558700  0.22602500  1
  O  O55  1  0.86441300  0.58789200  0.27397500  1
  O  O56  1  0.72293600  0.21603000  0.60896600  1
  O  O57  1  0.78397000  0.27706400  0.89103400  1
  O  O58  1  0.27706400  0.78397000  0.39103400  1
  O  O59  1  0.21603000  0.72293600  0.10896600  1
  O  O60  1  0.55644600  0.49800800  0.58068800  1
  O  O61  1  0.50199200  0.44355400  0.91931200  1
  O  O62  1  0.44355400  0.50199200  0.41931200  1
  O  O63  1  0.49800800  0.55644600  0.08068800  1
  O  O64  1  0.46483500  0.29927100  0.76741400  1
  O  O65  1  0.70072900  0.53516500  0.73258600  1
  O  O66  1  0.53516500  0.70072900  0.23258600  1
  O  O67  1  0.29927100  0.46483500  0.26741400  1
  O  O68  1  0.30066900  0.57242200  0.76096700  1
  O  O69  1  0.42757800  0.69933100  0.73903300  1
  O  O70  1  0.69933100  0.42757800  0.23903300  1
  O  O71  1  0.57242200  0.30066900  0.26096700  1
  O  O72  1  0.08437700  0.43096800  0.48757100  1
  O  O73  1  0.56903200  0.91562300  0.01242900  1
  O  O74  1  0.91562300  0.56903200  0.51242900  1
  O  O75  1  0.43096800  0.08437700  0.98757100  1
