# generated using pymatgen
data_UH4(SeO5)2
_symmetry_space_group_name_H-M   'P 1'
_cell_length_a   8.38076200
_cell_length_b   10.93160400
_cell_length_c   11.89339391
_cell_angle_alpha   90.00000000
_cell_angle_beta   124.64562533
_cell_angle_gamma   90.00000000
_symmetry_Int_Tables_number   1
_chemical_formula_structural   UH4(SeO5)2
_chemical_formula_sum   'U4 H16 Se8 O40'
_cell_volume   896.40901105
_cell_formula_units_Z   4
loop_
 _symmetry_equiv_pos_site_id
 _symmetry_equiv_pos_as_xyz
  1  'x, y, z'
loop_
 _atom_site_type_symbol
 _atom_site_label
 _atom_site_symmetry_multiplicity
 _atom_site_fract_x
 _atom_site_fract_y
 _atom_site_fract_z
 _atom_site_occupancy
  U  U0  1  0.16149500  0.30380900  0.80583600  1
  U  U1  1  0.16149500  0.19619100  0.30583600  1
  U  U2  1  0.83850500  0.69619100  0.19416400  1
  U  U3  1  0.83850500  0.80380900  0.69416400  1
  H  H4  1  0.55188000  0.36769100  0.80940300  1
  H  H5  1  0.55188000  0.13230900  0.30940300  1
  H  H6  1  0.44812000  0.63230900  0.19059700  1
  H  H7  1  0.44812000  0.86769100  0.69059700  1
  H  H8  1  0.37681700  0.47869100  0.62814300  1
  H  H9  1  0.37681700  0.02130900  0.12814300  1
  H  H10  1  0.62318300  0.52130900  0.37185700  1
  H  H11  1  0.62318300  0.97869100  0.87185700  1
  H  H12  1  0.16540400  0.55577000  0.50542400  1
  H  H13  1  0.16540400  0.94423000  0.00542400  1
  H  H14  1  0.83459600  0.44423000  0.49457600  1
  H  H15  1  0.83459600  0.05577000  0.99457600  1
  H  H16  1  0.38116500  0.62001000  0.58143500  1
  H  H17  1  0.38116500  0.87999000  0.08143500  1
  H  H18  1  0.61883500  0.37999000  0.41856500  1
  H  H19  1  0.61883500  0.12001000  0.91856500  1
  Se  Se20  1  0.78458900  0.49493200  0.81273800  1
  Se  Se21  1  0.78458900  0.00506800  0.31273800  1
  Se  Se22  1  0.21541100  0.50506800  0.18726200  1
  Se  Se23  1  0.21541100  0.99493200  0.68726200  1
  Se  Se24  1  0.30072800  0.62576800  0.91417700  1
  Se  Se25  1  0.30072800  0.87423200  0.41417700  1
  Se  Se26  1  0.69927200  0.37423200  0.08582300  1
  Se  Se27  1  0.69927200  0.12576800  0.58582300  1
  O  O28  1  0.14682300  0.38652600  0.66733900  1
  O  O29  1  0.14682300  0.11347400  0.16733900  1
  O  O30  1  0.85317700  0.61347400  0.33266100  1
  O  O31  1  0.85317700  0.88652600  0.83266100  1
  O  O32  1  0.88787900  0.41495000  0.74652900  1
  O  O33  1  0.88787900  0.08505000  0.24652900  1
  O  O34  1  0.11212100  0.58505000  0.25347100  1
  O  O35  1  0.11212100  0.91495000  0.75347100  1
  O  O36  1  0.33981900  0.64635900  0.79647200  1
  O  O37  1  0.33981900  0.85364100  0.29647200  1
  O  O38  1  0.66018100  0.35364100  0.20352800  1
  O  O39  1  0.66018100  0.14635900  0.70352800  1
  O  O40  1  0.29323200  0.47669500  0.95214400  1
  O  O41  1  0.29323200  0.02330500  0.45214400  1
  O  O42  1  0.70676800  0.52330500  0.04785600  1
  O  O43  1  0.70676800  0.97669500  0.54785600  1
  O  O44  1  0.08669800  0.68252100  0.87602200  1
  O  O45  1  0.08669800  0.81747900  0.37602200  1
  O  O46  1  0.91330200  0.31747900  0.12397800  1
  O  O47  1  0.91330200  0.18252100  0.62397800  1
  O  O48  1  0.68558700  0.61921800  0.70991500  1
  O  O49  1  0.68558700  0.88078200  0.20991500  1
  O  O50  1  0.31441300  0.38078200  0.29008500  1
  O  O51  1  0.31441300  0.11921800  0.79008500  1
  O  O52  1  0.16246000  0.22991700  0.94117700  1
  O  O53  1  0.16246000  0.27008300  0.44117700  1
  O  O54  1  0.83754000  0.77008300  0.05882300  1
  O  O55  1  0.83754000  0.72991700  0.55882300  1
  O  O56  1  0.46371100  0.69570400  0.06682800  1
  O  O57  1  0.46371100  0.80429600  0.56682800  1
  O  O58  1  0.53628900  0.30429600  0.93317200  1
  O  O59  1  0.53628900  0.19570400  0.43317200  1
  O  O60  1  0.55448300  0.40966700  0.73464200  1
  O  O61  1  0.55448300  0.09033300  0.23464200  1
  O  O62  1  0.44551700  0.59033300  0.26535800  1
  O  O63  1  0.44551700  0.90966700  0.76535800  1
  O  O64  1  0.30494900  0.54285700  0.54804500  1
  O  O65  1  0.30494900  0.95714300  0.04804500  1
  O  O66  1  0.69505100  0.45714300  0.45195500  1
  O  O67  1  0.69505100  0.04285700  0.95195500  1
