# generated using pymatgen
data_FePO6
_symmetry_space_group_name_H-M   'P 1'
_cell_length_a   9.96274900
_cell_length_b   5.45308300
_cell_length_c   10.08893813
_cell_angle_alpha   57.52397860
_cell_angle_beta   90.00000000
_cell_angle_gamma   90.00000000
_symmetry_Int_Tables_number   1
_chemical_formula_structural   FePO6
_chemical_formula_sum   'Fe4 P4 O24'
_cell_volume   462.39346183
_cell_formula_units_Z   4
loop_
 _symmetry_equiv_pos_site_id
 _symmetry_equiv_pos_as_xyz
  1  'x, y, z'
loop_
 _atom_site_type_symbol
 _atom_site_label
 _atom_site_symmetry_multiplicity
 _atom_site_fract_x
 _atom_site_fract_y
 _atom_site_fract_z
 _atom_site_occupancy
  Fe  Fe0  1  0.67602900  0.70701100  0.71442700  1
  Fe  Fe1  1  0.82397100  0.70701100  0.21442700  1
  Fe  Fe2  1  0.32397100  0.29298900  0.28557300  1
  Fe  Fe3  1  0.17602900  0.29298900  0.78557300  1
  P  P4  1  0.84952000  0.09164400  0.81337700  1
  P  P5  1  0.65048000  0.09164400  0.31337700  1
  P  P6  1  0.15048000  0.90835600  0.18662300  1
  P  P7  1  0.34952000  0.90835600  0.68662300  1
  O  O8  1  0.80728000  0.86616400  0.98564000  1
  O  O9  1  0.69272000  0.86616400  0.48564000  1
  O  O10  1  0.19272000  0.13383600  0.01436000  1
  O  O11  1  0.30728000  0.13383600  0.51436000  1
  O  O12  1  0.80365200  0.39443500  0.77219100  1
  O  O13  1  0.69634800  0.39443500  0.27219100  1
  O  O14  1  0.19634800  0.60556500  0.22780900  1
  O  O15  1  0.30365200  0.60556500  0.72780900  1
  O  O16  1  0.50589000  0.91510400  0.69561500  1
  O  O17  1  0.99411000  0.91510400  0.19561500  1
  O  O18  1  0.49411000  0.08489600  0.30438500  1
  O  O19  1  0.00589000  0.08489600  0.80438500  1
  O  O20  1  0.79115300  0.00371500  0.70514700  1
  O  O21  1  0.70884700  0.00371500  0.20514700  1
  O  O22  1  0.20884700  0.99628500  0.29485300  1
  O  O23  1  0.29115300  0.99628500  0.79485300  1
  O  O24  1  0.55886400  0.48115900  0.64781300  1
  O  O25  1  0.94113600  0.48115900  0.14781300  1
  O  O26  1  0.44113600  0.51884100  0.35218700  1
  O  O27  1  0.05886400  0.51884100  0.85218700  1
  O  O28  1  0.57619600  0.53931800  0.93413400  1
  O  O29  1  0.92380400  0.53931800  0.43413400  1
  O  O30  1  0.42380400  0.46068200  0.06586600  1
  O  O31  1  0.07619600  0.46068200  0.56586600  1
