# generated using pymatgen
data_FeSnO6
_symmetry_space_group_name_H-M   'P 1'
_cell_length_a   7.04751300
_cell_length_b   7.04751300
_cell_length_c   7.04751300
_cell_angle_alpha   90.00000000
_cell_angle_beta   90.00000000
_cell_angle_gamma   90.00000000
_symmetry_Int_Tables_number   1
_chemical_formula_structural   FeSnO6
_chemical_formula_sum   'Fe4 Sn4 O24'
_cell_volume   350.03192545
_cell_formula_units_Z   4
loop_
 _symmetry_equiv_pos_site_id
 _symmetry_equiv_pos_as_xyz
  1  'x, y, z'
loop_
 _atom_site_type_symbol
 _atom_site_label
 _atom_site_symmetry_multiplicity
 _atom_site_fract_x
 _atom_site_fract_y
 _atom_site_fract_z
 _atom_site_occupancy
  Fe  Fe0  1  0.75000000  0.25000000  0.25000000  1
  Fe  Fe1  1  0.25000000  0.25000000  0.75000000  1
  Fe  Fe2  1  0.25000000  0.75000000  0.25000000  1
  Fe  Fe3  1  0.75000000  0.75000000  0.75000000  1
  Sn  Sn4  1  0.25000000  0.75000000  0.75000000  1
  Sn  Sn5  1  0.75000000  0.75000000  0.25000000  1
  Sn  Sn6  1  0.75000000  0.25000000  0.75000000  1
  Sn  Sn7  1  0.25000000  0.25000000  0.25000000  1
  O  O8  1  0.17975700  0.39475000  0.50602100  1
  O  O9  1  0.82024300  0.39475000  0.49397900  1
  O  O10  1  0.82024300  0.60525000  0.50602100  1
  O  O11  1  0.17975700  0.60525000  0.49397900  1
  O  O12  1  0.50602100  0.17975700  0.39475000  1
  O  O13  1  0.49397900  0.82024300  0.39475000  1
  O  O14  1  0.50602100  0.82024300  0.60525000  1
  O  O15  1  0.49397900  0.17975700  0.60525000  1
  O  O16  1  0.39475000  0.50602100  0.17975700  1
  O  O17  1  0.39475000  0.49397900  0.82024300  1
  O  O18  1  0.60525000  0.50602100  0.82024300  1
  O  O19  1  0.60525000  0.49397900  0.17975700  1
  O  O20  1  0.32024300  0.10525000  0.99397900  1
  O  O21  1  0.67975700  0.10525000  0.00602100  1
  O  O22  1  0.67975700  0.89475000  0.99397900  1
  O  O23  1  0.32024300  0.89475000  0.00602100  1
  O  O24  1  0.99397900  0.32024300  0.10525000  1
  O  O25  1  0.00602100  0.67975700  0.10525000  1
  O  O26  1  0.99397900  0.67975700  0.89475000  1
  O  O27  1  0.00602100  0.32024300  0.89475000  1
  O  O28  1  0.10525000  0.99397900  0.32024300  1
  O  O29  1  0.10525000  0.00602100  0.67975700  1
  O  O30  1  0.89475000  0.99397900  0.67975700  1
  O  O31  1  0.89475000  0.00602100  0.32024300  1
