# generated using pymatgen
data_Pr4(SiS4)3
_symmetry_space_group_name_H-M   'P 1'
_cell_length_a   11.48170486
_cell_length_b   11.48170486
_cell_length_c   11.48170466
_cell_angle_alpha   114.72970502
_cell_angle_beta   114.72970502
_cell_angle_gamma   114.72970087
_symmetry_Int_Tables_number   1
_chemical_formula_structural   Pr4(SiS4)3
_chemical_formula_sum   'Pr8 Si6 S24'
_cell_volume   867.60859104
_cell_formula_units_Z   2
loop_
 _symmetry_equiv_pos_site_id
 _symmetry_equiv_pos_as_xyz
  1  'x, y, z'
loop_
 _atom_site_type_symbol
 _atom_site_label
 _atom_site_symmetry_multiplicity
 _atom_site_fract_x
 _atom_site_fract_y
 _atom_site_fract_z
 _atom_site_occupancy
  Pr  Pr0  1  0.50226200  0.50226200  0.50226200  1
  Pr  Pr1  1  0.00226200  0.00226200  0.00226200  1
  Pr  Pr2  1  0.06828500  0.29344500  0.52805700  1
  Pr  Pr3  1  0.29344500  0.52805700  0.06828500  1
  Pr  Pr4  1  0.52805700  0.06828500  0.29344500  1
  Pr  Pr5  1  0.56828500  0.02805700  0.79344500  1
  Pr  Pr6  1  0.02805700  0.79344500  0.56828500  1
  Pr  Pr7  1  0.79344500  0.56828500  0.02805700  1
  Si  Si8  1  0.36050900  0.14746700  0.53305100  1
  Si  Si9  1  0.14746700  0.53305100  0.36050900  1
  Si  Si10  1  0.53305100  0.36050900  0.14746700  1
  Si  Si11  1  0.86050900  0.03305100  0.64746700  1
  Si  Si12  1  0.03305100  0.64746700  0.86050900  1
  Si  Si13  1  0.64746700  0.86050900  0.03305100  1
  S  S14  1  0.10679400  0.18087600  0.71510000  1
  S  S15  1  0.18087600  0.71510000  0.10679400  1
  S  S16  1  0.71510000  0.10679400  0.18087600  1
  S  S17  1  0.60679400  0.21510000  0.68087600  1
  S  S18  1  0.21510000  0.68087600  0.60679400  1
  S  S19  1  0.68087600  0.60679400  0.21510000  1
  S  S20  1  0.31277000  0.12695500  0.31834500  1
  S  S21  1  0.12695500  0.31834500  0.31277000  1
  S  S22  1  0.31834500  0.31277000  0.12695500  1
  S  S23  1  0.81277000  0.81834500  0.62695500  1
  S  S24  1  0.81834500  0.62695500  0.81277000  1
  S  S25  1  0.62695500  0.81277000  0.81834500  1
  S  S26  1  0.41331800  0.37865200  0.69843600  1
  S  S27  1  0.37865200  0.69843600  0.41331800  1
  S  S28  1  0.69843600  0.41331800  0.37865200  1
  S  S29  1  0.91331800  0.19843600  0.87865200  1
  S  S30  1  0.19843600  0.87865200  0.91331800  1
  S  S31  1  0.87865200  0.91331800  0.19843600  1
  S  S32  1  0.65363700  0.92240300  0.38664000  1
  S  S33  1  0.92240300  0.38664000  0.65363700  1
  S  S34  1  0.38664000  0.65363700  0.92240300  1
  S  S35  1  0.15363700  0.88664000  0.42240300  1
  S  S36  1  0.88664000  0.42240300  0.15363700  1
  S  S37  1  0.42240300  0.15363700  0.88664000  1
