# generated using pymatgen
data_Rb2U6Pd4Se17
_symmetry_space_group_name_H-M   'P 1'
_cell_length_a   10.72996700
_cell_length_b   10.72996700
_cell_length_c   13.43217600
_cell_angle_alpha   90.00000000
_cell_angle_beta   90.00000000
_cell_angle_gamma   90.00000000
_symmetry_Int_Tables_number   1
_chemical_formula_structural   Rb2U6Pd4Se17
_chemical_formula_sum   'Rb4 U12 Pd8 Se34'
_cell_volume   1546.47586381
_cell_formula_units_Z   2
loop_
 _symmetry_equiv_pos_site_id
 _symmetry_equiv_pos_as_xyz
  1  'x, y, z'
loop_
 _atom_site_type_symbol
 _atom_site_label
 _atom_site_symmetry_multiplicity
 _atom_site_fract_x
 _atom_site_fract_y
 _atom_site_fract_z
 _atom_site_occupancy
  Rb  Rb0  1  0.50000000  0.50000000  0.22095100  1
  Rb  Rb1  1  0.00000000  0.00000000  0.72095100  1
  Rb  Rb2  1  0.50000000  0.50000000  0.77904900  1
  Rb  Rb3  1  0.00000000  0.00000000  0.27904900  1
  U  U4  1  0.61771300  0.74085800  0.50000000  1
  U  U5  1  0.38228700  0.25914200  0.50000000  1
  U  U6  1  0.88228700  0.24085800  0.00000000  1
  U  U7  1  0.11771300  0.75914200  0.00000000  1
  U  U8  1  0.74085800  0.38228700  0.50000000  1
  U  U9  1  0.25914200  0.61771300  0.50000000  1
  U  U10  1  0.24085800  0.11771300  0.00000000  1
  U  U11  1  0.75914200  0.88228700  0.00000000  1
  U  U12  1  0.00000000  0.50000000  0.25000000  1
  U  U13  1  0.50000000  0.00000000  0.75000000  1
  U  U14  1  0.50000000  0.00000000  0.25000000  1
  U  U15  1  0.00000000  0.50000000  0.75000000  1
  Pd  Pd16  1  0.93214800  0.63708200  0.50000000  1
  Pd  Pd17  1  0.06785200  0.36291800  0.50000000  1
  Pd  Pd18  1  0.56785200  0.13708200  0.00000000  1
  Pd  Pd19  1  0.43214800  0.86291800  0.00000000  1
  Pd  Pd20  1  0.63708200  0.06785200  0.50000000  1
  Pd  Pd21  1  0.36291800  0.93214800  0.50000000  1
  Pd  Pd22  1  0.13708200  0.43214800  0.00000000  1
  Pd  Pd23  1  0.86291800  0.56785200  0.00000000  1
  Se  Se24  1  0.77489600  0.59116700  0.36613600  1
  Se  Se25  1  0.22510400  0.40883300  0.36613600  1
  Se  Se26  1  0.72510400  0.09116700  0.86613600  1
  Se  Se27  1  0.27489600  0.90883300  0.86613600  1
  Se  Se28  1  0.59116700  0.22510400  0.36613600  1
  Se  Se29  1  0.40883300  0.77489600  0.36613600  1
  Se  Se30  1  0.09116700  0.27489600  0.86613600  1
  Se  Se31  1  0.90883300  0.72510400  0.86613600  1
  Se  Se32  1  0.22510400  0.40883300  0.63386400  1
  Se  Se33  1  0.77489600  0.59116700  0.63386400  1
  Se  Se34  1  0.27489600  0.90883300  0.13386400  1
  Se  Se35  1  0.72510400  0.09116700  0.13386400  1
  Se  Se36  1  0.40883300  0.77489600  0.63386400  1
  Se  Se37  1  0.59116700  0.22510400  0.63386400  1
  Se  Se38  1  0.90883300  0.72510400  0.13386400  1
  Se  Se39  1  0.09116700  0.27489600  0.13386400  1
  Se  Se40  1  0.57901300  0.78945300  0.13166700  1
  Se  Se41  1  0.42098700  0.21054700  0.13166700  1
  Se  Se42  1  0.92098700  0.28945300  0.63166700  1
  Se  Se43  1  0.07901300  0.71054700  0.63166700  1
  Se  Se44  1  0.78945300  0.42098700  0.13166700  1
  Se  Se45  1  0.21054700  0.57901300  0.13166700  1
  Se  Se46  1  0.28945300  0.07901300  0.63166700  1
  Se  Se47  1  0.71054700  0.92098700  0.63166700  1
  Se  Se48  1  0.42098700  0.21054700  0.86833300  1
  Se  Se49  1  0.57901300  0.78945300  0.86833300  1
  Se  Se50  1  0.07901300  0.71054700  0.36833300  1
  Se  Se51  1  0.92098700  0.28945300  0.36833300  1
  Se  Se52  1  0.21054700  0.57901300  0.86833300  1
  Se  Se53  1  0.78945300  0.42098700  0.86833300  1
  Se  Se54  1  0.71054700  0.92098700  0.36833300  1
  Se  Se55  1  0.28945300  0.07901300  0.36833300  1
  Se  Se56  1  0.50000000  0.50000000  0.50000000  1
  Se  Se57  1  0.00000000  0.00000000  0.00000000  1
