# generated using pymatgen
data_Yb36Sn23
_symmetry_space_group_name_H-M   'P 1'
_cell_length_a   12.38098200
_cell_length_b   12.38098200
_cell_length_c   23.31099000
_cell_angle_alpha   90.00000000
_cell_angle_beta   90.00000000
_cell_angle_gamma   90.00000000
_symmetry_Int_Tables_number   1
_chemical_formula_structural   Yb36Sn23
_chemical_formula_sum   'Yb72 Sn46'
_cell_volume   3573.31170911
_cell_formula_units_Z   2
loop_
 _symmetry_equiv_pos_site_id
 _symmetry_equiv_pos_as_xyz
  1  'x, y, z'
loop_
 _atom_site_type_symbol
 _atom_site_label
 _atom_site_symmetry_multiplicity
 _atom_site_fract_x
 _atom_site_fract_y
 _atom_site_fract_z
 _atom_site_occupancy
  Yb  Yb0  1  0.00000000  0.50000000  0.87253900  1
  Yb  Yb1  1  0.50000000  0.00000000  0.87253900  1
  Yb  Yb2  1  0.00000000  0.50000000  0.12746100  1
  Yb  Yb3  1  0.50000000  0.00000000  0.12746100  1
  Yb  Yb4  1  0.00000000  0.50000000  0.72126200  1
  Yb  Yb5  1  0.50000000  0.00000000  0.72126200  1
  Yb  Yb6  1  0.00000000  0.50000000  0.27873800  1
  Yb  Yb7  1  0.50000000  0.00000000  0.27873800  1
  Yb  Yb8  1  0.00000000  0.50000000  0.57174800  1
  Yb  Yb9  1  0.50000000  0.00000000  0.57174800  1
  Yb  Yb10  1  0.00000000  0.50000000  0.42825200  1
  Yb  Yb11  1  0.50000000  0.00000000  0.42825200  1
  Yb  Yb12  1  0.33329500  0.83329500  0.00000000  1
  Yb  Yb13  1  0.66670500  0.16670500  0.00000000  1
  Yb  Yb14  1  0.16670500  0.33329500  0.00000000  1
  Yb  Yb15  1  0.83329500  0.66670500  0.00000000  1
  Yb  Yb16  1  0.71520300  0.58138200  0.50000000  1
  Yb  Yb17  1  0.28479700  0.41861800  0.50000000  1
  Yb  Yb18  1  0.78479700  0.08138200  0.50000000  1
  Yb  Yb19  1  0.21520300  0.91861800  0.50000000  1
  Yb  Yb20  1  0.58138200  0.28479700  0.50000000  1
  Yb  Yb21  1  0.41861800  0.71520300  0.50000000  1
  Yb  Yb22  1  0.08138200  0.21520300  0.50000000  1
  Yb  Yb23  1  0.91861800  0.78479700  0.50000000  1
  Yb  Yb24  1  0.78745700  0.91335900  0.63111200  1
  Yb  Yb25  1  0.21254300  0.08664100  0.63111200  1
  Yb  Yb26  1  0.71254300  0.41335900  0.63111200  1
  Yb  Yb27  1  0.28745700  0.58664100  0.63111200  1
  Yb  Yb28  1  0.91335900  0.21254300  0.63111200  1
  Yb  Yb29  1  0.08664100  0.78745700  0.63111200  1
  Yb  Yb30  1  0.41335900  0.28745700  0.63111200  1
  Yb  Yb31  1  0.58664100  0.71254300  0.63111200  1
  Yb  Yb32  1  0.21254300  0.08664100  0.36888800  1
  Yb  Yb33  1  0.78745700  0.91335900  0.36888800  1
  Yb  Yb34  1  0.28745700  0.58664100  0.36888800  1
  Yb  Yb35  1  0.71254300  0.41335900  0.36888800  1
  Yb  Yb36  1  0.08664100  0.78745700  0.36888800  1
  Yb  Yb37  1  0.91335900  0.21254300  0.36888800  1
  Yb  Yb38  1  0.58664100  0.71254300  0.36888800  1
  Yb  Yb39  1  0.41335900  0.28745700  0.36888800  1
  Yb  Yb40  1  0.71261500  0.57586000  0.76097200  1
  Yb  Yb41  1  0.28738500  0.42414000  0.76097200  1
  Yb  Yb42  1  0.78738500  0.07586000  0.76097200  1
  Yb  Yb43  1  0.21261500  0.92414000  0.76097200  1
  Yb  Yb44  1  0.57586000  0.28738500  0.76097200  1
  Yb  Yb45  1  0.42414000  0.71261500  0.76097200  1
  Yb  Yb46  1  0.07586000  0.21261500  0.76097200  1
  Yb  Yb47  1  0.92414000  0.78738500  0.76097200  1
  Yb  Yb48  1  0.28738500  0.42414000  0.23902800  1
  Yb  Yb49  1  0.71261500  0.57586000  0.23902800  1
  Yb  Yb50  1  0.21261500  0.92414000  0.23902800  1
  Yb  Yb51  1  0.78738500  0.07586000  0.23902800  1
  Yb  Yb52  1  0.42414000  0.71261500  0.23902800  1
  Yb  Yb53  1  0.57586000  0.28738500  0.23902800  1
  Yb  Yb54  1  0.92414000  0.78738500  0.23902800  1
  Yb  Yb55  1  0.07586000  0.21261500  0.23902800  1
  Yb  Yb56  1  0.29122000  0.55557000  0.90870400  1
  Yb  Yb57  1  0.70878000  0.44443000  0.90870400  1
  Yb  Yb58  1  0.20878000  0.05557000  0.90870400  1
  Yb  Yb59  1  0.79122000  0.94443000  0.90870400  1
  Yb  Yb60  1  0.55557000  0.70878000  0.90870400  1
  Yb  Yb61  1  0.44443000  0.29122000  0.90870400  1
  Yb  Yb62  1  0.05557000  0.79122000  0.90870400  1
  Yb  Yb63  1  0.94443000  0.20878000  0.90870400  1
  Yb  Yb64  1  0.70878000  0.44443000  0.09129600  1
  Yb  Yb65  1  0.29122000  0.55557000  0.09129600  1
  Yb  Yb66  1  0.79122000  0.94443000  0.09129600  1
  Yb  Yb67  1  0.20878000  0.05557000  0.09129600  1
  Yb  Yb68  1  0.44443000  0.29122000  0.09129600  1
  Yb  Yb69  1  0.55557000  0.70878000  0.09129600  1
  Yb  Yb70  1  0.94443000  0.20878000  0.09129600  1
  Yb  Yb71  1  0.05557000  0.79122000  0.09129600  1
  Sn  Sn72  1  0.50000000  0.50000000  0.83318500  1
  Sn  Sn73  1  0.00000000  0.00000000  0.83318500  1
  Sn  Sn74  1  0.50000000  0.50000000  0.16681500  1
  Sn  Sn75  1  0.00000000  0.00000000  0.16681500  1
  Sn  Sn76  1  0.50000000  0.50000000  0.69812800  1
  Sn  Sn77  1  0.00000000  0.00000000  0.69812800  1
  Sn  Sn78  1  0.50000000  0.50000000  0.30187200  1
  Sn  Sn79  1  0.00000000  0.00000000  0.30187200  1
  Sn  Sn80  1  0.50000000  0.50000000  0.56646800  1
  Sn  Sn81  1  0.00000000  0.00000000  0.56646800  1
  Sn  Sn82  1  0.50000000  0.50000000  0.43353200  1
  Sn  Sn83  1  0.00000000  0.00000000  0.43353200  1
  Sn  Sn84  1  0.08846600  0.58846600  0.00000000  1
  Sn  Sn85  1  0.91153400  0.41153400  0.00000000  1
  Sn  Sn86  1  0.41153400  0.08846600  0.00000000  1
  Sn  Sn87  1  0.58846600  0.91153400  0.00000000  1
  Sn  Sn88  1  0.16310800  0.66310800  0.78558300  1
  Sn  Sn89  1  0.83689200  0.33689200  0.78558300  1
  Sn  Sn90  1  0.33689200  0.16310800  0.78558300  1
  Sn  Sn91  1  0.66310800  0.83689200  0.78558300  1
  Sn  Sn92  1  0.83689200  0.33689200  0.21441700  1
  Sn  Sn93  1  0.16310800  0.66310800  0.21441700  1
  Sn  Sn94  1  0.66310800  0.83689200  0.21441700  1
  Sn  Sn95  1  0.33689200  0.16310800  0.21441700  1
  Sn  Sn96  1  0.30478500  0.80478500  0.86909400  1
  Sn  Sn97  1  0.69521500  0.19521500  0.86909400  1
  Sn  Sn98  1  0.19521500  0.30478500  0.86909400  1
  Sn  Sn99  1  0.80478500  0.69521500  0.86909400  1
  Sn  Sn100  1  0.69521500  0.19521500  0.13090600  1
  Sn  Sn101  1  0.30478500  0.80478500  0.13090600  1
  Sn  Sn102  1  0.80478500  0.69521500  0.13090600  1
  Sn  Sn103  1  0.19521500  0.30478500  0.13090600  1
  Sn  Sn104  1  0.50000000  0.50000000  0.00000000  1
  Sn  Sn105  1  0.00000000  0.00000000  0.00000000  1
  Sn  Sn106  1  0.15715500  0.65715500  0.50000000  1
  Sn  Sn107  1  0.84284500  0.34284500  0.50000000  1
  Sn  Sn108  1  0.34284500  0.15715500  0.50000000  1
  Sn  Sn109  1  0.65715500  0.84284500  0.50000000  1
  Sn  Sn110  1  0.34777400  0.84777400  0.64080500  1
  Sn  Sn111  1  0.65222600  0.15222600  0.64080500  1
  Sn  Sn112  1  0.15222600  0.34777400  0.64080500  1
  Sn  Sn113  1  0.84777400  0.65222600  0.64080500  1
  Sn  Sn114  1  0.65222600  0.15222600  0.35919500  1
  Sn  Sn115  1  0.34777400  0.84777400  0.35919500  1
  Sn  Sn116  1  0.84777400  0.65222600  0.35919500  1
  Sn  Sn117  1  0.15222600  0.34777400  0.35919500  1
