# generated using pymatgen
data_Al3P3H7CNO13
_symmetry_space_group_name_H-M   'P 1'
_cell_length_a   10.41161867
_cell_length_b   14.10127936
_cell_length_c   17.23973636
_cell_angle_alpha   90.00000000
_cell_angle_beta   90.00000000
_cell_angle_gamma   90.00000000
_symmetry_Int_Tables_number   1
_chemical_formula_structural   Al3P3H7CNO13
_chemical_formula_sum   'Al24 P24 H56 C8 N8 O104'
_cell_volume   2531.08884630
_cell_formula_units_Z   8
loop_
 _symmetry_equiv_pos_site_id
 _symmetry_equiv_pos_as_xyz
  1  'x, y, z'
loop_
 _atom_site_type_symbol
 _atom_site_label
 _atom_site_symmetry_multiplicity
 _atom_site_fract_x
 _atom_site_fract_y
 _atom_site_fract_z
 _atom_site_occupancy
  Al  Al0  1  0.83054901  0.02236992  0.19776906  1
  Al  Al1  1  0.33054901  0.97763008  0.30223094  1
  Al  Al2  1  0.16945099  0.47763008  0.69776906  1
  Al  Al3  1  0.66945099  0.52236992  0.80223094  1
  Al  Al4  1  0.16945099  0.97763008  0.80223094  1
  Al  Al5  1  0.66945099  0.02236992  0.69776906  1
  Al  Al6  1  0.83054901  0.52236992  0.30223094  1
  Al  Al7  1  0.33054901  0.47763008  0.19776906  1
  Al  Al8  1  0.87416005  0.93704252  0.39314369  1
  Al  Al9  1  0.37416005  0.06295748  0.10685631  1
  Al  Al10  1  0.12583995  0.56295748  0.89314369  1
  Al  Al11  1  0.62583995  0.43704252  0.60685631  1
  Al  Al12  1  0.12583995  0.06295748  0.60685631  1
  Al  Al13  1  0.62583995  0.93704252  0.89314369  1
  Al  Al14  1  0.87416005  0.43704252  0.10685631  1
  Al  Al15  1  0.37416005  0.56295748  0.39314369  1
  Al  Al16  1  0.62151200  0.25778039  0.30736501  1
  Al  Al17  1  0.12151200  0.74221961  0.19263499  1
  Al  Al18  1  0.37848800  0.24221961  0.80736501  1
  Al  Al19  1  0.87848800  0.75778039  0.69263499  1
  Al  Al20  1  0.37848800  0.74221961  0.69263499  1
  Al  Al21  1  0.87848800  0.25778039  0.80736501  1
  Al  Al22  1  0.62151200  0.75778039  0.19263499  1
  Al  Al23  1  0.12151200  0.24221961  0.30736501  1
  P  P24  1  0.86723347  0.24667741  0.20339081  1
  P  P25  1  0.36723347  0.75332259  0.29660919  1
  P  P26  1  0.13276653  0.25332259  0.70339081  1
  P  P27  1  0.63276653  0.74667741  0.79660919  1
  P  P28  1  0.13276653  0.75332259  0.79660919  1
  P  P29  1  0.63276653  0.24667741  0.70339081  1
  P  P30  1  0.86723347  0.74667741  0.29660919  1
  P  P31  1  0.36723347  0.25332259  0.20339081  1
  P  P32  1  0.62690540  0.04025973  0.33727589  1
  P  P33  1  0.12690540  0.95974027  0.16272411  1
  P  P34  1  0.37309460  0.45974027  0.83727589  1
  P  P35  1  0.87309460  0.54025973  0.66272411  1
  P  P36  1  0.37309460  0.95974027  0.66272411  1
  P  P37  1  0.87309460  0.04025973  0.83727589  1
  P  P38  1  0.62690540  0.54025973  0.16272411  1
  P  P39  1  0.12690540  0.45974027  0.33727589  1
  P  P40  1  0.87079491  0.93403819  0.58026472  1
  P  P41  1  0.37079491  0.06596181  0.91973528  1
  P  P42  1  0.12920509  0.56596181  0.08026472  1
  P  P43  1  0.62920509  0.43403819  0.41973528  1
  P  P44  1  0.12920509  0.06596181  0.41973528  1
  P  P45  1  0.62920509  0.93403819  0.08026472  1
  P  P46  1  0.87079491  0.43403819  0.91973528  1
  P  P47  1  0.37079491  0.56596181  0.58026472  1
  H  H48  1  0.96469435  0.89552407  0.94270108  1
  H  H49  1  0.46469435  0.10447593  0.55729892  1
  H  H50  1  0.03530565  0.60447593  0.44270108  1
  H  H51  1  0.53530565  0.39552407  0.05729892  1
  H  H52  1  0.03530565  0.10447593  0.05729892  1
  H  H53  1  0.53530565  0.89552407  0.44270108  1
  H  H54  1  0.96469435  0.39552407  0.55729892  1
  H  H55  1  0.46469435  0.60447593  0.94270108  1
  H  H56  1  0.02792335  0.86158773  0.02840276  1
  H  H57  1  0.52792335  0.13841227  0.47159724  1
  H  H58  1  0.97207665  0.63841227  0.52840276  1
  H  H59  1  0.47207665  0.36158773  0.97159724  1
  H  H60  1  0.97207665  0.13841227  0.97159724  1
  H  H61  1  0.47207665  0.86158773  0.52840276  1
  H  H62  1  0.02792335  0.36158773  0.47159724  1
  H  H63  1  0.52792335  0.63841227  0.02840276  1
  H  H64  1  0.87891458  0.90315253  0.02442772  1
  H  H65  1  0.37891458  0.09684747  0.47557228  1
  H  H66  1  0.12108542  0.59684747  0.52442772  1
  H  H67  1  0.62108542  0.40315253  0.97557228  1
  H  H68  1  0.12108542  0.09684747  0.97557228  1
  H  H69  1  0.62108542  0.90315253  0.52442772  1
  H  H70  1  0.87891458  0.40315253  0.47557228  1
  H  H71  1  0.37891458  0.59684747  0.02442772  1
  H  H72  1  0.99757895  0.97710326  0.28316130  1
  H  H73  1  0.49757895  0.02289674  0.21683870  1
  H  H74  1  0.00242105  0.52289674  0.78316130  1
  H  H75  1  0.50242105  0.47710326  0.71683870  1
  H  H76  1  0.00242105  0.02289674  0.71683870  1
  H  H77  1  0.50242105  0.97710326  0.78316130  1
  H  H78  1  0.99757895  0.47710326  0.21683870  1
  H  H79  1  0.49757895  0.52289674  0.28316130  1
  H  H80  1  0.87980193  0.74891774  0.92271135  1
  H  H81  1  0.37980193  0.25108226  0.57728865  1
  H  H82  1  0.12019807  0.75108226  0.42271135  1
  H  H83  1  0.62019807  0.24891774  0.07728865  1
  H  H84  1  0.12019807  0.25108226  0.07728865  1
  H  H85  1  0.62019807  0.74891774  0.42271135  1
  H  H86  1  0.87980193  0.24891774  0.57728865  1
  H  H87  1  0.37980193  0.75108226  0.92271135  1
  H  H88  1  0.96671363  0.71252618  0.00708594  1
  H  H89  1  0.46671363  0.28747382  0.49291406  1
  H  H90  1  0.03328637  0.78747382  0.50708594  1
  H  H91  1  0.53328637  0.21252618  0.99291406  1
  H  H92  1  0.03328637  0.28747382  0.99291406  1
  H  H93  1  0.53328637  0.71252618  0.50708594  1
  H  H94  1  0.96671363  0.21252618  0.49291406  1
  H  H95  1  0.46671363  0.78747382  0.00708594  1
  H  H96  1  0.80501667  0.75563936  0.01524030  1
  H  H97  1  0.30501667  0.24436064  0.48475970  1
  H  H98  1  0.19498333  0.74436064  0.51524030  1
  H  H99  1  0.69498333  0.25563936  0.98475970  1
  H  H100  1  0.19498333  0.24436064  0.98475970  1
  H  H101  1  0.69498333  0.75563936  0.51524030  1
  H  H102  1  0.80501667  0.25563936  0.48475970  1
  H  H103  1  0.30501667  0.74436064  0.01524030  1
  C  C104  1  0.89599441  0.76235698  0.98425768  1
  C  C105  1  0.39599441  0.23764302  0.51574232  1
  C  C106  1  0.10400559  0.73764302  0.48425768  1
  C  C107  1  0.60400559  0.26235698  0.01574232  1
  C  C108  1  0.10400559  0.23764302  0.01574232  1
  C  C109  1  0.60400559  0.76235698  0.48425768  1
  C  C110  1  0.89599441  0.26235698  0.51574232  1
  C  C111  1  0.39599441  0.73764302  0.98425768  1
  N  N112  1  0.94564609  0.86196198  0.99503336  1
  N  N113  1  0.44564609  0.13803802  0.50496664  1
  N  N114  1  0.05435391  0.63803802  0.49503336  1
  N  N115  1  0.55435391  0.36196198  0.00496664  1
  N  N116  1  0.05435391  0.13803802  0.00496664  1
  N  N117  1  0.55435391  0.86196198  0.49503336  1
  N  N118  1  0.94564609  0.36196198  0.50496664  1
  N  N119  1  0.44564609  0.63803802  0.99503336  1
  O  O120  1  0.82982251  0.14702241  0.17630161  1
  O  O121  1  0.32982251  0.85297759  0.32369839  1
  O  O122  1  0.17017749  0.35297759  0.67630161  1
  O  O123  1  0.67017749  0.64702241  0.82369839  1
  O  O124  1  0.17017749  0.85297759  0.82369839  1
  O  O125  1  0.67017749  0.14702241  0.67630161  1
  O  O126  1  0.82982251  0.64702241  0.32369839  1
  O  O127  1  0.32982251  0.35297759  0.17630161  1
  O  O128  1  0.61770226  0.14850805  0.35798046  1
  O  O129  1  0.11770226  0.85149195  0.14201954  1
  O  O130  1  0.38229774  0.35149195  0.85798046  1
  O  O131  1  0.88229774  0.64850805  0.64201954  1
  O  O132  1  0.38229774  0.85149195  0.64201954  1
  O  O133  1  0.88229774  0.14850805  0.85798046  1
  O  O134  1  0.61770226  0.64850805  0.14201954  1
  O  O135  1  0.11770226  0.35149195  0.35798046  1
  O  O136  1  0.90331658  0.97853670  0.28759972  1
  O  O137  1  0.40331658  0.02146330  0.21240028  1
  O  O138  1  0.09668342  0.52146330  0.78759972  1
  O  O139  1  0.59668342  0.47853670  0.71240028  1
  O  O140  1  0.09668342  0.02146330  0.71240028  1
  O  O141  1  0.59668342  0.97853670  0.78759972  1
  O  O142  1  0.90331658  0.47853670  0.21240028  1
  O  O143  1  0.40331658  0.52146330  0.28759972  1
  O  O144  1  0.85936025  0.31376345  0.13377710  1
  O  O145  1  0.35936025  0.68623655  0.36622290  1
  O  O146  1  0.14063975  0.18623655  0.63377710  1
  O  O147  1  0.64063975  0.81376345  0.86622290  1
  O  O148  1  0.14063975  0.68623655  0.86622290  1
  O  O149  1  0.64063975  0.31376345  0.63377710  1
  O  O150  1  0.85936025  0.81376345  0.36622290  1
  O  O151  1  0.35936025  0.18623655  0.13377710  1
  O  O152  1  0.72156620  0.99697465  0.39576921  1
  O  O153  1  0.22156620  0.00302535  0.10423079  1
  O  O154  1  0.27843380  0.50302535  0.89576921  1
  O  O155  1  0.77843380  0.49697465  0.60423079  1
  O  O156  1  0.27843380  0.00302535  0.60423079  1
  O  O157  1  0.77843380  0.99697465  0.89576921  1
  O  O158  1  0.72156620  0.49697465  0.10423079  1
  O  O159  1  0.22156620  0.50302535  0.39576921  1
  O  O160  1  0.66899046  0.02652820  0.25200607  1
  O  O161  1  0.16899046  0.97347180  0.24799393  1
  O  O162  1  0.33100954  0.47347180  0.75200607  1
  O  O163  1  0.83100954  0.52652820  0.74799393  1
  O  O164  1  0.33100954  0.97347180  0.74799393  1
  O  O165  1  0.83100954  0.02652820  0.75200607  1
  O  O166  1  0.66899046  0.52652820  0.24799393  1
  O  O167  1  0.16899046  0.47347180  0.25200607  1
  O  O168  1  0.96829188  0.01515505  0.58602366  1
  O  O169  1  0.46829188  0.98484495  0.91397634  1
  O  O170  1  0.03170812  0.48484495  0.08602366  1
  O  O171  1  0.53170812  0.51515505  0.41397634  1
  O  O172  1  0.03170812  0.98484495  0.41397634  1
  O  O173  1  0.53170812  0.01515505  0.08602366  1
  O  O174  1  0.96829188  0.51515505  0.91397634  1
  O  O175  1  0.46829188  0.48484495  0.58602366  1
  O  O176  1  0.92009549  0.84594902  0.62606208  1
  O  O177  1  0.42009549  0.15405098  0.87393792  1
  O  O178  1  0.07990451  0.65405098  0.12606208  1
  O  O179  1  0.57990451  0.34594902  0.37393792  1
  O  O180  1  0.07990451  0.15405098  0.37393792  1
  O  O181  1  0.57990451  0.84594902  0.12606208  1
  O  O182  1  0.92009549  0.34594902  0.87393792  1
  O  O183  1  0.42009549  0.65405098  0.62606208  1
  O  O184  1  0.84921748  0.90309329  0.49653829  1
  O  O185  1  0.34921748  0.09690671  0.00346171  1
  O  O186  1  0.15078252  0.59690671  0.99653829  1
  O  O187  1  0.65078252  0.40309329  0.50346171  1
  O  O188  1  0.15078252  0.09690671  0.50346171  1
  O  O189  1  0.65078252  0.90309329  0.99653829  1
  O  O190  1  0.84921748  0.40309329  0.00346171  1
  O  O191  1  0.34921748  0.59690671  0.49653829  1
  O  O192  1  0.73888130  0.96421982  0.61413342  1
  O  O193  1  0.23888130  0.03578018  0.88586658  1
  O  O194  1  0.26111870  0.53578018  0.11413342  1
  O  O195  1  0.76111870  0.46421982  0.38586658  1
  O  O196  1  0.26111870  0.03578018  0.38586658  1
  O  O197  1  0.76111870  0.96421982  0.11413342  1
  O  O198  1  0.73888130  0.46421982  0.88586658  1
  O  O199  1  0.23888130  0.53578018  0.61413342  1
  O  O200  1  0.77539534  0.27962948  0.26931187  1
  O  O201  1  0.27539534  0.72037052  0.23068813  1
  O  O202  1  0.22460466  0.22037052  0.76931187  1
  O  O203  1  0.72460466  0.77962948  0.73068813  1
  O  O204  1  0.22460466  0.72037052  0.73068813  1
  O  O205  1  0.72460466  0.27962948  0.76931187  1
  O  O206  1  0.77539534  0.77962948  0.23068813  1
  O  O207  1  0.27539534  0.22037052  0.26931187  1
  O  O208  1  0.49531508  0.99373905  0.35194026  1
  O  O209  1  0.99531508  0.00626095  0.14805974  1
  O  O210  1  0.50468492  0.50626095  0.85194026  1
  O  O211  1  0.00468492  0.49373905  0.64805974  1
  O  O212  1  0.50468492  0.00626095  0.64805974  1
  O  O213  1  0.00468492  0.99373905  0.85194026  1
  O  O214  1  0.49531508  0.49373905  0.14805974  1
  O  O215  1  0.99531508  0.50626095  0.35194026  1
  O  O216  1  0.00660790  0.24619979  0.23399416  1
  O  O217  1  0.50660790  0.75380021  0.26600584  1
  O  O218  1  0.99339210  0.25380021  0.73399416  1
  O  O219  1  0.49339210  0.74619979  0.76600584  1
  O  O220  1  0.99339210  0.75380021  0.76600584  1
  O  O221  1  0.49339210  0.24619979  0.73399416  1
  O  O222  1  0.00660790  0.74619979  0.26600584  1
  O  O223  1  0.50660790  0.25380021  0.23399416  1
