# generated using pymatgen
data_KAlF4
_symmetry_space_group_name_H-M   'P 1'
_cell_length_a   7.35945900
_cell_length_b   8.38896000
_cell_length_c   12.08879600
_cell_angle_alpha   90.00000000
_cell_angle_beta   90.00000000
_cell_angle_gamma   90.00000000
_symmetry_Int_Tables_number   1
_chemical_formula_structural   KAlF4
_chemical_formula_sum   'K8 Al8 F32'
_cell_volume   746.34059192
_cell_formula_units_Z   8
loop_
 _symmetry_equiv_pos_site_id
 _symmetry_equiv_pos_as_xyz
  1  'x, y, z'
loop_
 _atom_site_type_symbol
 _atom_site_label
 _atom_site_symmetry_multiplicity
 _atom_site_fract_x
 _atom_site_fract_y
 _atom_site_fract_z
 _atom_site_occupancy
  K  K0  1  0.25000000  0.57507100  0.60517800  1
  K  K1  1  0.25000000  0.07507100  0.89482200  1
  K  K2  1  0.75000000  0.42492900  0.39482200  1
  K  K3  1  0.75000000  0.92492900  0.10517800  1
  K  K4  1  0.25000000  0.62715800  0.24965500  1
  K  K5  1  0.25000000  0.12715800  0.25034500  1
  K  K6  1  0.75000000  0.37284200  0.75034500  1
  K  K7  1  0.75000000  0.87284200  0.74965500  1
  Al  Al8  1  0.49606100  0.13081800  0.58191500  1
  Al  Al9  1  0.00393900  0.63081800  0.91808500  1
  Al  Al10  1  0.99606100  0.86918200  0.41808500  1
  Al  Al11  1  0.50393900  0.36918200  0.08191500  1
  Al  Al12  1  0.50393900  0.86918200  0.41808500  1
  Al  Al13  1  0.99606100  0.36918200  0.08191500  1
  Al  Al14  1  0.00393900  0.13081800  0.58191500  1
  Al  Al15  1  0.49606100  0.63081800  0.91808500  1
  F  F16  1  0.50543400  0.09531800  0.42780400  1
  F  F17  1  0.99456600  0.59531800  0.07219600  1
  F  F18  1  0.00543400  0.90468200  0.57219600  1
  F  F19  1  0.49456600  0.40468200  0.92780400  1
  F  F20  1  0.49456600  0.90468200  0.57219600  1
  F  F21  1  0.00543400  0.40468200  0.92780400  1
  F  F22  1  0.99456600  0.09531800  0.42780400  1
  F  F23  1  0.50543400  0.59531800  0.07219600  1
  F  F24  1  0.49876900  0.12101300  0.72791500  1
  F  F25  1  0.00123100  0.62101300  0.77208500  1
  F  F26  1  0.99876900  0.87898700  0.27208500  1
  F  F27  1  0.50123100  0.37898700  0.22791500  1
  F  F28  1  0.50123100  0.87898700  0.27208500  1
  F  F29  1  0.99876900  0.37898700  0.22791500  1
  F  F30  1  0.00123100  0.12101300  0.72791500  1
  F  F31  1  0.49876900  0.62101300  0.77208500  1
  F  F32  1  0.51126900  0.33897900  0.56734700  1
  F  F33  1  0.98873100  0.83897900  0.93265300  1
  F  F34  1  0.01126900  0.66102100  0.43265300  1
  F  F35  1  0.48873100  0.16102100  0.06734700  1
  F  F36  1  0.48873100  0.66102100  0.43265300  1
  F  F37  1  0.01126900  0.16102100  0.06734700  1
  F  F38  1  0.98873100  0.33897900  0.56734700  1
  F  F39  1  0.51126900  0.83897900  0.93265300  1
  F  F40  1  0.75000000  0.11672500  0.58464600  1
  F  F41  1  0.75000000  0.61672500  0.91535400  1
  F  F42  1  0.25000000  0.88327500  0.41535400  1
  F  F43  1  0.25000000  0.38327500  0.08464600  1
  F  F44  1  0.25000000  0.13365100  0.57104700  1
  F  F45  1  0.25000000  0.63365100  0.92895300  1
  F  F46  1  0.75000000  0.86634900  0.42895300  1
  F  F47  1  0.75000000  0.36634900  0.07104700  1
