# generated using pymatgen
data_K3AsS4
_symmetry_space_group_name_H-M   'P 1'
_cell_length_a   9.25560800
_cell_length_b   9.52184800
_cell_length_c   10.81511500
_cell_angle_alpha   90.00000000
_cell_angle_beta   90.00000000
_cell_angle_gamma   90.00000000
_symmetry_Int_Tables_number   1
_chemical_formula_structural   K3AsS4
_chemical_formula_sum   'K12 As4 S16'
_cell_volume   953.14141165
_cell_formula_units_Z   4
loop_
 _symmetry_equiv_pos_site_id
 _symmetry_equiv_pos_as_xyz
  1  'x, y, z'
loop_
 _atom_site_type_symbol
 _atom_site_label
 _atom_site_symmetry_multiplicity
 _atom_site_fract_x
 _atom_site_fract_y
 _atom_site_fract_z
 _atom_site_occupancy
  K  K0  1  0.94187600  0.70354000  0.00837300  1
  K  K1  1  0.05812400  0.29646000  0.50837300  1
  K  K2  1  0.55812400  0.20354000  0.50837300  1
  K  K3  1  0.44187600  0.79646000  0.00837300  1
  K  K4  1  0.94461200  0.70080600  0.41766300  1
  K  K5  1  0.05538800  0.29919400  0.91766300  1
  K  K6  1  0.55538800  0.20080600  0.91766300  1
  K  K7  1  0.44461200  0.79919400  0.41766300  1
  K  K8  1  0.63897600  0.41923400  0.21998100  1
  K  K9  1  0.36102400  0.58076600  0.71998100  1
  K  K10  1  0.86102400  0.91923400  0.71998100  1
  K  K11  1  0.13897600  0.08076600  0.21998100  1
  As  As12  1  0.72085700  0.98127200  0.21137100  1
  As  As13  1  0.27914300  0.01872800  0.71137100  1
  As  As14  1  0.77914300  0.48127200  0.71137100  1
  As  As15  1  0.22085700  0.51872800  0.21137100  1
  S  S16  1  0.69024500  0.75310300  0.21431400  1
  S  S17  1  0.30975500  0.24689700  0.71431400  1
  S  S18  1  0.80975500  0.25310300  0.71431400  1
  S  S19  1  0.19024500  0.74689700  0.21431400  1
  S  S20  1  0.83881400  0.03567200  0.04237900  1
  S  S21  1  0.16118600  0.96432800  0.54237900  1
  S  S22  1  0.66118600  0.53567200  0.54237900  1
  S  S23  1  0.33881400  0.46432800  0.04237900  1
  S  S24  1  0.50933800  0.08759100  0.21248000  1
  S  S25  1  0.49066200  0.91240900  0.71248000  1
  S  S26  1  0.99066200  0.58759100  0.71248000  1
  S  S27  1  0.00933800  0.41240900  0.21248000  1
  S  S28  1  0.83993100  0.04229800  0.37883900  1
  S  S29  1  0.16006900  0.95770200  0.87883900  1
  S  S30  1  0.66006900  0.54229800  0.87883900  1
  S  S31  1  0.33993100  0.45770200  0.37883900  1
