# generated using pymatgen
data_CaAl2Si3O13
_symmetry_space_group_name_H-M   'P 1'
_cell_length_a   9.87922604
_cell_length_b   9.87922604
_cell_length_c   9.65672946
_cell_angle_alpha   84.38305328
_cell_angle_beta   84.38305328
_cell_angle_gamma   140.40788350
_symmetry_Int_Tables_number   1
_chemical_formula_structural   CaAl2Si3O13
_chemical_formula_sum   'Ca2 Al4 Si6 O26'
_cell_volume   575.03336451
_cell_formula_units_Z   2
loop_
 _symmetry_equiv_pos_site_id
 _symmetry_equiv_pos_as_xyz
  1  'x, y, z'
loop_
 _atom_site_type_symbol
 _atom_site_label
 _atom_site_symmetry_multiplicity
 _atom_site_fract_x
 _atom_site_fract_y
 _atom_site_fract_z
 _atom_site_occupancy
  Ca  Ca0  1  0.20565300  0.02198400  0.43958900  1
  Ca  Ca1  1  0.02198400  0.20565300  0.93958900  1
  Al  Al2  1  0.18886300  0.62782700  0.41102600  1
  Al  Al3  1  0.62782700  0.18886300  0.91102600  1
  Al  Al4  1  0.37633000  0.31500300  0.05862900  1
  Al  Al5  1  0.31500300  0.37633000  0.55862900  1
  Si  Si6  1  0.64574400  0.88469200  0.48409300  1
  Si  Si7  1  0.88469200  0.64574400  0.98409300  1
  Si  Si8  1  0.12607400  0.30322600  0.28894600  1
  Si  Si9  1  0.30322600  0.12607400  0.78894600  1
  Si  Si10  1  0.22150700  0.89063300  0.17090800  1
  Si  Si11  1  0.89063300  0.22150700  0.67090800  1
  O  O12  1  0.41682500  0.96634500  0.06488300  1
  O  O13  1  0.96634500  0.41682500  0.56488300  1
  O  O14  1  0.16851200  0.78435000  0.34111900  1
  O  O15  1  0.78435000  0.16851200  0.84111900  1
  O  O16  1  0.29013800  0.10370500  0.18577600  1
  O  O17  1  0.10370500  0.29013800  0.68577600  1
  O  O18  1  0.66180500  0.56732400  0.02524400  1
  O  O19  1  0.56732400  0.66180500  0.52524400  1
  O  O20  1  0.20614600  0.31972400  0.12286300  1
  O  O21  1  0.31972400  0.20614600  0.62286300  1
  O  O22  1  0.23991500  0.29182700  0.39712000  1
  O  O23  1  0.29182700  0.23991500  0.89712000  1
  O  O24  1  0.85858700  0.05992500  0.34044900  1
  O  O25  1  0.05992500  0.85858700  0.84044900  1
  O  O26  1  0.17963800  0.50265000  0.28924100  1
  O  O27  1  0.50265000  0.17963800  0.78924100  1
  O  O28  1  0.99264300  0.71939100  0.12104800  1
  O  O29  1  0.71939100  0.99264300  0.62104800  1
  O  O30  1  0.43906900  0.80751600  0.45685000  1
  O  O31  1  0.80751600  0.43906900  0.95685000  1
  O  O32  1  0.66234700  0.25845500  0.32795300  1
  O  O33  1  0.25845500  0.66234700  0.82795300  1
  O  O34  1  0.70577400  0.81569500  0.05621000  1
  O  O35  1  0.81569500  0.70577400  0.55621000  1
  O  O36  1  0.74383600  0.24032000  0.24005200  1
  O  O37  1  0.24032000  0.74383600  0.74005200  1
