# generated using pymatgen
data_Cu3Ge(PO5)2
_symmetry_space_group_name_H-M   'P 1'
_cell_length_a   4.69281034
_cell_length_b   8.39985500
_cell_length_c   9.66067661
_cell_angle_alpha   90.00000000
_cell_angle_beta   103.89420408
_cell_angle_gamma   90.00000000
_symmetry_Int_Tables_number   1
_chemical_formula_structural   Cu3Ge(PO5)2
_chemical_formula_sum   'Cu6 Ge2 P4 O20'
_cell_volume   369.67119294
_cell_formula_units_Z   2
loop_
 _symmetry_equiv_pos_site_id
 _symmetry_equiv_pos_as_xyz
  1  'x, y, z'
loop_
 _atom_site_type_symbol
 _atom_site_label
 _atom_site_symmetry_multiplicity
 _atom_site_fract_x
 _atom_site_fract_y
 _atom_site_fract_z
 _atom_site_occupancy
  Cu  Cu0  1  0.50000000  0.50000000  0.00000000  1
  Cu  Cu1  1  0.50000000  0.00000000  0.00000000  1
  Cu  Cu2  1  0.55323000  0.43539100  0.33445900  1
  Cu  Cu3  1  0.44677000  0.93539100  0.66554100  1
  Cu  Cu4  1  0.44677000  0.56460900  0.66554100  1
  Cu  Cu5  1  0.55323000  0.06460900  0.33445900  1
  Ge  Ge6  1  0.81587800  0.25000000  0.82273400  1
  Ge  Ge7  1  0.18412200  0.75000000  0.17726600  1
  P  P8  1  0.00035200  0.25000000  0.13206400  1
  P  P9  1  0.99964800  0.75000000  0.86793600  1
  P  P10  1  0.90409200  0.75000000  0.45639500  1
  P  P11  1  0.09590800  0.25000000  0.54360500  1
  O  O12  1  0.02517000  0.25000000  0.69473400  1
  O  O13  1  0.97483000  0.75000000  0.30526600  1
  O  O14  1  0.10637700  0.25000000  0.98565700  1
  O  O15  1  0.89362300  0.75000000  0.01434300  1
  O  O16  1  0.61470700  0.42551300  0.82607800  1
  O  O17  1  0.38529300  0.92551300  0.17392200  1
  O  O18  1  0.38529300  0.57448700  0.17392200  1
  O  O19  1  0.61470700  0.07448700  0.82607800  1
  O  O20  1  0.82260000  0.40188600  0.13914300  1
  O  O21  1  0.17740000  0.90188600  0.86085700  1
  O  O22  1  0.17740000  0.59811400  0.86085700  1
  O  O23  1  0.82260000  0.09811400  0.13914300  1
  O  O24  1  0.28949000  0.25000000  0.25007800  1
  O  O25  1  0.71051000  0.75000000  0.74992200  1
  O  O26  1  0.80149600  0.25000000  0.42778900  1
  O  O27  1  0.19850400  0.75000000  0.57221100  1
  O  O28  1  0.72859400  0.59880600  0.46945300  1
  O  O29  1  0.27140600  0.09880600  0.53054700  1
  O  O30  1  0.27140600  0.40119400  0.53054700  1
  O  O31  1  0.72859400  0.90119400  0.46945300  1
