# generated using pymatgen
data_H48PtC32S4(N3O4)2
_symmetry_space_group_name_H-M   'P 1'
_cell_length_a   11.15922435
_cell_length_b   14.37256381
_cell_length_c   14.13503519
_cell_angle_alpha   105.84477316
_cell_angle_beta   90.00000000
_cell_angle_gamma   90.00000000
_symmetry_Int_Tables_number   1
_chemical_formula_structural   H48PtC32S4(N3O4)2
_chemical_formula_sum   'H96 Pt2 C64 S8 N12 O16'
_cell_volume   2180.93361184
_cell_formula_units_Z   2
loop_
 _symmetry_equiv_pos_site_id
 _symmetry_equiv_pos_as_xyz
  1  'x, y, z'
loop_
 _atom_site_type_symbol
 _atom_site_label
 _atom_site_symmetry_multiplicity
 _atom_site_fract_x
 _atom_site_fract_y
 _atom_site_fract_z
 _atom_site_occupancy
  H  H0  1  0.81599858  0.64640708  0.02973810  1
  H  H1  1  0.31599858  0.85359292  0.97026190  1
  H  H2  1  0.18400142  0.35359292  0.97026190  1
  H  H3  1  0.68400142  0.14640708  0.02973810  1
  H  H4  1  0.69348043  0.72724745  0.07498747  1
  H  H5  1  0.19348043  0.77275255  0.92501253  1
  H  H6  1  0.30651957  0.27275255  0.92501253  1
  H  H7  1  0.80651957  0.22724745  0.07498747  1
  H  H8  1  0.68984863  0.60555262  0.08377432  1
  H  H9  1  0.18984863  0.89444738  0.91622568  1
  H  H10  1  0.31015137  0.39444738  0.91622568  1
  H  H11  1  0.81015137  0.10555262  0.08377432  1
  H  H12  1  0.49528196  0.61247900  0.86795732  1
  H  H13  1  0.99528196  0.88752100  0.13204268  1
  H  H14  1  0.50471804  0.38752100  0.13204268  1
  H  H15  1  0.00471804  0.11247900  0.86795732  1
  H  H16  1  0.49026686  0.58003184  0.98168522  1
  H  H17  1  0.99026686  0.91996816  0.01831478  1
  H  H18  1  0.50973314  0.41996816  0.01831478  1
  H  H19  1  0.00973314  0.08003184  0.98168522  1
  H  H20  1  0.50244485  0.70423644  0.98265734  1
  H  H21  1  0.00244485  0.79576356  0.01734266  1
  H  H22  1  0.49755515  0.29576356  0.01734266  1
  H  H23  1  0.99755515  0.20423644  0.98265734  1
  H  H24  1  0.36938971  0.64635935  0.14020730  1
  H  H25  1  0.86938971  0.85364065  0.85979270  1
  H  H26  1  0.63061029  0.35364065  0.85979270  1
  H  H27  1  0.13061029  0.14635935  0.14020730  1
  H  H28  1  0.47134373  0.72625967  0.22117198  1
  H  H29  1  0.97134373  0.77374033  0.77882802  1
  H  H30  1  0.52865627  0.27374033  0.77882802  1
  H  H31  1  0.02865627  0.22625967  0.22117198  1
  H  H32  1  0.46591055  0.60093981  0.21853652  1
  H  H33  1  0.96591055  0.89906019  0.78146348  1
  H  H34  1  0.53408945  0.39906019  0.78146348  1
  H  H35  1  0.03408945  0.10093981  0.21853652  1
  H  H36  1  0.42462341  0.65214257  0.40040006  1
  H  H37  1  0.92462341  0.84785743  0.59959994  1
  H  H38  1  0.57537659  0.34785743  0.59959994  1
  H  H39  1  0.07537659  0.15214257  0.40040006  1
  H  H40  1  0.42276630  0.77717868  0.40360349  1
  H  H41  1  0.92276630  0.72282132  0.59639651  1
  H  H42  1  0.57723370  0.22282132  0.59639651  1
  H  H43  1  0.07723370  0.27717868  0.40360349  1
  H  H44  1  0.29369046  0.72380530  0.44255926  1
  H  H45  1  0.79369046  0.77619470  0.55744074  1
  H  H46  1  0.70630954  0.27619470  0.55744074  1
  H  H47  1  0.20630954  0.22380530  0.44255926  1
  H  H48  1  0.87614545  0.55645505  0.47851666  1
  H  H49  1  0.37614545  0.94354495  0.52148334  1
  H  H50  1  0.12385455  0.44354495  0.52148334  1
  H  H51  1  0.62385455  0.05645505  0.47851666  1
  H  H52  1  0.93419501  0.52357177  0.35494580  1
  H  H53  1  0.43419501  0.97642823  0.64505420  1
  H  H54  1  0.06580499  0.47642823  0.64505420  1
  H  H55  1  0.56580499  0.02357177  0.35494580  1
  H  H56  1  0.81955882  0.61427867  0.38945371  1
  H  H57  1  0.31955882  0.88572133  0.61054629  1
  H  H58  1  0.18044118  0.38572133  0.61054629  1
  H  H59  1  0.68044118  0.11427867  0.38945371  1
  H  H60  1  0.62113880  0.56588299  0.43971169  1
  H  H61  1  0.12113880  0.93411701  0.56028831  1
  H  H62  1  0.37886120  0.43411701  0.56028831  1
  H  H63  1  0.87886120  0.06588299  0.43971169  1
  H  H64  1  0.58773673  0.43952013  0.41826116  1
  H  H65  1  0.08773673  0.06047987  0.58173884  1
  H  H66  1  0.41226327  0.56047987  0.58173884  1
  H  H67  1  0.91226327  0.93952013  0.41826116  1
  H  H68  1  0.68921320  0.49983651  0.51569726  1
  H  H69  1  0.18921320  0.00016349  0.48430274  1
  H  H70  1  0.31078680  0.50016349  0.48430274  1
  H  H71  1  0.81078680  0.99983651  0.51569726  1
  H  H72  1  0.79649166  0.44272038  0.21934669  1
  H  H73  1  0.29649166  0.05727962  0.78065331  1
  H  H74  1  0.20350834  0.55727962  0.78065331  1
  H  H75  1  0.70350834  0.94272038  0.21934669  1
  H  H76  1  0.64843546  0.40813535  0.24975980  1
  H  H77  1  0.14843546  0.09186465  0.75024020  1
  H  H78  1  0.35156454  0.59186465  0.75024020  1
  H  H79  1  0.85156454  0.90813535  0.24975980  1
  H  H80  1  0.68516311  0.53323034  0.26612903  1
  H  H81  1  0.18516311  0.96676966  0.73387097  1
  H  H82  1  0.31483689  0.46676966  0.73387097  1
  H  H83  1  0.81483689  0.03323034  0.26612903  1
  H  H84  1  0.83808382  0.37915706  0.45068829  1
  H  H85  1  0.33808382  0.12084294  0.54931171  1
  H  H86  1  0.16191618  0.62084294  0.54931171  1
  H  H87  1  0.66191618  0.87915706  0.45068829  1
  H  H88  1  0.74264447  0.31859886  0.34951380  1
  H  H89  1  0.24264447  0.18140114  0.65048620  1
  H  H90  1  0.25735553  0.68140114  0.65048620  1
  H  H91  1  0.75735553  0.81859886  0.34951380  1
  H  H92  1  0.88976275  0.35977275  0.32677743  1
  H  H93  1  0.38976275  0.14022725  0.67322257  1
  H  H94  1  0.11023725  0.64022725  0.67322257  1
  H  H95  1  0.61023725  0.85977275  0.32677743  1
  Pt  Pt96  1  0.00000000  0.50000000  -0.00000000  1
  Pt  Pt97  1  0.50000000  -0.00000000  -0.00000000  1
  C  C98  1  0.84324964  0.58058737  0.82862929  1
  C  C99  1  0.34324964  0.91941263  0.17137071  1
  C  C100  1  0.15675036  0.41941263  0.17137071  1
  C  C101  1  0.65675036  0.08058737  0.82862929  1
  C  C102  1  0.81076045  0.56410177  0.72410275  1
  C  C103  1  0.31076045  0.93589823  0.27589725  1
  C  C104  1  0.18923955  0.43589823  0.27589725  1
  C  C105  1  0.68923955  0.06410177  0.72410275  1
  C  C106  1  0.67970471  0.57162327  0.75360749  1
  C  C107  1  0.17970471  0.92837673  0.24639251  1
  C  C108  1  0.32029529  0.42837673  0.24639251  1
  C  C109  1  0.82029529  0.07162327  0.75360749  1
  C  C110  1  0.71991123  0.59498680  0.85819296  1
  C  C111  1  0.21991123  0.90501320  0.14180704  1
  C  C112  1  0.28008877  0.40501320  0.14180704  1
  C  C113  1  0.78008877  0.09498680  0.85819296  1
  C  C114  1  0.12836785  0.65544778  0.18817455  1
  C  C115  1  0.62836785  0.84455222  0.81182545  1
  C  C116  1  0.87163215  0.34455222  0.81182545  1
  C  C117  1  0.37163215  0.15544778  0.18817455  1
  C  C118  1  0.01975435  0.68701250  0.24967872  1
  C  C119  1  0.51975435  0.81298750  0.75032128  1
  C  C120  1  0.98024565  0.31298750  0.75032128  1
  C  C121  1  0.48024565  0.18701250  0.24967872  1
  C  C122  1  0.10042532  0.71190126  0.33980142  1
  C  C123  1  0.60042532  0.78809874  0.66019858  1
  C  C124  1  0.89957468  0.28809874  0.66019858  1
  C  C125  1  0.39957468  0.21190126  0.33980142  1
  C  C126  1  0.20439032  0.68351292  0.27250682  1
  C  C127  1  0.70439032  0.81648708  0.72749318  1
  C  C128  1  0.79560968  0.31648708  0.72749318  1
  C  C129  1  0.29560968  0.18351292  0.27250682  1
  C  C130  1  0.71863849  0.65213422  0.03785981  1
  C  C131  1  0.21863849  0.84786578  0.96214019  1
  C  C132  1  0.28136151  0.34786578  0.96214019  1
  C  C133  1  0.78136151  0.15213422  0.03785981  1
  C  C134  1  0.52936945  0.63006344  0.94332936  1
  C  C135  1  0.02936945  0.86993656  0.05667064  1
  C  C136  1  0.47063055  0.36993656  0.05667064  1
  C  C137  1  0.97063055  0.13006344  0.94332936  1
  C  C138  1  0.41199949  0.66327020  0.21267019  1
  C  C139  1  0.91199949  0.83672980  0.78732981  1
  C  C140  1  0.58800051  0.33672980  0.78732981  1
  C  C141  1  0.08800051  0.16327020  0.21267019  1
  C  C142  1  0.36809095  0.71129407  0.39014391  1
  C  C143  1  0.86809095  0.78870593  0.60985609  1
  C  C144  1  0.63190905  0.28870593  0.60985609  1
  C  C145  1  0.13190905  0.21129407  0.39014391  1
  C  C146  1  0.85493508  0.54713743  0.40088262  1
  C  C147  1  0.35493508  0.95286257  0.59911738  1
  C  C148  1  0.14506492  0.45286257  0.59911738  1
  C  C149  1  0.64506492  0.04713743  0.40088262  1
  C  C150  1  0.65656891  0.49534293  0.44153555  1
  C  C151  1  0.15656891  0.00465707  0.55846445  1
  C  C152  1  0.34343109  0.50465707  0.55846445  1
  C  C153  1  0.84343109  0.99534293  0.44153555  1
  C  C154  1  0.71937067  0.46260837  0.26873252  1
  C  C155  1  0.21937067  0.03739163  0.73126748  1
  C  C156  1  0.28062933  0.53739163  0.73126748  1
  C  C157  1  0.78062933  0.96260837  0.26873252  1
  C  C158  1  0.81128047  0.37448500  0.37504035  1
  C  C159  1  0.31128047  0.12551500  0.62495965  1
  C  C160  1  0.18871953  0.62551500  0.62495965  1
  C  C161  1  0.68871953  0.87448500  0.37504035  1
  S  S162  1  0.98268744  0.58257751  0.87854935  1
  S  S163  1  0.48268744  0.91742249  0.12145065  1
  S  S164  1  0.01731256  0.41742249  0.12145065  1
  S  S165  1  0.51731256  0.08257751  0.87854935  1
  S  S166  1  0.15762983  0.60471956  0.06675045  1
  S  S167  1  0.65762983  0.89528044  0.93324955  1
  S  S168  1  0.84237017  0.39528044  0.93324955  1
  S  S169  1  0.34237017  0.10471956  0.06675045  1
  N  N170  1  0.65998815  0.62225250  0.94218672  1
  N  N171  1  0.15998815  0.87774750  0.05781328  1
  N  N172  1  0.34001185  0.37774750  0.05781328  1
  N  N173  1  0.84001185  0.12225250  0.94218672  1
  N  N174  1  0.32163295  0.68518859  0.28974938  1
  N  N175  1  0.82163295  0.81481141  0.71025062  1
  N  N176  1  0.67836705  0.31481141  0.71025062  1
  N  N177  1  0.17836705  0.18518859  0.28974938  1
  N  N178  1  0.76028033  0.47019735  0.37157493  1
  N  N179  1  0.26028033  0.02980265  0.62842507  1
  N  N180  1  0.23971967  0.52980265  0.62842507  1
  N  N181  1  0.73971967  0.97019735  0.37157493  1
  O  O182  1  0.86747055  0.55030251  0.64605780  1
  O  O183  1  0.36747055  0.94969749  0.35394220  1
  O  O184  1  0.13252945  0.44969749  0.35394220  1
  O  O185  1  0.63252945  0.05030251  0.64605780  1
  O  O186  1  0.58162419  0.55864661  0.71118859  1
  O  O187  1  0.08162419  0.94135339  0.28881141  1
  O  O188  1  0.41837581  0.44135339  0.28881141  1
  O  O189  1  0.91837581  0.05864661  0.71118859  1
  O  O190  1  0.91141472  0.69365399  0.23490998  1
  O  O191  1  0.41141472  0.80634601  0.76509002  1
  O  O192  1  0.08858528  0.30634601  0.76509002  1
  O  O193  1  0.58858528  0.19365399  0.23490998  1
  O  O194  1  0.08799797  0.74209424  0.43004745  1
  O  O195  1  0.58799797  0.75790576  0.56995255  1
  O  O196  1  0.91200203  0.25790576  0.56995255  1
  O  O197  1  0.41200203  0.24209424  0.43004745  1
