# generated using pymatgen
data_BaH6C2SNO5
_symmetry_space_group_name_H-M   'P 1'
_cell_length_a   6.96439500
_cell_length_b   6.98622704
_cell_length_c   10.13791154
_cell_angle_alpha   85.61120509
_cell_angle_beta   107.59387404
_cell_angle_gamma   112.66687829
_symmetry_Int_Tables_number   1
_chemical_formula_structural   BaH6C2SNO5
_chemical_formula_sum   'Ba2 H12 C4 S2 N2 O10'
_cell_volume   433.42072060
_cell_formula_units_Z   2
loop_
 _symmetry_equiv_pos_site_id
 _symmetry_equiv_pos_as_xyz
  1  'x, y, z'
loop_
 _atom_site_type_symbol
 _atom_site_label
 _atom_site_symmetry_multiplicity
 _atom_site_fract_x
 _atom_site_fract_y
 _atom_site_fract_z
 _atom_site_occupancy
  Ba  Ba0  1  0.80574700  0.69217300  0.49771400  1
  Ba  Ba1  1  0.19425300  0.30782700  0.50228600  1
  H  H2  1  0.59010900  0.64356100  0.77719200  1
  H  H3  1  0.40989100  0.35643900  0.22280800  1
  H  H4  1  0.66777600  0.45453200  0.79702700  1
  H  H5  1  0.33222400  0.54546800  0.20297300  1
  H  H6  1  0.93508500  0.95100500  0.20150200  1
  H  H7  1  0.06491500  0.04899500  0.79849800  1
  H  H8  1  0.75415900  0.02387200  0.21370800  1
  H  H9  1  0.24584100  0.97612800  0.78629200  1
  H  H10  1  0.75016600  0.34717700  0.25685600  1
  H  H11  1  0.24983400  0.65282300  0.74314400  1
  H  H12  1  0.95237400  0.54364100  0.24059500  1
  H  H13  1  0.04762600  0.45635900  0.75940500  1
  C  C14  1  0.60546200  0.10083300  0.50890100  1
  C  C15  1  0.39453800  0.89916700  0.49109900  1
  C  C16  1  0.66500400  0.02152800  0.86824700  1
  C  C17  1  0.33499600  0.97847200  0.13175300  1
  S  S18  1  0.87739000  0.23469800  0.92763100  1
  S  S19  1  0.12261000  0.76530200  0.07236900  1
  N  N20  1  0.51025500  0.86565500  0.82668400  1
  N  N21  1  0.48974500  0.13434500  0.17331600  1
  O  O22  1  0.58681200  0.27262700  0.51573600  1
  O  O23  1  0.41318800  0.72737300  0.48426400  1
  O  O24  1  0.77932400  0.07720700  0.51528100  1
  O  O25  1  0.22067600  0.92279300  0.48471900  1
  O  O26  1  0.60393500  0.53590900  0.72725600  1
  O  O27  1  0.39606500  0.46409100  0.27274400  1
  O  O28  1  0.87189300  0.98001500  0.26799400  1
  O  O29  1  0.12810700  0.01998500  0.73200600  1
  O  O30  1  0.88762500  0.45888600  0.30959500  1
  O  O31  1  0.11237500  0.54111400  0.69040500  1
