# generated using pymatgen
data_HgN2O3
_symmetry_space_group_name_H-M   'P 1'
_cell_length_a   10.47750400
_cell_length_b   10.47750400
_cell_length_c   10.47750400
_cell_angle_alpha   90.00000000
_cell_angle_beta   90.00000000
_cell_angle_gamma   90.00000000
_symmetry_Int_Tables_number   1
_chemical_formula_structural   HgN2O3
_chemical_formula_sum   'Hg12 N24 O36'
_cell_volume   1150.20037782
_cell_formula_units_Z   12
loop_
 _symmetry_equiv_pos_site_id
 _symmetry_equiv_pos_as_xyz
  1  'x, y, z'
loop_
 _atom_site_type_symbol
 _atom_site_label
 _atom_site_symmetry_multiplicity
 _atom_site_fract_x
 _atom_site_fract_y
 _atom_site_fract_z
 _atom_site_occupancy
  Hg  Hg0  1  0.64931000  0.37500000  0.10069000  1
  Hg  Hg1  1  0.85069000  0.62500000  0.60069000  1
  Hg  Hg2  1  0.35069000  0.87500000  0.39931000  1
  Hg  Hg3  1  0.14931000  0.12500000  0.89931000  1
  Hg  Hg4  1  0.37500000  0.10069000  0.64931000  1
  Hg  Hg5  1  0.62500000  0.60069000  0.85069000  1
  Hg  Hg6  1  0.87500000  0.39931000  0.35069000  1
  Hg  Hg7  1  0.12500000  0.89931000  0.14931000  1
  Hg  Hg8  1  0.10069000  0.64931000  0.37500000  1
  Hg  Hg9  1  0.60069000  0.85069000  0.62500000  1
  Hg  Hg10  1  0.39931000  0.35069000  0.87500000  1
  Hg  Hg11  1  0.89931000  0.14931000  0.12500000  1
  N  N12  1  0.53705300  0.46294700  0.96294700  1
  N  N13  1  0.96294700  0.53705300  0.46294700  1
  N  N14  1  0.46294700  0.96294700  0.53705300  1
  N  N15  1  0.03705300  0.03705300  0.03705300  1
  N  N16  1  0.21294700  0.78705300  0.28705300  1
  N  N17  1  0.78705300  0.28705300  0.21294700  1
  N  N18  1  0.28705300  0.21294700  0.78705300  1
  N  N19  1  0.71294700  0.71294700  0.71294700  1
  N  N20  1  0.62500000  0.87500000  0.12500000  1
  N  N21  1  0.87500000  0.12500000  0.62500000  1
  N  N22  1  0.37500000  0.37500000  0.37500000  1
  N  N23  1  0.12500000  0.62500000  0.87500000  1
  N  N24  1  0.33613400  0.58613400  0.62500000  1
  N  N25  1  0.16386600  0.41386600  0.12500000  1
  N  N26  1  0.66386600  0.08613400  0.87500000  1
  N  N27  1  0.83613400  0.91386600  0.37500000  1
  N  N28  1  0.58613400  0.62500000  0.33613400  1
  N  N29  1  0.41386600  0.12500000  0.16386600  1
  N  N30  1  0.08613400  0.87500000  0.66386600  1
  N  N31  1  0.91386600  0.37500000  0.83613400  1
  N  N32  1  0.62500000  0.33613400  0.58613400  1
  N  N33  1  0.12500000  0.16386600  0.41386600  1
  N  N34  1  0.87500000  0.66386600  0.08613400  1
  N  N35  1  0.37500000  0.83613400  0.91386600  1
  O  O36  1  0.25181200  0.50181200  0.62500000  1
  O  O37  1  0.24818800  0.49818800  0.12500000  1
  O  O38  1  0.74818800  0.00181200  0.87500000  1
  O  O39  1  0.75181200  0.99818800  0.37500000  1
  O  O40  1  0.50181200  0.62500000  0.25181200  1
  O  O41  1  0.49818800  0.12500000  0.24818800  1
  O  O42  1  0.00181200  0.87500000  0.74818800  1
  O  O43  1  0.99818800  0.37500000  0.75181200  1
  O  O44  1  0.62500000  0.25181200  0.50181200  1
  O  O45  1  0.12500000  0.24818800  0.49818800  1
  O  O46  1  0.87500000  0.74818800  0.00181200  1
  O  O47  1  0.37500000  0.75181200  0.99818800  1
  O  O48  1  0.38104900  0.62744800  0.72977900  1
  O  O49  1  0.11895100  0.37255200  0.22977900  1
  O  O50  1  0.61895100  0.12744800  0.77022100  1
  O  O51  1  0.88104900  0.87255200  0.27022100  1
  O  O52  1  0.62744800  0.72977900  0.38104900  1
  O  O53  1  0.37255200  0.22977900  0.11895100  1
  O  O54  1  0.12744800  0.77022100  0.61895100  1
  O  O55  1  0.87255200  0.27022100  0.88104900  1
  O  O56  1  0.72977900  0.38104900  0.62744800  1
  O  O57  1  0.22977900  0.11895100  0.37255200  1
  O  O58  1  0.77022100  0.61895100  0.12744800  1
  O  O59  1  0.27022100  0.88104900  0.87255200  1
  O  O60  1  0.36895100  0.02022100  0.12255200  1
  O  O61  1  0.63104900  0.52022100  0.37744800  1
  O  O62  1  0.13104900  0.97977900  0.62255200  1
  O  O63  1  0.86895100  0.47977900  0.87744800  1
  O  O64  1  0.12255200  0.36895100  0.02022100  1
  O  O65  1  0.37744800  0.63104900  0.52022100  1
  O  O66  1  0.62255200  0.13104900  0.97977900  1
  O  O67  1  0.87744800  0.86895100  0.47977900  1
  O  O68  1  0.02022100  0.12255200  0.36895100  1
  O  O69  1  0.52022100  0.37744800  0.63104900  1
  O  O70  1  0.97977900  0.62255200  0.13104900  1
  O  O71  1  0.47977900  0.87744800  0.86895100  1
