# generated using pymatgen
data_AgIO3
_symmetry_space_group_name_H-M   'P 1'
_cell_length_a   5.91228300
_cell_length_b   6.29886900
_cell_length_c   17.39620200
_cell_angle_alpha   90.00000000
_cell_angle_beta   90.00000000
_cell_angle_gamma   90.00000000
_symmetry_Int_Tables_number   1
_chemical_formula_structural   AgIO3
_chemical_formula_sum   'Ag8 I8 O24'
_cell_volume   647.84667211
_cell_formula_units_Z   8
loop_
 _symmetry_equiv_pos_site_id
 _symmetry_equiv_pos_as_xyz
  1  'x, y, z'
loop_
 _atom_site_type_symbol
 _atom_site_label
 _atom_site_symmetry_multiplicity
 _atom_site_fract_x
 _atom_site_fract_y
 _atom_site_fract_z
 _atom_site_occupancy
  Ag  Ag0  1  0.51659700  0.28728100  0.53993200  1
  Ag  Ag1  1  0.48340300  0.78728100  0.96006800  1
  Ag  Ag2  1  0.98340300  0.71271900  0.03993200  1
  Ag  Ag3  1  0.01659700  0.21271900  0.46006800  1
  Ag  Ag4  1  0.48340300  0.71271900  0.46006800  1
  Ag  Ag5  1  0.51659700  0.21271900  0.03993200  1
  Ag  Ag6  1  0.01659700  0.28728100  0.96006800  1
  Ag  Ag7  1  0.98340300  0.78728100  0.53993200  1
  I  I8  1  0.01352100  0.30953000  0.66104000  1
  I  I9  1  0.98647900  0.80953000  0.83896000  1
  I  I10  1  0.48647900  0.69047000  0.16104000  1
  I  I11  1  0.51352100  0.19047000  0.33896000  1
  I  I12  1  0.98647900  0.69047000  0.33896000  1
  I  I13  1  0.01352100  0.19047000  0.16104000  1
  I  I14  1  0.51352100  0.30953000  0.83896000  1
  I  I15  1  0.48647900  0.80953000  0.66104000  1
  O  O16  1  0.14291800  0.40388100  0.56947200  1
  O  O17  1  0.85708200  0.90388100  0.93052800  1
  O  O18  1  0.35708200  0.59611900  0.06947200  1
  O  O19  1  0.64291800  0.09611900  0.43052800  1
  O  O20  1  0.85708200  0.59611900  0.43052800  1
  O  O21  1  0.14291800  0.09611900  0.06947200  1
  O  O22  1  0.64291800  0.40388100  0.93052800  1
  O  O23  1  0.35708200  0.90388100  0.56947200  1
  O  O24  1  0.24448300  0.15854100  0.70524600  1
  O  O25  1  0.75551700  0.65854100  0.79475400  1
  O  O26  1  0.25551700  0.84145900  0.20524600  1
  O  O27  1  0.74448300  0.34145900  0.29475400  1
  O  O28  1  0.75551700  0.84145900  0.29475400  1
  O  O29  1  0.24448300  0.34145900  0.20524600  1
  O  O30  1  0.74448300  0.15854100  0.79475400  1
  O  O31  1  0.25551700  0.65854100  0.70524600  1
  O  O32  1  0.84247800  0.09853700  0.61366700  1
  O  O33  1  0.15752200  0.59853700  0.88633300  1
  O  O34  1  0.65752200  0.90146300  0.11366700  1
  O  O35  1  0.34247800  0.40146300  0.38633300  1
  O  O36  1  0.15752200  0.90146300  0.38633300  1
  O  O37  1  0.84247800  0.40146300  0.11366700  1
  O  O38  1  0.34247800  0.09853700  0.88633300  1
  O  O39  1  0.65752200  0.59853700  0.61366700  1
