# generated using pymatgen
data_ScV(SeO4)2
_symmetry_space_group_name_H-M   'P 1'
_cell_length_a   16.23768400
_cell_length_b   6.72698200
_cell_length_c   6.80377633
_cell_angle_alpha   86.82215702
_cell_angle_beta   90.00000000
_cell_angle_gamma   90.00000000
_symmetry_Int_Tables_number   1
_chemical_formula_structural   ScV(SeO4)2
_chemical_formula_sum   'Sc4 V4 Se8 O32'
_cell_volume   742.03781848
_cell_formula_units_Z   4
loop_
 _symmetry_equiv_pos_site_id
 _symmetry_equiv_pos_as_xyz
  1  'x, y, z'
loop_
 _atom_site_type_symbol
 _atom_site_label
 _atom_site_symmetry_multiplicity
 _atom_site_fract_x
 _atom_site_fract_y
 _atom_site_fract_z
 _atom_site_occupancy
  Sc  Sc0  1  0.19694900  0.55773200  0.14328200  1
  Sc  Sc1  1  0.69694900  0.44226800  0.35671800  1
  Sc  Sc2  1  0.80305100  0.44226800  0.85671800  1
  Sc  Sc3  1  0.30305100  0.55773200  0.64328200  1
  V  V4  1  0.01595900  0.83087400  0.18513000  1
  V  V5  1  0.51595900  0.16912600  0.31487000  1
  V  V6  1  0.98404100  0.16912600  0.81487000  1
  V  V7  1  0.48404100  0.83087400  0.68513000  1
  Se  Se8  1  0.18308500  0.06566800  0.97542400  1
  Se  Se9  1  0.68308500  0.93433200  0.52457600  1
  Se  Se10  1  0.81691500  0.93433200  0.02457600  1
  Se  Se11  1  0.31691500  0.06566800  0.47542400  1
  Se  Se12  1  0.39357300  0.54003100  0.14712600  1
  Se  Se13  1  0.89357300  0.45996900  0.35287400  1
  Se  Se14  1  0.60642700  0.45996900  0.85287400  1
  Se  Se15  1  0.10642700  0.54003100  0.64712600  1
  O  O16  1  0.07125700  0.00595600  0.97227400  1
  O  O17  1  0.57125700  0.99404400  0.52772600  1
  O  O18  1  0.92874300  0.99404400  0.02772600  1
  O  O19  1  0.42874300  0.00595600  0.47227400  1
  O  O20  1  0.06992000  0.62023800  0.13402100  1
  O  O21  1  0.56992000  0.37976200  0.36597900  1
  O  O22  1  0.93008000  0.37976200  0.86597900  1
  O  O23  1  0.43008000  0.62023800  0.63402100  1
  O  O24  1  0.06039900  0.92612100  0.37133000  1
  O  O25  1  0.56039900  0.07387900  0.12867000  1
  O  O26  1  0.93960100  0.07387900  0.62867000  1
  O  O27  1  0.43960100  0.92612100  0.87133000  1
  O  O28  1  0.41862900  0.28886600  0.19033900  1
  O  O29  1  0.91862900  0.71113400  0.30966100  1
  O  O30  1  0.58137100  0.71113400  0.80966100  1
  O  O31  1  0.08137100  0.28886600  0.69033900  1
  O  O32  1  0.18448700  0.24937400  0.13717100  1
  O  O33  1  0.68448700  0.75062600  0.36282900  1
  O  O34  1  0.81551300  0.75062600  0.86282900  1
  O  O35  1  0.31551300  0.24937400  0.63717100  1
  O  O36  1  0.21572300  0.86815000  0.12008600  1
  O  O37  1  0.71572300  0.13185000  0.37991400  1
  O  O38  1  0.78427700  0.13185000  0.87991400  1
  O  O39  1  0.28427700  0.86815000  0.62008600  1
  O  O40  1  0.32161700  0.52421900  0.96321100  1
  O  O41  1  0.82161700  0.47578100  0.53678900  1
  O  O42  1  0.67838300  0.47578100  0.03678900  1
  O  O43  1  0.17838300  0.52421900  0.46321100  1
  O  O44  1  0.31719700  0.56730600  0.32105700  1
  O  O45  1  0.81719700  0.43269400  0.17894300  1
  O  O46  1  0.68280300  0.43269400  0.67894300  1
  O  O47  1  0.18280300  0.56730600  0.82105700  1
