# generated using pymatgen
data_Na2Mg3H10(SO6)3
_symmetry_space_group_name_H-M   'P 1'
_cell_length_a   10.85149780
_cell_length_b   10.85149780
_cell_length_c   10.09567500
_cell_angle_alpha   90.00000000
_cell_angle_beta   90.00000000
_cell_angle_gamma   140.53487566
_symmetry_Int_Tables_number   1
_chemical_formula_structural   Na2Mg3H10(SO6)3
_chemical_formula_sum   'Na4 Mg6 H20 S6 O36'
_cell_volume   755.62161990
_cell_formula_units_Z   2
loop_
 _symmetry_equiv_pos_site_id
 _symmetry_equiv_pos_as_xyz
  1  'x, y, z'
loop_
 _atom_site_type_symbol
 _atom_site_label
 _atom_site_symmetry_multiplicity
 _atom_site_fract_x
 _atom_site_fract_y
 _atom_site_fract_z
 _atom_site_occupancy
  Na  Na0  1  0.76648900  0.18863300  0.26908600  1
  Na  Na1  1  0.18863300  0.76648900  0.26908600  1
  Na  Na2  1  0.23351100  0.81136700  0.76908600  1
  Na  Na3  1  0.81136700  0.23351100  0.76908600  1
  Mg  Mg4  1  0.77821400  0.77821400  0.49401700  1
  Mg  Mg5  1  0.22178600  0.22178600  0.99401700  1
  Mg  Mg6  1  0.48630800  0.64357100  0.77845400  1
  Mg  Mg7  1  0.64357100  0.48630800  0.77845400  1
  Mg  Mg8  1  0.51369200  0.35642900  0.27845400  1
  Mg  Mg9  1  0.35642900  0.51369200  0.27845400  1
  H  H10  1  0.81810800  0.81810800  0.73089700  1
  H  H11  1  0.18189200  0.18189200  0.23089700  1
  H  H12  1  0.56240800  0.56240800  0.98941300  1
  H  H13  1  0.43759200  0.43759200  0.48941300  1
  H  H14  1  0.00294700  0.83531300  0.86709400  1
  H  H15  1  0.83531300  0.00294700  0.86709400  1
  H  H16  1  0.99705300  0.16468700  0.36709400  1
  H  H17  1  0.16468700  0.99705300  0.36709400  1
  H  H18  1  0.04930000  0.32758400  0.43869900  1
  H  H19  1  0.32758400  0.04930000  0.43869900  1
  H  H20  1  0.95070000  0.67241600  0.93869900  1
  H  H21  1  0.67241600  0.95070000  0.93869900  1
  H  H22  1  0.93814300  0.51716300  0.05768600  1
  H  H23  1  0.51716300  0.93814300  0.05768600  1
  H  H24  1  0.06185700  0.48283700  0.55768600  1
  H  H25  1  0.48283700  0.06185700  0.55768600  1
  H  H26  1  0.86172500  0.58730700  0.11957600  1
  H  H27  1  0.58730700  0.86172500  0.11957600  1
  H  H28  1  0.13827500  0.41269300  0.61957600  1
  H  H29  1  0.41269300  0.13827500  0.61957600  1
  S  S30  1  0.53447500  0.84523200  0.49838200  1
  S  S31  1  0.84523200  0.53447500  0.49838200  1
  S  S32  1  0.46552500  0.15476800  0.99838200  1
  S  S33  1  0.15476800  0.46552500  0.99838200  1
  S  S34  1  0.80511600  0.80511600  0.18100300  1
  S  S35  1  0.19488400  0.19488400  0.68100300  1
  O  O36  1  0.71297600  0.90804200  0.48889700  1
  O  O37  1  0.90804200  0.71297600  0.48889700  1
  O  O38  1  0.28702400  0.09195800  0.98889700  1
  O  O39  1  0.09195800  0.28702400  0.98889700  1
  O  O40  1  0.39383800  0.70059300  0.39186800  1
  O  O41  1  0.70059300  0.39383800  0.39186800  1
  O  O42  1  0.60616200  0.29940700  0.89186800  1
  O  O43  1  0.29940700  0.60616200  0.89186800  1
  O  O44  1  0.58936100  0.01874900  0.47783300  1
  O  O45  1  0.01874900  0.58936100  0.47783300  1
  O  O46  1  0.41063900  0.98125100  0.97783300  1
  O  O47  1  0.98125100  0.41063900  0.97783300  1
  O  O48  1  0.44199900  0.75644400  0.63103900  1
  O  O49  1  0.75644400  0.44199900  0.63103900  1
  O  O50  1  0.55800100  0.24355600  0.13103900  1
  O  O51  1  0.24355600  0.55800100  0.13103900  1
  O  O52  1  0.92580300  0.92580300  0.06522900  1
  O  O53  1  0.07419700  0.07419700  0.56522900  1
  O  O54  1  0.62412400  0.74152500  0.17936900  1
  O  O55  1  0.74152500  0.62412400  0.17936900  1
  O  O56  1  0.37587600  0.25847500  0.67936900  1
  O  O57  1  0.25847500  0.37587600  0.67936900  1
  O  O58  1  0.91745000  0.91745000  0.30549300  1
  O  O59  1  0.08255000  0.08255000  0.80549300  1
  O  O60  1  0.69751000  0.69751000  0.68855800  1
  O  O61  1  0.30249000  0.30249000  0.18855800  1
  O  O62  1  0.51461600  0.51461600  0.41036600  1
  O  O63  1  0.48538400  0.48538400  0.91036600  1
  O  O64  1  0.70751700  0.94084100  0.85003900  1
  O  O65  1  0.94084100  0.70751700  0.85003900  1
  O  O66  1  0.29248300  0.05915900  0.35003900  1
  O  O67  1  0.05915900  0.29248300  0.35003900  1
  O  O68  1  0.02318900  0.36985400  0.58776900  1
  O  O69  1  0.36985400  0.02318900  0.58776900  1
  O  O70  1  0.97681100  0.63014600  0.08776900  1
  O  O71  1  0.63014600  0.97681100  0.08776900  1
