# generated using pymatgen
data_K(IO3)2
_symmetry_space_group_name_H-M   'P 1'
_cell_length_a   7.48471400
_cell_length_b   8.57399400
_cell_length_c   20.00188500
_cell_angle_alpha   90.00000000
_cell_angle_beta   90.00000000
_cell_angle_gamma   90.00000000
_symmetry_Int_Tables_number   1
_chemical_formula_structural   K(IO3)2
_chemical_formula_sum   'K8 I16 O48'
_cell_volume   1283.59882634
_cell_formula_units_Z   8
loop_
 _symmetry_equiv_pos_site_id
 _symmetry_equiv_pos_as_xyz
  1  'x, y, z'
loop_
 _atom_site_type_symbol
 _atom_site_label
 _atom_site_symmetry_multiplicity
 _atom_site_fract_x
 _atom_site_fract_y
 _atom_site_fract_z
 _atom_site_occupancy
  K  K0  1  0.52123400  0.51487700  0.85337200  1
  K  K1  1  0.47876600  0.48512300  0.35337200  1
  K  K2  1  0.52123400  0.98512300  0.35337200  1
  K  K3  1  0.47876600  0.01487700  0.85337200  1
  K  K4  1  0.99045100  0.53672200  0.65730700  1
  K  K5  1  0.00954900  0.46327800  0.15730700  1
  K  K6  1  0.99045100  0.96327800  0.15730700  1
  K  K7  1  0.00954900  0.03672200  0.65730700  1
  I  I8  1  0.81467600  0.82321000  0.50381500  1
  I  I9  1  0.18532400  0.17679000  0.00381500  1
  I  I10  1  0.81467600  0.67679000  0.00381500  1
  I  I11  1  0.18532400  0.32321000  0.50381500  1
  I  I12  1  0.31347600  0.73551300  0.50461400  1
  I  I13  1  0.68652400  0.26448700  0.00461400  1
  I  I14  1  0.31347600  0.76448700  0.00461400  1
  I  I15  1  0.68652400  0.23551300  0.50461400  1
  I  I16  1  0.96028300  0.81590800  0.83275600  1
  I  I17  1  0.03971700  0.18409200  0.33275600  1
  I  I18  1  0.96028300  0.68409200  0.33275600  1
  I  I19  1  0.03971700  0.31590800  0.83275600  1
  I  I20  1  0.52564100  0.75681000  0.69058400  1
  I  I21  1  0.47435900  0.24319000  0.19058400  1
  I  I22  1  0.52564100  0.74319000  0.19058400  1
  I  I23  1  0.47435900  0.25681000  0.69058400  1
  O  O24  1  0.72860900  0.64050600  0.46314700  1
  O  O25  1  0.27139100  0.35949400  0.96314700  1
  O  O26  1  0.72860900  0.85949400  0.96314700  1
  O  O27  1  0.27139100  0.14050600  0.46314700  1
  O  O28  1  0.60447200  0.93176600  0.48694000  1
  O  O29  1  0.39552800  0.06823400  0.98694000  1
  O  O30  1  0.60447200  0.56823400  0.98694000  1
  O  O31  1  0.39552800  0.43176600  0.48694000  1
  O  O32  1  0.78358800  0.78662100  0.59312100  1
  O  O33  1  0.21641200  0.21337900  0.09312100  1
  O  O34  1  0.78358800  0.71337900  0.09312100  1
  O  O35  1  0.21641200  0.28662100  0.59312100  1
  O  O36  1  0.10506600  0.62788400  0.52614600  1
  O  O37  1  0.89493400  0.37211600  0.02614600  1
  O  O38  1  0.10506600  0.87211600  0.02614600  1
  O  O39  1  0.89493400  0.12788400  0.52614600  1
  O  O40  1  0.20082300  0.92139900  0.53263100  1
  O  O41  1  0.79917700  0.07860100  0.03263100  1
  O  O42  1  0.20082300  0.57860100  0.03263100  1
  O  O43  1  0.79917700  0.42139900  0.53263100  1
  O  O44  1  0.28139400  0.75023500  0.41437200  1
  O  O45  1  0.71860600  0.24976500  0.91437200  1
  O  O46  1  0.28139400  0.74976500  0.91437200  1
  O  O47  1  0.71860600  0.25023500  0.41437200  1
  O  O48  1  0.08603500  0.77439700  0.75410900  1
  O  O49  1  0.91396500  0.22560300  0.25410900  1
  O  O50  1  0.08603500  0.72560300  0.25410900  1
  O  O51  1  0.91396500  0.27439700  0.75410900  1
  O  O52  1  0.88439800  0.62142900  0.85808200  1
  O  O53  1  0.11560200  0.37857100  0.35808200  1
  O  O54  1  0.88439800  0.87857100  0.35808200  1
  O  O55  1  0.11560200  0.12142900  0.85808200  1
  O  O56  1  0.76408700  0.88635400  0.78708200  1
  O  O57  1  0.23591300  0.11364600  0.28708200  1
  O  O58  1  0.76408700  0.61364600  0.28708200  1
  O  O59  1  0.23591300  0.38635400  0.78708200  1
  O  O60  1  0.34830100  0.69356700  0.63405000  1
  O  O61  1  0.65169900  0.30643300  0.13405000  1
  O  O62  1  0.34830100  0.80643300  0.13405000  1
  O  O63  1  0.65169900  0.19356700  0.63405000  1
  O  O64  1  0.39631500  0.75453300  0.77129600  1
  O  O65  1  0.60368500  0.24546700  0.27129600  1
  O  O66  1  0.39631500  0.74546700  0.27129600  1
  O  O67  1  0.60368500  0.25453300  0.77129600  1
  O  O68  1  0.64131000  0.57249500  0.70497600  1
  O  O69  1  0.35869000  0.42750500  0.20497600  1
  O  O70  1  0.64131000  0.92750500  0.20497600  1
  O  O71  1  0.35869000  0.07249500  0.70497600  1
