# generated using pymatgen
data_VH15C4S2(NO5)2
_symmetry_space_group_name_H-M   'P 1'
_cell_length_a   18.69191200
_cell_length_b   7.25543600
_cell_length_c   9.54231890
_cell_angle_alpha   80.38033933
_cell_angle_beta   90.00000000
_cell_angle_gamma   90.00000000
_symmetry_Int_Tables_number   1
_chemical_formula_structural   VH15C4S2(NO5)2
_chemical_formula_sum   'V4 H60 C16 S8 N8 O40'
_cell_volume   1275.91313112
_cell_formula_units_Z   4
loop_
 _symmetry_equiv_pos_site_id
 _symmetry_equiv_pos_as_xyz
  1  'x, y, z'
loop_
 _atom_site_type_symbol
 _atom_site_label
 _atom_site_symmetry_multiplicity
 _atom_site_fract_x
 _atom_site_fract_y
 _atom_site_fract_z
 _atom_site_occupancy
  V  V0  1  0.75208800  0.59187900  0.30104200  1
  V  V1  1  0.25208800  0.90812100  0.69895800  1
  V  V2  1  0.24791200  0.40812100  0.69895800  1
  V  V3  1  0.74791200  0.09187900  0.30104200  1
  H  H4  1  0.65174200  0.83612500  0.29482500  1
  H  H5  1  0.15174200  0.66387500  0.70517500  1
  H  H6  1  0.34825800  0.16387500  0.70517500  1
  H  H7  1  0.84825800  0.33612500  0.29482500  1
  H  H8  1  0.78649800  0.46908100  0.84898000  1
  H  H9  1  0.28649800  0.03091900  0.15102000  1
  H  H10  1  0.21350200  0.53091900  0.15102000  1
  H  H11  1  0.71350200  0.96908100  0.84898000  1
  H  H12  1  0.93816200  0.08099000  0.86787800  1
  H  H13  1  0.43816200  0.41901000  0.13212200  1
  H  H14  1  0.06183800  0.91901000  0.13212200  1
  H  H15  1  0.56183800  0.58099000  0.86787800  1
  H  H16  1  0.56291200  0.61355500  0.31166000  1
  H  H17  1  0.06291200  0.88644500  0.68834000  1
  H  H18  1  0.43708800  0.38644500  0.68834000  1
  H  H19  1  0.93708800  0.11355500  0.31166000  1
  H  H20  1  0.50196800  0.75092600  0.32937700  1
  H  H21  1  0.00196800  0.74907400  0.67062300  1
  H  H22  1  0.49803200  0.24907400  0.67062300  1
  H  H23  1  0.99803200  0.25092600  0.32937700  1
  H  H24  1  0.85253800  0.58333300  0.74058700  1
  H  H25  1  0.35253800  0.91666700  0.25941300  1
  H  H26  1  0.14746200  0.41666700  0.25941300  1
  H  H27  1  0.64746200  0.08333300  0.74058700  1
  H  H28  1  0.00723400  0.17547200  0.76432300  1
  H  H29  1  0.50723400  0.32452800  0.23567700  1
  H  H30  1  0.99276600  0.82452800  0.23567700  1
  H  H31  1  0.49276600  0.67547200  0.76432300  1
  H  H32  1  0.80989700  0.18072500  0.78713300  1
  H  H33  1  0.30989700  0.31927500  0.21286700  1
  H  H34  1  0.19010300  0.81927500  0.21286700  1
  H  H35  1  0.69010300  0.68072500  0.78713300  1
  H  H36  1  0.80096800  0.34776100  0.62647800  1
  H  H37  1  0.30096800  0.15223900  0.37352200  1
  H  H38  1  0.19903200  0.65223900  0.37352200  1
  H  H39  1  0.69903200  0.84776100  0.62647800  1
  H  H40  1  0.93341700  0.37080000  0.60324900  1
  H  H41  1  0.43341700  0.12920000  0.39675100  1
  H  H42  1  0.06658300  0.62920000  0.39675100  1
  H  H43  1  0.56658300  0.87080000  0.60324900  1
  H  H44  1  0.90526600  0.13386200  0.61752400  1
  H  H45  1  0.40526600  0.36613800  0.38247600  1
  H  H46  1  0.09473400  0.86613800  0.38247600  1
  H  H47  1  0.59473400  0.63386200  0.61752400  1
  H  H48  1  0.86199500  0.29686600  0.00421100  1
  H  H49  1  0.36199500  0.20313400  0.99578900  1
  H  H50  1  0.13800500  0.70313400  0.99578900  1
  H  H51  1  0.63800500  0.79686600  0.00421100  1
  H  H52  1  0.88950300  0.53325200  0.98287800  1
  H  H53  1  0.38950300  0.96674800  0.01712200  1
  H  H54  1  0.11049700  0.46674800  0.01712200  1
  H  H55  1  0.61049700  0.03325200  0.98287800  1
  H  H56  1  0.99250400  0.30590300  0.97967100  1
  H  H57  1  0.49250400  0.19409700  0.02032900  1
  H  H58  1  0.00749600  0.69409700  0.02032900  1
  H  H59  1  0.50749600  0.80590300  0.97967100  1
  H  H60  1  0.98854600  0.47466300  0.82039900  1
  H  H61  1  0.48854600  0.02533700  0.17960100  1
  H  H62  1  0.01145400  0.52533700  0.17960100  1
  H  H63  1  0.51145400  0.97466300  0.82039900  1
  C  C64  1  0.83440700  0.30176300  0.72005500  1
  C  C65  1  0.33440700  0.19823700  0.27994500  1
  C  C66  1  0.16559300  0.69823700  0.27994500  1
  C  C67  1  0.66559300  0.80176300  0.72005500  1
  C  C68  1  0.90855900  0.25325000  0.67362500  1
  C  C69  1  0.40855900  0.24675000  0.32637500  1
  C  C70  1  0.09144100  0.74675000  0.32637500  1
  C  C71  1  0.59144100  0.75325000  0.67362500  1
  C  C72  1  0.88669300  0.41068700  0.92982000  1
  C  C73  1  0.38669300  0.08931300  0.07018000  1
  C  C74  1  0.11330700  0.58931300  0.07018000  1
  C  C75  1  0.61330700  0.91068700  0.92982000  1
  C  C76  1  0.96058300  0.35751300  0.88508100  1
  C  C77  1  0.46058300  0.14248700  0.11491900  1
  C  C78  1  0.03941700  0.64248700  0.11491900  1
  C  C79  1  0.53941700  0.85751300  0.88508100  1
  S  S80  1  0.86621100  0.80735100  0.48254400  1
  S  S81  1  0.36621100  0.69264900  0.51745600  1
  S  S82  1  0.13378900  0.19264900  0.51745600  1
  S  S83  1  0.63378900  0.30735100  0.48254400  1
  S  S84  1  0.83608600  0.89243700  0.06144600  1
  S  S85  1  0.33608600  0.60756300  0.93855400  1
  S  S86  1  0.16391400  0.10756300  0.93855400  1
  S  S87  1  0.66391400  0.39243700  0.06144600  1
  N  N88  1  0.83745700  0.45677700  0.80545600  1
  N  N89  1  0.33745700  0.04322300  0.19454400  1
  N  N90  1  0.16254300  0.54322300  0.19454400  1
  N  N91  1  0.66254300  0.95677700  0.80545600  1
  N  N92  1  0.95627400  0.20195700  0.80019200  1
  N  N93  1  0.45627400  0.29804300  0.19980800  1
  N  N94  1  0.04372600  0.79804300  0.19980800  1
  N  N95  1  0.54372600  0.70195700  0.80019200  1
  O  O96  1  0.70434500  0.84019100  0.29958000  1
  O  O97  1  0.20434500  0.65980900  0.70042000  1
  O  O98  1  0.29565500  0.15980900  0.70042000  1
  O  O99  1  0.79565500  0.34019100  0.29958000  1
  O  O100  1  0.82339900  0.63992600  0.45754900  1
  O  O101  1  0.32339900  0.86007400  0.54245100  1
  O  O102  1  0.17660100  0.36007400  0.54245100  1
  O  O103  1  0.67660100  0.13992600  0.45754900  1
  O  O104  1  0.82755900  0.70457300  0.15399400  1
  O  O105  1  0.32755900  0.79542700  0.84600600  1
  O  O106  1  0.17244100  0.29542700  0.84600600  1
  O  O107  1  0.67244100  0.20457300  0.15399400  1
  O  O108  1  0.68176600  0.47693300  0.46195700  1
  O  O109  1  0.18176600  0.02306700  0.53804300  1
  O  O110  1  0.31823400  0.52306700  0.53804300  1
  O  O111  1  0.81823400  0.97693300  0.46195700  1
  O  O112  1  0.68187700  0.54475800  0.14578800  1
  O  O113  1  0.18187700  0.95524200  0.85421200  1
  O  O114  1  0.31812300  0.45524200  0.85421200  1
  O  O115  1  0.81812300  0.04475800  0.14578800  1
  O  O116  1  0.78907300  0.90522000  0.93652300  1
  O  O117  1  0.28907300  0.59478000  0.06347700  1
  O  O118  1  0.21092700  0.09478000  0.06347700  1
  O  O119  1  0.71092700  0.40522000  0.93652300  1
  O  O120  1  0.92794500  0.84172900  0.38573700  1
  O  O121  1  0.42794500  0.65827100  0.61426300  1
  O  O122  1  0.07205500  0.15827100  0.61426300  1
  O  O123  1  0.57205500  0.34172900  0.38573700  1
  O  O124  1  0.91181700  0.91509900  0.01744800  1
  O  O125  1  0.41181700  0.58490100  0.98255200  1
  O  O126  1  0.08818300  0.08490100  0.98255200  1
  O  O127  1  0.58818300  0.41509900  0.01744800  1
  O  O128  1  0.89027200  0.77126400  0.63307500  1
  O  O129  1  0.39027200  0.72873600  0.36692500  1
  O  O130  1  0.10972800  0.22873600  0.36692500  1
  O  O131  1  0.60972800  0.27126400  0.63307500  1
  O  O132  1  0.54922200  0.74566700  0.28551900  1
  O  O133  1  0.04922200  0.75433300  0.71448100  1
  O  O134  1  0.45077800  0.25433300  0.71448100  1
  O  O135  1  0.95077800  0.24566700  0.28551900  1
