# generated using pymatgen
data_CoH10SeO9
_symmetry_space_group_name_H-M   'P 1'
_cell_length_a   6.17139183
_cell_length_b   6.43692120
_cell_length_c   10.90689567
_cell_angle_alpha   104.64631569
_cell_angle_beta   98.70859140
_cell_angle_gamma   70.87226080
_symmetry_Int_Tables_number   1
_chemical_formula_structural   CoH10SeO9
_chemical_formula_sum   'Co2 H20 Se2 O18'
_cell_volume   394.93563860
_cell_formula_units_Z   2
loop_
 _symmetry_equiv_pos_site_id
 _symmetry_equiv_pos_as_xyz
  1  'x, y, z'
loop_
 _atom_site_type_symbol
 _atom_site_label
 _atom_site_symmetry_multiplicity
 _atom_site_fract_x
 _atom_site_fract_y
 _atom_site_fract_z
 _atom_site_occupancy
  Co  Co0  1  0.00000000  0.00000000  0.00000000  1
  Co  Co1  1  0.00000000  0.50000000  0.50000000  1
  H  H2  1  0.76811200  0.71908700  0.01326500  1
  H  H3  1  0.23188800  0.28091300  0.98673500  1
  H  H4  1  0.74643500  0.90212300  0.14674400  1
  H  H5  1  0.25356500  0.09787700  0.85325600  1
  H  H6  1  0.91228200  0.33715900  0.20360100  1
  H  H7  1  0.08771800  0.66284100  0.79639900  1
  H  H8  1  0.66594400  0.35900500  0.12777300  1
  H  H9  1  0.33405600  0.64099500  0.87222700  1
  H  H10  1  0.64794900  0.33521300  0.35941400  1
  H  H11  1  0.35205100  0.66478700  0.64058600  1
  H  H12  1  0.54866800  0.60678900  0.39865100  1
  H  H13  1  0.45133200  0.39321100  0.60134900  1
  H  H14  1  0.10175600  0.80588400  0.40563800  1
  H  H15  1  0.89824400  0.19411600  0.59436200  1
  H  H16  1  0.82662000  0.86615400  0.39031600  1
  H  H17  1  0.17338000  0.13384600  0.60968400  1
  H  H18  1  0.29216700  0.61807400  0.12736000  1
  H  H19  1  0.70783300  0.38192600  0.87264000  1
  H  H20  1  0.25123700  0.44406700  0.19187000  1
  H  H21  1  0.74876300  0.55593300  0.80813000  1
  Se  Se22  1  0.34806000  0.02706200  0.28901700  1
  Se  Se23  1  0.65194000  0.97293800  0.71098300  1
  O  O24  1  0.28195800  0.90861100  0.13772900  1
  O  O25  1  0.71804200  0.09138900  0.86227100  1
  O  O26  1  0.61614900  0.04512200  0.29828300  1
  O  O27  1  0.38385100  0.95487800  0.70171700  1
  O  O28  1  0.33788000  0.86935500  0.38696200  1
  O  O29  1  0.66212000  0.13064500  0.61303800  1
  O  O30  1  0.16362700  0.28981900  0.32451300  1
  O  O31  1  0.83637300  0.71018100  0.67548700  1
  O  O32  1  0.83961200  0.82719100  0.07274600  1
  O  O33  1  0.16038800  0.17280900  0.92725400  1
  O  O34  1  0.83282300  0.31444500  0.11798700  1
  O  O35  1  0.16717700  0.68555500  0.88201300  1
  O  O36  1  0.68569400  0.47439300  0.40355400  1
  O  O37  1  0.31430600  0.52560700  0.59644600  1
  O  O38  1  0.97004500  0.75811700  0.41789900  1
  O  O39  1  0.02995500  0.24188300  0.58210100  1
  O  O40  1  0.33877600  0.45485300  0.12708600  1
  O  O41  1  0.66122400  0.54514700  0.87291400  1
