# generated using pymatgen
data_Ca2MgV10(H8O11)4
_symmetry_space_group_name_H-M   'P 1'
_cell_length_a   11.23812687
_cell_length_b   11.23812687
_cell_length_c   10.88593212
_cell_angle_alpha   64.31526953
_cell_angle_beta   64.31526953
_cell_angle_gamma   52.81729783
_symmetry_Int_Tables_number   1
_chemical_formula_structural   Ca2MgV10(H8O11)4
_chemical_formula_sum   'Ca2 Mg1 V10 H32 O44'
_cell_volume   958.55990848
_cell_formula_units_Z   1
loop_
 _symmetry_equiv_pos_site_id
 _symmetry_equiv_pos_as_xyz
  1  'x, y, z'
loop_
 _atom_site_type_symbol
 _atom_site_label
 _atom_site_symmetry_multiplicity
 _atom_site_fract_x
 _atom_site_fract_y
 _atom_site_fract_z
 _atom_site_occupancy
  Ca  Ca0  1  0.27034400  0.27034400  0.08014300  1
  Ca  Ca1  1  0.72965600  0.72965600  0.91985700  1
  Mg  Mg2  1  0.50000000  0.50000000  0.50000000  1
  V  V3  1  0.16568800  0.83431200  0.00000000  1
  V  V4  1  0.83431200  0.16568800  0.00000000  1
  V  V5  1  0.04542200  0.04542200  0.20194200  1
  V  V6  1  0.95457800  0.95457800  0.79805800  1
  V  V7  1  0.15560200  0.15560200  0.87576100  1
  V  V8  1  0.84439800  0.84439800  0.12423900  1
  V  V9  1  0.04650600  0.73203500  0.32434700  1
  V  V10  1  0.73203500  0.04650600  0.32434700  1
  V  V11  1  0.95349400  0.26796500  0.67565300  1
  V  V12  1  0.26796500  0.95349400  0.67565300  1
  H  H13  1  0.28773200  0.44415200  0.52922000  1
  H  H14  1  0.44415200  0.28773200  0.52922000  1
  H  H15  1  0.71226800  0.55584800  0.47078000  1
  H  H16  1  0.55584800  0.71226800  0.47078000  1
  H  H17  1  0.37589900  0.52905900  0.77143200  1
  H  H18  1  0.52905900  0.37589900  0.77143200  1
  H  H19  1  0.62410100  0.47094100  0.22856800  1
  H  H20  1  0.47094100  0.62410100  0.22856800  1
  H  H21  1  0.01365000  0.50993200  0.25182300  1
  H  H22  1  0.50993200  0.01365000  0.25182300  1
  H  H23  1  0.98635000  0.49006800  0.74817700  1
  H  H24  1  0.49006800  0.98635000  0.74817700  1
  H  H25  1  0.03630900  0.34907800  0.34541400  1
  H  H26  1  0.34907800  0.03630900  0.34541400  1
  H  H27  1  0.96369100  0.65092200  0.65458600  1
  H  H28  1  0.65092200  0.96369100  0.65458600  1
  H  H29  1  0.23817800  0.77084300  0.56878900  1
  H  H30  1  0.77084300  0.23817800  0.56878900  1
  H  H31  1  0.76182200  0.22915700  0.43121100  1
  H  H32  1  0.22915700  0.76182200  0.43121100  1
  H  H33  1  0.12008700  0.53761700  0.84886500  1
  H  H34  1  0.53761700  0.12008700  0.84886500  1
  H  H35  1  0.87991300  0.46238300  0.15113500  1
  H  H36  1  0.46238300  0.87991300  0.15113500  1
  H  H37  1  0.12152400  0.61938300  0.93539700  1
  H  H38  1  0.61938300  0.12152400  0.93539700  1
  H  H39  1  0.87847600  0.38061700  0.06460300  1
  H  H40  1  0.38061700  0.87847600  0.06460300  1
  H  H41  1  0.32282100  0.47979500  0.13400200  1
  H  H42  1  0.47979500  0.32282100  0.13400200  1
  H  H43  1  0.67717900  0.52020500  0.86599800  1
  H  H44  1  0.52020500  0.67717900  0.86599800  1
  O  O45  1  0.22578700  0.22578700  0.91373200  1
  O  O46  1  0.77421300  0.77421300  0.08626800  1
  O  O47  1  0.04699300  0.04699300  0.86363500  1
  O  O48  1  0.95300700  0.95300700  0.13636500  1
  O  O49  1  0.04073600  0.79117900  0.96653800  1
  O  O50  1  0.79117900  0.04073600  0.96653800  1
  O  O51  1  0.95926400  0.20882100  0.03346200  1
  O  O52  1  0.20882100  0.95926400  0.03346200  1
  O  O53  1  0.21792400  0.68187200  0.14428400  1
  O  O54  1  0.68187200  0.21792400  0.14428400  1
  O  O55  1  0.78207600  0.31812800  0.85571600  1
  O  O56  1  0.31812800  0.78207600  0.85571600  1
  O  O57  1  0.12230900  0.12230900  0.21944800  1
  O  O58  1  0.87769100  0.87769100  0.78055200  1
  O  O59  1  0.12152900  0.84982900  0.31377000  1
  O  O60  1  0.84982900  0.12152900  0.31377000  1
  O  O61  1  0.87847100  0.15017100  0.68623000  1
  O  O62  1  0.15017100  0.87847100  0.68623000  1
  O  O63  1  0.04207800  0.31465100  0.75041000  1
  O  O64  1  0.31465100  0.04207800  0.75041000  1
  O  O65  1  0.95792200  0.68534900  0.24959000  1
  O  O66  1  0.68534900  0.95792200  0.24959000  1
  O  O67  1  0.85541500  0.85541500  0.42409000  1
  O  O68  1  0.14458500  0.14458500  0.57591000  1
  O  O69  1  0.12478500  0.57567300  0.44268500  1
  O  O70  1  0.57567300  0.12478500  0.44268500  1
  O  O71  1  0.87521500  0.42432700  0.55731500  1
  O  O72  1  0.42432700  0.87521500  0.55731500  1
  O  O73  1  0.38261000  0.38261000  0.56244900  1
  O  O74  1  0.61739000  0.61739000  0.43755100  1
  O  O75  1  0.48036300  0.48036300  0.71280600  1
  O  O76  1  0.51963700  0.51963700  0.28719400  1
  O  O77  1  0.04460900  0.40726400  0.24717800  1
  O  O78  1  0.40726400  0.04460900  0.24717800  1
  O  O79  1  0.95539100  0.59273600  0.75282200  1
  O  O80  1  0.59273600  0.95539100  0.75282200  1
  O  O81  1  0.29329600  0.70670400  0.50000000  1
  O  O82  1  0.70670400  0.29329600  0.50000000  1
  O  O83  1  0.17402000  0.51891200  0.91203400  1
  O  O84  1  0.51891200  0.17402000  0.91203400  1
  O  O85  1  0.82598000  0.48108800  0.08796600  1
  O  O86  1  0.48108800  0.82598000  0.08796600  1
  O  O87  1  0.37667400  0.37667400  0.11857700  1
  O  O88  1  0.62332600  0.62332600  0.88142300  1
