# generated using pymatgen
data_Mn8Si6O25
_symmetry_space_group_name_H-M   'P 1'
_cell_length_a   7.64434269
_cell_length_b   12.84727155
_cell_length_c   12.85579074
_cell_angle_alpha   120.02193488
_cell_angle_beta   89.99999751
_cell_angle_gamma   89.93331621
_symmetry_Int_Tables_number   1
_chemical_formula_structural   Mn8Si6O25
_chemical_formula_sum   'Mn16 Si12 O50'
_cell_volume   1093.16080326
_cell_formula_units_Z   2
loop_
 _symmetry_equiv_pos_site_id
 _symmetry_equiv_pos_as_xyz
  1  'x, y, z'
loop_
 _atom_site_type_symbol
 _atom_site_label
 _atom_site_symmetry_multiplicity
 _atom_site_fract_x
 _atom_site_fract_y
 _atom_site_fract_z
 _atom_site_occupancy
  Mn  Mn0  1  0.00000000  0.00000000  0.00000000  1
  Mn  Mn1  1  0.00025200  0.75850200  0.75824800  1
  Mn  Mn2  1  0.99974800  0.24149800  0.99974600  1
  Mn  Mn3  1  0.00000000  0.00000000  0.24228300  1
  Mn  Mn4  1  0.00025200  0.75850200  0.00025400  1
  Mn  Mn5  1  0.00000000  0.00000000  0.75771700  1
  Mn  Mn6  1  0.99974800  0.24149800  0.24175200  1
  Mn  Mn7  1  0.00000000  0.50000000  0.50000000  1
  Mn  Mn8  1  0.00000000  0.50000000  0.00000000  1
  Mn  Mn9  1  0.00000000  0.00000000  0.50000000  1
  Mn  Mn10  1  0.04022800  0.74735900  0.49492200  1
  Mn  Mn11  1  0.04064000  0.50469300  0.25234700  1
  Mn  Mn12  1  0.04022800  0.74735900  0.25243700  1
  Mn  Mn13  1  0.95977200  0.25264100  0.50507800  1
  Mn  Mn14  1  0.95936000  0.49530700  0.74765300  1
  Mn  Mn15  1  0.95977200  0.25264100  0.74756300  1
  Si  Si16  1  0.64006800  0.66733300  0.57720600  1
  Si  Si17  1  0.64001400  0.42270100  0.09032700  1
  Si  Si18  1  0.63995100  0.90938400  0.33236500  1
  Si  Si19  1  0.64006800  0.66733300  0.09012600  1
  Si  Si20  1  0.63995100  0.90938400  0.57701900  1
  Si  Si21  1  0.64001400  0.42270100  0.33237400  1
  Si  Si22  1  0.35993200  0.33266700  0.42279300  1
  Si  Si23  1  0.35998600  0.57729900  0.90967300  1
  Si  Si24  1  0.36004900  0.09061600  0.66763500  1
  Si  Si25  1  0.35993200  0.33266700  0.90987400  1
  Si  Si26  1  0.36004900  0.09061600  0.42298100  1
  Si  Si27  1  0.35998600  0.57729900  0.66762600  1
  O  O28  1  0.50006800  0.67681100  0.67690700  1
  O  O29  1  0.49993200  0.32318900  0.00009600  1
  O  O30  1  0.50000000  0.00000000  0.32315400  1
  O  O31  1  0.50006800  0.67681100  0.99990400  1
  O  O32  1  0.50000000  0.00000000  0.67684600  1
  O  O33  1  0.49993200  0.32318900  0.32309300  1
  O  O34  1  0.59798400  0.55022500  0.44968900  1
  O  O35  1  0.59798400  0.55022500  0.10053600  1
  O  O36  1  0.59767600  0.89896400  0.44948200  1
  O  O37  1  0.40201600  0.44977500  0.55031100  1
  O  O38  1  0.40201600  0.44977500  0.89946400  1
  O  O39  1  0.40232400  0.10103600  0.55051800  1
  O  O40  1  0.60058300  0.77988100  0.55980200  1
  O  O41  1  0.60067400  0.44027700  0.22013800  1
  O  O42  1  0.60058300  0.77988100  0.22007800  1
  O  O43  1  0.39941700  0.22011900  0.44019800  1
  O  O44  1  0.39932600  0.55972300  0.77986200  1
  O  O45  1  0.39941700  0.22011900  0.77992200  1
  O  O46  1  0.84969400  0.66339200  0.60458200  1
  O  O47  1  0.84965900  0.39502700  0.05878100  1
  O  O48  1  0.84942300  0.94079200  0.33656700  1
  O  O49  1  0.84969400  0.66339200  0.05881000  1
  O  O50  1  0.84942300  0.94079200  0.60422500  1
  O  O51  1  0.84965900  0.39502700  0.33624600  1
  O  O52  1  0.15030600  0.33660800  0.39541800  1
  O  O53  1  0.15034100  0.60497300  0.94121900  1
  O  O54  1  0.15057700  0.05920800  0.66343300  1
  O  O55  1  0.15030600  0.33660800  0.94119000  1
  O  O56  1  0.15057700  0.05920800  0.39577500  1
  O  O57  1  0.15034100  0.60497300  0.66375400  1
  O  O58  1  0.88316300  0.91924100  0.83932000  1
  O  O59  1  0.88257500  0.16068400  0.08034200  1
  O  O60  1  0.88316300  0.91924100  0.07992100  1
  O  O61  1  0.11683700  0.08075900  0.16068000  1
  O  O62  1  0.11742500  0.83931600  0.91965800  1
  O  O63  1  0.11683700  0.08075900  0.92007900  1
  O  O64  1  0.10420400  0.83490600  0.66968100  1
  O  O65  1  0.10379400  0.32987400  0.16493700  1
  O  O66  1  0.10420400  0.83490600  0.16522500  1
  O  O67  1  0.89579600  0.16509400  0.33031900  1
  O  O68  1  0.89620600  0.67012600  0.83506300  1
  O  O69  1  0.89579600  0.16509400  0.83477500  1
  O  O70  1  0.11839600  0.57436800  0.42564200  1
  O  O71  1  0.11839600  0.57436800  0.14872600  1
  O  O72  1  0.11817100  0.85100300  0.42550100  1
  O  O73  1  0.88160400  0.42563200  0.57435800  1
  O  O74  1  0.88160400  0.42563200  0.85127400  1
  O  O75  1  0.88182900  0.14899700  0.57449900  1
  O  O76  1  0.93449700  0.66676300  0.33338100  1
  O  O77  1  0.06550300  0.33323700  0.66661900  1
