# generated using pymatgen
data_Si4H36C13
_symmetry_space_group_name_H-M   'P 1'
_cell_length_a   13.22981400
_cell_length_b   13.22981400
_cell_length_c   13.22981400
_cell_angle_alpha   90.00000000
_cell_angle_beta   90.00000000
_cell_angle_gamma   90.00000000
_symmetry_Int_Tables_number   1
_chemical_formula_structural   Si4H36C13
_chemical_formula_sum   'Si16 H144 C52'
_cell_volume   2315.58760001
_cell_formula_units_Z   4
loop_
 _symmetry_equiv_pos_site_id
 _symmetry_equiv_pos_as_xyz
  1  'x, y, z'
loop_
 _atom_site_type_symbol
 _atom_site_label
 _atom_site_symmetry_multiplicity
 _atom_site_fract_x
 _atom_site_fract_y
 _atom_site_fract_z
 _atom_site_occupancy
  Si  Si0  1  0.91173958  0.91173958  0.91173958  1
  Si  Si1  1  0.08826042  0.41173958  0.58826042  1
  Si  Si2  1  0.41173958  0.58826042  0.08826042  1
  Si  Si3  1  0.58826042  0.08826042  0.41173958  1
  Si  Si4  1  0.99791046  0.94213062  0.13103579  1
  Si  Si5  1  0.86896421  0.49791046  0.55786938  1
  Si  Si6  1  0.44213062  0.36896421  0.00208954  1
  Si  Si7  1  0.49791046  0.55786938  0.86896421  1
  Si  Si8  1  0.36896421  0.00208954  0.44213062  1
  Si  Si9  1  0.94213062  0.13103579  0.99791046  1
  Si  Si10  1  0.00208954  0.44213062  0.36896421  1
  Si  Si11  1  0.13103579  0.99791046  0.94213062  1
  Si  Si12  1  0.55786938  0.86896421  0.49791046  1
  Si  Si13  1  0.50208954  0.05786938  0.63103579  1
  Si  Si14  1  0.63103579  0.50208954  0.05786938  1
  Si  Si15  1  0.05786938  0.63103579  0.50208954  1
  H  H16  1  0.92754340  0.00721141  0.74708304  1
  H  H17  1  0.25291696  0.42754340  0.49278859  1
  H  H18  1  0.50721141  0.75291696  0.07245660  1
  H  H19  1  0.42754340  0.49278859  0.25291696  1
  H  H20  1  0.75291696  0.07245660  0.50721141  1
  H  H21  1  0.00721141  0.74708304  0.92754340  1
  H  H22  1  0.07245660  0.50721141  0.75291696  1
  H  H23  1  0.74708304  0.92754340  0.00721141  1
  H  H24  1  0.49278859  0.25291696  0.42754340  1
  H  H25  1  0.57245660  0.99278859  0.24708304  1
  H  H26  1  0.24708304  0.57245660  0.99278859  1
  H  H27  1  0.99278859  0.24708304  0.57245660  1
  H  H28  1  0.88480440  0.88113352  0.72944273  1
  H  H29  1  0.27055727  0.38480440  0.61886648  1
  H  H30  1  0.38113352  0.77055727  0.11519560  1
  H  H31  1  0.38480440  0.61886648  0.27055727  1
  H  H32  1  0.77055727  0.11519560  0.38113352  1
  H  H33  1  0.88113352  0.72944273  0.88480440  1
  H  H34  1  0.11519560  0.38113352  0.77055727  1
  H  H35  1  0.72944273  0.88480440  0.88113352  1
  H  H36  1  0.61886648  0.27055727  0.38480440  1
  H  H37  1  0.61519560  0.11886648  0.22944273  1
  H  H38  1  0.22944273  0.61519560  0.11886648  1
  H  H39  1  0.11886648  0.22944273  0.61519560  1
  H  H40  1  0.01465702  0.90514387  0.75078414  1
  H  H41  1  0.24921586  0.51465702  0.59485613  1
  H  H42  1  0.40514387  0.74921586  0.98534298  1
  H  H43  1  0.51465702  0.59485613  0.24921586  1
  H  H44  1  0.74921586  0.98534298  0.40514387  1
  H  H45  1  0.90514387  0.75078414  0.01465702  1
  H  H46  1  0.98534298  0.40514387  0.74921586  1
  H  H47  1  0.75078414  0.01465702  0.90514387  1
  H  H48  1  0.59485613  0.24921586  0.51465702  1
  H  H49  1  0.48534298  0.09485613  0.25078414  1
  H  H50  1  0.25078414  0.48534298  0.09485613  1
  H  H51  1  0.09485613  0.25078414  0.48534298  1
  H  H52  1  0.16541569  0.84817647  0.12736134  1
  H  H53  1  0.87263866  0.66541569  0.65182353  1
  H  H54  1  0.34817647  0.37263866  0.83458431  1
  H  H55  1  0.66541569  0.65182353  0.87263866  1
  H  H56  1  0.37263866  0.83458431  0.34817647  1
  H  H57  1  0.84817647  0.12736134  0.16541569  1
  H  H58  1  0.83458431  0.34817647  0.37263866  1
  H  H59  1  0.12736134  0.16541569  0.84817647  1
  H  H60  1  0.65182353  0.87263866  0.66541569  1
  H  H61  1  0.33458431  0.15182353  0.62736134  1
  H  H62  1  0.62736134  0.33458431  0.15182353  1
  H  H63  1  0.15182353  0.62736134  0.33458431  1
  H  H64  1  0.06321724  0.76465264  0.10234555  1
  H  H65  1  0.89765445  0.56321724  0.73534736  1
  H  H66  1  0.26465264  0.39765445  0.93678276  1
  H  H67  1  0.56321724  0.73534736  0.89765445  1
  H  H68  1  0.39765445  0.93678276  0.26465264  1
  H  H69  1  0.76465264  0.10234555  0.06321724  1
  H  H70  1  0.93678276  0.26465264  0.39765445  1
  H  H71  1  0.10234555  0.06321724  0.76465264  1
  H  H72  1  0.73534736  0.89765445  0.56321724  1
  H  H73  1  0.43678276  0.23534736  0.60234555  1
  H  H74  1  0.60234555  0.43678276  0.23534736  1
  H  H75  1  0.23534736  0.60234555  0.43678276  1
  H  H76  1  0.08522326  0.80911291  0.22709117  1
  H  H77  1  0.77290883  0.58522326  0.69088709  1
  H  H78  1  0.30911291  0.27290883  0.91477674  1
  H  H79  1  0.58522326  0.69088709  0.77290883  1
  H  H80  1  0.27290883  0.91477674  0.30911291  1
  H  H81  1  0.80911291  0.22709117  0.08522326  1
  H  H82  1  0.91477674  0.30911291  0.27290883  1
  H  H83  1  0.22709117  0.08522326  0.80911291  1
  H  H84  1  0.69088709  0.77290883  0.58522326  1
  H  H85  1  0.41477674  0.19088709  0.72709117  1
  H  H86  1  0.72709117  0.41477674  0.19088709  1
  H  H87  1  0.19088709  0.72709117  0.41477674  1
  H  H88  1  0.11580683  0.06836836  0.21255282  1
  H  H89  1  0.78744718  0.61580683  0.43163164  1
  H  H90  1  0.56836836  0.28744718  0.88419317  1
  H  H91  1  0.61580683  0.43163164  0.78744718  1
  H  H92  1  0.28744718  0.88419317  0.56836836  1
  H  H93  1  0.06836836  0.21255282  0.11580683  1
  H  H94  1  0.88419317  0.56836836  0.28744718  1
  H  H95  1  0.21255282  0.11580683  0.06836836  1
  H  H96  1  0.43163164  0.78744718  0.61580683  1
  H  H97  1  0.38419317  0.93163164  0.71255282  1
  H  H98  1  0.71255282  0.38419317  0.93163164  1
  H  H99  1  0.93163164  0.71255282  0.38419317  1
  H  H100  1  0.04555300  0.99740372  0.30233445  1
  H  H101  1  0.69766555  0.54555300  0.50259628  1
  H  H102  1  0.49740372  0.19766555  0.95444700  1
  H  H103  1  0.54555300  0.50259628  0.69766555  1
  H  H104  1  0.19766555  0.95444700  0.49740372  1
  H  H105  1  0.99740372  0.30233445  0.04555300  1
  H  H106  1  0.95444700  0.49740372  0.19766555  1
  H  H107  1  0.30233445  0.04555300  0.99740372  1
  H  H108  1  0.50259628  0.69766555  0.54555300  1
  H  H109  1  0.45444700  0.00259628  0.80233445  1
  H  H110  1  0.80233445  0.45444700  0.00259628  1
  H  H111  1  0.00259628  0.80233445  0.45444700  1
  H  H112  1  0.98823509  0.10057989  0.23947854  1
  H  H113  1  0.76052146  0.48823509  0.39942011  1
  H  H114  1  0.60057989  0.26052146  0.01176491  1
  H  H115  1  0.48823509  0.39942011  0.76052146  1
  H  H116  1  0.26052146  0.01176491  0.60057989  1
  H  H117  1  0.10057989  0.23947854  0.98823509  1
  H  H118  1  0.01176491  0.60057989  0.26052146  1
  H  H119  1  0.23947854  0.98823509  0.10057989  1
  H  H120  1  0.39942011  0.76052146  0.48823509  1
  H  H121  1  0.51176491  0.89942011  0.73947854  1
  H  H122  1  0.73947854  0.51176491  0.89942011  1
  H  H123  1  0.89942011  0.73947854  0.51176491  1
  H  H124  1  0.81086666  0.95155622  0.17422253  1
  H  H125  1  0.82577747  0.31086666  0.54844378  1
  H  H126  1  0.45155622  0.32577747  0.18913334  1
  H  H127  1  0.31086666  0.54844378  0.82577747  1
  H  H128  1  0.32577747  0.18913334  0.45155622  1
  H  H129  1  0.95155622  0.17422253  0.81086666  1
  H  H130  1  0.18913334  0.45155622  0.32577747  1
  H  H131  1  0.17422253  0.81086666  0.95155622  1
  H  H132  1  0.54844378  0.82577747  0.31086666  1
  H  H133  1  0.68913334  0.04844378  0.67422253  1
  H  H134  1  0.67422253  0.68913334  0.04844378  1
  H  H135  1  0.04844378  0.67422253  0.68913334  1
  H  H136  1  0.87974594  0.86919663  0.25498340  1
  H  H137  1  0.74501660  0.37974594  0.63080337  1
  H  H138  1  0.36919663  0.24501660  0.12025406  1
  H  H139  1  0.37974594  0.63080337  0.74501660  1
  H  H140  1  0.24501660  0.12025406  0.36919663  1
  H  H141  1  0.86919663  0.25498340  0.87974594  1
  H  H142  1  0.12025406  0.36919663  0.24501660  1
  H  H143  1  0.25498340  0.87974594  0.86919663  1
  H  H144  1  0.63080337  0.74501660  0.37974594  1
  H  H145  1  0.62025406  0.13080337  0.75498340  1
  H  H146  1  0.75498340  0.62025406  0.13080337  1
  H  H147  1  0.13080337  0.75498340  0.62025406  1
  H  H148  1  0.84422414  0.82841414  0.13289007  1
  H  H149  1  0.86710993  0.34422414  0.67158586  1
  H  H150  1  0.32841414  0.36710993  0.15577586  1
  H  H151  1  0.34422414  0.67158586  0.86710993  1
  H  H152  1  0.36710993  0.15577586  0.32841414  1
  H  H153  1  0.82841414  0.13289007  0.84422414  1
  H  H154  1  0.15577586  0.32841414  0.36710993  1
  H  H155  1  0.13289007  0.84422414  0.82841414  1
  H  H156  1  0.67158586  0.86710993  0.34422414  1
  H  H157  1  0.65577586  0.17158586  0.63289007  1
  H  H158  1  0.63289007  0.65577586  0.17158586  1
  H  H159  1  0.17158586  0.63289007  0.65577586  1
  C  C160  1  0.99584115  0.99584115  0.99584115  1
  C  C161  1  0.00415885  0.49584115  0.50415885  1
  C  C162  1  0.49584115  0.50415885  0.00415885  1
  C  C163  1  0.50415885  0.00415885  0.49584115  1
  C  C164  1  0.93809512  0.92882998  0.77193529  1
  C  C165  1  0.22806471  0.43809512  0.57117002  1
  C  C166  1  0.42882998  0.72806471  0.06190488  1
  C  C167  1  0.43809512  0.57117002  0.22806471  1
  C  C168  1  0.72806471  0.06190488  0.42882998  1
  C  C169  1  0.92882998  0.77193529  0.93809512  1
  C  C170  1  0.06190488  0.42882998  0.72806471  1
  C  C171  1  0.77193529  0.93809512  0.92882998  1
  C  C172  1  0.57117002  0.22806471  0.43809512  1
  C  C173  1  0.56190488  0.07117002  0.27193529  1
  C  C174  1  0.27193529  0.56190488  0.07117002  1
  C  C175  1  0.07117002  0.27193529  0.56190488  1
  C  C176  1  0.08666360  0.83073272  0.14669311  1
  C  C177  1  0.85330689  0.58666360  0.66926728  1
  C  C178  1  0.33073272  0.35330689  0.91333640  1
  C  C179  1  0.58666360  0.66926728  0.85330689  1
  C  C180  1  0.35330689  0.91333640  0.33073272  1
  C  C181  1  0.83073272  0.14669311  0.08666360  1
  C  C182  1  0.91333640  0.33073272  0.35330689  1
  C  C183  1  0.14669311  0.08666360  0.83073272  1
  C  C184  1  0.66926728  0.85330689  0.58666360  1
  C  C185  1  0.41333640  0.16926728  0.64669311  1
  C  C186  1  0.64669311  0.41333640  0.16926728  1
  C  C187  1  0.16926728  0.64669311  0.41333640  1
  C  C188  1  0.04086510  0.03729381  0.22930970  1
  C  C189  1  0.77069030  0.54086510  0.46270619  1
  C  C190  1  0.53729381  0.27069030  0.95913490  1
  C  C191  1  0.54086510  0.46270619  0.77069030  1
  C  C192  1  0.27069030  0.95913490  0.53729381  1
  C  C193  1  0.03729381  0.22930970  0.04086510  1
  C  C194  1  0.95913490  0.53729381  0.27069030  1
  C  C195  1  0.22930970  0.04086510  0.03729381  1
  C  C196  1  0.46270619  0.77069030  0.54086510  1
  C  C197  1  0.45913490  0.96270619  0.72930970  1
  C  C198  1  0.72930970  0.45913490  0.96270619  1
  C  C199  1  0.96270619  0.72930970  0.45913490  1
  C  C200  1  0.87064511  0.89391941  0.17598841  1
  C  C201  1  0.82401159  0.37064511  0.60608059  1
  C  C202  1  0.39391941  0.32401159  0.12935489  1
  C  C203  1  0.37064511  0.60608059  0.82401159  1
  C  C204  1  0.32401159  0.12935489  0.39391941  1
  C  C205  1  0.89391941  0.17598841  0.87064511  1
  C  C206  1  0.12935489  0.39391941  0.32401159  1
  C  C207  1  0.17598841  0.87064511  0.89391941  1
  C  C208  1  0.60608059  0.82401159  0.37064511  1
  C  C209  1  0.62935489  0.10608059  0.67598841  1
  C  C210  1  0.67598841  0.62935489  0.10608059  1
  C  C211  1  0.10608059  0.67598841  0.62935489  1
