# generated using pymatgen
data_Mo2H13CN3O13
_symmetry_space_group_name_H-M   'P 1'
_cell_length_a   6.22090700
_cell_length_b   12.22915600
_cell_length_c   17.05391400
_cell_angle_alpha   90.00000000
_cell_angle_beta   90.00000000
_cell_angle_gamma   90.00000000
_symmetry_Int_Tables_number   1
_chemical_formula_structural   Mo2H13CN3O13
_chemical_formula_sum   'Mo8 H52 C4 N12 O52'
_cell_volume   1297.40110210
_cell_formula_units_Z   4
loop_
 _symmetry_equiv_pos_site_id
 _symmetry_equiv_pos_as_xyz
  1  'x, y, z'
loop_
 _atom_site_type_symbol
 _atom_site_label
 _atom_site_symmetry_multiplicity
 _atom_site_fract_x
 _atom_site_fract_y
 _atom_site_fract_z
 _atom_site_occupancy
  Mo  Mo0  1  0.70139200  0.25768200  0.86045600  1
  Mo  Mo1  1  0.29860800  0.74231800  0.36045600  1
  Mo  Mo2  1  0.70139200  0.24231800  0.13954400  1
  Mo  Mo3  1  0.29860800  0.75768200  0.63954400  1
  Mo  Mo4  1  0.29860800  0.74231800  0.13954400  1
  Mo  Mo5  1  0.70139200  0.25768200  0.63954400  1
  Mo  Mo6  1  0.29860800  0.75768200  0.86045600  1
  Mo  Mo7  1  0.70139200  0.24231800  0.36045600  1
  H  H8  1  0.39550200  0.10491300  0.95564400  1
  H  H9  1  0.60449800  0.89508700  0.45564400  1
  H  H10  1  0.39550200  0.39508700  0.04435600  1
  H  H11  1  0.60449800  0.60491300  0.54435600  1
  H  H12  1  0.60449800  0.89508700  0.04435600  1
  H  H13  1  0.39550200  0.10491300  0.54435600  1
  H  H14  1  0.60449800  0.60491300  0.95564400  1
  H  H15  1  0.39550200  0.39508700  0.45564400  1
  H  H16  1  0.16426900  0.12548700  0.90303700  1
  H  H17  1  0.83573100  0.87451300  0.40303700  1
  H  H18  1  0.16426900  0.37451300  0.09696300  1
  H  H19  1  0.83573100  0.62548700  0.59696300  1
  H  H20  1  0.83573100  0.87451300  0.09696300  1
  H  H21  1  0.16426900  0.12548700  0.59696300  1
  H  H22  1  0.83573100  0.62548700  0.90303700  1
  H  H23  1  0.16426900  0.37451300  0.40303700  1
  H  H24  1  0.20785200  0.00583300  0.94816400  1
  H  H25  1  0.79214800  0.99416700  0.44816400  1
  H  H26  1  0.20785200  0.49416700  0.05183600  1
  H  H27  1  0.79214800  0.50583300  0.55183600  1
  H  H28  1  0.79214800  0.99416700  0.05183600  1
  H  H29  1  0.20785200  0.00583300  0.55183600  1
  H  H30  1  0.79214800  0.50583300  0.94816400  1
  H  H31  1  0.20785200  0.49416700  0.44816400  1
  H  H32  1  0.15357700  0.11902900  0.00211000  1
  H  H33  1  0.84642300  0.88097100  0.50211000  1
  H  H34  1  0.15357700  0.38097100  0.99789000  1
  H  H35  1  0.84642300  0.61902900  0.49789000  1
  H  H36  1  0.84642300  0.88097100  0.99789000  1
  H  H37  1  0.15357700  0.11902900  0.49789000  1
  H  H38  1  0.84642300  0.61902900  0.00211000  1
  H  H39  1  0.15357700  0.38097100  0.50211000  1
  H  H40  1  0.14982000  0.39141600  0.79930200  1
  H  H41  1  0.85018000  0.60858400  0.29930200  1
  H  H42  1  0.14982000  0.10858400  0.20069800  1
  H  H43  1  0.85018000  0.89141600  0.70069800  1
  H  H44  1  0.85018000  0.60858400  0.20069800  1
  H  H45  1  0.14982000  0.39141600  0.70069800  1
  H  H46  1  0.85018000  0.89141600  0.79930200  1
  H  H47  1  0.14982000  0.10858400  0.29930200  1
  H  H48  1  0.38460300  0.36344500  0.75000000  1
  H  H49  1  0.61539700  0.63655500  0.25000000  1
  H  H50  1  0.38460300  0.13655500  0.25000000  1
  H  H51  1  0.61539700  0.86344500  0.75000000  1
  H  H52  1  0.28208700  0.49086400  0.75000000  1
  H  H53  1  0.71791300  0.50913600  0.25000000  1
  H  H54  1  0.28208700  0.00913600  0.25000000  1
  H  H55  1  0.71791300  0.99086400  0.75000000  1
  H  H56  1  0.24698200  0.09547400  0.75000000  1
  H  H57  1  0.75301800  0.90452600  0.25000000  1
  H  H58  1  0.24698200  0.40452600  0.25000000  1
  H  H59  1  0.75301800  0.59547400  0.75000000  1
  C  C60  1  0.09851500  0.14517200  0.75000000  1
  C  C61  1  0.90148500  0.85482800  0.25000000  1
  C  C62  1  0.09851500  0.35482800  0.25000000  1
  C  C63  1  0.90148500  0.64517200  0.75000000  1
  N  N64  1  0.23124200  0.08884700  0.95302100  1
  N  N65  1  0.76875800  0.91115300  0.45302100  1
  N  N66  1  0.23124200  0.41115300  0.04697900  1
  N  N67  1  0.76875800  0.58884700  0.54697900  1
  N  N68  1  0.76875800  0.91115300  0.04697900  1
  N  N69  1  0.23124200  0.08884700  0.54697900  1
  N  N70  1  0.76875800  0.58884700  0.95302100  1
  N  N71  1  0.23124200  0.41115300  0.45302100  1
  N  N72  1  0.24261000  0.40895700  0.75000000  1
  N  N73  1  0.75739000  0.59104300  0.25000000  1
  N  N74  1  0.24261000  0.09104300  0.25000000  1
  N  N75  1  0.75739000  0.90895700  0.75000000  1
  O  O76  1  0.60197500  0.10672700  0.83861000  1
  O  O77  1  0.39802500  0.89327300  0.33861000  1
  O  O78  1  0.60197500  0.39327300  0.16139000  1
  O  O79  1  0.39802500  0.60672700  0.66139000  1
  O  O80  1  0.39802500  0.89327300  0.16139000  1
  O  O81  1  0.60197500  0.10672700  0.66139000  1
  O  O82  1  0.39802500  0.60672700  0.83861000  1
  O  O83  1  0.60197500  0.39327300  0.33861000  1
  O  O84  1  0.68571600  0.11564100  0.91938100  1
  O  O85  1  0.31428400  0.88435900  0.41938100  1
  O  O86  1  0.68571600  0.38435900  0.08061900  1
  O  O87  1  0.31428400  0.61564100  0.58061900  1
  O  O88  1  0.31428400  0.88435900  0.08061900  1
  O  O89  1  0.68571600  0.11564100  0.58061900  1
  O  O90  1  0.31428400  0.61564100  0.91938100  1
  O  O91  1  0.68571600  0.38435900  0.41938100  1
  O  O92  1  0.92308200  0.31825100  0.93437500  1
  O  O93  1  0.07691800  0.68174900  0.43437500  1
  O  O94  1  0.92308200  0.18174900  0.06562500  1
  O  O95  1  0.07691800  0.81825100  0.56562500  1
  O  O96  1  0.07691800  0.68174900  0.06562500  1
  O  O97  1  0.92308200  0.31825100  0.56562500  1
  O  O98  1  0.07691800  0.81825100  0.93437500  1
  O  O99  1  0.92308200  0.18174900  0.43437500  1
  O  O100  1  0.91006100  0.38332000  0.86169300  1
  O  O101  1  0.08993900  0.61668000  0.36169300  1
  O  O102  1  0.91006100  0.11668000  0.13830700  1
  O  O103  1  0.08993900  0.88332000  0.63830700  1
  O  O104  1  0.08993900  0.61668000  0.13830700  1
  O  O105  1  0.91006100  0.38332000  0.63830700  1
  O  O106  1  0.08993900  0.88332000  0.86169300  1
  O  O107  1  0.91006100  0.11668000  0.36169300  1
  O  O108  1  0.47241800  0.31806600  0.89793200  1
  O  O109  1  0.52758200  0.68193400  0.39793200  1
  O  O110  1  0.47241800  0.18193400  0.10206800  1
  O  O111  1  0.52758200  0.81806600  0.60206800  1
  O  O112  1  0.52758200  0.68193400  0.10206800  1
  O  O113  1  0.47241800  0.31806600  0.60206800  1
  O  O114  1  0.52758200  0.81806600  0.89793200  1
  O  O115  1  0.47241800  0.18193400  0.39793200  1
  O  O116  1  0.64298900  0.29217600  0.75000000  1
  O  O117  1  0.35701100  0.70782400  0.25000000  1
  O  O118  1  0.64298900  0.20782400  0.25000000  1
  O  O119  1  0.35701100  0.79217600  0.75000000  1
  O  O120  1  0.02311400  0.17120700  0.81663500  1
  O  O121  1  0.97688600  0.82879300  0.31663500  1
  O  O122  1  0.02311400  0.32879300  0.18336500  1
  O  O123  1  0.97688600  0.67120700  0.68336500  1
  O  O124  1  0.97688600  0.82879300  0.18336500  1
  O  O125  1  0.02311400  0.17120700  0.68336500  1
  O  O126  1  0.97688600  0.67120700  0.81663500  1
  O  O127  1  0.02311400  0.32879300  0.31663500  1
