# generated using pymatgen
data_SrFeBP2(HO5)2
_symmetry_space_group_name_H-M   'P 1'
_cell_length_a   6.68054722
_cell_length_b   6.73991600
_cell_length_c   9.39288714
_cell_angle_alpha   109.84407082
_cell_angle_beta   101.88956448
_cell_angle_gamma   103.59673961
_symmetry_Int_Tables_number   1
_chemical_formula_structural   SrFeBP2(HO5)2
_chemical_formula_sum   'Sr2 Fe2 B2 P4 H4 O20'
_cell_volume   367.28261630
_cell_formula_units_Z   2
loop_
 _symmetry_equiv_pos_site_id
 _symmetry_equiv_pos_as_xyz
  1  'x, y, z'
loop_
 _atom_site_type_symbol
 _atom_site_label
 _atom_site_symmetry_multiplicity
 _atom_site_fract_x
 _atom_site_fract_y
 _atom_site_fract_z
 _atom_site_occupancy
  Sr  Sr0  1  0.65474100  0.88850900  0.26563100  1
  Sr  Sr1  1  0.34525900  0.11149100  0.73436900  1
  Fe  Fe2  1  0.00000000  0.50000000  0.00000000  1
  Fe  Fe3  1  0.50000000  0.50000000  0.50000000  1
  B  B4  1  0.97104500  0.72550100  0.75340900  1
  B  B5  1  0.02895500  0.27449900  0.24659100  1
  P  P6  1  0.64286700  0.37494000  0.16714900  1
  P  P7  1  0.35713300  0.62506000  0.83285100  1
  P  P8  1  0.79182400  0.03530600  0.67621600  1
  P  P9  1  0.20817600  0.96469400  0.32378400  1
  H  H10  1  0.79456500  0.74834300  0.91699000  1
  H  H11  1  0.20543500  0.25165700  0.08301000  1
  H  H12  1  0.84368600  0.39273900  0.58866900  1
  H  H13  1  0.15631400  0.60726100  0.41133100  1
  O  O14  1  0.58103200  0.52201100  0.30770200  1
  O  O15  1  0.41896800  0.47798900  0.69229800  1
  O  O16  1  0.78175300  0.54035700  0.11419200  1
  O  O17  1  0.21824700  0.45964300  0.88580800  1
  O  O18  1  0.44041400  0.20485900  0.03674800  1
  O  O19  1  0.55958600  0.79514100  0.96325200  1
  O  O20  1  0.79914000  0.26080300  0.23521600  1
  O  O21  1  0.20086000  0.73919700  0.76478400  1
  O  O22  1  0.86894700  0.13121100  0.56411600  1
  O  O23  1  0.13105300  0.86878900  0.43588400  1
  O  O24  1  0.57200500  0.83907200  0.59078100  1
  O  O25  1  0.42799500  0.16092800  0.40921900  1
  O  O26  1  0.76285400  0.21737400  0.81662100  1
  O  O27  1  0.23714600  0.78262600  0.18337900  1
  O  O28  1  0.96640000  0.94189800  0.74758100  1
  O  O29  1  0.03360000  0.05810200  0.25241900  1
  O  O30  1  0.92389400  0.70714000  0.89582800  1
  O  O31  1  0.07610600  0.29286000  0.10417200  1
  O  O32  1  0.81926800  0.53920700  0.60450200  1
  O  O33  1  0.18073200  0.46079300  0.39549800  1
