# generated using pymatgen
data_Mn2Fe(CO)14
_symmetry_space_group_name_H-M   'P 1'
_cell_length_a   9.63561557
_cell_length_b   9.63561557
_cell_length_c   12.02743572
_cell_angle_alpha   85.06452260
_cell_angle_beta   85.06452260
_cell_angle_gamma   100.25627664
_symmetry_Int_Tables_number   1
_chemical_formula_structural   Mn2Fe(CO)14
_chemical_formula_sum   'Mn4 Fe2 C28 O28'
_cell_volume   1088.90468721
_cell_formula_units_Z   2
loop_
 _symmetry_equiv_pos_site_id
 _symmetry_equiv_pos_as_xyz
  1  'x, y, z'
loop_
 _atom_site_type_symbol
 _atom_site_label
 _atom_site_symmetry_multiplicity
 _atom_site_fract_x
 _atom_site_fract_y
 _atom_site_fract_z
 _atom_site_occupancy
  Mn  Mn0  1  0.22208900  0.22208900  0.06592500  1
  Mn  Mn1  1  0.77791100  0.77791100  0.93407500  1
  Mn  Mn2  1  0.69776700  0.30223300  0.50000000  1
  Mn  Mn3  1  0.30223300  0.69776700  0.50000000  1
  Fe  Fe4  1  0.00000000  0.00000000  0.00000000  1
  Fe  Fe5  1  0.50000000  0.50000000  0.50000000  1
  C  C6  1  0.05745600  0.05745600  0.85253800  1
  C  C7  1  0.94254400  0.94254400  0.14746200  1
  C  C8  1  0.87628500  0.12371500  0.00000000  1
  C  C9  1  0.12371500  0.87628500  0.00000000  1
  C  C10  1  0.08205400  0.25933100  0.16944300  1
  C  C11  1  0.25933100  0.08205400  0.16944300  1
  C  C12  1  0.91794600  0.74066900  0.83055700  1
  C  C13  1  0.74066900  0.91794600  0.83055700  1
  C  C14  1  0.35879200  0.35879200  0.10366500  1
  C  C15  1  0.64120800  0.64120800  0.89633500  1
  C  C16  1  0.16079200  0.34394100  0.95949000  1
  C  C17  1  0.34394100  0.16079200  0.95949000  1
  C  C18  1  0.83920800  0.65605900  0.04051000  1
  C  C19  1  0.65605900  0.83920800  0.04051000  1
  C  C20  1  0.62626500  0.62626500  0.56326800  1
  C  C21  1  0.37373500  0.37373500  0.43673200  1
  C  C22  1  0.58043300  0.58043300  0.36183400  1
  C  C23  1  0.41956700  0.41956700  0.63816600  1
  C  C24  1  0.82058200  0.17941800  0.50000000  1
  C  C25  1  0.17941800  0.82058200  0.50000000  1
  C  C26  1  0.83056200  0.45947100  0.43647400  1
  C  C27  1  0.45947100  0.83056200  0.43647400  1
  C  C28  1  0.16943800  0.54052900  0.56352600  1
  C  C29  1  0.54052900  0.16943800  0.56352600  1
  C  C30  1  0.73401800  0.35085500  0.64292600  1
  C  C31  1  0.35085500  0.73401800  0.64292600  1
  C  C32  1  0.26598200  0.64914500  0.35707400  1
  C  C33  1  0.64914500  0.26598200  0.35707400  1
  O  O34  1  0.09358300  0.09358300  0.75874800  1
  O  O35  1  0.90641700  0.90641700  0.24125200  1
  O  O36  1  0.79808600  0.20191400  0.00000000  1
  O  O37  1  0.20191400  0.79808600  0.00000000  1
  O  O38  1  0.99717800  0.28524400  0.23457500  1
  O  O39  1  0.28524400  0.99717800  0.23457500  1
  O  O40  1  0.00282200  0.71475600  0.76542500  1
  O  O41  1  0.71475600  0.00282200  0.76542500  1
  O  O42  1  0.44657400  0.44657400  0.12796300  1
  O  O43  1  0.55342600  0.55342600  0.87203700  1
  O  O44  1  0.12257900  0.42421700  0.89745900  1
  O  O45  1  0.42421700  0.12257900  0.89745900  1
  O  O46  1  0.87742100  0.57578300  0.10254100  1
  O  O47  1  0.57578300  0.87742100  0.10254100  1
  O  O48  1  0.70660700  0.70660700  0.60313100  1
  O  O49  1  0.29339300  0.29339300  0.39686900  1
  O  O50  1  0.63339600  0.63339600  0.27491100  1
  O  O51  1  0.36660400  0.36660400  0.72508900  1
  O  O52  1  0.89883500  0.10116500  0.50000000  1
  O  O53  1  0.10116500  0.89883500  0.50000000  1
  O  O54  1  0.91457200  0.55650000  0.39665000  1
  O  O55  1  0.55650000  0.91457200  0.39665000  1
  O  O56  1  0.08542800  0.44350000  0.60335000  1
  O  O57  1  0.44350000  0.08542800  0.60335000  1
  O  O58  1  0.75894700  0.37839300  0.73184300  1
  O  O59  1  0.37839300  0.75894700  0.73184300  1
  O  O60  1  0.24105300  0.62160700  0.26815700  1
  O  O61  1  0.62160700  0.24105300  0.26815700  1
