# generated using pymatgen
data_H7C2N4ClO5
_symmetry_space_group_name_H-M   'P 1'
_cell_length_a   9.91728900
_cell_length_b   8.19205300
_cell_length_c   9.84375327
_cell_angle_alpha   73.74823435
_cell_angle_beta   90.00000000
_cell_angle_gamma   90.00000000
_symmetry_Int_Tables_number   1
_chemical_formula_structural   H7C2N4ClO5
_chemical_formula_sum   'H28 C8 N16 Cl4 O20'
_cell_volume   767.77917301
_cell_formula_units_Z   4
loop_
 _symmetry_equiv_pos_site_id
 _symmetry_equiv_pos_as_xyz
  1  'x, y, z'
loop_
 _atom_site_type_symbol
 _atom_site_label
 _atom_site_symmetry_multiplicity
 _atom_site_fract_x
 _atom_site_fract_y
 _atom_site_fract_z
 _atom_site_occupancy
  H  H0  1  0.14194700  0.16701500  0.50922800  1
  H  H1  1  0.64194700  0.83298500  0.99077200  1
  H  H2  1  0.85805300  0.83298500  0.49077200  1
  H  H3  1  0.35805300  0.16701500  0.00922800  1
  H  H4  1  0.17457400  0.91524300  0.27326600  1
  H  H5  1  0.67457400  0.08475700  0.22673400  1
  H  H6  1  0.82542600  0.08475700  0.72673400  1
  H  H7  1  0.32542600  0.91524300  0.77326600  1
  H  H8  1  0.02267600  0.30990200  0.15556900  1
  H  H9  1  0.52267600  0.69009800  0.34443100  1
  H  H10  1  0.97732400  0.69009800  0.84443100  1
  H  H11  1  0.47732400  0.30990200  0.65556900  1
  H  H12  1  0.06912900  0.12434500  0.11473300  1
  H  H13  1  0.56912900  0.87565500  0.38526700  1
  H  H14  1  0.93087100  0.87565500  0.88526700  1
  H  H15  1  0.43087100  0.12434500  0.61473300  1
  H  H16  1  0.07498200  0.34348100  0.37895700  1
  H  H17  1  0.57498200  0.65651900  0.12104300  1
  H  H18  1  0.92501800  0.65651900  0.62104300  1
  H  H19  1  0.42501800  0.34348100  0.87895700  1
  H  H20  1  0.22413700  0.66348500  0.41978100  1
  H  H21  1  0.72413700  0.33651500  0.08021900  1
  H  H22  1  0.77586300  0.33651500  0.58021900  1
  H  H23  1  0.27586300  0.66348500  0.91978100  1
  H  H24  1  0.28210100  0.64468100  0.59158000  1
  H  H25  1  0.78210100  0.35531900  0.90842000  1
  H  H26  1  0.71789900  0.35531900  0.40842000  1
  H  H27  1  0.21789900  0.64468100  0.09158000  1
  C  C28  1  0.10657400  0.12777200  0.31919900  1
  C  C29  1  0.60657400  0.87222800  0.18080100  1
  C  C30  1  0.89342600  0.87222800  0.68080100  1
  C  C31  1  0.39342600  0.12777200  0.81919900  1
  C  C32  1  0.21195800  0.87894300  0.48835300  1
  C  C33  1  0.71195800  0.12105700  0.01164700  1
  C  C34  1  0.78804200  0.12105700  0.51164700  1
  C  C35  1  0.28804200  0.87894300  0.98835300  1
  N  N36  1  0.15946300  0.96743700  0.35553700  1
  N  N37  1  0.65946300  0.03256300  0.14446300  1
  N  N38  1  0.84053700  0.03256300  0.64446300  1
  N  N39  1  0.34053700  0.96743700  0.85553700  1
  N  N40  1  0.09813500  0.21706300  0.41279700  1
  N  N41  1  0.59813500  0.78293700  0.08720300  1
  N  N42  1  0.90186500  0.78293700  0.58720300  1
  N  N43  1  0.40186500  0.21706300  0.91279700  1
  N  N44  1  0.25015500  0.71936300  0.49619700  1
  N  N45  1  0.75015500  0.28063700  0.00380300  1
  N  N46  1  0.74984500  0.28063700  0.50380300  1
  N  N47  1  0.24984500  0.71936300  0.99619700  1
  N  N48  1  0.06084100  0.18992800  0.18795600  1
  N  N49  1  0.56084100  0.81007200  0.31204400  1
  N  N50  1  0.93915900  0.81007200  0.81204400  1
  N  N51  1  0.43915900  0.18992800  0.68795600  1
  Cl  Cl52  1  0.44540100  0.34469400  0.28393800  1
  Cl  Cl53  1  0.94540100  0.65530600  0.21606200  1
  Cl  Cl54  1  0.55459900  0.65530600  0.71606200  1
  Cl  Cl55  1  0.05459900  0.34469400  0.78393800  1
  O  O56  1  0.39941300  0.45757600  0.36647400  1
  O  O57  1  0.89941300  0.54242400  0.13352600  1
  O  O58  1  0.60058700  0.54242400  0.63352600  1
  O  O59  1  0.10058700  0.45757600  0.86647400  1
  O  O60  1  0.45730000  0.17106200  0.37452600  1
  O  O61  1  0.95730000  0.82893800  0.12547400  1
  O  O62  1  0.54270000  0.82893800  0.62547400  1
  O  O63  1  0.04270000  0.17106200  0.87452600  1
  O  O64  1  0.22143600  0.94486800  0.58820100  1
  O  O65  1  0.72143600  0.05513200  0.91179900  1
  O  O66  1  0.77856400  0.05513200  0.41179900  1
  O  O67  1  0.27856400  0.94486800  0.08820100  1
  O  O68  1  0.58068100  0.40417600  0.22523000  1
  O  O69  1  0.08068100  0.59582400  0.27477000  1
  O  O70  1  0.41931900  0.59582400  0.77477000  1
  O  O71  1  0.91931900  0.40417600  0.72523000  1
  O  O72  1  0.35204300  0.35116300  0.16870100  1
  O  O73  1  0.85204300  0.64883700  0.33129900  1
  O  O74  1  0.64795700  0.64883700  0.83129900  1
  O  O75  1  0.14795700  0.35116300  0.66870100  1
