# generated using pymatgen
data_GeC4NCl3
_symmetry_space_group_name_H-M   'P 1'
_cell_length_a   8.12345800
_cell_length_b   8.50013400
_cell_length_c   12.08511400
_cell_angle_alpha   90.00000000
_cell_angle_beta   90.00000000
_cell_angle_gamma   90.00000000
_symmetry_Int_Tables_number   1
_chemical_formula_structural   GeC4NCl3
_chemical_formula_sum   'Ge4 C16 N4 Cl12'
_cell_volume   834.48294121
_cell_formula_units_Z   4
loop_
 _symmetry_equiv_pos_site_id
 _symmetry_equiv_pos_as_xyz
  1  'x, y, z'
loop_
 _atom_site_type_symbol
 _atom_site_label
 _atom_site_symmetry_multiplicity
 _atom_site_fract_x
 _atom_site_fract_y
 _atom_site_fract_z
 _atom_site_occupancy
  Ge  Ge0  1  0.27648300  0.72417500  0.27487000  1
  Ge  Ge1  1  0.72351700  0.22417500  0.72513000  1
  Ge  Ge2  1  0.77648300  0.22417500  0.22513000  1
  Ge  Ge3  1  0.22351700  0.72417500  0.77487000  1
  C  C4  1  0.39908900  0.19597800  0.47671900  1
  C  C5  1  0.60091100  0.69597800  0.52328100  1
  C  C6  1  0.89908900  0.69597800  0.02328100  1
  C  C7  1  0.10091100  0.19597800  0.97671900  1
  C  C8  1  0.17884600  0.18718300  0.44433500  1
  C  C9  1  0.82115400  0.68718300  0.55566500  1
  C  C10  1  0.67884600  0.68718300  0.05566500  1
  C  C11  1  0.32115400  0.18718300  0.94433500  1
  C  C12  1  0.26981200  0.09801900  0.53210300  1
  C  C13  1  0.73018800  0.59801900  0.46789700  1
  C  C14  1  0.76981200  0.59801900  0.96789700  1
  C  C15  1  0.23018800  0.09801900  0.03210300  1
  C  C16  1  0.24671900  0.25852900  0.58064600  1
  C  C17  1  0.75328100  0.75852900  0.41935400  1
  C  C18  1  0.74671900  0.75852900  0.91935400  1
  C  C19  1  0.25328100  0.25852900  0.08064600  1
  N  N20  1  0.22131300  0.32850200  0.97064800  1
  N  N21  1  0.77868700  0.82850200  0.02935200  1
  N  N22  1  0.72131300  0.82850200  0.52935200  1
  N  N23  1  0.27868700  0.32850200  0.47064800  1
  Cl  Cl24  1  0.43750400  0.51894400  0.26499600  1
  Cl  Cl25  1  0.56249600  0.01894400  0.73500400  1
  Cl  Cl26  1  0.93750400  0.01894400  0.23500400  1
  Cl  Cl27  1  0.06249600  0.51894400  0.76499600  1
  Cl  Cl28  1  0.42959900  0.93726800  0.26375800  1
  Cl  Cl29  1  0.57040100  0.43726800  0.73624200  1
  Cl  Cl30  1  0.92959900  0.43726800  0.23624200  1
  Cl  Cl31  1  0.07040100  0.93726800  0.76375800  1
  Cl  Cl32  1  0.16213600  0.72780200  0.44021400  1
  Cl  Cl33  1  0.83786400  0.22780200  0.55978600  1
  Cl  Cl34  1  0.66213600  0.22780200  0.05978600  1
  Cl  Cl35  1  0.33786400  0.72780200  0.94021400  1
