# generated using pymatgen
data_Nd6CdFe13
_symmetry_space_group_name_H-M   'P 1'
_cell_length_a   8.03793000
_cell_length_b   8.03793000
_cell_length_c   12.86219814
_cell_angle_alpha   108.20773916
_cell_angle_beta   108.20773916
_cell_angle_gamma   90.00000000
_symmetry_Int_Tables_number   1
_chemical_formula_structural   Nd6CdFe13
_chemical_formula_sum   'Nd12 Cd2 Fe26'
_cell_volume   745.46912975
_cell_formula_units_Z   2
loop_
 _symmetry_equiv_pos_site_id
 _symmetry_equiv_pos_as_xyz
  1  'x, y, z'
loop_
 _atom_site_type_symbol
 _atom_site_label
 _atom_site_symmetry_multiplicity
 _atom_site_fract_x
 _atom_site_fract_y
 _atom_site_fract_z
 _atom_site_occupancy
  Nd  Nd0  1  0.97652500  0.47652500  0.62827500  1
  Nd  Nd1  1  0.65175000  0.15175000  0.62827500  1
  Nd  Nd2  1  0.15175000  0.97652500  0.62827500  1
  Nd  Nd3  1  0.47652500  0.65175000  0.62827500  1
  Nd  Nd4  1  0.02347500  0.52347500  0.37172500  1
  Nd  Nd5  1  0.34825000  0.84825000  0.37172500  1
  Nd  Nd6  1  0.84825000  0.02347500  0.37172500  1
  Nd  Nd7  1  0.52347500  0.34825000  0.37172500  1
  Nd  Nd8  1  0.60523800  0.60523800  0.21047600  1
  Nd  Nd9  1  0.10523800  0.10523800  0.21047600  1
  Nd  Nd10  1  0.39476200  0.39476200  0.78952400  1
  Nd  Nd11  1  0.89476200  0.89476200  0.78952400  1
  Cd  Cd12  1  0.25000000  0.25000000  0.50000000  1
  Cd  Cd13  1  0.75000000  0.75000000  0.50000000  1
  Fe  Fe14  1  0.11930300  0.61930300  0.88191900  1
  Fe  Fe15  1  0.76261500  0.26261500  0.88191900  1
  Fe  Fe16  1  0.26261500  0.11930300  0.88191900  1
  Fe  Fe17  1  0.61930300  0.76261500  0.88191900  1
  Fe  Fe18  1  0.88069700  0.38069700  0.11808100  1
  Fe  Fe19  1  0.23738500  0.73738500  0.11808100  1
  Fe  Fe20  1  0.73738500  0.88069700  0.11808100  1
  Fe  Fe21  1  0.38069700  0.23738500  0.11808100  1
  Fe  Fe22  1  0.71133700  0.56698800  0.00000000  1
  Fe  Fe23  1  0.28866300  0.43301200  0.00000000  1
  Fe  Fe24  1  0.78866300  0.06698800  0.00000000  1
  Fe  Fe25  1  0.21133700  0.93301200  0.00000000  1
  Fe  Fe26  1  0.56698800  0.28866300  0.00000000  1
  Fe  Fe27  1  0.43301200  0.71133700  0.00000000  1
  Fe  Fe28  1  0.06698800  0.21133700  0.00000000  1
  Fe  Fe29  1  0.93301200  0.78866300  0.00000000  1
  Fe  Fe30  1  0.29106600  0.79106600  0.80989200  1
  Fe  Fe31  1  0.51882700  0.01882700  0.80989200  1
  Fe  Fe32  1  0.01882700  0.29106600  0.80989200  1
  Fe  Fe33  1  0.79106600  0.51882700  0.80989200  1
  Fe  Fe34  1  0.70893400  0.20893400  0.19010800  1
  Fe  Fe35  1  0.48117300  0.98117300  0.19010800  1
  Fe  Fe36  1  0.98117300  0.70893400  0.19010800  1
  Fe  Fe37  1  0.20893400  0.48117300  0.19010800  1
  Fe  Fe38  1  0.00000000  0.50000000  0.00000000  1
  Fe  Fe39  1  0.50000000  0.00000000  0.00000000  1
