# generated using pymatgen
data_FeSO8
_symmetry_space_group_name_H-M   'P 1'
_cell_length_a   6.76553304
_cell_length_b   8.35298864
_cell_length_c   12.16291289
_cell_angle_alpha   101.09389348
_cell_angle_beta   90.69926289
_cell_angle_gamma   87.71280262
_symmetry_Int_Tables_number   1
_chemical_formula_structural   FeSO8
_chemical_formula_sum   'Fe4 S4 O32'
_cell_volume   673.96662115
_cell_formula_units_Z   4
loop_
 _symmetry_equiv_pos_site_id
 _symmetry_equiv_pos_as_xyz
  1  'x, y, z'
loop_
 _atom_site_type_symbol
 _atom_site_label
 _atom_site_symmetry_multiplicity
 _atom_site_fract_x
 _atom_site_fract_y
 _atom_site_fract_z
 _atom_site_occupancy
  Fe  Fe0  1  0.82817500  0.09701100  0.07402100  1
  Fe  Fe1  1  0.17182500  0.90298900  0.92597900  1
  Fe  Fe2  1  0.82994000  0.11713100  0.79366300  1
  Fe  Fe3  1  0.17006000  0.88286900  0.20633700  1
  S  S4  1  0.93146600  0.18525100  0.35068400  1
  S  S5  1  0.06853400  0.81474900  0.64931600  1
  S  S6  1  0.55259200  0.76533200  0.06146100  1
  S  S7  1  0.44740800  0.23466800  0.93853900  1
  O  O8  1  0.97145200  0.99023600  0.67339400  1
  O  O9  1  0.02854800  0.00976400  0.32660600  1
  O  O10  1  0.91983500  0.69817800  0.60883900  1
  O  O11  1  0.08016500  0.30182200  0.39116100  1
  O  O12  1  0.84564300  0.21311700  0.23801600  1
  O  O13  1  0.15435700  0.78688300  0.76198400  1
  O  O14  1  0.76514100  0.18348500  0.42449400  1
  O  O15  1  0.23485900  0.81651500  0.57550600  1
  O  O16  1  0.56416300  0.19992000  0.03784300  1
  O  O17  1  0.43583700  0.80008000  0.96215700  1
  O  O18  1  0.59777600  0.24502900  0.84623300  1
  O  O19  1  0.40222400  0.75497100  0.15376700  1
  O  O20  1  0.67044100  0.61634000  0.03663000  1
  O  O21  1  0.32955900  0.38366000  0.96337000  1
  O  O22  1  0.67427900  0.90886900  0.10850700  1
  O  O23  1  0.32572100  0.09113100  0.89149300  1
  O  O24  1  0.90425700  0.02044600  0.91236300  1
  O  O25  1  0.09574300  0.97955400  0.08763700  1
  O  O26  1  0.61863800  0.53167800  0.28772200  1
  O  O27  1  0.38136200  0.46832200  0.71227800  1
  O  O28  1  0.54650000  0.05673000  0.61449600  1
  O  O29  1  0.45350000  0.94327000  0.38550400  1
  O  O30  1  0.94738900  0.33593700  0.75419900  1
  O  O31  1  0.05261100  0.66406300  0.24580100  1
  O  O32  1  0.71230700  0.65065400  0.32839000  1
  O  O33  1  0.28769300  0.34934600  0.67161000  1
  O  O34  1  0.96295200  0.30899300  0.07129500  1
  O  O35  1  0.03704800  0.69100700  0.92870500  1
  O  O36  1  0.84504200  0.46479100  0.76298200  1
  O  O37  1  0.15495800  0.53520900  0.23701800  1
  O  O38  1  0.55692000  0.95594300  0.67672000  1
  O  O39  1  0.44308000  0.04405700  0.32328000  1
