# generated using pymatgen
data_Si4Bi2AsH38(C7Cl)2
_symmetry_space_group_name_H-M   'P 1'
_cell_length_a   9.84810300
_cell_length_b   13.18996345
_cell_length_c   14.38038137
_cell_angle_alpha   96.08166532
_cell_angle_beta   103.02806941
_cell_angle_gamma   93.78265021
_symmetry_Int_Tables_number   1
_chemical_formula_structural   Si4Bi2AsH38(C7Cl)2
_chemical_formula_sum   'Si8 Bi4 As2 H76 C28 Cl4'
_cell_volume   1801.83091761
_cell_formula_units_Z   2
loop_
 _symmetry_equiv_pos_site_id
 _symmetry_equiv_pos_as_xyz
  1  'x, y, z'
loop_
 _atom_site_type_symbol
 _atom_site_label
 _atom_site_symmetry_multiplicity
 _atom_site_fract_x
 _atom_site_fract_y
 _atom_site_fract_z
 _atom_site_occupancy
  Si  Si0  1  0.01000600  0.72752000  0.11602500  1
  Si  Si1  1  0.98999400  0.27248000  0.88397500  1
  Si  Si2  1  0.62031500  0.10442000  0.36944200  1
  Si  Si3  1  0.37968500  0.89558000  0.63055800  1
  Si  Si4  1  0.71273400  0.66638800  0.16457300  1
  Si  Si5  1  0.28726600  0.33361200  0.83542700  1
  Si  Si6  1  0.88597300  0.26771900  0.37777600  1
  Si  Si7  1  0.11402700  0.73228100  0.62222400  1
  Bi  Bi8  1  0.76415100  0.88539900  0.02994700  1
  Bi  Bi9  1  0.23584900  0.11460100  0.97005300  1
  Bi  Bi10  1  0.69344300  0.16316700  0.14489000  1
  Bi  Bi11  1  0.30655700  0.83683300  0.85511000  1
  As  As12  1  0.53474300  0.97278000  0.08259800  1
  As  As13  1  0.46525700  0.02722000  0.91740200  1
  H  H14  1  0.86776900  0.82415300  0.20767000  1
  H  H15  1  0.13223100  0.17584700  0.79233000  1
  H  H16  1  0.80495100  0.50987800  0.09430600  1
  H  H17  1  0.19504900  0.49012200  0.90569400  1
  H  H18  1  0.62726200  0.48579300  0.09988000  1
  H  H19  1  0.37273800  0.51420700  0.90012000  1
  H  H20  1  0.66893300  0.55380500  0.00814900  1
  H  H21  1  0.33106700  0.44619500  0.99185100  1
  H  H22  1  0.77419100  0.71244500  0.34249400  1
  H  H23  1  0.22580900  0.28755500  0.65750600  1
  H  H24  1  0.69990200  0.58346200  0.30981700  1
  H  H25  1  0.30009800  0.41653800  0.69018300  1
  H  H26  1  0.87876900  0.61574400  0.31051800  1
  H  H27  1  0.12123100  0.38425600  0.68948200  1
  H  H28  1  0.48191400  0.71981300  0.07980000  1
  H  H29  1  0.51808600  0.28018700  0.92020000  1
  H  H30  1  0.46586600  0.63784400  0.16828900  1
  H  H31  1  0.53413400  0.36215600  0.83171100  1
  H  H32  1  0.52477100  0.76985100  0.20415300  1
  H  H33  1  0.47522900  0.23014900  0.79584700  1
  H  H34  1  0.02750100  0.56555900  0.19640800  1
  H  H35  1  0.97249900  0.43444100  0.80359200  1
  H  H36  1  0.19216400  0.61910200  0.18444100  1
  H  H37  1  0.80783600  0.38089800  0.81555900  1
  H  H38  1  0.11627100  0.67391200  0.27673200  1
  H  H39  1  0.88372900  0.32608800  0.72326800  1
  H  H40  1  0.16618200  0.88363000  0.20326200  1
  H  H41  1  0.83381800  0.11637000  0.79673800  1
  H  H42  1  0.24003000  0.81368500  0.11706000  1
  H  H43  1  0.75997000  0.18631500  0.88294000  1
  H  H44  1  0.10752200  0.89560100  0.07907900  1
  H  H45  1  0.89247800  0.10439900  0.92092100  1
  H  H46  1  0.08695600  0.64134300  0.97777500  1
  H  H47  1  0.91304400  0.35865700  0.02222500  1
  H  H48  1  0.91194900  0.59351000  0.97325600  1
  H  H49  1  0.08805100  0.40649000  0.02674400  1
  H  H50  1  0.94650500  0.71493800  0.93631200  1
  H  H51  1  0.05349500  0.28506200  0.06368800  1
  H  H52  1  0.63911200  0.26552000  0.30360900  1
  H  H53  1  0.36088800  0.73448000  0.69639100  1
  H  H54  1  0.02887900  0.11838300  0.37843000  1
  H  H55  1  0.97112100  0.88161700  0.62157000  1
  H  H56  1  0.10968900  0.21842500  0.47155800  1
  H  H57  1  0.89031100  0.78157500  0.52844200  1
  H  H58  1  0.96795500  0.13615900  0.48633300  1
  H  H59  1  0.03204500  0.86384100  0.51366700  1
  H  H60  1  0.81096100  0.33418900  0.52843700  1
  H  H61  1  0.18903900  0.66581100  0.47156300  1
  H  H62  1  0.96457800  0.40434800  0.51520300  1
  H  H63  1  0.03542200  0.59565200  0.48479700  1
  H  H64  1  0.79780300  0.42623100  0.44583200  1
  H  H65  1  0.20219700  0.57376900  0.55416800  1
  H  H66  1  0.91017000  0.40019600  0.26896300  1
  H  H67  1  0.08983000  0.59980400  0.73103700  1
  H  H68  1  0.07495900  0.37654600  0.33983800  1
  H  H69  1  0.92504100  0.62345400  0.66016200  1
  H  H70  1  0.99326200  0.28995800  0.23638000  1
  H  H71  1  0.00673800  0.71004200  0.76362000  1
  H  H72  1  0.80552300  0.98225400  0.39170700  1
  H  H73  1  0.19447700  0.01774600  0.60829300  1
  H  H74  1  0.63793800  0.92098100  0.38999900  1
  H  H75  1  0.36206200  0.07901900  0.61000100  1
  H  H76  1  0.68052400  0.94739900  0.28063900  1
  H  H77  1  0.31947600  0.05260100  0.71936100  1
  H  H78  1  0.59783100  0.21835300  0.51598700  1
  H  H79  1  0.40216900  0.78164700  0.48401300  1
  H  H80  1  0.58807700  0.08721000  0.53342100  1
  H  H81  1  0.41192300  0.91279000  0.46657900  1
  H  H82  1  0.75336700  0.15455200  0.54184300  1
  H  H83  1  0.24663300  0.84544800  0.45815700  1
  H  H84  1  0.40383500  0.06398100  0.23702000  1
  H  H85  1  0.59616500  0.93601900  0.76298000  1
  H  H86  1  0.37689400  0.02969100  0.34812300  1
  H  H87  1  0.62310600  0.97030900  0.65187700  1
  H  H88  1  0.37860300  0.16015800  0.32640300  1
  H  H89  1  0.62139700  0.83984200  0.67359700  1
  C  C90  1  0.83877200  0.77032200  0.14031300  1
  C  C91  1  0.16122800  0.22967800  0.85968700  1
  C  C92  1  0.70362700  0.54248800  0.08414800  1
  C  C93  1  0.29637300  0.45751200  0.91585200  1
  C  C94  1  0.77391500  0.64201100  0.29389200  1
  C  C95  1  0.22608500  0.35798900  0.70610800  1
  C  C96  1  0.52911700  0.70295700  0.15252300  1
  C  C97  1  0.47088300  0.29704300  0.84747700  1
  C  C98  1  0.09234900  0.63768600  0.20156800  1
  C  C99  1  0.90765100  0.36231400  0.79843200  1
  C  C100  1  0.14206300  0.84127800  0.13061900  1
  C  C101  1  0.85793700  0.15872200  0.86938100  1
  C  C102  1  0.98504700  0.66278500  0.98919300  1
  C  C103  1  0.01495300  0.33721500  0.01080700  1
  C  C104  1  0.70812500  0.20220500  0.30972900  1
  C  C105  1  0.29187500  0.79779500  0.69027100  1
  C  C106  1  0.00891500  0.17600400  0.43377900  1
  C  C107  1  0.99108500  0.82399600  0.56622100  1
  C  C108  1  0.86116600  0.36663500  0.47620000  1
  C  C109  1  0.13883400  0.63336500  0.52380000  1
  C  C110  1  0.97307100  0.33957700  0.29726500  1
  C  C111  1  0.02692900  0.66042300  0.70273500  1
  C  C112  1  0.69369600  0.97698700  0.35692200  1
  C  C113  1  0.30630400  0.02301300  0.64307800  1
  C  C114  1  0.64297500  0.14587300  0.50249600  1
  C  C115  1  0.35702500  0.85412700  0.49750400  1
  C  C116  1  0.42703900  0.08847400  0.31489300  1
  C  C117  1  0.57296100  0.91152600  0.68510700  1
  Cl  Cl118  1  0.57395400  0.74880700  0.90187500  1
  Cl  Cl119  1  0.42604600  0.25119300  0.09812500  1
  Cl  Cl120  1  0.92626800  0.05871600  0.16154600  1
  Cl  Cl121  1  0.07373200  0.94128400  0.83845400  1
