# generated using pymatgen
data_Eu5V3S6O7
_symmetry_space_group_name_H-M   'P 1'
_cell_length_a   3.73496200
_cell_length_b   10.21311300
_cell_length_c   18.00732900
_cell_angle_alpha   90.00000000
_cell_angle_beta   90.00000000
_cell_angle_gamma   90.00000000
_symmetry_Int_Tables_number   1
_chemical_formula_structural   Eu5V3S6O7
_chemical_formula_sum   'Eu10 V6 S12 O14'
_cell_volume   686.90017024
_cell_formula_units_Z   2
loop_
 _symmetry_equiv_pos_site_id
 _symmetry_equiv_pos_as_xyz
  1  'x, y, z'
loop_
 _atom_site_type_symbol
 _atom_site_label
 _atom_site_symmetry_multiplicity
 _atom_site_fract_x
 _atom_site_fract_y
 _atom_site_fract_z
 _atom_site_occupancy
  Eu  Eu0  1  0.50000000  0.46986600  0.88763200  1
  Eu  Eu1  1  0.50000000  0.46986600  0.11236800  1
  Eu  Eu2  1  0.00000000  0.53013400  0.61236800  1
  Eu  Eu3  1  0.00000000  0.53013400  0.38763200  1
  Eu  Eu4  1  0.00000000  0.72293300  0.00000000  1
  Eu  Eu5  1  0.50000000  0.27706700  0.50000000  1
  Eu  Eu6  1  0.00000000  0.08788200  0.83674300  1
  Eu  Eu7  1  0.00000000  0.08788200  0.16325700  1
  Eu  Eu8  1  0.50000000  0.91211800  0.66325700  1
  Eu  Eu9  1  0.50000000  0.91211800  0.33674300  1
  V  V10  1  0.00000000  0.74676100  0.80622200  1
  V  V11  1  0.00000000  0.74676100  0.19377800  1
  V  V12  1  0.50000000  0.25323900  0.69377800  1
  V  V13  1  0.50000000  0.25323900  0.30622200  1
  V  V14  1  0.50000000  0.18469800  0.00000000  1
  V  V15  1  0.00000000  0.81530200  0.50000000  1
  S  S16  1  0.00000000  0.35730600  0.00000000  1
  S  S17  1  0.50000000  0.64269400  0.50000000  1
  S  S18  1  0.50000000  0.64822500  0.73521300  1
  S  S19  1  0.50000000  0.64822500  0.26478700  1
  S  S20  1  0.00000000  0.35177500  0.76478700  1
  S  S21  1  0.00000000  0.35177500  0.23521300  1
  S  S22  1  0.00000000  0.03279900  0.00000000  1
  S  S23  1  0.50000000  0.96720100  0.50000000  1
  S  S24  1  0.50000000  0.85302600  0.88212900  1
  S  S25  1  0.50000000  0.85302600  0.11787100  1
  S  S26  1  0.00000000  0.14697400  0.61787100  1
  S  S27  1  0.00000000  0.14697400  0.38212900  1
  O  O28  1  0.50000000  0.59276600  0.00000000  1
  O  O29  1  0.00000000  0.40723400  0.50000000  1
  O  O30  1  0.00000000  0.61246800  0.87556100  1
  O  O31  1  0.00000000  0.61246800  0.12443900  1
  O  O32  1  0.50000000  0.38753200  0.62443900  1
  O  O33  1  0.50000000  0.38753200  0.37556100  1
  O  O34  1  0.00000000  0.89400100  0.74967300  1
  O  O35  1  0.00000000  0.89400100  0.25032700  1
  O  O36  1  0.50000000  0.10599900  0.75032700  1
  O  O37  1  0.50000000  0.10599900  0.24967300  1
  O  O38  1  0.50000000  0.20651900  0.89888700  1
  O  O39  1  0.50000000  0.20651900  0.10111300  1
  O  O40  1  0.00000000  0.79348100  0.60111300  1
  O  O41  1  0.00000000  0.79348100  0.39888700  1
