# generated using pymatgen
data_H14C3NCl5
_symmetry_space_group_name_H-M   'P 1'
_cell_length_a   7.91211600
_cell_length_b   7.91211600
_cell_length_c   12.75560532
_cell_angle_alpha   82.05849237
_cell_angle_beta   82.05849237
_cell_angle_gamma   122.59610357
_symmetry_Int_Tables_number   1
_chemical_formula_structural   H14C3NCl5
_chemical_formula_sum   'H28 C6 N2 Cl10'
_cell_volume   644.30480701
_cell_formula_units_Z   2
loop_
 _symmetry_equiv_pos_site_id
 _symmetry_equiv_pos_as_xyz
  1  'x, y, z'
loop_
 _atom_site_type_symbol
 _atom_site_label
 _atom_site_symmetry_multiplicity
 _atom_site_fract_x
 _atom_site_fract_y
 _atom_site_fract_z
 _atom_site_occupancy
  H  H0  1  0.12043600  0.70466200  0.32816900  1
  H  H1  1  0.70466200  0.12043600  0.82816900  1
  H  H2  1  0.60308400  0.58806100  0.18184400  1
  H  H3  1  0.58806100  0.60308400  0.68184400  1
  H  H4  1  0.99747700  0.27561000  0.21509000  1
  H  H5  1  0.27561000  0.99747700  0.71509000  1
  H  H6  1  0.32346700  0.44627800  0.38752000  1
  H  H7  1  0.44627800  0.32346700  0.88752000  1
  H  H8  1  0.28649000  0.72939100  0.06362600  1
  H  H9  1  0.72939100  0.28649000  0.56362600  1
  H  H10  1  0.44957200  0.89135400  0.36566900  1
  H  H11  1  0.89135400  0.44957200  0.86566900  1
  H  H12  1  0.24160000  0.74444300  0.48805400  1
  H  H13  1  0.74444300  0.24160000  0.98805400  1
  H  H14  1  0.36705100  0.02021900  0.44216300  1
  H  H15  1  0.02021900  0.36705100  0.94216300  1
  H  H16  1  0.14782400  0.97188500  0.19904200  1
  H  H17  1  0.97188500  0.14782400  0.69904200  1
  H  H18  1  0.39698300  0.02025200  0.20349000  1
  H  H19  1  0.02025200  0.39698300  0.70349000  1
  H  H20  1  0.30857000  0.15543100  0.26852300  1
  H  H21  1  0.15543100  0.30857000  0.76852300  1
  H  H22  1  0.91226800  0.69161200  0.49241500  1
  H  H23  1  0.69161200  0.91226800  0.99241500  1
  H  H24  1  0.86178200  0.77568400  0.36941300  1
  H  H25  1  0.77568400  0.86178200  0.86941300  1
  H  H26  1  0.02356700  0.96138700  0.43842400  1
  H  H27  1  0.96138700  0.02356700  0.93842400  1
  C  C28  1  0.31696900  0.87663600  0.41683100  1
  C  C29  1  0.87663600  0.31696900  0.91683100  1
  C  C30  1  0.26147100  0.00887800  0.24768700  1
  C  C31  1  0.00887800  0.26147100  0.74768700  1
  C  C32  1  0.97609300  0.81448000  0.41752300  1
  C  C33  1  0.81448000  0.97609300  0.91752300  1
  N  N34  1  0.16343800  0.84044600  0.35108800  1
  N  N35  1  0.84044600  0.16343800  0.85108800  1
  Cl  Cl36  1  0.28361400  0.56238500  0.22102100  1
  Cl  Cl37  1  0.56238500  0.28361400  0.72102100  1
  Cl  Cl38  1  0.76299200  0.57648800  0.16643100  1
  Cl  Cl39  1  0.57648800  0.76299200  0.66643100  1
  Cl  Cl40  1  0.83660000  0.10088600  0.20429600  1
  Cl  Cl41  1  0.10088600  0.83660000  0.70429600  1
  Cl  Cl42  1  0.36677000  0.38955200  0.47572300  1
  Cl  Cl43  1  0.38955200  0.36677000  0.97572300  1
  Cl  Cl44  1  0.28563900  0.82042500  0.96914000  1
  Cl  Cl45  1  0.82042500  0.28563900  0.46914000  1
