# generated using pymatgen
data_Mn(BO4)4
_symmetry_space_group_name_H-M   'P 1'
_cell_length_a   7.42514500
_cell_length_b   9.80940712
_cell_length_c   9.89688086
_cell_angle_alpha   102.44521221
_cell_angle_beta   111.31060007
_cell_angle_gamma   88.88538058
_symmetry_Int_Tables_number   1
_chemical_formula_structural   Mn(BO4)4
_chemical_formula_sum   'Mn2 B8 O32'
_cell_volume   654.40851311
_cell_formula_units_Z   2
loop_
 _symmetry_equiv_pos_site_id
 _symmetry_equiv_pos_as_xyz
  1  'x, y, z'
loop_
 _atom_site_type_symbol
 _atom_site_label
 _atom_site_symmetry_multiplicity
 _atom_site_fract_x
 _atom_site_fract_y
 _atom_site_fract_z
 _atom_site_occupancy
  Mn  Mn0  1  0.26834800  0.80238300  0.89318400  1
  Mn  Mn1  1  0.73165200  0.19761700  0.10681600  1
  B  B2  1  0.22281100  0.55376500  0.22090200  1
  B  B3  1  0.77718900  0.44623500  0.77909800  1
  B  B4  1  0.33773600  0.92284200  0.48279200  1
  B  B5  1  0.66226400  0.07715800  0.51720800  1
  B  B6  1  0.06951500  0.74188600  0.33130200  1
  B  B7  1  0.93048500  0.25811400  0.66869800  1
  B  B8  1  0.13366600  0.75039700  0.11219400  1
  B  B9  1  0.86633400  0.24960300  0.88780600  1
  O  O10  1  0.29550300  0.42277200  0.19863200  1
  O  O11  1  0.70449700  0.57722800  0.80136800  1
  O  O12  1  0.14547300  0.60436500  0.32583900  1
  O  O13  1  0.85452700  0.39563500  0.67416100  1
  O  O14  1  0.18090000  0.84395900  0.46459800  1
  O  O15  1  0.81910000  0.15604100  0.53540200  1
  O  O16  1  0.43367100  0.00773700  0.62285300  1
  O  O17  1  0.56632900  0.99226300  0.37714700  1
  O  O18  1  0.39485500  0.91045400  0.36120500  1
  O  O19  1  0.60514500  0.08954600  0.63879500  1
  O  O20  1  0.13756500  0.82856200  0.01151300  1
  O  O21  1  0.86243500  0.17143800  0.98848700  1
  O  O22  1  0.23772700  0.63158400  0.12238400  1
  O  O23  1  0.76227300  0.36841600  0.87761600  1
  O  O24  1  0.87429600  0.73635700  0.36396400  1
  O  O25  1  0.12570400  0.26364300  0.63603600  1
  O  O26  1  0.02364000  0.79164400  0.19612800  1
  O  O27  1  0.97636000  0.20835600  0.80387200  1
  O  O28  1  0.25592600  0.43109100  0.85108800  1
  O  O29  1  0.74407400  0.56890900  0.14891200  1
  O  O30  1  0.17777700  0.66602700  0.76386100  1
  O  O31  1  0.82222300  0.33397300  0.23613900  1
  O  O32  1  0.24787100  0.93583300  0.82425200  1
  O  O33  1  0.75212900  0.06416700  0.17574800  1
  O  O34  1  0.75551300  0.67559200  0.70225200  1
  O  O35  1  0.24448700  0.32440800  0.29774800  1
  O  O36  1  0.48883200  0.78398600  0.98425400  1
  O  O37  1  0.51116800  0.21601400  0.01574600  1
  O  O38  1  0.71874100  0.64540500  0.25723200  1
  O  O39  1  0.28125900  0.35459500  0.74276800  1
  O  O40  1  0.27360000  0.20167000  0.25332100  1
  O  O41  1  0.72640000  0.79833000  0.74667900  1
