# generated using pymatgen
data_Cd3H18S4N2O21
_symmetry_space_group_name_H-M   'P 1'
_cell_length_a   10.24912982
_cell_length_b   10.14558862
_cell_length_c   19.87355778
_cell_angle_alpha   103.29586894
_cell_angle_beta   90.00000000
_cell_angle_gamma   90.00000000
_symmetry_Int_Tables_number   1
_chemical_formula_structural   Cd3H18S4N2O21
_chemical_formula_sum   'Cd12 H72 S16 N8 O84'
_cell_volume   2011.12904230
_cell_formula_units_Z   4
loop_
 _symmetry_equiv_pos_site_id
 _symmetry_equiv_pos_as_xyz
  1  'x, y, z'
loop_
 _atom_site_type_symbol
 _atom_site_label
 _atom_site_symmetry_multiplicity
 _atom_site_fract_x
 _atom_site_fract_y
 _atom_site_fract_z
 _atom_site_occupancy
  Cd  Cd0  1  0.13484415  0.94684493  0.34271247  1
  Cd  Cd1  1  0.63484415  0.55315507  0.65728753  1
  Cd  Cd2  1  0.86515585  0.05315507  0.65728753  1
  Cd  Cd3  1  0.36515585  0.44684493  0.34271247  1
  Cd  Cd4  1  0.84722515  0.67306197  0.32440257  1
  Cd  Cd5  1  0.34722515  0.82693803  0.67559743  1
  Cd  Cd6  1  0.15277485  0.32693803  0.67559743  1
  Cd  Cd7  1  0.65277485  0.17306197  0.32440257  1
  Cd  Cd8  1  0.78271062  0.94490174  0.05913463  1
  Cd  Cd9  1  0.28271062  0.55509826  0.94086537  1
  Cd  Cd10  1  0.21728938  0.05509826  0.94086537  1
  Cd  Cd11  1  0.71728938  0.44490174  0.05913463  1
  H  H12  1  0.49117291  0.79571989  0.20231185  1
  H  H13  1  0.99117291  0.70428011  0.79768815  1
  H  H14  1  0.50882709  0.20428011  0.79768815  1
  H  H15  1  0.00882709  0.29571989  0.20231185  1
  H  H16  1  0.41112418  0.71859983  0.25702566  1
  H  H17  1  0.91112418  0.78140017  0.74297434  1
  H  H18  1  0.58887582  0.28140017  0.74297434  1
  H  H19  1  0.08887582  0.21859983  0.25702566  1
  H  H20  1  0.57568581  0.72417637  0.25815187  1
  H  H21  1  0.07568581  0.77582363  0.74184813  1
  H  H22  1  0.42431419  0.27582363  0.74184813  1
  H  H23  1  0.92431419  0.22417637  0.25815187  1
  H  H24  1  0.48449318  0.86574618  0.28874145  1
  H  H25  1  0.98449318  0.63425382  0.71125855  1
  H  H26  1  0.51550682  0.13425382  0.71125855  1
  H  H27  1  0.01550682  0.36574618  0.28874145  1
  H  H28  1  0.35378992  0.31326006  0.07375995  1
  H  H29  1  0.85378992  0.18673994  0.92624005  1
  H  H30  1  0.64621008  0.68673994  0.92624005  1
  H  H31  1  0.14621008  0.81326006  0.07375995  1
  H  H32  1  0.29748378  0.27249102  0.14747584  1
  H  H33  1  0.79748378  0.22750898  0.85252416  1
  H  H34  1  0.70251622  0.72750898  0.85252416  1
  H  H35  1  0.20251622  0.77249102  0.14747584  1
  H  H36  1  0.42625767  0.37440321  0.15240635  1
  H  H37  1  0.92625767  0.12559679  0.84759365  1
  H  H38  1  0.57374233  0.62559679  0.84759365  1
  H  H39  1  0.07374233  0.87440321  0.15240635  1
  H  H40  1  0.28132055  0.43372889  0.13564904  1
  H  H41  1  0.78132055  0.06627111  0.86435096  1
  H  H42  1  0.71867945  0.56627111  0.86435096  1
  H  H43  1  0.21867945  0.93372889  0.13564904  1
  H  H44  1  0.23935766  0.94382525  0.47477322  1
  H  H45  1  0.73935766  0.55617475  0.52522678  1
  H  H46  1  0.76064234  0.05617475  0.52522678  1
  H  H47  1  0.26064234  0.44382525  0.47477322  1
  H  H48  1  0.30589283  0.06629858  0.45255693  1
  H  H49  1  0.80589283  0.43370142  0.54744307  1
  H  H50  1  0.69410717  0.93370142  0.54744307  1
  H  H51  1  0.19410717  0.56629858  0.45255693  1
  H  H52  1  0.91288255  0.91969058  0.42124791  1
  H  H53  1  0.41288255  0.58030942  0.57875209  1
  H  H54  1  0.08711745  0.08030942  0.57875209  1
  H  H55  1  0.58711745  0.41969058  0.42124791  1
  H  H56  1  0.00564178  0.79920921  0.43749585  1
  H  H57  1  0.50564178  0.70079079  0.56250415  1
  H  H58  1  0.99435822  0.20079079  0.56250415  1
  H  H59  1  0.49435822  0.29920921  0.43749585  1
  H  H60  1  0.87740147  0.43706995  0.38906424  1
  H  H61  1  0.37740147  0.06293005  0.61093576  1
  H  H62  1  0.12259853  0.56293005  0.61093576  1
  H  H63  1  0.62259853  0.93706995  0.38906424  1
  H  H64  1  0.97819214  0.55128405  0.42184777  1
  H  H65  1  0.47819214  0.94871595  0.57815223  1
  H  H66  1  0.02180786  0.44871595  0.57815223  1
  H  H67  1  0.52180786  0.05128405  0.42184777  1
  H  H68  1  0.57447147  0.05813919  0.15348346  1
  H  H69  1  0.07447147  0.44186081  0.84651654  1
  H  H70  1  0.42552853  0.94186081  0.84651654  1
  H  H71  1  0.92552853  0.55813919  0.15348346  1
  H  H72  1  0.64048805  0.18143919  0.13159056  1
  H  H73  1  0.14048805  0.31856081  0.86840944  1
  H  H74  1  0.35951195  0.81856081  0.86840944  1
  H  H75  1  0.85951195  0.68143919  0.13159056  1
  H  H76  1  0.60654742  0.95103818  0.94446285  1
  H  H77  1  0.10654742  0.54896182  0.05553715  1
  H  H78  1  0.39345258  0.04896182  0.05553715  1
  H  H79  1  0.89345258  0.45103818  0.94446285  1
  H  H80  1  0.64498075  0.10090330  0.97747323  1
  H  H81  1  0.14498075  0.39909670  0.02252677  1
  H  H82  1  0.35501925  0.89909670  0.02252677  1
  H  H83  1  0.85501925  0.60090330  0.97747323  1
  S  S84  1  0.34021314  0.11183559  0.25327346  1
  S  S85  1  0.84021314  0.38816441  0.74672654  1
  S  S86  1  0.65978686  0.88816441  0.74672654  1
  S  S87  1  0.15978686  0.61183559  0.25327346  1
  S  S88  1  0.85543525  0.93188401  0.23215584  1
  S  S89  1  0.35543525  0.56811599  0.76784416  1
  S  S90  1  0.14456475  0.06811599  0.76784416  1
  S  S91  1  0.64456475  0.43188401  0.23215584  1
  S  S92  1  0.58755997  0.68886102  0.43857164  1
  S  S93  1  0.08755997  0.81113898  0.56142836  1
  S  S94  1  0.41244003  0.31113898  0.56142836  1
  S  S95  1  0.91244003  0.18886102  0.43857164  1
  S  S96  1  0.52555553  0.72083863  0.05983509  1
  S  S97  1  0.02555553  0.77916137  0.94016491  1
  S  S98  1  0.47444447  0.27916137  0.94016491  1
  S  S99  1  0.97444447  0.22083863  0.05983509  1
  N  N100  1  0.49147824  0.77601148  0.25211516  1
  N  N101  1  0.99147824  0.72398852  0.74788484  1
  N  N102  1  0.50852176  0.22398852  0.74788484  1
  N  N103  1  0.00852176  0.27601148  0.25211516  1
  N  N104  1  0.33934150  0.34788912  0.12660580  1
  N  N105  1  0.83934150  0.15211088  0.87339420  1
  N  N106  1  0.66065850  0.65211088  0.87339420  1
  N  N107  1  0.16065850  0.84788912  0.12660580  1
  O  O108  1  0.48605860  0.11123037  0.24468886  1
  O  O109  1  0.98605860  0.38876963  0.75531114  1
  O  O110  1  0.51394140  0.88876963  0.75531114  1
  O  O111  1  0.01394140  0.61123037  0.24468886  1
  O  O112  1  0.29841439  0.22652421  0.31089884  1
  O  O113  1  0.79841439  0.27347579  0.68910116  1
  O  O114  1  0.70158561  0.77347579  0.68910116  1
  O  O115  1  0.20158561  0.72652421  0.31089884  1
  O  O116  1  0.27711016  0.12206347  0.18751798  1
  O  O117  1  0.77711016  0.37793653  0.81248202  1
  O  O118  1  0.72288984  0.87793653  0.81248202  1
  O  O119  1  0.22288984  0.62206347  0.18751798  1
  O  O120  1  0.30001650  0.98287171  0.27157807  1
  O  O121  1  0.80001650  0.51712829  0.72842193  1
  O  O122  1  0.69998350  0.01712829  0.72842193  1
  O  O123  1  0.19998350  0.48287171  0.27157807  1
  O  O124  1  0.99803095  0.94429880  0.24791880  1
  O  O125  1  0.49803095  0.55570120  0.75208120  1
  O  O126  1  0.00196905  0.05570120  0.75208120  1
  O  O127  1  0.50196905  0.44429880  0.24791880  1
  O  O128  1  0.79748511  0.07030315  0.24193624  1
  O  O129  1  0.29748511  0.42969685  0.75806376  1
  O  O130  1  0.20251489  0.92969685  0.75806376  1
  O  O131  1  0.70251489  0.57030315  0.24193624  1
  O  O132  1  0.84122038  0.85990566  0.15748093  1
  O  O133  1  0.34122038  0.64009434  0.84251907  1
  O  O134  1  0.15877962  0.14009434  0.84251907  1
  O  O135  1  0.65877962  0.35990566  0.15748093  1
  O  O136  1  0.78656266  0.85701968  0.27733996  1
  O  O137  1  0.28656266  0.64298032  0.72266004  1
  O  O138  1  0.21343734  0.14298032  0.72266004  1
  O  O139  1  0.71343734  0.35701968  0.27733996  1
  O  O140  1  0.67096429  0.76143529  0.39666552  1
  O  O141  1  0.17096429  0.73856471  0.60333448  1
  O  O142  1  0.32903571  0.23856471  0.60333448  1
  O  O143  1  0.82903571  0.26143529  0.39666552  1
  O  O144  1  0.56373719  0.78338300  0.50746253  1
  O  O145  1  0.06373719  0.71661700  0.49253747  1
  O  O146  1  0.43626281  0.21661700  0.49253747  1
  O  O147  1  0.93626281  0.28338300  0.50746253  1
  O  O148  1  0.65902943  0.56631853  0.44974190  1
  O  O149  1  0.15902943  0.93368147  0.55025810  1
  O  O150  1  0.34097057  0.43368147  0.55025810  1
  O  O151  1  0.84097057  0.06631853  0.44974190  1
  O  O152  1  0.46237359  0.64758446  0.40258988  1
  O  O153  1  0.96237359  0.85241554  0.59741012  1
  O  O154  1  0.53762641  0.35241554  0.59741012  1
  O  O155  1  0.03762641  0.14758446  0.40258988  1
  O  O156  1  0.64957616  0.75349478  0.02625545  1
  O  O157  1  0.14957616  0.74650522  0.97374455  1
  O  O158  1  0.35042384  0.24650522  0.97374455  1
  O  O159  1  0.85042384  0.25349478  0.02625545  1
  O  O160  1  0.41712272  0.71874371  0.00852084  1
  O  O161  1  0.91712272  0.78125629  0.99147916  1
  O  O162  1  0.58287728  0.28125629  0.99147916  1
  O  O163  1  0.08287728  0.21874371  0.00852084  1
  O  O164  1  0.53961644  0.58591283  0.07699109  1
  O  O165  1  0.03961644  0.91408717  0.92300891  1
  O  O166  1  0.46038356  0.41408717  0.92300891  1
  O  O167  1  0.96038356  0.08591283  0.07699109  1
  O  O168  1  0.49596348  0.82659089  0.12261525  1
  O  O169  1  0.99596348  0.67340911  0.87738475  1
  O  O170  1  0.50403652  0.17340911  0.87738475  1
  O  O171  1  0.00403652  0.32659089  0.12261525  1
  O  O172  1  0.27854122  0.97202527  0.43445506  1
  O  O173  1  0.77854122  0.52797473  0.56554494  1
  O  O174  1  0.72145878  0.02797473  0.56554494  1
  O  O175  1  0.22145878  0.47202527  0.43445506  1
  O  O176  1  0.96921357  0.83973264  0.39944321  1
  O  O177  1  0.46921357  0.66026736  0.60055679  1
  O  O178  1  0.03078643  0.16026736  0.60055679  1
  O  O179  1  0.53078643  0.33973264  0.39944321  1
  O  O180  1  0.93136260  0.51132144  0.37901220  1
  O  O181  1  0.43136260  0.98867856  0.62098780  1
  O  O182  1  0.06863740  0.48867856  0.62098780  1
  O  O183  1  0.56863740  0.01132144  0.37901220  1
  O  O184  1  0.61527123  0.08517685  0.11383756  1
  O  O185  1  0.11527123  0.41482315  0.88616244  1
  O  O186  1  0.38472877  0.91482315  0.88616244  1
  O  O187  1  0.88472877  0.58517685  0.11383756  1
  O  O188  1  0.68021814  0.00748481  0.96477808  1
  O  O189  1  0.18021814  0.49251519  0.03522192  1
  O  O190  1  0.31978186  0.99251519  0.03522192  1
  O  O191  1  0.81978186  0.50748481  0.96477808  1
