# generated using pymatgen
data_NdH3CSO7
_symmetry_space_group_name_H-M   'P 1'
_cell_length_a   7.02636600
_cell_length_b   7.02636600
_cell_length_c   11.92934100
_cell_angle_alpha   90.00000000
_cell_angle_beta   90.00000000
_cell_angle_gamma   90.00000000
_symmetry_Int_Tables_number   1
_chemical_formula_structural   NdH3CSO7
_chemical_formula_sum   'Nd4 H12 C4 S4 O28'
_cell_volume   588.94940794
_cell_formula_units_Z   4
loop_
 _symmetry_equiv_pos_site_id
 _symmetry_equiv_pos_as_xyz
  1  'x, y, z'
loop_
 _atom_site_type_symbol
 _atom_site_label
 _atom_site_symmetry_multiplicity
 _atom_site_fract_x
 _atom_site_fract_y
 _atom_site_fract_z
 _atom_site_occupancy
  Nd  Nd0  1  0.11517700  0.37174000  0.24656800  1
  Nd  Nd1  1  0.88482300  0.62826000  0.74656800  1
  Nd  Nd2  1  0.37174000  0.88482300  0.49656800  1
  Nd  Nd3  1  0.62826000  0.11517700  0.99656800  1
  H  H4  1  0.03129400  0.86764400  0.20742900  1
  H  H5  1  0.96870600  0.13235600  0.70742900  1
  H  H6  1  0.86764400  0.96870600  0.45742900  1
  H  H7  1  0.13235600  0.03129400  0.95742900  1
  H  H8  1  0.36803800  0.53982600  0.05616200  1
  H  H9  1  0.63196200  0.46017400  0.55616200  1
  H  H10  1  0.53982600  0.63196200  0.30616200  1
  H  H11  1  0.46017400  0.36803800  0.80616200  1
  H  H12  1  0.15474300  0.59635300  0.02434400  1
  H  H13  1  0.84525700  0.40364700  0.52434400  1
  H  H14  1  0.59635300  0.84525700  0.27434400  1
  H  H15  1  0.40364700  0.15474300  0.77434400  1
  C  C16  1  0.11614700  0.87000200  0.28506100  1
  C  C17  1  0.88385300  0.12999800  0.78506100  1
  C  C18  1  0.87000200  0.88385300  0.53506100  1
  C  C19  1  0.12999800  0.11614700  0.03506100  1
  S  S20  1  0.61233900  0.23122200  0.30367500  1
  S  S21  1  0.38766100  0.76877800  0.80367500  1
  S  S22  1  0.23122200  0.38766100  0.55367500  1
  S  S23  1  0.76877800  0.61233900  0.05367500  1
  O  O24  1  0.16741000  0.03036500  0.32604300  1
  O  O25  1  0.83259000  0.96963500  0.82604300  1
  O  O26  1  0.03036500  0.83259000  0.57604300  1
  O  O27  1  0.96963500  0.16741000  0.07604300  1
  O  O28  1  0.10379900  0.37758800  0.45428100  1
  O  O29  1  0.89620100  0.62241200  0.95428100  1
  O  O30  1  0.37758800  0.89620100  0.70428100  1
  O  O31  1  0.62241200  0.10379900  0.20428100  1
  O  O32  1  0.56770600  0.11675300  0.40386800  1
  O  O33  1  0.43229400  0.88324700  0.90386800  1
  O  O34  1  0.11675300  0.43229400  0.65386800  1
  O  O35  1  0.88324700  0.56770600  0.15386800  1
  O  O36  1  0.79777000  0.32475500  0.32271100  1
  O  O37  1  0.20223000  0.67524500  0.82271100  1
  O  O38  1  0.32475500  0.20223000  0.57271100  1
  O  O39  1  0.67524500  0.79777000  0.07271100  1
  O  O40  1  0.46090600  0.37916200  0.28633500  1
  O  O41  1  0.53909400  0.62083800  0.78633500  1
  O  O42  1  0.37916200  0.53909400  0.53633500  1
  O  O43  1  0.62083800  0.46090600  0.03633500  1
  O  O44  1  0.15747400  0.71396000  0.33221600  1
  O  O45  1  0.84252600  0.28604000  0.83221600  1
  O  O46  1  0.71396000  0.84252600  0.58221600  1
  O  O47  1  0.28604000  0.15747400  0.08221600  1
  O  O48  1  0.24077600  0.56627000  0.08682600  1
  O  O49  1  0.75922400  0.43373000  0.58682600  1
  O  O50  1  0.56627000  0.75922400  0.33682600  1
  O  O51  1  0.43373000  0.24077600  0.83682600  1
