# generated using pymatgen
data_ThN3O14
_symmetry_space_group_name_H-M   'P 1'
_cell_length_a   12.43353100
_cell_length_b   7.09931300
_cell_length_c   14.74882806
_cell_angle_alpha   65.63271085
_cell_angle_beta   90.00000000
_cell_angle_gamma   90.00000000
_symmetry_Int_Tables_number   1
_chemical_formula_structural   ThN3O14
_chemical_formula_sum   'Th4 N12 O56'
_cell_volume   1185.90049434
_cell_formula_units_Z   4
loop_
 _symmetry_equiv_pos_site_id
 _symmetry_equiv_pos_as_xyz
  1  'x, y, z'
loop_
 _atom_site_type_symbol
 _atom_site_label
 _atom_site_symmetry_multiplicity
 _atom_site_fract_x
 _atom_site_fract_y
 _atom_site_fract_z
 _atom_site_occupancy
  Th  Th0  1  0.66225500  0.00694700  0.55686500  1
  Th  Th1  1  0.16225500  0.99305300  0.94313500  1
  Th  Th2  1  0.33774500  0.99305300  0.44313500  1
  Th  Th3  1  0.83774500  0.00694700  0.05686500  1
  N  N4  1  0.69144300  0.72736100  0.00977200  1
  N  N5  1  0.19144300  0.27263900  0.49022800  1
  N  N6  1  0.30855700  0.27263900  0.99022800  1
  N  N7  1  0.80855700  0.72736100  0.50977200  1
  N  N8  1  0.65586500  0.43204500  0.39849300  1
  N  N9  1  0.15586500  0.56795500  0.10150700  1
  N  N10  1  0.34413500  0.56795500  0.60150700  1
  N  N11  1  0.84413500  0.43204500  0.89849300  1
  N  N12  1  0.54014400  0.81267500  0.74552400  1
  N  N13  1  0.04014400  0.18732500  0.75447600  1
  N  N14  1  0.45985600  0.18732500  0.25447600  1
  N  N15  1  0.95985600  0.81267500  0.24552400  1
  O  O16  1  0.72084000  0.69444400  0.09993900  1
  O  O17  1  0.22084000  0.30555600  0.40006100  1
  O  O18  1  0.27916000  0.30555600  0.90006100  1
  O  O19  1  0.77916000  0.69444400  0.59993900  1
  O  O20  1  0.72862400  0.89901000  0.94192800  1
  O  O21  1  0.22862400  0.10099000  0.55807200  1
  O  O22  1  0.27137600  0.10099000  0.05807200  1
  O  O23  1  0.77137600  0.89901000  0.44192800  1
  O  O24  1  0.63473200  0.60919800  0.99078800  1
  O  O25  1  0.13473200  0.39080200  0.50921200  1
  O  O26  1  0.36526800  0.39080200  0.00921200  1
  O  O27  1  0.86526800  0.60919800  0.49078800  1
  O  O28  1  0.66741800  0.26736200  0.38159500  1
  O  O29  1  0.16741800  0.73263800  0.11840500  1
  O  O30  1  0.33258200  0.73263800  0.61840500  1
  O  O31  1  0.83258200  0.26736200  0.88159500  1
  O  O32  1  0.65536900  0.39510000  0.49315800  1
  O  O33  1  0.15536900  0.60490000  0.00684200  1
  O  O34  1  0.34463100  0.60490000  0.50684200  1
  O  O35  1  0.84463100  0.39510000  0.99315800  1
  O  O36  1  0.64663300  0.60405900  0.33264400  1
  O  O37  1  0.14663300  0.39594100  0.16735600  1
  O  O38  1  0.35336700  0.39594100  0.66735600  1
  O  O39  1  0.85336700  0.60405900  0.83264400  1
  O  O40  1  0.60570800  0.71730700  0.70782400  1
  O  O41  1  0.10570800  0.28269300  0.79217600  1
  O  O42  1  0.39429200  0.28269300  0.29217600  1
  O  O43  1  0.89429200  0.71730700  0.20782400  1
  O  O44  1  0.54448100  0.01143400  0.70131700  1
  O  O45  1  0.04448100  0.98856600  0.79868300  1
  O  O46  1  0.45551900  0.98856600  0.29868300  1
  O  O47  1  0.95551900  0.01143400  0.20131700  1
  O  O48  1  0.51854400  0.28203400  0.18492900  1
  O  O49  1  0.01854400  0.71796600  0.31507100  1
  O  O50  1  0.48145600  0.71796600  0.81507100  1
  O  O51  1  0.98145600  0.28203400  0.68492900  1
  O  O52  1  0.73524900  0.09930300  0.20787300  1
  O  O53  1  0.23524900  0.90069700  0.29212700  1
  O  O54  1  0.26475100  0.90069700  0.79212700  1
  O  O55  1  0.76475100  0.09930300  0.70787300  1
  O  O56  1  0.72808200  0.25153600  0.71766000  1
  O  O57  1  0.22808200  0.74846400  0.78234000  1
  O  O58  1  0.27191800  0.74846400  0.28234000  1
  O  O59  1  0.77191800  0.25153600  0.21766000  1
  O  O60  1  0.60454500  0.18824600  0.99263400  1
  O  O61  1  0.10454500  0.81175400  0.50736600  1
  O  O62  1  0.39545500  0.81175400  0.00736600  1
  O  O63  1  0.89545500  0.18824600  0.49263400  1
  O  O64  1  0.56519900  0.25091800  0.90855300  1
  O  O65  1  0.06519900  0.74908200  0.59144700  1
  O  O66  1  0.43480100  0.74908200  0.09144700  1
  O  O67  1  0.93480100  0.25091800  0.40855300  1
  O  O68  1  0.51863600  0.90722300  0.49116000  1
  O  O69  1  0.01863600  0.09277700  0.00884000  1
  O  O70  1  0.48136400  0.09277700  0.50884000  1
  O  O71  1  0.98136400  0.90722300  0.99116000  1
