# generated using pymatgen
data_Ca6Si3O13
_symmetry_space_group_name_H-M   'P 1'
_cell_length_a   6.87858600
_cell_length_b   7.04384084
_cell_length_c   12.95012255
_cell_angle_alpha   91.00178295
_cell_angle_beta   98.09118639
_cell_angle_gamma   98.01924469
_symmetry_Int_Tables_number   1
_chemical_formula_structural   Ca6Si3O13
_chemical_formula_sum   'Ca12 Si6 O26'
_cell_volume   614.69317839
_cell_formula_units_Z   2
loop_
 _symmetry_equiv_pos_site_id
 _symmetry_equiv_pos_as_xyz
  1  'x, y, z'
loop_
 _atom_site_type_symbol
 _atom_site_label
 _atom_site_symmetry_multiplicity
 _atom_site_fract_x
 _atom_site_fract_y
 _atom_site_fract_z
 _atom_site_occupancy
  Ca  Ca0  1  0.91055300  0.81490100  0.89039500  1
  Ca  Ca1  1  0.08944700  0.18509900  0.10960500  1
  Ca  Ca2  1  0.81356000  0.80364200  0.51185700  1
  Ca  Ca3  1  0.18644000  0.19635800  0.48814300  1
  Ca  Ca4  1  0.68639700  0.80698000  0.12413000  1
  Ca  Ca5  1  0.31360300  0.19302000  0.87587000  1
  Ca  Ca6  1  0.44944200  0.96517600  0.68024100  1
  Ca  Ca7  1  0.55055800  0.03482400  0.31975900  1
  Ca  Ca8  1  0.10652200  0.53087300  0.71044400  1
  Ca  Ca9  1  0.89347800  0.46912700  0.28955600  1
  Ca  Ca10  1  0.40819000  0.53191300  0.29484600  1
  Ca  Ca11  1  0.59181000  0.46808700  0.70515400  1
  Si  Si12  1  0.38586100  0.71437500  0.90222000  1
  Si  Si13  1  0.61413900  0.28562500  0.09778000  1
  Si  Si14  1  0.18883900  0.71316700  0.11420300  1
  Si  Si15  1  0.81116100  0.28683300  0.88579700  1
  Si  Si16  1  0.28709200  0.69764400  0.49081100  1
  Si  Si17  1  0.71290800  0.30235600  0.50918900  1
  O  O18  1  0.38743100  0.51419200  0.83527400  1
  O  O19  1  0.61256900  0.48580800  0.16472600  1
  O  O20  1  0.60819500  0.81584500  0.94657600  1
  O  O21  1  0.39180500  0.18415500  0.05342400  1
  O  O22  1  0.38409800  0.81461300  0.19421400  1
  O  O23  1  0.61590200  0.18538700  0.80578600  1
  O  O24  1  0.25099500  0.84670400  0.82314100  1
  O  O25  1  0.74900500  0.15329600  0.17685900  1
  O  O26  1  0.01234600  0.84680900  0.08694800  1
  O  O27  1  0.98765400  0.15319100  0.91305200  1
  O  O28  1  0.75330900  0.82509200  0.69661900  1
  O  O29  1  0.24669100  0.17490800  0.30338100  1
  O  O30  1  0.15486600  0.86739400  0.51296800  1
  O  O31  1  0.84513400  0.13260600  0.48703200  1
  O  O32  1  0.78911000  0.78029000  0.31682100  1
  O  O33  1  0.21089000  0.21971000  0.68317900  1
  O  O34  1  0.47838900  0.78365300  0.43362500  1
  O  O35  1  0.52161100  0.21634700  0.56637500  1
  O  O36  1  0.25788800  0.66156100  0.00035500  1
  O  O37  1  0.74211200  0.33843900  0.99964500  1
  O  O38  1  0.36391700  0.63134600  0.61032200  1
  O  O39  1  0.63608300  0.36865400  0.38967800  1
  O  O40  1  0.16798700  0.51156300  0.41829300  1
  O  O41  1  0.83201300  0.48843700  0.58170700  1
  O  O42  1  0.88472000  0.48932300  0.83160400  1
  O  O43  1  0.11528000  0.51067700  0.16839600  1
