# generated using pymatgen
data_Ca2As4(Xe3F14)3
_symmetry_space_group_name_H-M   'P 1'
_cell_length_a   14.53452504
_cell_length_b   14.53452504
_cell_length_c   23.05222385
_cell_angle_alpha   90.00000000
_cell_angle_beta   90.00000000
_cell_angle_gamma   90.00000000
_symmetry_Int_Tables_number   1
_chemical_formula_structural   Ca2As4(Xe3F14)3
_chemical_formula_sum   'Ca8 As16 Xe36 F168'
_cell_volume   4869.83803178
_cell_formula_units_Z   4
loop_
 _symmetry_equiv_pos_site_id
 _symmetry_equiv_pos_as_xyz
  1  'x, y, z'
loop_
 _atom_site_type_symbol
 _atom_site_label
 _atom_site_symmetry_multiplicity
 _atom_site_fract_x
 _atom_site_fract_y
 _atom_site_fract_z
 _atom_site_occupancy
  Ca  Ca0  1  0.75000000  0.75000000  0.92211100  1
  Ca  Ca1  1  0.75000000  0.75000000  0.42211100  1
  Ca  Ca2  1  0.25000000  0.25000000  0.07788900  1
  Ca  Ca3  1  0.25000000  0.25000000  0.57788900  1
  Ca  Ca4  1  0.75000000  0.25000000  0.75000000  1
  Ca  Ca5  1  0.75000000  0.25000000  0.25000000  1
  Ca  Ca6  1  0.25000000  0.75000000  0.25000000  1
  Ca  Ca7  1  0.25000000  0.75000000  0.75000000  1
  As  As8  1  0.65632531  0.03893249  0.64636179  1
  As  As9  1  0.84367469  0.03893249  0.14636179  1
  As  As10  1  0.65632531  0.46106751  0.14636179  1
  As  As11  1  0.84367469  0.46106751  0.64636179  1
  As  As12  1  0.03893249  0.65632531  0.14636179  1
  As  As13  1  0.46106751  0.65632531  0.64636179  1
  As  As14  1  0.03893249  0.84367469  0.64636179  1
  As  As15  1  0.46106751  0.84367469  0.14636179  1
  As  As16  1  0.34367469  0.96106751  0.35363821  1
  As  As17  1  0.15632531  0.96106751  0.85363821  1
  As  As18  1  0.34367469  0.53893249  0.85363821  1
  As  As19  1  0.15632531  0.53893249  0.35363821  1
  As  As20  1  0.96106751  0.34367469  0.85363821  1
  As  As21  1  0.53893249  0.34367469  0.35363821  1
  As  As22  1  0.96106751  0.15632531  0.35363821  1
  As  As23  1  0.53893249  0.15632531  0.85363821  1
  Xe  Xe24  1  0.82776871  0.98477287  0.82606216  1
  Xe  Xe25  1  0.67223129  0.98477287  0.32606216  1
  Xe  Xe26  1  0.82776871  0.51522713  0.32606216  1
  Xe  Xe27  1  0.67223129  0.51522713  0.82606216  1
  Xe  Xe28  1  0.98477287  0.82776871  0.32606216  1
  Xe  Xe29  1  0.51522713  0.82776871  0.82606216  1
  Xe  Xe30  1  0.98477287  0.67223129  0.82606216  1
  Xe  Xe31  1  0.51522713  0.67223129  0.32606216  1
  Xe  Xe32  1  0.17223129  0.01522713  0.17393784  1
  Xe  Xe33  1  0.32776871  0.01522713  0.67393784  1
  Xe  Xe34  1  0.17223129  0.48477287  0.67393784  1
  Xe  Xe35  1  0.32776871  0.48477287  0.17393784  1
  Xe  Xe36  1  0.01522713  0.17223129  0.67393784  1
  Xe  Xe37  1  0.48477287  0.17223129  0.17393784  1
  Xe  Xe38  1  0.01522713  0.32776871  0.17393784  1
  Xe  Xe39  1  0.48477287  0.32776871  0.67393784  1
  Xe  Xe40  1  0.66145070  0.99626200  0.00040095  1
  Xe  Xe41  1  0.83854930  0.99626200  0.50040095  1
  Xe  Xe42  1  0.66145070  0.50373800  0.50040095  1
  Xe  Xe43  1  0.83854930  0.50373800  0.00040095  1
  Xe  Xe44  1  0.99626200  0.66145070  0.50040095  1
  Xe  Xe45  1  0.50373800  0.66145070  0.00040095  1
  Xe  Xe46  1  0.99626200  0.83854930  0.00040095  1
  Xe  Xe47  1  0.50373800  0.83854930  0.50040095  1
  Xe  Xe48  1  0.33854930  0.00373800  0.99959905  1
  Xe  Xe49  1  0.16145070  0.00373800  0.49959905  1
  Xe  Xe50  1  0.33854930  0.49626200  0.49959905  1
  Xe  Xe51  1  0.16145070  0.49626200  0.99959905  1
  Xe  Xe52  1  0.00373800  0.33854930  0.49959905  1
  Xe  Xe53  1  0.49626200  0.33854930  0.99959905  1
  Xe  Xe54  1  0.00373800  0.16145070  0.99959905  1
  Xe  Xe55  1  0.49626200  0.16145070  0.49959905  1
  Xe  Xe56  1  0.75000000  0.75000000  0.13336460  1
  Xe  Xe57  1  0.75000000  0.75000000  0.63336460  1
  Xe  Xe58  1  0.25000000  0.25000000  0.86663540  1
  Xe  Xe59  1  0.25000000  0.25000000  0.36663540  1
  F  F60  1  0.84280028  0.84802762  0.85093456  1
  F  F61  1  0.65719972  0.84802762  0.35093456  1
  F  F62  1  0.84280028  0.65197238  0.35093456  1
  F  F63  1  0.65719972  0.65197238  0.85093456  1
  F  F64  1  0.84802762  0.84280028  0.35093456  1
  F  F65  1  0.65197238  0.84280028  0.85093456  1
  F  F66  1  0.84802762  0.65719972  0.85093456  1
  F  F67  1  0.65197238  0.65719972  0.35093456  1
  F  F68  1  0.15719972  0.15197238  0.14906544  1
  F  F69  1  0.34280028  0.15197238  0.64906544  1
  F  F70  1  0.15719972  0.34802762  0.64906544  1
  F  F71  1  0.34280028  0.34802762  0.14906544  1
  F  F72  1  0.15197238  0.15719972  0.64906544  1
  F  F73  1  0.34802762  0.15719972  0.14906544  1
  F  F74  1  0.15197238  0.34280028  0.14906544  1
  F  F75  1  0.34802762  0.34280028  0.64906544  1
  F  F76  1  0.75225453  0.90443836  0.95587249  1
  F  F77  1  0.74774547  0.90443836  0.45587249  1
  F  F78  1  0.75225453  0.59556164  0.45587249  1
  F  F79  1  0.74774547  0.59556164  0.95587249  1
  F  F80  1  0.90443836  0.75225453  0.45587249  1
  F  F81  1  0.59556164  0.75225453  0.95587249  1
  F  F82  1  0.90443836  0.74774547  0.95587249  1
  F  F83  1  0.59556164  0.74774547  0.45587249  1
  F  F84  1  0.24774547  0.09556164  0.04412751  1
  F  F85  1  0.25225453  0.09556164  0.54412751  1
  F  F86  1  0.24774547  0.40443836  0.54412751  1
  F  F87  1  0.25225453  0.40443836  0.04412751  1
  F  F88  1  0.09556164  0.24774547  0.54412751  1
  F  F89  1  0.40443836  0.24774547  0.04412751  1
  F  F90  1  0.09556164  0.25225453  0.04412751  1
  F  F91  1  0.40443836  0.25225453  0.54412751  1
  F  F92  1  0.75000000  0.75000000  0.04106225  1
  F  F93  1  0.75000000  0.75000000  0.54106225  1
  F  F94  1  0.25000000  0.25000000  0.95893775  1
  F  F95  1  0.25000000  0.25000000  0.45893775  1
  F  F96  1  0.81371319  0.12246774  0.80449993  1
  F  F97  1  0.68628681  0.12246774  0.30449993  1
  F  F98  1  0.81371319  0.37753226  0.30449993  1
  F  F99  1  0.68628681  0.37753226  0.80449993  1
  F  F100  1  0.12246774  0.81371319  0.30449993  1
  F  F101  1  0.37753226  0.81371319  0.80449993  1
  F  F102  1  0.12246774  0.68628681  0.80449993  1
  F  F103  1  0.37753226  0.68628681  0.30449993  1
  F  F104  1  0.18628681  0.87753226  0.19550007  1
  F  F105  1  0.31371319  0.87753226  0.69550007  1
  F  F106  1  0.18628681  0.62246774  0.69550007  1
  F  F107  1  0.31371319  0.62246774  0.19550007  1
  F  F108  1  0.87753226  0.18628681  0.69550007  1
  F  F109  1  0.62246774  0.18628681  0.19550007  1
  F  F110  1  0.87753226  0.31371319  0.19550007  1
  F  F111  1  0.62246774  0.31371319  0.69550007  1
  F  F112  1  0.57344254  0.08405213  0.04110874  1
  F  F113  1  0.92655746  0.08405213  0.54110874  1
  F  F114  1  0.57344254  0.41594787  0.54110874  1
  F  F115  1  0.92655746  0.41594787  0.04110874  1
  F  F116  1  0.08405213  0.57344254  0.54110874  1
  F  F117  1  0.41594787  0.57344254  0.04110874  1
  F  F118  1  0.08405213  0.92655746  0.04110874  1
  F  F119  1  0.41594787  0.92655746  0.54110874  1
  F  F120  1  0.42655746  0.91594787  0.95889126  1
  F  F121  1  0.07344254  0.91594787  0.45889126  1
  F  F122  1  0.42655746  0.58405213  0.45889126  1
  F  F123  1  0.07344254  0.58405213  0.95889126  1
  F  F124  1  0.91594787  0.42655746  0.45889126  1
  F  F125  1  0.58405213  0.42655746  0.95889126  1
  F  F126  1  0.91594787  0.07344254  0.95889126  1
  F  F127  1  0.58405213  0.07344254  0.45889126  1
  F  F128  1  0.75000000  0.75000000  0.22200422  1
  F  F129  1  0.75000000  0.75000000  0.72200422  1
  F  F130  1  0.25000000  0.25000000  0.77799578  1
  F  F131  1  0.25000000  0.25000000  0.27799578  1
  F  F132  1  0.69331767  0.12124285  0.70070652  1
  F  F133  1  0.80668233  0.12124285  0.20070652  1
  F  F134  1  0.69331767  0.37875715  0.20070652  1
  F  F135  1  0.80668233  0.37875715  0.70070652  1
  F  F136  1  0.12124285  0.69331767  0.20070652  1
  F  F137  1  0.37875715  0.69331767  0.70070652  1
  F  F138  1  0.12124285  0.80668233  0.70070652  1
  F  F139  1  0.37875715  0.80668233  0.20070652  1
  F  F140  1  0.30668233  0.87875715  0.29929348  1
  F  F141  1  0.19331767  0.87875715  0.79929348  1
  F  F142  1  0.30668233  0.62124285  0.79929348  1
  F  F143  1  0.19331767  0.62124285  0.29929348  1
  F  F144  1  0.87875715  0.30668233  0.79929348  1
  F  F145  1  0.62124285  0.30668233  0.29929348  1
  F  F146  1  0.87875715  0.19331767  0.29929348  1
  F  F147  1  0.62124285  0.19331767  0.79929348  1
  F  F148  1  0.54575555  0.09096886  0.64676407  1
  F  F149  1  0.95424445  0.09096886  0.14676407  1
  F  F150  1  0.54575555  0.40903114  0.14676407  1
  F  F151  1  0.95424445  0.40903114  0.64676407  1
  F  F152  1  0.09096886  0.54575555  0.14676407  1
  F  F153  1  0.40903114  0.54575555  0.64676407  1
  F  F154  1  0.09096886  0.95424445  0.64676407  1
  F  F155  1  0.40903114  0.95424445  0.14676407  1
  F  F156  1  0.45424445  0.90903114  0.35323593  1
  F  F157  1  0.04575555  0.90903114  0.85323593  1
  F  F158  1  0.45424445  0.59096886  0.85323593  1
  F  F159  1  0.04575555  0.59096886  0.35323593  1
  F  F160  1  0.90903114  0.45424445  0.85323593  1
  F  F161  1  0.59096886  0.45424445  0.35323593  1
  F  F162  1  0.90903114  0.04575555  0.35323593  1
  F  F163  1  0.59096886  0.04575555  0.85323593  1
  F  F164  1  0.62193630  0.96412422  0.70250733  1
  F  F165  1  0.87806370  0.96412422  0.20250733  1
  F  F166  1  0.62193630  0.53587578  0.20250733  1
  F  F167  1  0.87806370  0.53587578  0.70250733  1
  F  F168  1  0.96412422  0.62193630  0.20250733  1
  F  F169  1  0.53587578  0.62193630  0.70250733  1
  F  F170  1  0.96412422  0.87806370  0.70250733  1
  F  F171  1  0.53587578  0.87806370  0.20250733  1
  F  F172  1  0.37806370  0.03587578  0.29749267  1
  F  F173  1  0.12193630  0.03587578  0.79749267  1
  F  F174  1  0.37806370  0.46412422  0.79749267  1
  F  F175  1  0.12193630  0.46412422  0.29749267  1
  F  F176  1  0.03587578  0.37806370  0.79749267  1
  F  F177  1  0.46412422  0.37806370  0.29749267  1
  F  F178  1  0.03587578  0.12193630  0.29749267  1
  F  F179  1  0.46412422  0.12193630  0.79749267  1
  F  F180  1  0.76826639  0.99183911  0.64754133  1
  F  F181  1  0.73173361  0.99183911  0.14754133  1
  F  F182  1  0.76826639  0.50816089  0.14754133  1
  F  F183  1  0.73173361  0.50816089  0.64754133  1
  F  F184  1  0.99183911  0.76826639  0.14754133  1
  F  F185  1  0.50816089  0.76826639  0.64754133  1
  F  F186  1  0.99183911  0.73173361  0.64754133  1
  F  F187  1  0.50816089  0.73173361  0.14754133  1
  F  F188  1  0.23173361  0.00816089  0.35245867  1
  F  F189  1  0.26826639  0.00816089  0.85245867  1
  F  F190  1  0.23173361  0.49183911  0.85245867  1
  F  F191  1  0.26826639  0.49183911  0.35245867  1
  F  F192  1  0.00816089  0.23173361  0.85245867  1
  F  F193  1  0.49183911  0.23173361  0.35245867  1
  F  F194  1  0.00816089  0.26826639  0.35245867  1
  F  F195  1  0.49183911  0.26826639  0.85245867  1
  F  F196  1  0.69049894  0.11794774  0.59181562  1
  F  F197  1  0.80950106  0.11794774  0.09181562  1
  F  F198  1  0.69049894  0.38205226  0.09181562  1
  F  F199  1  0.80950106  0.38205226  0.59181562  1
  F  F200  1  0.11794774  0.69049894  0.09181562  1
  F  F201  1  0.38205226  0.69049894  0.59181562  1
  F  F202  1  0.11794774  0.80950106  0.59181562  1
  F  F203  1  0.38205226  0.80950106  0.09181562  1
  F  F204  1  0.30950106  0.88205226  0.40818438  1
  F  F205  1  0.19049894  0.88205226  0.90818438  1
  F  F206  1  0.30950106  0.61794774  0.90818438  1
  F  F207  1  0.19049894  0.61794774  0.40818438  1
  F  F208  1  0.88205226  0.30950106  0.90818438  1
  F  F209  1  0.61794774  0.30950106  0.40818438  1
  F  F210  1  0.88205226  0.19049894  0.40818438  1
  F  F211  1  0.61794774  0.19049894  0.90818438  1
  F  F212  1  0.62173801  0.95903028  0.59281849  1
  F  F213  1  0.87826199  0.95903028  0.09281849  1
  F  F214  1  0.62173801  0.54096972  0.09281849  1
  F  F215  1  0.87826199  0.54096972  0.59281849  1
  F  F216  1  0.95903028  0.62173801  0.09281849  1
  F  F217  1  0.54096972  0.62173801  0.59281849  1
  F  F218  1  0.95903028  0.87826199  0.59281849  1
  F  F219  1  0.54096972  0.87826199  0.09281849  1
  F  F220  1  0.37826199  0.04096972  0.40718151  1
  F  F221  1  0.12173801  0.04096972  0.90718151  1
  F  F222  1  0.37826199  0.45903028  0.90718151  1
  F  F223  1  0.12173801  0.45903028  0.40718151  1
  F  F224  1  0.04096972  0.37826199  0.90718151  1
  F  F225  1  0.45903028  0.37826199  0.40718151  1
  F  F226  1  0.04096972  0.12173801  0.40718151  1
  F  F227  1  0.45903028  0.12173801  0.90718151  1
