# generated using pymatgen
data_Cs10Ge2O9
_symmetry_space_group_name_H-M   'P 1'
_cell_length_a   11.79011000
_cell_length_b   13.07187000
_cell_length_c   19.34704242
_cell_angle_alpha   52.39078696
_cell_angle_beta   90.00000000
_cell_angle_gamma   90.00000000
_symmetry_Int_Tables_number   1
_chemical_formula_structural   Cs10Ge2O9
_chemical_formula_sum   'Cs40 Ge8 O36'
_cell_volume   2362.11127094
_cell_formula_units_Z   4
loop_
 _symmetry_equiv_pos_site_id
 _symmetry_equiv_pos_as_xyz
  1  'x, y, z'
loop_
 _atom_site_type_symbol
 _atom_site_label
 _atom_site_symmetry_multiplicity
 _atom_site_fract_x
 _atom_site_fract_y
 _atom_site_fract_z
 _atom_site_occupancy
  Cs  Cs0  1  0.41602900  0.79670400  0.32340300  1
  Cs  Cs1  1  0.91602900  0.20329600  0.17659700  1
  Cs  Cs2  1  0.58397100  0.20329600  0.67659700  1
  Cs  Cs3  1  0.08397100  0.79670400  0.82340300  1
  Cs  Cs4  1  0.39084500  0.38050900  0.49684200  1
  Cs  Cs5  1  0.89084500  0.61949100  0.00315800  1
  Cs  Cs6  1  0.60915500  0.61949100  0.50315800  1
  Cs  Cs7  1  0.10915500  0.38050900  0.99684200  1
  Cs  Cs8  1  0.32828300  0.30328300  0.33771500  1
  Cs  Cs9  1  0.82828300  0.69671700  0.16228500  1
  Cs  Cs10  1  0.67171700  0.69671700  0.66228500  1
  Cs  Cs11  1  0.17171700  0.30328300  0.83771500  1
  Cs  Cs12  1  0.71252100  0.92768400  0.21170300  1
  Cs  Cs13  1  0.21252100  0.07231600  0.28829700  1
  Cs  Cs14  1  0.28747900  0.07231600  0.78829700  1
  Cs  Cs15  1  0.78747900  0.92768400  0.71170300  1
  Cs  Cs16  1  0.13759600  0.75114800  0.46388300  1
  Cs  Cs17  1  0.63759600  0.24885200  0.03611700  1
  Cs  Cs18  1  0.86240400  0.24885200  0.53611700  1
  Cs  Cs19  1  0.36240400  0.75114800  0.96388300  1
  Cs  Cs20  1  0.38899100  0.35284500  0.12732700  1
  Cs  Cs21  1  0.88899100  0.64715500  0.37267300  1
  Cs  Cs22  1  0.61100900  0.64715500  0.87267300  1
  Cs  Cs23  1  0.11100900  0.35284500  0.62732700  1
  Cs  Cs24  1  0.15878500  0.63310300  0.25339700  1
  Cs  Cs25  1  0.65878500  0.36689700  0.24660300  1
  Cs  Cs26  1  0.84121500  0.36689700  0.74660300  1
  Cs  Cs27  1  0.34121500  0.63310300  0.75339700  1
  Cs  Cs28  1  0.46834200  0.70849600  0.16204100  1
  Cs  Cs29  1  0.96834200  0.29150400  0.33795900  1
  Cs  Cs30  1  0.53165800  0.29150400  0.83795900  1
  Cs  Cs31  1  0.03165800  0.70849600  0.66204100  1
  Cs  Cs32  1  0.81940200  0.96179200  0.41769800  1
  Cs  Cs33  1  0.31940200  0.03820800  0.08230200  1
  Cs  Cs34  1  0.18059800  0.03820800  0.58230200  1
  Cs  Cs35  1  0.68059800  0.96179200  0.91769800  1
  Cs  Cs36  1  0.09538500  0.87902700  0.00654000  1
  Cs  Cs37  1  0.59538500  0.12097300  0.49346000  1
  Cs  Cs38  1  0.90461500  0.12097300  0.99346000  1
  Cs  Cs39  1  0.40461500  0.87902700  0.50654000  1
  Ge  Ge40  1  0.14801400  0.51045300  0.13049200  1
  Ge  Ge41  1  0.64801400  0.48954700  0.36950800  1
  Ge  Ge42  1  0.85198600  0.48954700  0.86950800  1
  Ge  Ge43  1  0.35198600  0.51045300  0.63049200  1
  Ge  Ge44  1  0.05466100  0.92420700  0.21416600  1
  Ge  Ge45  1  0.55466100  0.07579300  0.28583400  1
  Ge  Ge46  1  0.94533900  0.07579300  0.78583400  1
  Ge  Ge47  1  0.44533900  0.92420700  0.71416600  1
  O  O48  1  0.15194100  0.33825900  0.18780000  1
  O  O49  1  0.65194100  0.66174100  0.31220000  1
  O  O50  1  0.84805900  0.66174100  0.81220000  1
  O  O51  1  0.34805900  0.33825900  0.68780000  1
  O  O52  1  0.27927100  0.55434700  0.15621600  1
  O  O53  1  0.77927100  0.44565300  0.34378400  1
  O  O54  1  0.72072900  0.44565300  0.84378400  1
  O  O55  1  0.22072900  0.55434700  0.65621600  1
  O  O56  1  0.02521800  0.55035900  0.16606400  1
  O  O57  1  0.52521800  0.44964100  0.33393600  1
  O  O58  1  0.97478200  0.44964100  0.83393600  1
  O  O59  1  0.47478200  0.55035900  0.66606400  1
  O  O60  1  0.13917000  0.59393200  0.01444000  1
  O  O61  1  0.63917000  0.40606800  0.48556000  1
  O  O62  1  0.86083000  0.40606800  0.98556000  1
  O  O63  1  0.36083000  0.59393200  0.51444000  1
  O  O64  1  0.52024100  0.83068900  0.68741100  1
  O  O65  1  0.02024100  0.16931100  0.81258900  1
  O  O66  1  0.47975900  0.16931100  0.31258900  1
  O  O67  1  0.97975900  0.83068900  0.18741100  1
  O  O68  1  0.19197400  0.84986300  0.25715700  1
  O  O69  1  0.69197400  0.15013700  0.24284300  1
  O  O70  1  0.80802600  0.15013700  0.74284300  1
  O  O71  1  0.30802600  0.84986300  0.75715700  1
  O  O72  1  0.57568400  0.91069900  0.37955700  1
  O  O73  1  0.07568400  0.08930100  0.12044300  1
  O  O74  1  0.42431600  0.08930100  0.62044300  1
  O  O75  1  0.92431600  0.91069900  0.87955700  1
  O  O76  1  0.52762400  0.91452200  0.79678600  1
  O  O77  1  0.02762400  0.08547800  0.70321400  1
  O  O78  1  0.47237600  0.08547800  0.20321400  1
  O  O79  1  0.97237600  0.91452200  0.29678600  1
  O  O80  1  0.32166100  0.94759100  0.97712100  1
  O  O81  1  0.82166100  0.05240900  0.52287900  1
  O  O82  1  0.67833900  0.05240900  0.02287900  1
  O  O83  1  0.17833900  0.94759100  0.47712100  1
