# generated using pymatgen
data_K2CuH14C4(N3O4)2
_symmetry_space_group_name_H-M   'P 1'
_cell_length_a   13.44317200
_cell_length_b   4.00385500
_cell_length_c   14.27550266
_cell_angle_alpha   79.23412575
_cell_angle_beta   90.00000000
_cell_angle_gamma   90.00000000
_symmetry_Int_Tables_number   1
_chemical_formula_structural   K2CuH14C4(N3O4)2
_chemical_formula_sum   'K4 Cu2 H28 C8 N12 O16'
_cell_volume   754.84759703
_cell_formula_units_Z   2
loop_
 _symmetry_equiv_pos_site_id
 _symmetry_equiv_pos_as_xyz
  1  'x, y, z'
loop_
 _atom_site_type_symbol
 _atom_site_label
 _atom_site_symmetry_multiplicity
 _atom_site_fract_x
 _atom_site_fract_y
 _atom_site_fract_z
 _atom_site_occupancy
  K  K0  1  0.90314200  0.69026100  0.36092900  1
  K  K1  1  0.59685800  0.69026100  0.86092900  1
  K  K2  1  0.09685800  0.30973900  0.63907100  1
  K  K3  1  0.40314200  0.30973900  0.13907100  1
  Cu  Cu4  1  0.50000000  0.00000000  0.50000000  1
  Cu  Cu5  1  0.00000000  0.00000000  0.00000000  1
  H  H6  1  0.48788500  0.17181100  0.66746100  1
  H  H7  1  0.01211500  0.17181100  0.16746100  1
  H  H8  1  0.51211500  0.82818900  0.33253900  1
  H  H9  1  0.98788500  0.82818900  0.83253900  1
  H  H10  1  0.77651700  0.27910100  0.61445000  1
  H  H11  1  0.72348300  0.27910100  0.11445000  1
  H  H12  1  0.22348300  0.72089900  0.38555000  1
  H  H13  1  0.27651700  0.72089900  0.88555000  1
  H  H14  1  0.65898500  0.88905100  0.40539200  1
  H  H15  1  0.84101500  0.88905100  0.90539200  1
  H  H16  1  0.34101500  0.11094900  0.59460800  1
  H  H17  1  0.15898500  0.11094900  0.09460800  1
  H  H18  1  0.89752000  0.91532400  0.56571500  1
  H  H19  1  0.60248000  0.91532400  0.06571500  1
  H  H20  1  0.10248000  0.08467600  0.43428500  1
  H  H21  1  0.39752000  0.08467600  0.93428500  1
  H  H22  1  0.90457200  0.73658500  0.67368600  1
  H  H23  1  0.59542800  0.73658500  0.17368600  1
  H  H24  1  0.09542800  0.26341500  0.32631400  1
  H  H25  1  0.40457200  0.26341500  0.82631400  1
  H  H26  1  0.76080600  0.48326500  0.75498700  1
  H  H27  1  0.73919400  0.48326500  0.25498700  1
  H  H28  1  0.23919400  0.51673500  0.24501300  1
  H  H29  1  0.26080600  0.51673500  0.74501300  1
  H  H30  1  0.84337800  0.39951700  0.83373000  1
  H  H31  1  0.65662200  0.39951700  0.33373000  1
  H  H32  1  0.15662200  0.60048300  0.16627000  1
  H  H33  1  0.34337800  0.60048300  0.66627000  1
  C  C34  1  0.62877200  0.23317600  0.64614000  1
  C  C35  1  0.87122800  0.23317600  0.14614000  1
  C  C36  1  0.37122800  0.76682400  0.35386000  1
  C  C37  1  0.12877200  0.76682400  0.85386000  1
  C  C38  1  0.72054700  0.09325000  0.50286400  1
  C  C39  1  0.77945300  0.09325000  0.00286400  1
  C  C40  1  0.27945300  0.90675000  0.49713600  1
  C  C41  1  0.22054700  0.90675000  0.99713600  1
  N  N42  1  0.54056800  0.14739400  0.61777100  1
  N  N43  1  0.95943200  0.14739400  0.11777100  1
  N  N44  1  0.45943200  0.85260600  0.38222900  1
  N  N45  1  0.04056800  0.85260600  0.88222900  1
  N  N46  1  0.71090700  0.22129500  0.58660200  1
  N  N47  1  0.78909300  0.22129500  0.08660200  1
  N  N48  1  0.28909300  0.77870500  0.41339800  1
  N  N49  1  0.21090700  0.77870500  0.91339800  1
  N  N50  1  0.63932100  0.02088800  0.45742600  1
  N  N51  1  0.86067900  0.02088800  0.95742600  1
  N  N52  1  0.36067900  0.97911200  0.54257400  1
  N  N53  1  0.13932100  0.97911200  0.04257400  1
  O  O54  1  0.64734400  0.32504400  0.72601600  1
  O  O55  1  0.85265600  0.32504400  0.22601600  1
  O  O56  1  0.35265600  0.67495600  0.27398400  1
  O  O57  1  0.14734400  0.67495600  0.77398400  1
  O  O58  1  0.81007800  0.06128800  0.47434400  1
  O  O59  1  0.68992200  0.06128800  0.97434400  1
  O  O60  1  0.18992200  0.93871200  0.52565600  1
  O  O61  1  0.31007800  0.93871200  0.02565600  1
  O  O62  1  0.94584400  0.82211200  0.61692300  1
  O  O63  1  0.55415600  0.82211200  0.11692300  1
  O  O64  1  0.05415600  0.17788800  0.38307700  1
  O  O65  1  0.44584400  0.17788800  0.88307700  1
  O  O66  1  0.82250400  0.57760700  0.77998500  1
  O  O67  1  0.67749600  0.57760700  0.27998500  1
  O  O68  1  0.17749600  0.42239300  0.22001500  1
  O  O69  1  0.32250400  0.42239300  0.72001500  1
