# generated using pymatgen
data_NaH12RuC4S2(Cl2O)2
_symmetry_space_group_name_H-M   'P 1'
_cell_length_a   8.19853100
_cell_length_b   12.08353200
_cell_length_c   13.98281643
_cell_angle_alpha   81.49957684
_cell_angle_beta   90.00000000
_cell_angle_gamma   90.00000000
_symmetry_Int_Tables_number   1
_chemical_formula_structural   NaH12RuC4S2(Cl2O)2
_chemical_formula_sum   'Na4 H48 Ru4 C16 S8 Cl16 O8'
_cell_volume   1370.02147273
_cell_formula_units_Z   4
loop_
 _symmetry_equiv_pos_site_id
 _symmetry_equiv_pos_as_xyz
  1  'x, y, z'
loop_
 _atom_site_type_symbol
 _atom_site_label
 _atom_site_symmetry_multiplicity
 _atom_site_fract_x
 _atom_site_fract_y
 _atom_site_fract_z
 _atom_site_occupancy
  Na  Na0  1  0.00271500  0.64350500  0.51504200  1
  Na  Na1  1  0.50271500  0.35649500  0.98495800  1
  Na  Na2  1  0.99728500  0.35649500  0.48495800  1
  Na  Na3  1  0.49728500  0.64350500  0.01504200  1
  H  H4  1  0.22869100  0.69258500  0.25684100  1
  H  H5  1  0.72869100  0.30741500  0.24315900  1
  H  H6  1  0.77130900  0.30741500  0.74315900  1
  H  H7  1  0.27130900  0.69258500  0.75684100  1
  H  H8  1  0.44680300  0.68593600  0.27398600  1
  H  H9  1  0.94680300  0.31406400  0.22601400  1
  H  H10  1  0.55319700  0.31406400  0.72601400  1
  H  H11  1  0.05319700  0.68593600  0.77398600  1
  H  H12  1  0.31902700  0.73777200  0.36273700  1
  H  H13  1  0.81902700  0.26222800  0.13726300  1
  H  H14  1  0.68097300  0.26222800  0.63726300  1
  H  H15  1  0.18097300  0.73777200  0.86273700  1
  H  H16  1  0.25064100  0.48876600  0.22062000  1
  H  H17  1  0.75064100  0.51123400  0.27938000  1
  H  H18  1  0.74935900  0.51123400  0.77938000  1
  H  H19  1  0.24935900  0.48876600  0.72062000  1
  H  H20  1  0.30777100  0.37119000  0.30962600  1
  H  H21  1  0.80777100  0.62881000  0.19037400  1
  H  H22  1  0.69222900  0.62881000  0.69037400  1
  H  H23  1  0.19222900  0.37119000  0.80962600  1
  H  H24  1  0.46127500  0.46699700  0.25480600  1
  H  H25  1  0.96127500  0.53300300  0.24519400  1
  H  H26  1  0.53872500  0.53300300  0.74519400  1
  H  H27  1  0.03872500  0.46699700  0.75480600  1
  H  H28  1  0.81313300  0.84723500  0.78636200  1
  H  H29  1  0.31313300  0.15276500  0.71363800  1
  H  H30  1  0.18686700  0.15276500  0.21363800  1
  H  H31  1  0.68686700  0.84723500  0.28636200  1
  H  H32  1  0.82349400  0.99420800  0.73765300  1
  H  H33  1  0.32349400  0.00579200  0.76234700  1
  H  H34  1  0.17650600  0.00579200  0.26234700  1
  H  H35  1  0.67650600  0.99420800  0.23765300  1
  H  H36  1  0.00739800  0.91330400  0.75242500  1
  H  H37  1  0.50739800  0.08669600  0.74757500  1
  H  H38  1  0.99260200  0.08669600  0.24757500  1
  H  H39  1  0.49260200  0.91330400  0.25242500  1
  H  H40  1  0.58199900  0.83597500  0.66510200  1
  H  H41  1  0.08199900  0.16402500  0.83489800  1
  H  H42  1  0.41800100  0.16402500  0.33489800  1
  H  H43  1  0.91800100  0.83597500  0.16510200  1
  H  H44  1  0.60831200  0.85106300  0.53583400  1
  H  H45  1  0.10831200  0.14893700  0.96416600  1
  H  H46  1  0.39168800  0.14893700  0.46416600  1
  H  H47  1  0.89168800  0.85106300  0.03583400  1
  H  H48  1  0.60402900  0.97332800  0.59454600  1
  H  H49  1  0.10402900  0.02667200  0.90545400  1
  H  H50  1  0.39597100  0.02667200  0.40545400  1
  H  H51  1  0.89597100  0.97332800  0.09454600  1
  Ru  Ru52  1  0.50000000  0.50000000  0.50000000  1
  Ru  Ru53  1  0.00000000  0.50000000  0.00000000  1
  Ru  Ru54  1  0.00000000  0.00000000  0.50000000  1
  Ru  Ru55  1  0.50000000  0.00000000  0.00000000  1
  C  C56  1  0.32779700  0.67917600  0.31010900  1
  C  C57  1  0.82779700  0.32082400  0.18989100  1
  C  C58  1  0.67220300  0.32082400  0.68989100  1
  C  C59  1  0.17220300  0.67917600  0.81010900  1
  C  C60  1  0.33464500  0.45834600  0.27984100  1
  C  C61  1  0.83464500  0.54165400  0.22015900  1
  C  C62  1  0.66535500  0.54165400  0.72015900  1
  C  C63  1  0.16535500  0.45834600  0.77984100  1
  C  C64  1  0.87670400  0.91149100  0.73618000  1
  C  C65  1  0.37670400  0.08850900  0.76382000  1
  C  C66  1  0.12329600  0.08850900  0.26382000  1
  C  C67  1  0.62329600  0.91149100  0.23618000  1
  C  C68  1  0.63969300  0.88520400  0.60188200  1
  C  C69  1  0.13969300  0.11479600  0.89811800  1
  C  C70  1  0.36030700  0.11479600  0.39811800  1
  C  C71  1  0.86030700  0.88520400  0.10188200  1
  S  S72  1  0.30652700  0.54047700  0.37494600  1
  S  S73  1  0.80652700  0.45952300  0.12505400  1
  S  S74  1  0.69347300  0.45952300  0.62505400  1
  S  S75  1  0.19347300  0.54047700  0.87494600  1
  S  S76  1  0.85708400  0.87528000  0.61666200  1
  S  S77  1  0.35708400  0.12472000  0.88333800  1
  S  S78  1  0.14291600  0.12472000  0.38333800  1
  S  S79  1  0.64291600  0.87528000  0.11666200  1
  Cl  Cl80  1  0.67838600  0.64314700  0.42772100  1
  Cl  Cl81  1  0.17838600  0.35685300  0.07227900  1
  Cl  Cl82  1  0.32161400  0.35685300  0.57227900  1
  Cl  Cl83  1  0.82161400  0.64314700  0.92772100  1
  Cl  Cl84  1  0.64594600  0.36417200  0.42687700  1
  Cl  Cl85  1  0.14594600  0.63582800  0.07312300  1
  Cl  Cl86  1  0.35405400  0.63582800  0.57312300  1
  Cl  Cl87  1  0.85405400  0.36417200  0.92687700  1
  Cl  Cl88  1  0.23583600  0.92957000  0.58472300  1
  Cl  Cl89  1  0.73583600  0.07043000  0.91527700  1
  Cl  Cl90  1  0.76416400  0.07043000  0.41527700  1
  Cl  Cl91  1  0.26416400  0.92957000  0.08472300  1
  Cl  Cl92  1  0.98175800  0.14435600  0.59963800  1
  Cl  Cl93  1  0.48175800  0.85564400  0.90036200  1
  Cl  Cl94  1  0.01824200  0.85564400  0.40036200  1
  Cl  Cl95  1  0.51824200  0.14435600  0.09963800  1
  O  O96  1  0.13014800  0.52825100  0.40520300  1
  O  O97  1  0.63014800  0.47174900  0.09479700  1
  O  O98  1  0.86985200  0.47174900  0.59479700  1
  O  O99  1  0.36985200  0.52825100  0.90520300  1
  O  O100  1  0.90044700  0.75418100  0.62469500  1
  O  O101  1  0.40044700  0.24581900  0.87530500  1
  O  O102  1  0.09955300  0.24581900  0.37530500  1
  O  O103  1  0.59955300  0.75418100  0.12469500  1
