# generated using pymatgen
data_As4H6(CO)3
_symmetry_space_group_name_H-M   'P 1'
_cell_length_a   7.84218600
_cell_length_b   12.04957824
_cell_length_c   12.20059401
_cell_angle_alpha   118.50790397
_cell_angle_beta   90.54689807
_cell_angle_gamma   90.93408086
_symmetry_Int_Tables_number   1
_chemical_formula_structural   As4H6(CO)3
_chemical_formula_sum   'As16 H24 C12 O12'
_cell_volume   1012.77684616
_cell_formula_units_Z   4
loop_
 _symmetry_equiv_pos_site_id
 _symmetry_equiv_pos_as_xyz
  1  'x, y, z'
loop_
 _atom_site_type_symbol
 _atom_site_label
 _atom_site_symmetry_multiplicity
 _atom_site_fract_x
 _atom_site_fract_y
 _atom_site_fract_z
 _atom_site_occupancy
  As  As0  1  0.85907300  0.36937900  0.21922600  1
  As  As1  1  0.14092700  0.63062100  0.78077400  1
  As  As2  1  0.17181100  0.36390800  0.40246200  1
  As  As3  1  0.82818900  0.63609200  0.59753800  1
  As  As4  1  0.16927500  0.14291700  0.10648000  1
  As  As5  1  0.83072500  0.85708300  0.89352000  1
  As  As6  1  0.87054500  0.11958000  0.28651400  1
  As  As7  1  0.12945500  0.88042000  0.71348600  1
  As  As8  1  0.57158200  0.80541000  0.15306700  1
  As  As9  1  0.42841800  0.19459000  0.84693300  1
  As  As10  1  0.26200000  0.59749300  0.11228400  1
  As  As11  1  0.73800000  0.40250700  0.88771600  1
  As  As12  1  0.22391600  0.88400600  0.34588600  1
  As  As13  1  0.77608400  0.11599400  0.65411400  1
  As  As14  1  0.51956200  0.70680100  0.37584000  1
  As  As15  1  0.48043800  0.29319900  0.62416000  1
  H  H16  1  0.92774500  0.19453600  0.00096300  1
  H  H17  1  0.07225500  0.80546400  0.99903700  1
  H  H18  1  0.08739200  0.31623900  0.05564700  1
  H  H19  1  0.91260800  0.68376100  0.94435300  1
  H  H20  1  0.94004900  0.29890400  0.50516900  1
  H  H21  1  0.05995100  0.70109600  0.49483100  1
  H  H22  1  0.10482800  0.18618500  0.45220500  1
  H  H23  1  0.89517200  0.81381500  0.54779500  1
  H  H24  1  0.66086800  0.18212300  0.16847400  1
  H  H25  1  0.33913200  0.81787700  0.83152600  1
  H  H26  1  0.65608600  0.29134100  0.32969700  1
  H  H27  1  0.34391400  0.70865900  0.67030300  1
  H  H28  1  0.33169700  0.96105700  0.19869900  1
  H  H29  1  0.66830300  0.03894300  0.80130100  1
  H  H30  1  0.47174200  0.01283600  0.33117300  1
  H  H31  1  0.52825800  0.98716400  0.66882700  1
  H  H32  1  0.47792900  0.49087700  0.18372400  1
  H  H33  1  0.52207100  0.50912300  0.81627600  1
  H  H34  1  0.29383000  0.53206900  0.27959300  1
  H  H35  1  0.70617000  0.46793100  0.72040700  1
  H  H36  1  0.76156600  0.68850400  0.23140500  1
  H  H37  1  0.23843400  0.31149600  0.76859500  1
  H  H38  1  0.73813700  0.84781300  0.34815500  1
  H  H39  1  0.26186300  0.15218700  0.65184500  1
  C  C40  1  0.00904800  0.25628600  0.08189900  1
  C  C41  1  0.99095200  0.74371400  0.91810100  1
  C  C42  1  0.02101400  0.24207300  0.42556000  1
  C  C43  1  0.97898600  0.75792700  0.57444000  1
  C  C44  1  0.74167800  0.24022500  0.25123900  1
  C  C45  1  0.25832200  0.75977500  0.74876100  1
  C  C46  1  0.40101100  0.93070800  0.25838400  1
  C  C47  1  0.59898900  0.06929200  0.74161600  1
  C  C48  1  0.38903400  0.56696700  0.23686700  1
  C  C49  1  0.61096600  0.43303300  0.76313300  1
  C  C50  1  0.66791800  0.76271100  0.27939800  1
  C  C51  1  0.33208200  0.23728900  0.72060200  1
  O  O52  1  0.01448100  0.44039900  0.35066000  1
  O  O53  1  0.98551900  0.55960100  0.64934000  1
  O  O54  1  0.27126000  0.25581600  0.25507600  1
  O  O55  1  0.72874000  0.74418400  0.74492400  1
  O  O56  1  0.02045700  0.05750900  0.15567000  1
  O  O57  1  0.97954300  0.94249100  0.84433000  1
  O  O58  1  0.43054500  0.66590700  0.06022500  1
  O  O59  1  0.56945500  0.33409300  0.93977500  1
  O  O60  1  0.14039900  0.73561100  0.21787800  1
  O  O61  1  0.85960100  0.26438900  0.78212200  1
  O  O62  1  0.35912100  0.83199900  0.43420200  1
  O  O63  1  0.64087900  0.16800100  0.56579800  1
