# generated using pymatgen
data_Nd6Fe13Bi
_symmetry_space_group_name_H-M   'P 1'
_cell_length_a   13.05429245
_cell_length_b   13.05429245
_cell_length_c   13.05429245
_cell_angle_alpha   143.96414235
_cell_angle_beta   143.96414235
_cell_angle_gamma   51.88091544
_symmetry_Int_Tables_number   1
_chemical_formula_structural   Nd6Fe13Bi
_chemical_formula_sum   'Nd12 Fe26 Bi2'
_cell_volume   765.59803906
_cell_formula_units_Z   2
loop_
 _symmetry_equiv_pos_site_id
 _symmetry_equiv_pos_as_xyz
  1  'x, y, z'
loop_
 _atom_site_type_symbol
 _atom_site_label
 _atom_site_symmetry_multiplicity
 _atom_site_fract_x
 _atom_site_fract_y
 _atom_site_fract_z
 _atom_site_occupancy
  Nd  Nd0  1  0.60264200  0.60264200  0.00000000  1
  Nd  Nd1  1  0.10264200  0.10264200  0.00000000  1
  Nd  Nd2  1  0.39735800  0.39735800  0.00000000  1
  Nd  Nd3  1  0.89735800  0.89735800  0.00000000  1
  Nd  Nd4  1  0.47701700  0.97701700  0.82190800  1
  Nd  Nd5  1  0.15510900  0.65510900  0.17809200  1
  Nd  Nd6  1  0.97701700  0.15510900  0.50000000  1
  Nd  Nd7  1  0.65510900  0.47701700  0.50000000  1
  Nd  Nd8  1  0.52298300  0.02298300  0.17809200  1
  Nd  Nd9  1  0.84489100  0.34489100  0.82190800  1
  Nd  Nd10  1  0.02298300  0.84489100  0.50000000  1
  Nd  Nd11  1  0.34489100  0.52298300  0.50000000  1
  Fe  Fe12  1  0.50000000  0.00000000  0.50000000  1
  Fe  Fe13  1  0.00000000  0.50000000  0.50000000  1
  Fe  Fe14  1  0.56682400  0.71075700  0.27758100  1
  Fe  Fe15  1  0.43317600  0.28924300  0.72241900  1
  Fe  Fe16  1  0.06682400  0.78924300  0.85606700  1
  Fe  Fe17  1  0.93317600  0.21075700  0.14393300  1
  Fe  Fe18  1  0.28924300  0.56682400  0.85606700  1
  Fe  Fe19  1  0.71075700  0.43317600  0.14393300  1
  Fe  Fe20  1  0.21075700  0.06682400  0.27758100  1
  Fe  Fe21  1  0.78924300  0.93317600  0.72241900  1
  Fe  Fe22  1  0.61995100  0.11995100  0.85658200  1
  Fe  Fe23  1  0.26336900  0.76336900  0.14341800  1
  Fe  Fe24  1  0.11995100  0.26336900  0.50000000  1
  Fe  Fe25  1  0.76336900  0.61995100  0.50000000  1
  Fe  Fe26  1  0.38004900  0.88004900  0.14341800  1
  Fe  Fe27  1  0.73663100  0.23663100  0.85658200  1
  Fe  Fe28  1  0.88004900  0.73663100  0.50000000  1
  Fe  Fe29  1  0.23663100  0.38004900  0.50000000  1
  Fe  Fe30  1  0.79283000  0.29283000  0.27267400  1
  Fe  Fe31  1  0.02015600  0.52015600  0.72732600  1
  Fe  Fe32  1  0.29283000  0.02015600  0.50000000  1
  Fe  Fe33  1  0.52015600  0.79283000  0.50000000  1
  Fe  Fe34  1  0.20717000  0.70717000  0.72732600  1
  Fe  Fe35  1  0.97984400  0.47984400  0.27267400  1
  Fe  Fe36  1  0.70717000  0.97984400  0.50000000  1
  Fe  Fe37  1  0.47984400  0.20717000  0.50000000  1
  Bi  Bi38  1  0.25000000  0.25000000  0.00000000  1
  Bi  Bi39  1  0.75000000  0.75000000  0.00000000  1
