# generated using pymatgen
data_KSeO4
_symmetry_space_group_name_H-M   'P 1'
_cell_length_a   8.62732800
_cell_length_b   10.37600400
_cell_length_c   20.05526800
_cell_angle_alpha   90.00000000
_cell_angle_beta   90.00000000
_cell_angle_gamma   90.00000000
_symmetry_Int_Tables_number   1
_chemical_formula_structural   KSeO4
_chemical_formula_sum   'K16 Se16 O64'
_cell_volume   1795.29123279
_cell_formula_units_Z   16
loop_
 _symmetry_equiv_pos_site_id
 _symmetry_equiv_pos_as_xyz
  1  'x, y, z'
loop_
 _atom_site_type_symbol
 _atom_site_label
 _atom_site_symmetry_multiplicity
 _atom_site_fract_x
 _atom_site_fract_y
 _atom_site_fract_z
 _atom_site_occupancy
  K  K0  1  0.11483500  0.32343500  0.12596400  1
  K  K1  1  0.88516500  0.67656500  0.87403600  1
  K  K2  1  0.38516500  0.67656500  0.62596400  1
  K  K3  1  0.88516500  0.82343500  0.37403600  1
  K  K4  1  0.61483500  0.32343500  0.37403600  1
  K  K5  1  0.11483500  0.17656500  0.62596400  1
  K  K6  1  0.61483500  0.17656500  0.87403600  1
  K  K7  1  0.38516500  0.82343500  0.12596400  1
  K  K8  1  0.13201800  0.18320300  0.38095100  1
  K  K9  1  0.86798200  0.81679700  0.61904900  1
  K  K10  1  0.36798200  0.81679700  0.88095100  1
  K  K11  1  0.86798200  0.68320300  0.11904900  1
  K  K12  1  0.63201800  0.18320300  0.11904900  1
  K  K13  1  0.13201800  0.31679700  0.88095100  1
  K  K14  1  0.63201800  0.31679700  0.61904900  1
  K  K15  1  0.36798200  0.68320300  0.38095100  1
  Se  Se16  1  0.02134600  0.48028100  0.29408200  1
  Se  Se17  1  0.97865400  0.51971900  0.70591800  1
  Se  Se18  1  0.47865400  0.51971900  0.79408200  1
  Se  Se19  1  0.97865400  0.98028100  0.20591800  1
  Se  Se20  1  0.52134600  0.48028100  0.20591800  1
  Se  Se21  1  0.02134600  0.01971900  0.79408200  1
  Se  Se22  1  0.52134600  0.01971900  0.70591800  1
  Se  Se23  1  0.47865400  0.98028100  0.29408200  1
  Se  Se24  1  0.24663800  0.07165700  0.00380600  1
  Se  Se25  1  0.75336200  0.92834300  0.99619400  1
  Se  Se26  1  0.25336200  0.92834300  0.50380600  1
  Se  Se27  1  0.75336200  0.57165700  0.49619400  1
  Se  Se28  1  0.74663800  0.07165700  0.49619400  1
  Se  Se29  1  0.24663800  0.42834300  0.50380600  1
  Se  Se30  1  0.74663800  0.42834300  0.99619400  1
  Se  Se31  1  0.25336200  0.57165700  0.00380600  1
  O  O32  1  0.07684700  0.00036400  0.27876900  1
  O  O33  1  0.92315300  0.99963600  0.72123100  1
  O  O34  1  0.42315300  0.99963600  0.77876900  1
  O  O35  1  0.92315300  0.50036400  0.22123100  1
  O  O36  1  0.57684700  0.00036400  0.22123100  1
  O  O37  1  0.07684700  0.49963600  0.77876900  1
  O  O38  1  0.57684700  0.49963600  0.72123100  1
  O  O39  1  0.42315300  0.50036400  0.27876900  1
  O  O40  1  0.17859300  0.38465300  0.27638600  1
  O  O41  1  0.82140700  0.61534700  0.72361400  1
  O  O42  1  0.32140700  0.61534700  0.77638600  1
  O  O43  1  0.82140700  0.88465300  0.22361400  1
  O  O44  1  0.67859300  0.38465300  0.22361400  1
  O  O45  1  0.17859300  0.11534700  0.77638600  1
  O  O46  1  0.67859300  0.11534700  0.72361400  1
  O  O47  1  0.32140700  0.88465300  0.27638600  1
  O  O48  1  0.33690300  0.39383700  0.43216900  1
  O  O49  1  0.66309700  0.60616300  0.56783100  1
  O  O50  1  0.16309700  0.60616300  0.93216900  1
  O  O51  1  0.66309700  0.89383700  0.06783100  1
  O  O52  1  0.83690300  0.39383700  0.06783100  1
  O  O53  1  0.33690300  0.10616300  0.93216900  1
  O  O54  1  0.83690300  0.10616300  0.56783100  1
  O  O55  1  0.16309700  0.89383700  0.43216900  1
  O  O56  1  0.42247600  0.12326000  0.32094200  1
  O  O57  1  0.57752400  0.87674000  0.67905800  1
  O  O58  1  0.07752400  0.87674000  0.82094200  1
  O  O59  1  0.57752400  0.62326000  0.17905800  1
  O  O60  1  0.92247600  0.12326000  0.17905800  1
  O  O61  1  0.42247600  0.37674000  0.82094200  1
  O  O62  1  0.92247600  0.37674000  0.67905800  1
  O  O63  1  0.07752400  0.62326000  0.32094200  1
  O  O64  1  0.35017900  0.09656300  0.07285800  1
  O  O65  1  0.64982100  0.90343700  0.92714200  1
  O  O66  1  0.14982100  0.90343700  0.57285800  1
  O  O67  1  0.64982100  0.59656300  0.42714200  1
  O  O68  1  0.85017900  0.09656300  0.42714200  1
  O  O69  1  0.35017900  0.40343700  0.57285800  1
  O  O70  1  0.85017900  0.40343700  0.92714200  1
  O  O71  1  0.14982100  0.59656300  0.07285800  1
  O  O72  1  0.41869900  0.39577200  0.15152600  1
  O  O73  1  0.58130100  0.60422800  0.84847400  1
  O  O74  1  0.08130100  0.60422800  0.65152600  1
  O  O75  1  0.58130100  0.89577200  0.34847400  1
  O  O76  1  0.91869900  0.39577200  0.34847400  1
  O  O77  1  0.41869900  0.10422800  0.65152600  1
  O  O78  1  0.91869900  0.10422800  0.84847400  1
  O  O79  1  0.08130100  0.89577200  0.15152600  1
  O  O80  1  0.29192500  0.41229500  0.00019800  1
  O  O81  1  0.70807500  0.58770500  0.99980200  1
  O  O82  1  0.20807500  0.58770500  0.50019800  1
  O  O83  1  0.70807500  0.91229500  0.49980200  1
  O  O84  1  0.79192500  0.41229500  0.49980200  1
  O  O85  1  0.29192500  0.08770500  0.50019800  1
  O  O86  1  0.79192500  0.08770500  0.99980200  1
  O  O87  1  0.20807500  0.91229500  0.00019800  1
  O  O88  1  0.08721900  0.16347800  0.00786200  1
  O  O89  1  0.91278100  0.83652200  0.99213800  1
  O  O90  1  0.41278100  0.83652200  0.50786200  1
  O  O91  1  0.91278100  0.66347800  0.49213800  1
  O  O92  1  0.58721900  0.16347800  0.49213800  1
  O  O93  1  0.08721900  0.33652200  0.50786200  1
  O  O94  1  0.58721900  0.33652200  0.99213800  1
  O  O95  1  0.41278100  0.66347800  0.00786200  1
