# generated using pymatgen
data_YbIO9
_symmetry_space_group_name_H-M   'P 1'
_cell_length_a   11.02018800
_cell_length_b   7.11554100
_cell_length_c   10.90464599
_cell_angle_alpha   50.91176224
_cell_angle_beta   90.00000000
_cell_angle_gamma   90.00000000
_symmetry_Int_Tables_number   1
_chemical_formula_structural   YbIO9
_chemical_formula_sum   'Yb4 I4 O36'
_cell_volume   663.69513260
_cell_formula_units_Z   4
loop_
 _symmetry_equiv_pos_site_id
 _symmetry_equiv_pos_as_xyz
  1  'x, y, z'
loop_
 _atom_site_type_symbol
 _atom_site_label
 _atom_site_symmetry_multiplicity
 _atom_site_fract_x
 _atom_site_fract_y
 _atom_site_fract_z
 _atom_site_occupancy
  Yb  Yb0  1  0.09117300  0.22701200  0.30001200  1
  Yb  Yb1  1  0.59117300  0.77298800  0.19998800  1
  Yb  Yb2  1  0.90882700  0.77298800  0.69998800  1
  Yb  Yb3  1  0.40882700  0.22701200  0.80001200  1
  I  I4  1  0.32165200  0.97625900  0.23878000  1
  I  I5  1  0.82165200  0.02374100  0.26122000  1
  I  I6  1  0.67834800  0.02374100  0.76122000  1
  I  I7  1  0.17834800  0.97625900  0.73878000  1
  O  O8  1  0.42287500  0.07453900  0.06686100  1
  O  O9  1  0.92287500  0.92546100  0.43313900  1
  O  O10  1  0.57712500  0.92546100  0.93313900  1
  O  O11  1  0.07712500  0.07453900  0.56686100  1
  O  O12  1  0.44954100  0.32695300  0.28538800  1
  O  O13  1  0.94954100  0.67304700  0.21461200  1
  O  O14  1  0.55045900  0.67304700  0.71461200  1
  O  O15  1  0.05045900  0.32695300  0.78538800  1
  O  O16  1  0.22831100  0.25209400  0.11071900  1
  O  O17  1  0.72831100  0.74790600  0.38928100  1
  O  O18  1  0.77168900  0.74790600  0.88928100  1
  O  O19  1  0.27168900  0.25209400  0.61071900  1
  O  O20  1  0.23503900  0.53000200  0.28965100  1
  O  O21  1  0.73503900  0.46999800  0.21034900  1
  O  O22  1  0.76496100  0.46999800  0.71034900  1
  O  O23  1  0.26496100  0.53000200  0.78965100  1
  O  O24  1  0.93029500  0.45075300  0.34060700  1
  O  O25  1  0.43029500  0.54924700  0.15939300  1
  O  O26  1  0.06970500  0.54924700  0.65939300  1
  O  O27  1  0.56970500  0.45075300  0.84060700  1
  O  O28  1  0.93932500  0.25663400  0.13735100  1
  O  O29  1  0.43932500  0.74336600  0.36264900  1
  O  O30  1  0.06067500  0.74336600  0.86264900  1
  O  O31  1  0.56067500  0.25663400  0.63735100  1
  O  O32  1  0.75115800  0.06805200  0.09035000  1
  O  O33  1  0.25115800  0.93194800  0.40965000  1
  O  O34  1  0.24884200  0.93194800  0.90965000  1
  O  O35  1  0.74884200  0.06805200  0.59035000  1
  O  O36  1  0.68931700  0.27447800  0.24741400  1
  O  O37  1  0.18931700  0.72552200  0.25258600  1
  O  O38  1  0.31068300  0.72552200  0.75258600  1
  O  O39  1  0.81068300  0.27447800  0.74741400  1
  O  O40  1  0.51803100  0.29936700  0.39186600  1
  O  O41  1  0.01803100  0.70063300  0.10813400  1
  O  O42  1  0.48196900  0.70063300  0.60813400  1
  O  O43  1  0.98196900  0.29936700  0.89186600  1
