# generated using pymatgen
data_Fe2P2NO11
_symmetry_space_group_name_H-M   'P 1'
_cell_length_a   9.58920900
_cell_length_b   9.78945000
_cell_length_c   12.18795463
_cell_angle_alpha   52.49090782
_cell_angle_beta   90.00000000
_cell_angle_gamma   90.00000000
_symmetry_Int_Tables_number   1
_chemical_formula_structural   Fe2P2NO11
_chemical_formula_sum   'Fe8 P8 N4 O44'
_cell_volume   907.58157275
_cell_formula_units_Z   4
loop_
 _symmetry_equiv_pos_site_id
 _symmetry_equiv_pos_as_xyz
  1  'x, y, z'
loop_
 _atom_site_type_symbol
 _atom_site_label
 _atom_site_symmetry_multiplicity
 _atom_site_fract_x
 _atom_site_fract_y
 _atom_site_fract_z
 _atom_site_occupancy
  Fe  Fe0  1  0.26688200  0.71399300  0.09950600  1
  Fe  Fe1  1  0.23311800  0.71399300  0.59950600  1
  Fe  Fe2  1  0.73311800  0.28600700  0.90049400  1
  Fe  Fe3  1  0.76688200  0.28600700  0.40049400  1
  Fe  Fe4  1  0.54549500  0.98114000  0.39518300  1
  Fe  Fe5  1  0.95450500  0.98114000  0.89518300  1
  Fe  Fe6  1  0.45450500  0.01886000  0.60481700  1
  Fe  Fe7  1  0.04549500  0.01886000  0.10481700  1
  P  P8  1  0.46395800  0.35137900  0.29449200  1
  P  P9  1  0.03604200  0.35137900  0.79449200  1
  P  P10  1  0.53604200  0.64862100  0.70550800  1
  P  P11  1  0.96395800  0.64862100  0.20550800  1
  P  P12  1  0.31900700  0.84270400  0.28982000  1
  P  P13  1  0.18099300  0.84270400  0.78982000  1
  P  P14  1  0.68099300  0.15729600  0.71018000  1
  P  P15  1  0.81900700  0.15729600  0.21018000  1
  N  N16  1  0.30699200  0.37404100  0.01318200  1
  N  N17  1  0.19300800  0.37404100  0.51318200  1
  N  N18  1  0.69300800  0.62595900  0.98681800  1
  N  N19  1  0.80699200  0.62595900  0.48681800  1
  O  O20  1  0.46191000  0.91771600  0.28769300  1
  O  O21  1  0.03809000  0.91771600  0.78769300  1
  O  O22  1  0.53809000  0.08228400  0.71230700  1
  O  O23  1  0.96191000  0.08228400  0.21230700  1
  O  O24  1  0.37248800  0.49868700  0.18259600  1
  O  O25  1  0.12751200  0.49868700  0.68259600  1
  O  O26  1  0.62751200  0.50131300  0.81740400  1
  O  O27  1  0.87248800  0.50131300  0.31740400  1
  O  O28  1  0.10891200  0.57530000  0.20647600  1
  O  O29  1  0.39108800  0.57530000  0.70647600  1
  O  O30  1  0.89108800  0.42470000  0.79352400  1
  O  O31  1  0.60891200  0.42470000  0.29352400  1
  O  O32  1  0.47962200  0.22446600  0.25827100  1
  O  O33  1  0.02037800  0.22446600  0.75827100  1
  O  O34  1  0.52037800  0.77553400  0.74172900  1
  O  O35  1  0.97962200  0.77553400  0.24172900  1
  O  O36  1  0.60522000  0.74113700  0.55955300  1
  O  O37  1  0.89478000  0.74113700  0.05955300  1
  O  O38  1  0.39478000  0.25886300  0.44044700  1
  O  O39  1  0.10522000  0.25886300  0.94044700  1
  O  O40  1  0.34157300  0.73093500  0.24102300  1
  O  O41  1  0.15842700  0.73093500  0.74102300  1
  O  O42  1  0.65842700  0.26906500  0.75897700  1
  O  O43  1  0.84157300  0.26906500  0.25897700  1
  O  O44  1  0.12122100  0.92953500  0.00939300  1
  O  O45  1  0.37877900  0.92953500  0.50939300  1
  O  O46  1  0.87877900  0.07046500  0.99060700  1
  O  O47  1  0.62122100  0.07046500  0.49060700  1
  O  O48  1  0.23595000  0.71850000  0.93983800  1
  O  O49  1  0.26405000  0.71850000  0.43983800  1
  O  O50  1  0.76405000  0.28150000  0.06016200  1
  O  O51  1  0.73595000  0.28150000  0.56016200  1
  O  O52  1  0.71987300  0.00548200  0.30759100  1
  O  O53  1  0.78012700  0.00548200  0.80759100  1
  O  O54  1  0.28012700  0.99451800  0.69240900  1
  O  O55  1  0.21987300  0.99451800  0.19240900  1
  O  O56  1  0.41265100  0.86126900  0.99621500  1
  O  O57  1  0.08734900  0.86126900  0.49621500  1
  O  O58  1  0.58734900  0.13873100  0.00378500  1
  O  O59  1  0.91265100  0.13873100  0.50378500  1
  O  O60  1  0.64286100  0.78726200  0.17346200  1
  O  O61  1  0.85713900  0.78726200  0.67346200  1
  O  O62  1  0.35713900  0.21273800  0.82653800  1
  O  O63  1  0.14286100  0.21273800  0.32653800  1
