# generated using pymatgen
data_MnSO6
_symmetry_space_group_name_H-M   'P 1'
_cell_length_a   8.91066000
_cell_length_b   7.47851400
_cell_length_c   10.85257324
_cell_angle_alpha   56.29528987
_cell_angle_beta   90.00000000
_cell_angle_gamma   90.00000000
_symmetry_Int_Tables_number   1
_chemical_formula_structural   MnSO6
_chemical_formula_sum   'Mn4 S4 O24'
_cell_volume   601.63552811
_cell_formula_units_Z   4
loop_
 _symmetry_equiv_pos_site_id
 _symmetry_equiv_pos_as_xyz
  1  'x, y, z'
loop_
 _atom_site_type_symbol
 _atom_site_label
 _atom_site_symmetry_multiplicity
 _atom_site_fract_x
 _atom_site_fract_y
 _atom_site_fract_z
 _atom_site_occupancy
  Mn  Mn0  1  0.72045300  0.12227100  0.69773200  1
  Mn  Mn1  1  0.77954700  0.12227100  0.19773200  1
  Mn  Mn2  1  0.27954700  0.87772900  0.30226800  1
  Mn  Mn3  1  0.22045300  0.87772900  0.80226800  1
  S  S4  1  0.59692500  0.57802400  0.78271300  1
  S  S5  1  0.90307500  0.57802400  0.28271300  1
  S  S6  1  0.40307500  0.42197600  0.21728700  1
  S  S7  1  0.09692500  0.42197600  0.71728700  1
  O  O8  1  0.67312600  0.51032600  0.91835800  1
  O  O9  1  0.82687400  0.51032600  0.41835800  1
  O  O10  1  0.32687400  0.48967400  0.08164200  1
  O  O11  1  0.17312600  0.48967400  0.58164200  1
  O  O12  1  0.65445700  0.52869700  0.68165800  1
  O  O13  1  0.84554300  0.52869700  0.18165800  1
  O  O14  1  0.34554300  0.47130300  0.31834200  1
  O  O15  1  0.15445700  0.47130300  0.81834200  1
  O  O16  1  0.95951700  0.30206100  0.75285500  1
  O  O17  1  0.54048300  0.30206100  0.25285500  1
  O  O18  1  0.04048300  0.69793900  0.24714500  1
  O  O19  1  0.45951700  0.69793900  0.74714500  1
  O  O20  1  0.83223100  0.98772500  0.66193100  1
  O  O21  1  0.66776900  0.98772500  0.16193100  1
  O  O22  1  0.16776900  0.01227500  0.33806900  1
  O  O23  1  0.33223100  0.01227500  0.83806900  1
  O  O24  1  0.57292400  0.20489900  0.59622300  1
  O  O25  1  0.92707600  0.20489900  0.09622300  1
  O  O26  1  0.42707600  0.79510100  0.40377700  1
  O  O27  1  0.07292400  0.79510100  0.90377700  1
  O  O28  1  0.68645800  0.01007300  0.87077900  1
  O  O29  1  0.81354200  0.01007300  0.37077900  1
  O  O30  1  0.31354200  0.98992700  0.12922100  1
  O  O31  1  0.18645800  0.98992700  0.62922100  1
