# generated using pymatgen
data_NaBeSi3O8
_symmetry_space_group_name_H-M   'P 1'
_cell_length_a   7.36659716
_cell_length_b   7.36659716
_cell_length_c   14.20783693
_cell_angle_alpha   78.08984180
_cell_angle_beta   78.08984180
_cell_angle_gamma   60.55019439
_symmetry_Int_Tables_number   1
_chemical_formula_structural   NaBeSi3O8
_chemical_formula_sum   'Na4 Be4 Si12 O32'
_cell_volume   651.93597802
_cell_formula_units_Z   4
loop_
 _symmetry_equiv_pos_site_id
 _symmetry_equiv_pos_as_xyz
  1  'x, y, z'
loop_
 _atom_site_type_symbol
 _atom_site_label
 _atom_site_symmetry_multiplicity
 _atom_site_fract_x
 _atom_site_fract_y
 _atom_site_fract_z
 _atom_site_occupancy
  Na  Na0  1  0.31305200  0.62995000  0.42996100  1
  Na  Na1  1  0.37005000  0.68694800  0.07003900  1
  Na  Na2  1  0.68694800  0.37005000  0.57003900  1
  Na  Na3  1  0.62995000  0.31305200  0.92996100  1
  Be  Be4  1  0.15356200  0.50843900  0.99704800  1
  Be  Be5  1  0.49156100  0.84643800  0.50295200  1
  Be  Be6  1  0.84643800  0.49156100  0.00295200  1
  Be  Be7  1  0.50843900  0.15356200  0.49704800  1
  Si  Si8  1  0.81581300  0.77502200  0.14173100  1
  Si  Si9  1  0.22497800  0.18418700  0.35826900  1
  Si  Si10  1  0.18418700  0.22497800  0.85826900  1
  Si  Si11  1  0.77502200  0.81581300  0.64173100  1
  Si  Si12  1  0.84946700  0.64628300  0.36625100  1
  Si  Si13  1  0.35371700  0.15053300  0.13374900  1
  Si  Si14  1  0.15053300  0.35371700  0.63374900  1
  Si  Si15  1  0.64628300  0.84946700  0.86625100  1
  Si  Si16  1  0.06566900  0.87512000  0.86142300  1
  Si  Si17  1  0.12488000  0.93433100  0.63857700  1
  Si  Si18  1  0.93433100  0.12488000  0.13857700  1
  Si  Si19  1  0.87512000  0.06566900  0.36142300  1
  O  O20  1  0.96090800  0.89372000  0.12647700  1
  O  O21  1  0.10628000  0.03909200  0.37352300  1
  O  O22  1  0.03909200  0.10628000  0.87352300  1
  O  O23  1  0.89372000  0.96090800  0.62647700  1
  O  O24  1  0.93993300  0.57933600  0.61547400  1
  O  O25  1  0.42066400  0.06006700  0.88452600  1
  O  O26  1  0.06006700  0.42066400  0.38452600  1
  O  O27  1  0.57933600  0.93993300  0.11547400  1
  O  O28  1  0.92428100  0.59520200  0.07021000  1
  O  O29  1  0.40479800  0.07571900  0.42979000  1
  O  O30  1  0.07571900  0.40479800  0.92979000  1
  O  O31  1  0.59520200  0.92428100  0.57021000  1
  O  O32  1  0.20213400  0.32334400  0.74470100  1
  O  O33  1  0.67665600  0.79786600  0.75529900  1
  O  O34  1  0.79786600  0.67665600  0.25529900  1
  O  O35  1  0.32334400  0.20213400  0.24470100  1
  O  O36  1  0.34477700  0.34533800  0.55534500  1
  O  O37  1  0.65466200  0.65522300  0.94465500  1
  O  O38  1  0.65522300  0.65466200  0.44465500  1
  O  O39  1  0.34533800  0.34477700  0.05534500  1
  O  O40  1  0.92673400  0.81750600  0.37470800  1
  O  O41  1  0.18249400  0.07326600  0.12529200  1
  O  O42  1  0.07326600  0.18249400  0.62529200  1
  O  O43  1  0.81750600  0.92673400  0.87470800  1
  O  O44  1  0.17368800  0.82631200  0.75000000  1
  O  O45  1  0.82631200  0.17368800  0.25000000  1
  O  O46  1  0.20267800  0.69050800  0.93825400  1
  O  O47  1  0.30949200  0.79732200  0.56174600  1
  O  O48  1  0.79732200  0.30949200  0.06174600  1
  O  O49  1  0.69050800  0.20267800  0.43825400  1
  O  O50  1  0.43099800  0.56900200  0.25000000  1
  O  O51  1  0.56900200  0.43099800  0.75000000  1
