# generated using pymatgen
data_Ca5P3O13
_symmetry_space_group_name_H-M   'P 1'
_cell_length_a   6.92779700
_cell_length_b   9.53049500
_cell_length_c   19.06583700
_cell_angle_alpha   60.01551513
_cell_angle_beta   90.00000000
_cell_angle_gamma   90.00000000
_symmetry_Int_Tables_number   1
_chemical_formula_structural   Ca5P3O13
_chemical_formula_sum   'Ca20 P12 O52'
_cell_volume   1090.34765876
_cell_formula_units_Z   4
loop_
 _symmetry_equiv_pos_site_id
 _symmetry_equiv_pos_as_xyz
  1  'x, y, z'
loop_
 _atom_site_type_symbol
 _atom_site_label
 _atom_site_symmetry_multiplicity
 _atom_site_fract_x
 _atom_site_fract_y
 _atom_site_fract_z
 _atom_site_occupancy
  Ca  Ca0  1  0.50302500  0.83271200  0.91280600  1
  Ca  Ca1  1  0.00302500  0.16728800  0.58719400  1
  Ca  Ca2  1  0.49697500  0.16728800  0.08719400  1
  Ca  Ca3  1  0.99697500  0.83271200  0.41280600  1
  Ca  Ca4  1  0.99974300  0.83519500  0.92065900  1
  Ca  Ca5  1  0.49974300  0.16480500  0.57934100  1
  Ca  Ca6  1  0.00025700  0.16480500  0.07934100  1
  Ca  Ca7  1  0.50025700  0.83519500  0.42065900  1
  Ca  Ca8  1  0.74481400  0.24965700  0.25187500  1
  Ca  Ca9  1  0.24481400  0.75034300  0.24812500  1
  Ca  Ca10  1  0.25518600  0.75034300  0.74812500  1
  Ca  Ca11  1  0.75518600  0.24965700  0.75187500  1
  Ca  Ca12  1  0.25952700  0.25432700  0.87437200  1
  Ca  Ca13  1  0.75952700  0.74567300  0.62562800  1
  Ca  Ca14  1  0.74047300  0.74567300  0.12562800  1
  Ca  Ca15  1  0.24047300  0.25432700  0.37437200  1
  Ca  Ca16  1  0.24251300  0.49538100  0.12648800  1
  Ca  Ca17  1  0.74251300  0.50461900  0.37351200  1
  Ca  Ca18  1  0.75748700  0.50461900  0.87351200  1
  Ca  Ca19  1  0.25748700  0.49538100  0.62648800  1
  P  P20  1  0.74526000  0.46930000  0.06580500  1
  P  P21  1  0.24526000  0.53070000  0.43419500  1
  P  P22  1  0.25474000  0.53070000  0.93419500  1
  P  P23  1  0.75474000  0.46930000  0.56580500  1
  P  P24  1  0.74478800  0.89711000  0.23550100  1
  P  P25  1  0.24478800  0.10289000  0.26449900  1
  P  P26  1  0.25521200  0.10289000  0.76449900  1
  P  P27  1  0.75521200  0.89711000  0.73550100  1
  P  P28  1  0.24719700  0.86961800  0.05089100  1
  P  P29  1  0.74719700  0.13038200  0.44910900  1
  P  P30  1  0.75280300  0.13038200  0.94910900  1
  P  P31  1  0.25280300  0.86961800  0.55089100  1
  O  O32  1  0.73963500  0.65486000  0.00774000  1
  O  O33  1  0.23963500  0.34514000  0.49226000  1
  O  O34  1  0.26036500  0.34514000  0.99226000  1
  O  O35  1  0.76036500  0.65486000  0.50774000  1
  O  O36  1  0.24151700  0.17170100  0.17154700  1
  O  O37  1  0.74151700  0.82829900  0.32845300  1
  O  O38  1  0.75848300  0.82829900  0.82845300  1
  O  O39  1  0.25848300  0.17170100  0.67154700  1
  O  O40  1  0.75383300  0.01466400  0.91388600  1
  O  O41  1  0.25383300  0.98533600  0.58611400  1
  O  O42  1  0.24616700  0.98533600  0.08611400  1
  O  O43  1  0.74616700  0.01466400  0.41388600  1
  O  O44  1  0.76139200  0.37676800  0.01764100  1
  O  O45  1  0.26139200  0.62323200  0.48235900  1
  O  O46  1  0.23860800  0.62323200  0.98235900  1
  O  O47  1  0.73860800  0.37676800  0.51764100  1
  O  O48  1  0.75459800  0.08602900  0.18866800  1
  O  O49  1  0.25459800  0.91397100  0.31133200  1
  O  O50  1  0.24540200  0.91397100  0.81133200  1
  O  O51  1  0.74540200  0.08602900  0.68866800  1
  O  O52  1  0.27242600  0.96500700  0.95691100  1
  O  O53  1  0.77242600  0.03499300  0.54308900  1
  O  O54  1  0.72757400  0.03499300  0.04308900  1
  O  O55  1  0.22757400  0.96500700  0.45691100  1
  O  O56  1  0.55959900  0.40675200  0.11851200  1
  O  O57  1  0.05959900  0.59324800  0.38148800  1
  O  O58  1  0.44040100  0.59324800  0.88148800  1
  O  O59  1  0.94040100  0.40675200  0.61851200  1
  O  O60  1  0.56133600  0.84730300  0.20662900  1
  O  O61  1  0.06133600  0.15269700  0.29337100  1
  O  O62  1  0.43866400  0.15269700  0.79337100  1
  O  O63  1  0.93866400  0.84730300  0.70662900  1
  O  O64  1  0.05478300  0.77385500  0.06828600  1
  O  O65  1  0.55478300  0.22614500  0.43171400  1
  O  O66  1  0.94521700  0.22614500  0.93171400  1
  O  O67  1  0.44521700  0.77385500  0.56828600  1
  O  O68  1  0.91961100  0.42104400  0.12458000  1
  O  O69  1  0.41961100  0.57895600  0.37542000  1
  O  O70  1  0.08038900  0.57895600  0.87542000  1
  O  O71  1  0.58038900  0.42104400  0.62458000  1
  O  O72  1  0.92176700  0.83329300  0.20957900  1
  O  O73  1  0.42176700  0.16670700  0.29042100  1
  O  O74  1  0.07823300  0.16670700  0.79042100  1
  O  O75  1  0.57823300  0.83329300  0.70957900  1
  O  O76  1  0.41392100  0.74475000  0.08873800  1
  O  O77  1  0.91392100  0.25525000  0.41126200  1
  O  O78  1  0.58607900  0.25525000  0.91126200  1
  O  O79  1  0.08607900  0.74475000  0.58873800  1
  O  O80  1  0.71233300  0.49796300  0.25112600  1
  O  O81  1  0.21233300  0.50203700  0.24887400  1
  O  O82  1  0.28766700  0.50203700  0.74887400  1
  O  O83  1  0.78766700  0.49796300  0.75112600  1
