# generated using pymatgen
data_La2WO6
_symmetry_space_group_name_H-M   'P 1'
_cell_length_a   5.59681100
_cell_length_b   8.93008100
_cell_length_c   16.78080300
_cell_angle_alpha   90.00000000
_cell_angle_beta   90.00000000
_cell_angle_gamma   90.00000000
_symmetry_Int_Tables_number   1
_chemical_formula_structural   La2WO6
_chemical_formula_sum   'La12 W6 O36'
_cell_volume   838.70412401
_cell_formula_units_Z   6
loop_
 _symmetry_equiv_pos_site_id
 _symmetry_equiv_pos_as_xyz
  1  'x, y, z'
loop_
 _atom_site_type_symbol
 _atom_site_label
 _atom_site_symmetry_multiplicity
 _atom_site_fract_x
 _atom_site_fract_y
 _atom_site_fract_z
 _atom_site_occupancy
  La  La0  1  0.32176400  0.79044300  0.00000000  1
  La  La1  1  0.82176400  0.20955700  0.50000000  1
  La  La2  1  0.41193000  0.49509700  0.16007500  1
  La  La3  1  0.41193000  0.49509700  0.83992500  1
  La  La4  1  0.91193000  0.50490300  0.33992500  1
  La  La5  1  0.91193000  0.50490300  0.66007500  1
  La  La6  1  0.94326800  0.15773100  0.18120000  1
  La  La7  1  0.94326800  0.15773100  0.81880000  1
  La  La8  1  0.44326800  0.84226900  0.31880000  1
  La  La9  1  0.44326800  0.84226900  0.68120000  1
  La  La10  1  0.91151700  0.45879600  0.00000000  1
  La  La11  1  0.41151700  0.54120400  0.50000000  1
  W  W12  1  0.42723300  0.25273300  0.00000000  1
  W  W13  1  0.92723300  0.74726700  0.50000000  1
  W  W14  1  0.39390300  0.23201200  0.33179400  1
  W  W15  1  0.39390300  0.23201200  0.66820600  1
  W  W16  1  0.89390300  0.76798800  0.16820600  1
  W  W17  1  0.89390300  0.76798800  0.83179400  1
  O  O18  1  0.17811100  0.28706300  0.08049800  1
  O  O19  1  0.17811100  0.28706300  0.91950200  1
  O  O20  1  0.67811100  0.71293700  0.41950200  1
  O  O21  1  0.67811100  0.71293700  0.58049800  1
  O  O22  1  0.66593900  0.28751000  0.08425800  1
  O  O23  1  0.66593900  0.28751000  0.91574200  1
  O  O24  1  0.16593900  0.71249000  0.41574200  1
  O  O25  1  0.16593900  0.71249000  0.58425800  1
  O  O26  1  0.64368000  0.29895100  0.25813800  1
  O  O27  1  0.64368000  0.29895100  0.74186200  1
  O  O28  1  0.14368000  0.70104900  0.24186200  1
  O  O29  1  0.14368000  0.70104900  0.75813800  1
  O  O30  1  0.62749300  0.73033700  0.09897000  1
  O  O31  1  0.62749300  0.73033700  0.90103000  1
  O  O32  1  0.12749300  0.26966300  0.40103000  1
  O  O33  1  0.12749300  0.26966300  0.59897000  1
  O  O34  1  0.17839700  0.36197400  0.25508300  1
  O  O35  1  0.17839700  0.36197400  0.74491700  1
  O  O36  1  0.67839700  0.63802600  0.24491700  1
  O  O37  1  0.67839700  0.63802600  0.75508300  1
  O  O38  1  0.55485500  0.08168600  0.39006600  1
  O  O39  1  0.55485500  0.08168600  0.60993400  1
  O  O40  1  0.05485500  0.91831400  0.10993400  1
  O  O41  1  0.05485500  0.91831400  0.89006600  1
  O  O42  1  0.44542400  0.04911300  0.00000000  1
  O  O43  1  0.94542400  0.95088700  0.50000000  1
  O  O44  1  0.44193600  0.49157400  0.00000000  1
  O  O45  1  0.94193600  0.50842600  0.50000000  1
  O  O46  1  0.26375700  0.07059100  0.26964500  1
  O  O47  1  0.26375700  0.07059100  0.73035500  1
  O  O48  1  0.76375700  0.92940900  0.23035500  1
  O  O49  1  0.76375700  0.92940900  0.76964500  1
  O  O50  1  0.57398100  0.37676600  0.40446900  1
  O  O51  1  0.57398100  0.37676600  0.59553100  1
  O  O52  1  0.07398100  0.62323400  0.09553100  1
  O  O53  1  0.07398100  0.62323400  0.90446900  1
