# generated using pymatgen
data_Y3Al2(Ni2H3)3
_symmetry_space_group_name_H-M   'P 1'
_cell_length_a   7.94882629
_cell_length_b   7.94882629
_cell_length_c   7.94882629
_cell_angle_alpha   109.47122063
_cell_angle_beta   109.47122063
_cell_angle_gamma   109.47122063
_symmetry_Int_Tables_number   1
_chemical_formula_structural   Y3Al2(Ni2H3)3
_chemical_formula_sum   'Y6 Al4 Ni12 H18'
_cell_volume   386.62250323
_cell_formula_units_Z   2
loop_
 _symmetry_equiv_pos_site_id
 _symmetry_equiv_pos_as_xyz
  1  'x, y, z'
loop_
 _atom_site_type_symbol
 _atom_site_label
 _atom_site_symmetry_multiplicity
 _atom_site_fract_x
 _atom_site_fract_y
 _atom_site_fract_z
 _atom_site_occupancy
  Y  Y0  1  0.73115600  0.73115600  0.00000000  1
  Y  Y1  1  0.26884400  0.00000000  0.26884400  1
  Y  Y2  1  0.00000000  0.26884400  0.26884400  1
  Y  Y3  1  0.26884400  0.26884400  0.00000000  1
  Y  Y4  1  0.73115600  0.00000000  0.73115600  1
  Y  Y5  1  0.00000000  0.73115600  0.73115600  1
  Al  Al6  1  0.00000000  0.00000000  0.50000000  1
  Al  Al7  1  0.00000000  0.50000000  0.00000000  1
  Al  Al8  1  0.50000000  0.00000000  0.00000000  1
  Al  Al9  1  0.50000000  0.50000000  0.50000000  1
  Ni  Ni10  1  0.33921700  0.33921700  0.67843300  1
  Ni  Ni11  1  0.66078300  0.00000000  0.33921700  1
  Ni  Ni12  1  0.00000000  0.66078300  0.33921700  1
  Ni  Ni13  1  0.66078300  0.33921700  0.00000000  1
  Ni  Ni14  1  0.33921700  0.67843300  0.33921700  1
  Ni  Ni15  1  0.00000000  0.33921700  0.66078300  1
  Ni  Ni16  1  0.33921700  0.66078300  0.00000000  1
  Ni  Ni17  1  0.33921700  0.00000000  0.66078300  1
  Ni  Ni18  1  0.67843300  0.33921700  0.33921700  1
  Ni  Ni19  1  0.66078300  0.66078300  0.32156700  1
  Ni  Ni20  1  0.66078300  0.32156700  0.66078300  1
  Ni  Ni21  1  0.32156700  0.66078300  0.66078300  1
  H  H22  1  0.00000000  0.00000000  0.73477000  1
  H  H23  1  0.00000000  0.73477000  0.00000000  1
  H  H24  1  0.73477000  0.00000000  0.00000000  1
  H  H25  1  0.26523000  0.26523000  0.26523000  1
  H  H26  1  0.00000000  0.00000000  0.26523000  1
  H  H27  1  0.00000000  0.26523000  0.00000000  1
  H  H28  1  0.26523000  0.00000000  0.00000000  1
  H  H29  1  0.73477000  0.73477000  0.73477000  1
  H  H30  1  0.50000000  0.75000000  0.25000000  1
  H  H31  1  0.25000000  0.75000000  0.50000000  1
  H  H32  1  0.25000000  0.50000000  0.75000000  1
  H  H33  1  0.50000000  0.25000000  0.75000000  1
  H  H34  1  0.75000000  0.50000000  0.25000000  1
  H  H35  1  0.75000000  0.25000000  0.50000000  1
  H  H36  1  0.50000000  0.50000000  0.00000000  1
  H  H37  1  0.50000000  0.00000000  0.50000000  1
  H  H38  1  0.00000000  0.50000000  0.50000000  1
  H  H39  1  0.00000000  0.00000000  0.00000000  1
