# generated using pymatgen
data_CsGaH6(CF)2
_symmetry_space_group_name_H-M   'P 1'
_cell_length_a   8.33232002
_cell_length_b   9.89417800
_cell_length_c   11.62568293
_cell_angle_alpha   115.18428143
_cell_angle_beta   110.64947189
_cell_angle_gamma   90.00000000
_symmetry_Int_Tables_number   1
_chemical_formula_structural   CsGaH6(CF)2
_chemical_formula_sum   'Cs4 Ga4 H24 C8 F8'
_cell_volume   798.76583642
_cell_formula_units_Z   4
loop_
 _symmetry_equiv_pos_site_id
 _symmetry_equiv_pos_as_xyz
  1  'x, y, z'
loop_
 _atom_site_type_symbol
 _atom_site_label
 _atom_site_symmetry_multiplicity
 _atom_site_fract_x
 _atom_site_fract_y
 _atom_site_fract_z
 _atom_site_occupancy
  Cs  Cs0  1  0.23672700  0.45246800  0.65634600  1
  Cs  Cs1  1  0.26327300  0.79612200  0.34365400  1
  Cs  Cs2  1  0.76327300  0.54753200  0.34365400  1
  Cs  Cs3  1  0.73672700  0.20387800  0.65634600  1
  Ga  Ga4  1  0.28013000  0.10424400  0.75345500  1
  Ga  Ga5  1  0.21987000  0.35078900  0.24654500  1
  Ga  Ga6  1  0.71987000  0.89575600  0.24654500  1
  Ga  Ga7  1  0.78013000  0.64921100  0.75345500  1
  H  H8  1  0.21971500  0.81626600  0.67031900  1
  H  H9  1  0.28028500  0.14594700  0.32968100  1
  H  H10  1  0.78028500  0.18373400  0.32968100  1
  H  H11  1  0.71971500  0.85405300  0.67031900  1
  H  H12  1  0.06206100  0.90302100  0.73330600  1
  H  H13  1  0.43793900  0.16971500  0.26669400  1
  H  H14  1  0.93793900  0.09697900  0.26669400  1
  H  H15  1  0.56206100  0.83028500  0.73330600  1
  H  H16  1  0.04508300  0.87167200  0.56658700  1
  H  H17  1  0.45491700  0.30508500  0.43341300  1
  H  H18  1  0.95491700  0.12832800  0.43341300  1
  H  H19  1  0.54508300  0.69491500  0.56658700  1
  H  H20  1  0.57004400  0.13093500  0.94579900  1
  H  H21  1  0.92995600  0.18513600  0.05420100  1
  H  H22  1  0.42995600  0.86906500  0.05420100  1
  H  H23  1  0.07004400  0.81486400  0.94579900  1
  H  H24  1  0.54136700  0.31121600  0.94925400  1
  H  H25  1  0.95863300  0.36196200  0.05074600  1
  H  H26  1  0.45863300  0.68878400  0.05074600  1
  H  H27  1  0.04136700  0.63803800  0.94925400  1
  H  H28  1  0.42663600  0.23500500  0.01780600  1
  H  H29  1  0.07336400  0.21719800  0.98219400  1
  H  H30  1  0.57336400  0.76499500  0.98219400  1
  H  H31  1  0.92663600  0.78280200  0.01780600  1
  C  C32  1  0.13667500  0.90254500  0.67211400  1
  C  C33  1  0.36332500  0.23043200  0.32788600  1
  C  C34  1  0.86332500  0.09745500  0.32788600  1
  C  C35  1  0.63667500  0.76956800  0.67211400  1
  C  C36  1  0.47536600  0.20638700  0.93561200  1
  C  C37  1  0.02463400  0.27077500  0.06438800  1
  C  C38  1  0.52463400  0.79361300  0.06438800  1
  C  C39  1  0.97536600  0.72922500  0.93561200  1
  F  F40  1  0.36308400  0.10523900  0.62083400  1
  F  F41  1  0.13691600  0.48440500  0.37916600  1
  F  F42  1  0.63691600  0.89476100  0.37916600  1
  F  F43  1  0.86308400  0.51559500  0.62083400  1
  F  F44  1  0.12192000  0.23994400  0.73928700  1
  F  F45  1  0.37808000  0.50065700  0.26071300  1
  F  F46  1  0.87808000  0.76005600  0.26071300  1
  F  F47  1  0.62192000  0.49934300  0.73928700  1
