# generated using pymatgen
data_Nd4B4O11F2
_symmetry_space_group_name_H-M   'P 1'
_cell_length_a   7.38037315
_cell_length_b   7.38037315
_cell_length_c   14.04956683
_cell_angle_alpha   88.97295660
_cell_angle_beta   88.97295660
_cell_angle_gamma   37.47384500
_symmetry_Int_Tables_number   1
_chemical_formula_structural   Nd4B4O11F2
_chemical_formula_sum   'Nd8 B8 O22 F4'
_cell_volume   465.51149373
_cell_formula_units_Z   2
loop_
 _symmetry_equiv_pos_site_id
 _symmetry_equiv_pos_as_xyz
  1  'x, y, z'
loop_
 _atom_site_type_symbol
 _atom_site_label
 _atom_site_symmetry_multiplicity
 _atom_site_fract_x
 _atom_site_fract_y
 _atom_site_fract_z
 _atom_site_occupancy
  Nd  Nd0  1  0.46548400  0.41785800  0.37059500  1
  Nd  Nd1  1  0.58214200  0.53451600  0.12940500  1
  Nd  Nd2  1  0.53451600  0.58214200  0.62940500  1
  Nd  Nd3  1  0.41785800  0.46548400  0.87059500  1
  Nd  Nd4  1  0.74187300  0.69978500  0.37141800  1
  Nd  Nd5  1  0.30021500  0.25812700  0.12858200  1
  Nd  Nd6  1  0.25812700  0.30021500  0.62858200  1
  Nd  Nd7  1  0.69978500  0.74187300  0.87141800  1
  B  B8  1  0.07293900  0.11227200  0.28514400  1
  B  B9  1  0.88772800  0.92706100  0.21485600  1
  B  B10  1  0.92706100  0.88772800  0.71485600  1
  B  B11  1  0.11227200  0.07293900  0.78514400  1
  B  B12  1  0.85806100  0.95308000  0.52668200  1
  B  B13  1  0.04692000  0.14193900  0.97331800  1
  B  B14  1  0.14193900  0.04692000  0.47331800  1
  B  B15  1  0.95308000  0.85806100  0.02668200  1
  O  O16  1  0.96172000  0.21338400  0.39293100  1
  O  O17  1  0.78661600  0.03828000  0.10706900  1
  O  O18  1  0.03828000  0.78661600  0.60706900  1
  O  O19  1  0.21338400  0.96172000  0.89293100  1
  O  O20  1  0.64679400  0.01062600  0.25737600  1
  O  O21  1  0.98937400  0.35320600  0.24262400  1
  O  O22  1  0.35320600  0.98937400  0.74262400  1
  O  O23  1  0.01062600  0.64679400  0.75737600  1
  O  O24  1  0.58595800  0.25419200  0.53640400  1
  O  O25  1  0.74580800  0.41404200  0.96359600  1
  O  O26  1  0.41404200  0.74580800  0.46359600  1
  O  O27  1  0.25419200  0.58595800  0.03640400  1
  O  O28  1  0.85583700  0.14416300  0.25000000  1
  O  O29  1  0.14416300  0.85583700  0.75000000  1
  O  O30  1  0.94548400  0.82847700  0.43771200  1
  O  O31  1  0.17152300  0.05451600  0.06228800  1
  O  O32  1  0.05451600  0.17152300  0.56228800  1
  O  O33  1  0.82847700  0.94548400  0.93771200  1
  O  O34  1  0.37802300  0.82138100  0.27476400  1
  O  O35  1  0.17861900  0.62197700  0.22523600  1
  O  O36  1  0.62197700  0.17861900  0.72523600  1
  O  O37  1  0.82138100  0.37802300  0.77476400  1
  F  F38  1  0.29256100  0.24655300  0.42437700  1
  F  F39  1  0.75344700  0.70743900  0.07562300  1
  F  F40  1  0.70743900  0.75344700  0.57562300  1
  F  F41  1  0.24655300  0.29256100  0.92437700  1
