# generated using pymatgen
data_CaH8(NO5)2
_symmetry_space_group_name_H-M   'P 1'
_cell_length_a   9.25340100
_cell_length_b   12.76281300
_cell_length_c   16.78967179
_cell_angle_alpha   59.14192903
_cell_angle_beta   90.00000000
_cell_angle_gamma   90.00000000
_symmetry_Int_Tables_number   1
_chemical_formula_structural   CaH8(NO5)2
_chemical_formula_sum   'Ca8 H64 N16 O80'
_cell_volume   1702.15924069
_cell_formula_units_Z   8
loop_
 _symmetry_equiv_pos_site_id
 _symmetry_equiv_pos_as_xyz
  1  'x, y, z'
loop_
 _atom_site_type_symbol
 _atom_site_label
 _atom_site_symmetry_multiplicity
 _atom_site_fract_x
 _atom_site_fract_y
 _atom_site_fract_z
 _atom_site_occupancy
  Ca  Ca0  1  0.91064600  0.55007300  0.86572900  1
  Ca  Ca1  1  0.58935400  0.55007300  0.36572900  1
  Ca  Ca2  1  0.08935400  0.44992700  0.13427100  1
  Ca  Ca3  1  0.41064600  0.44992700  0.63427100  1
  Ca  Ca4  1  0.91145600  0.03999300  0.86662700  1
  Ca  Ca5  1  0.58854400  0.03999300  0.36662700  1
  Ca  Ca6  1  0.08854400  0.96000700  0.13337300  1
  Ca  Ca7  1  0.41145600  0.96000700  0.63337300  1
  H  H8  1  0.99567800  0.80519500  0.81986900  1
  H  H9  1  0.50432200  0.80519500  0.31986900  1
  H  H10  1  0.00432200  0.19480500  0.18013100  1
  H  H11  1  0.49567800  0.19480500  0.68013100  1
  H  H12  1  0.88512100  0.81989200  0.74264900  1
  H  H13  1  0.61487900  0.81989200  0.24264900  1
  H  H14  1  0.11487900  0.18010800  0.25735100  1
  H  H15  1  0.38512100  0.18010800  0.75735100  1
  H  H16  1  0.70575600  0.72475100  0.89159500  1
  H  H17  1  0.79424400  0.72475100  0.39159500  1
  H  H18  1  0.29424400  0.27524900  0.10840500  1
  H  H19  1  0.20575600  0.27524900  0.60840500  1
  H  H20  1  0.62612900  0.59910600  0.92955800  1
  H  H21  1  0.87387100  0.59910600  0.42955800  1
  H  H22  1  0.37387100  0.40089400  0.07044200  1
  H  H23  1  0.12612900  0.40089400  0.57044200  1
  H  H24  1  0.64089600  0.41698400  0.85383100  1
  H  H25  1  0.85910400  0.41698400  0.35383100  1
  H  H26  1  0.35910400  0.58301600  0.14616900  1
  H  H27  1  0.14089600  0.58301600  0.64616900  1
  H  H28  1  0.68835300  0.36122100  0.95686600  1
  H  H29  1  0.81164700  0.36122100  0.45686600  1
  H  H30  1  0.31164700  0.63877900  0.04313400  1
  H  H31  1  0.18835300  0.63877900  0.54313400  1
  H  H32  1  0.00441000  0.32276900  0.87018800  1
  H  H33  1  0.49559000  0.32276900  0.37018800  1
  H  H34  1  0.99559000  0.67723100  0.12981200  1
  H  H35  1  0.50441000  0.67723100  0.62981200  1
  H  H36  1  0.14081600  0.34918600  0.91247800  1
  H  H37  1  0.35918400  0.34918600  0.41247800  1
  H  H38  1  0.85918400  0.65081400  0.08752200  1
  H  H39  1  0.64081600  0.65081400  0.58752200  1
  H  H40  1  0.04760700  0.28983000  0.74606500  1
  H  H41  1  0.45239300  0.28983000  0.24606500  1
  H  H42  1  0.95239300  0.71017000  0.25393500  1
  H  H43  1  0.54760700  0.71017000  0.75393500  1
  H  H44  1  0.88133200  0.31295200  0.74837100  1
  H  H45  1  0.61866800  0.31295200  0.24837100  1
  H  H46  1  0.11866800  0.68704800  0.25162900  1
  H  H47  1  0.38133200  0.68704800  0.75162900  1
  H  H48  1  0.62582100  0.17841800  0.81824800  1
  H  H49  1  0.87417900  0.17841800  0.31824800  1
  H  H50  1  0.37417900  0.82158200  0.18175200  1
  H  H51  1  0.12582100  0.82158200  0.68175200  1
  H  H52  1  0.62446700  0.09329900  0.92561600  1
  H  H53  1  0.87553300  0.09329900  0.42561600  1
  H  H54  1  0.37553300  0.90670100  0.07438400  1
  H  H55  1  0.12446700  0.90670100  0.57438400  1
  H  H56  1  0.64346700  0.91020900  0.85534800  1
  H  H57  1  0.85653300  0.91020900  0.35534800  1
  H  H58  1  0.35653300  0.08979100  0.14465200  1
  H  H59  1  0.14346700  0.08979100  0.64465200  1
  H  H60  1  0.68732500  0.85450500  0.95898200  1
  H  H61  1  0.81267500  0.85450500  0.45898200  1
  H  H62  1  0.31267500  0.14549500  0.04101800  1
  H  H63  1  0.18732500  0.14549500  0.54101800  1
  H  H64  1  0.01443700  0.77579600  0.97554200  1
  H  H65  1  0.48556300  0.77579600  0.47554200  1
  H  H66  1  0.98556300  0.22420400  0.02445800  1
  H  H67  1  0.51443700  0.22420400  0.52445800  1
  H  H68  1  0.14660400  0.84808600  0.91091700  1
  H  H69  1  0.35339600  0.84808600  0.41091700  1
  H  H70  1  0.85339600  0.15191400  0.08908300  1
  H  H71  1  0.64660400  0.15191400  0.58908300  1
  N  N72  1  0.86767000  0.61835100  0.67053700  1
  N  N73  1  0.63233000  0.61835100  0.17053700  1
  N  N74  1  0.13233000  0.38164900  0.32946300  1
  N  N75  1  0.36767000  0.38164900  0.82946300  1
  N  N76  1  0.23790100  0.58380300  0.90581900  1
  N  N77  1  0.26209900  0.58380300  0.40581900  1
  N  N78  1  0.76209900  0.41619700  0.09418100  1
  N  N79  1  0.73790100  0.41619700  0.59418100  1
  N  N80  1  0.87885100  0.11326700  0.66945700  1
  N  N81  1  0.62114900  0.11326700  0.16945700  1
  N  N82  1  0.12114900  0.88673300  0.33054300  1
  N  N83  1  0.37885100  0.88673300  0.83054300  1
  N  N84  1  0.23588200  0.08229400  0.91001500  1
  N  N85  1  0.26411800  0.08229400  0.41001500  1
  N  N86  1  0.76411800  0.91770600  0.08998500  1
  N  N87  1  0.73588200  0.91770600  0.58998500  1
  O  O88  1  0.98695900  0.57029800  0.71192300  1
  O  O89  1  0.51304100  0.57029800  0.21192300  1
  O  O90  1  0.01304100  0.42970200  0.28807700  1
  O  O91  1  0.48695900  0.42970200  0.78807700  1
  O  O92  1  0.77193300  0.63632700  0.71635800  1
  O  O93  1  0.72806700  0.63632700  0.21635800  1
  O  O94  1  0.22806700  0.36367300  0.28364200  1
  O  O95  1  0.27193300  0.36367300  0.78364200  1
  O  O96  1  0.84552500  0.64588700  0.58838200  1
  O  O97  1  0.65447500  0.64588700  0.08838200  1
  O  O98  1  0.15447500  0.35411300  0.41161800  1
  O  O99  1  0.34552500  0.35411300  0.91161800  1
  O  O100  1  0.12288900  0.55295800  0.95696300  1
  O  O101  1  0.37711100  0.55295800  0.45696300  1
  O  O102  1  0.87711100  0.44704200  0.04303700  1
  O  O103  1  0.62288900  0.44704200  0.54303700  1
  O  O104  1  0.22393200  0.60572800  0.82392300  1
  O  O105  1  0.27606800  0.60572800  0.32392300  1
  O  O106  1  0.77606800  0.39427200  0.17607700  1
  O  O107  1  0.72393200  0.39427200  0.67607700  1
  O  O108  1  0.35688400  0.59076900  0.93803300  1
  O  O109  1  0.14311600  0.59076900  0.43803300  1
  O  O110  1  0.64311600  0.40923100  0.06196700  1
  O  O111  1  0.85688400  0.40923100  0.56196700  1
  O  O112  1  0.72586500  0.40501000  0.89355100  1
  O  O113  1  0.77413500  0.40501000  0.39355100  1
  O  O114  1  0.27413500  0.59499000  0.10644900  1
  O  O115  1  0.22586500  0.59499000  0.60644900  1
  O  O116  1  0.69359800  0.65521700  0.88188600  1
  O  O117  1  0.80640200  0.65521700  0.38188600  1
  O  O118  1  0.30640200  0.34478300  0.11811400  1
  O  O119  1  0.19359800  0.34478300  0.61811400  1
  O  O120  1  0.03383900  0.34798300  0.91482800  1
  O  O121  1  0.46616100  0.34798300  0.41482800  1
  O  O122  1  0.96616100  0.65201700  0.08517200  1
  O  O123  1  0.53383900  0.65201700  0.58517200  1
  O  O124  1  0.96732900  0.77036200  0.78132800  1
  O  O125  1  0.53267100  0.77036200  0.28132800  1
  O  O126  1  0.03267100  0.22963800  0.21867200  1
  O  O127  1  0.46732900  0.22963800  0.71867200  1
  O  O128  1  0.99660100  0.06368900  0.71365500  1
  O  O129  1  0.50339900  0.06368900  0.21365500  1
  O  O130  1  0.00339900  0.93631100  0.28634500  1
  O  O131  1  0.49660100  0.93631100  0.78634500  1
  O  O132  1  0.77734100  0.12420300  0.71541200  1
  O  O133  1  0.72265900  0.12420300  0.21541200  1
  O  O134  1  0.22265900  0.87579700  0.28458800  1
  O  O135  1  0.27734100  0.87579700  0.78458800  1
  O  O136  1  0.86500400  0.14824400  0.58539200  1
  O  O137  1  0.63499600  0.14824400  0.08539200  1
  O  O138  1  0.13499600  0.85175600  0.41460800  1
  O  O139  1  0.36500400  0.85175600  0.91460800  1
  O  O140  1  0.12093000  0.05287700  0.96057300  1
  O  O141  1  0.37907000  0.05287700  0.46057300  1
  O  O142  1  0.87907000  0.94712300  0.03942700  1
  O  O143  1  0.62093000  0.94712300  0.53942700  1
  O  O144  1  0.22261000  0.10051900  0.82900800  1
  O  O145  1  0.27739000  0.10051900  0.32900800  1
  O  O146  1  0.77739000  0.89948100  0.17099200  1
  O  O147  1  0.72261000  0.89948100  0.67099200  1
  O  O148  1  0.35445700  0.09202700  0.94147500  1
  O  O149  1  0.14554300  0.09202700  0.44147500  1
  O  O150  1  0.64554300  0.90797300  0.05852500  1
  O  O151  1  0.85445700  0.90797300  0.55852500  1
  O  O152  1  0.72773500  0.87563400  0.89842100  1
  O  O153  1  0.77226500  0.87563400  0.39842100  1
  O  O154  1  0.27226500  0.12436600  0.10157900  1
  O  O155  1  0.22773500  0.12436600  0.60157900  1
  O  O156  1  0.68937300  0.13839100  0.87303400  1
  O  O157  1  0.81062700  0.13839100  0.37303400  1
  O  O158  1  0.31062700  0.86160900  0.12696600  1
  O  O159  1  0.18937300  0.86160900  0.62696600  1
  O  O160  1  0.04032500  0.84683500  0.91336000  1
  O  O161  1  0.45967500  0.84683500  0.41336000  1
  O  O162  1  0.95967500  0.15316500  0.08664000  1
  O  O163  1  0.54032500  0.15316500  0.58664000  1
  O  O164  1  0.96396200  0.26430100  0.78787000  1
  O  O165  1  0.53603800  0.26430100  0.28787000  1
  O  O166  1  0.03603800  0.73569900  0.21213000  1
  O  O167  1  0.46396200  0.73569900  0.71213000  1
