# generated using pymatgen
data_H6C2S(BrN)2
_symmetry_space_group_name_H-M   'P 1'
_cell_length_a   7.91784000
_cell_length_b   7.91784000
_cell_length_c   13.32923600
_cell_angle_alpha   90.00000000
_cell_angle_beta   90.00000000
_cell_angle_gamma   90.00000000
_symmetry_Int_Tables_number   1
_chemical_formula_structural   H6C2S(BrN)2
_chemical_formula_sum   'H24 C8 S4 Br8 N8'
_cell_volume   835.63899941
_cell_formula_units_Z   4
loop_
 _symmetry_equiv_pos_site_id
 _symmetry_equiv_pos_as_xyz
  1  'x, y, z'
loop_
 _atom_site_type_symbol
 _atom_site_label
 _atom_site_symmetry_multiplicity
 _atom_site_fract_x
 _atom_site_fract_y
 _atom_site_fract_z
 _atom_site_occupancy
  H  H0  1  0.18860400  0.85046900  0.62826400  1
  H  H1  1  0.81139600  0.14953100  0.12826400  1
  H  H2  1  0.35046900  0.31139600  0.37826400  1
  H  H3  1  0.64953100  0.68860400  0.87826400  1
  H  H4  1  0.14953100  0.81139600  0.87173600  1
  H  H5  1  0.85046900  0.18860400  0.37173600  1
  H  H6  1  0.31139600  0.35046900  0.62173600  1
  H  H7  1  0.68860400  0.64953100  0.12173600  1
  H  H8  1  0.96758100  0.84657900  0.59513000  1
  H  H9  1  0.03241900  0.15342100  0.09513000  1
  H  H10  1  0.34657900  0.53241900  0.34513000  1
  H  H11  1  0.65342100  0.46758100  0.84513000  1
  H  H12  1  0.15342100  0.03241900  0.90487000  1
  H  H13  1  0.84657900  0.96758100  0.40487000  1
  H  H14  1  0.53241900  0.34657900  0.65487000  1
  H  H15  1  0.46758100  0.65342100  0.15487000  1
  H  H16  1  0.04793800  0.69965400  0.68634900  1
  H  H17  1  0.95206200  0.30034600  0.18634900  1
  H  H18  1  0.19965400  0.45206200  0.43634900  1
  H  H19  1  0.80034600  0.54793800  0.93634900  1
  H  H20  1  0.30034600  0.95206200  0.81365100  1
  H  H21  1  0.69965400  0.04793800  0.31365100  1
  H  H22  1  0.45206200  0.19965400  0.56365100  1
  H  H23  1  0.54793800  0.80034600  0.06365100  1
  C  C24  1  0.06021200  0.82664800  0.65493800  1
  C  C25  1  0.93978800  0.17335200  0.15493800  1
  C  C26  1  0.32664800  0.43978800  0.40493800  1
  C  C27  1  0.67335200  0.56021200  0.90493800  1
  C  C28  1  0.17335200  0.93978800  0.84506200  1
  C  C29  1  0.82664800  0.06021200  0.34506200  1
  C  C30  1  0.43978800  0.32664800  0.59506200  1
  C  C31  1  0.56021200  0.67335200  0.09506200  1
  S  S32  1  0.01763600  0.98236400  0.75000000  1
  S  S33  1  0.98236400  0.01763600  0.25000000  1
  S  S34  1  0.48236400  0.48236400  0.50000000  1
  S  S35  1  0.51763600  0.51763600  0.00000000  1
  Br  Br36  1  0.92462100  0.26545000  0.62560100  1
  Br  Br37  1  0.07537900  0.73455000  0.12560100  1
  Br  Br38  1  0.76545000  0.57537900  0.37560100  1
  Br  Br39  1  0.23455000  0.42462100  0.87560100  1
  Br  Br40  1  0.73455000  0.07537900  0.87439900  1
  Br  Br41  1  0.26545000  0.92462100  0.37439900  1
  Br  Br42  1  0.57537900  0.76545000  0.62439900  1
  Br  Br43  1  0.42462100  0.23455000  0.12439900  1
  N  N44  1  0.07351700  0.16851900  0.72412400  1
  N  N45  1  0.92648300  0.83148100  0.22412400  1
  N  N46  1  0.66851900  0.42648300  0.47412400  1
  N  N47  1  0.33148100  0.57351700  0.97412400  1
  N  N48  1  0.83148100  0.92648300  0.77587600  1
  N  N49  1  0.16851900  0.07351700  0.27587600  1
  N  N50  1  0.42648300  0.66851900  0.52587600  1
  N  N51  1  0.57351700  0.33148100  0.02587600  1
