# generated using pymatgen
data_Al2Fe(PO9)2
_symmetry_space_group_name_H-M   'P 1'
_cell_length_a   9.88169700
_cell_length_b   6.98030000
_cell_length_c   9.91270750
_cell_angle_alpha   82.01601738
_cell_angle_beta   90.00000000
_cell_angle_gamma   90.00000000
_symmetry_Int_Tables_number   1
_chemical_formula_structural   Al2Fe(PO9)2
_chemical_formula_sum   'Al4 Fe2 P4 O36'
_cell_volume   677.12326193
_cell_formula_units_Z   2
loop_
 _symmetry_equiv_pos_site_id
 _symmetry_equiv_pos_as_xyz
  1  'x, y, z'
loop_
 _atom_site_type_symbol
 _atom_site_label
 _atom_site_symmetry_multiplicity
 _atom_site_fract_x
 _atom_site_fract_y
 _atom_site_fract_z
 _atom_site_occupancy
  Al  Al0  1  0.26411400  0.86012800  0.51448100  1
  Al  Al1  1  0.76411400  0.63987200  0.48551900  1
  Al  Al2  1  0.73588600  0.13987200  0.48551900  1
  Al  Al3  1  0.23588600  0.36012800  0.51448100  1
  Fe  Fe4  1  0.00000000  0.00000000  0.00000000  1
  Fe  Fe5  1  0.50000000  0.50000000  0.00000000  1
  P  P6  1  0.54059200  0.92605200  0.31956900  1
  P  P7  1  0.04059200  0.57394800  0.68043100  1
  P  P8  1  0.45940800  0.07394800  0.68043100  1
  P  P9  1  0.95940800  0.42605200  0.31956900  1
  O  O10  1  0.39944300  0.94666200  0.38318300  1
  O  O11  1  0.89944300  0.55333800  0.61681700  1
  O  O12  1  0.60055700  0.05333800  0.61681700  1
  O  O13  1  0.10055700  0.44666200  0.38318300  1
  O  O14  1  0.61126400  0.73525400  0.38177200  1
  O  O15  1  0.11126400  0.76474600  0.61822800  1
  O  O16  1  0.38873600  0.26474600  0.61822800  1
  O  O17  1  0.88873600  0.23525400  0.38177200  1
  O  O18  1  0.62491300  0.10336700  0.34293400  1
  O  O19  1  0.12491300  0.39663300  0.65706600  1
  O  O20  1  0.37508700  0.89663300  0.65706600  1
  O  O21  1  0.87508700  0.60336700  0.34293400  1
  O  O22  1  0.51293000  0.91752600  0.16809300  1
  O  O23  1  0.01293000  0.58247400  0.83190700  1
  O  O24  1  0.48707000  0.08247400  0.83190700  1
  O  O25  1  0.98707000  0.41752600  0.16809300  1
  O  O26  1  0.30289600  0.60824600  0.49204900  1
  O  O27  1  0.80289600  0.89175400  0.50795100  1
  O  O28  1  0.69710400  0.39175400  0.50795100  1
  O  O29  1  0.19710400  0.10824600  0.49204900  1
  O  O30  1  0.14700000  0.81686700  0.36538900  1
  O  O31  1  0.64700000  0.68313300  0.63461100  1
  O  O32  1  0.85300000  0.18313300  0.63461100  1
  O  O33  1  0.35300000  0.31686700  0.36538900  1
  O  O34  1  0.11526100  0.79514800  0.03184100  1
  O  O35  1  0.61526100  0.70485200  0.96815900  1
  O  O36  1  0.88473900  0.20485200  0.96815900  1
  O  O37  1  0.38473900  0.29514800  0.03184100  1
  O  O38  1  0.37577300  0.58288100  0.11220800  1
  O  O39  1  0.87577300  0.91711900  0.88779200  1
  O  O40  1  0.62422700  0.41711900  0.88779200  1
  O  O41  1  0.12422700  0.08288100  0.11220800  1
  O  O42  1  0.37546300  0.53564400  0.86624500  1
  O  O43  1  0.87546300  0.96435600  0.13375500  1
  O  O44  1  0.62453700  0.46435600  0.13375500  1
  O  O45  1  0.12453700  0.03564400  0.86624500  1
