# generated using pymatgen
data_RbH12AuC4(SO3)4
_symmetry_space_group_name_H-M   'P 1'
_cell_length_a   9.79266800
_cell_length_b   9.79266800
_cell_length_c   9.49648900
_cell_angle_alpha   90.00000000
_cell_angle_beta   90.00000000
_cell_angle_gamma   90.00000000
_symmetry_Int_Tables_number   1
_chemical_formula_structural   RbH12AuC4(SO3)4
_chemical_formula_sum   'Rb2 H24 Au2 C8 S8 O24'
_cell_volume   910.67860023
_cell_formula_units_Z   2
loop_
 _symmetry_equiv_pos_site_id
 _symmetry_equiv_pos_as_xyz
  1  'x, y, z'
loop_
 _atom_site_type_symbol
 _atom_site_label
 _atom_site_symmetry_multiplicity
 _atom_site_fract_x
 _atom_site_fract_y
 _atom_site_fract_z
 _atom_site_occupancy
  Rb  Rb0  1  0.00000000  0.00000000  0.50000000  1
  Rb  Rb1  1  0.50000000  0.50000000  0.00000000  1
  H  H2  1  0.58186300  0.15124700  0.76674300  1
  H  H3  1  0.08186300  0.34875300  0.73325700  1
  H  H4  1  0.41813700  0.84875300  0.76674300  1
  H  H5  1  0.91813700  0.65124700  0.73325700  1
  H  H6  1  0.84875300  0.58186300  0.23325700  1
  H  H7  1  0.65124700  0.08186300  0.26674300  1
  H  H8  1  0.15124700  0.41813700  0.23325700  1
  H  H9  1  0.34875300  0.91813700  0.26674300  1
  H  H10  1  0.57875300  0.13460600  0.95474800  1
  H  H11  1  0.07875300  0.36539400  0.54525200  1
  H  H12  1  0.42124700  0.86539400  0.95474800  1
  H  H13  1  0.92124700  0.63460600  0.54525200  1
  H  H14  1  0.86539400  0.57875300  0.04525200  1
  H  H15  1  0.63460600  0.07875300  0.45474800  1
  H  H16  1  0.13460600  0.42124700  0.04525200  1
  H  H17  1  0.36539400  0.92124700  0.45474800  1
  H  H18  1  0.65979200  0.00403200  0.84902900  1
  H  H19  1  0.15979200  0.49596800  0.65097100  1
  H  H20  1  0.34020800  0.99596800  0.84902900  1
  H  H21  1  0.84020800  0.50403200  0.65097100  1
  H  H22  1  0.99596800  0.65979200  0.15097100  1
  H  H23  1  0.50403200  0.15979200  0.34902900  1
  H  H24  1  0.00403200  0.34020800  0.15097100  1
  H  H25  1  0.49596800  0.84020800  0.34902900  1
  Au  Au26  1  0.00000000  0.00000000  0.00000000  1
  Au  Au27  1  0.50000000  0.50000000  0.50000000  1
  C  C28  1  0.63732700  0.11315400  0.85894900  1
  C  C29  1  0.13732700  0.38684600  0.64105100  1
  C  C30  1  0.36267300  0.88684600  0.85894900  1
  C  C31  1  0.86267300  0.61315400  0.64105100  1
  C  C32  1  0.88684600  0.63732700  0.14105100  1
  C  C33  1  0.61315400  0.13732700  0.35894900  1
  C  C34  1  0.11315400  0.36267300  0.14105100  1
  C  C35  1  0.38684600  0.86267300  0.35894900  1
  S  S36  1  0.79362500  0.20453400  0.86729400  1
  S  S37  1  0.29362500  0.29546600  0.63270600  1
  S  S38  1  0.20637500  0.79546600  0.86729400  1
  S  S39  1  0.70637500  0.70453400  0.63270600  1
  S  S40  1  0.79546600  0.79362500  0.13270600  1
  S  S41  1  0.70453400  0.29362500  0.36729400  1
  S  S42  1  0.20453400  0.20637500  0.13270600  1
  S  S43  1  0.29546600  0.70637500  0.36729400  1
  O  O44  1  0.86171300  0.15662800  0.00806800  1
  O  O45  1  0.36171300  0.34337200  0.49193200  1
  O  O46  1  0.13828700  0.84337200  0.00806800  1
  O  O47  1  0.63828700  0.65662800  0.49193200  1
  O  O48  1  0.84337200  0.86171300  0.99193200  1
  O  O49  1  0.65662800  0.36171300  0.50806800  1
  O  O50  1  0.15662800  0.13828700  0.99193200  1
  O  O51  1  0.34337200  0.63828700  0.50806800  1
  O  O52  1  0.87802300  0.16636300  0.74809200  1
  O  O53  1  0.37802300  0.33363700  0.75190800  1
  O  O54  1  0.12197700  0.83363700  0.74809200  1
  O  O55  1  0.62197700  0.66636300  0.75190800  1
  O  O56  1  0.83363700  0.87802300  0.25190800  1
  O  O57  1  0.66636300  0.37802300  0.24809200  1
  O  O58  1  0.16636300  0.12197700  0.25190800  1
  O  O59  1  0.33363700  0.62197700  0.24809200  1
  O  O60  1  0.76220300  0.34837100  0.88656100  1
  O  O61  1  0.26220300  0.15162900  0.61343900  1
  O  O62  1  0.23779700  0.65162900  0.88656100  1
  O  O63  1  0.73779700  0.84837100  0.61343900  1
  O  O64  1  0.65162900  0.76220300  0.11343900  1
  O  O65  1  0.84837100  0.26220300  0.38656100  1
  O  O66  1  0.34837100  0.23779700  0.11343900  1
  O  O67  1  0.15162900  0.73779700  0.38656100  1
