# generated using pymatgen
data_MgWO6
_symmetry_space_group_name_H-M   'P 1'
_cell_length_a   10.46152900
_cell_length_b   5.74909900
_cell_length_c   8.61119327
_cell_angle_alpha   87.38571621
_cell_angle_beta   90.00000000
_cell_angle_gamma   90.00000000
_symmetry_Int_Tables_number   1
_chemical_formula_structural   MgWO6
_chemical_formula_sum   'Mg4 W4 O24'
_cell_volume   517.37572893
_cell_formula_units_Z   4
loop_
 _symmetry_equiv_pos_site_id
 _symmetry_equiv_pos_as_xyz
  1  'x, y, z'
loop_
 _atom_site_type_symbol
 _atom_site_label
 _atom_site_symmetry_multiplicity
 _atom_site_fract_x
 _atom_site_fract_y
 _atom_site_fract_z
 _atom_site_occupancy
  Mg  Mg0  1  0.50011600  0.46625300  0.18230300  1
  Mg  Mg1  1  0.00011600  0.53374700  0.31769700  1
  Mg  Mg2  1  0.49988400  0.53374700  0.81769700  1
  Mg  Mg3  1  0.99988400  0.46625300  0.68230300  1
  W  W4  1  0.21401700  0.69690800  0.99141800  1
  W  W5  1  0.71401700  0.30309200  0.50858200  1
  W  W6  1  0.78598300  0.30309200  0.00858200  1
  W  W7  1  0.28598300  0.69690800  0.49141800  1
  O  O8  1  0.35766900  0.65609400  0.68309300  1
  O  O9  1  0.85766900  0.34390600  0.81690700  1
  O  O10  1  0.64233100  0.34390600  0.31690700  1
  O  O11  1  0.14233100  0.65609400  0.18309300  1
  O  O12  1  0.38942600  0.56295700  0.35238800  1
  O  O13  1  0.88942600  0.43704300  0.14761200  1
  O  O14  1  0.61057400  0.43704300  0.64761200  1
  O  O15  1  0.11057400  0.56295700  0.85238800  1
  O  O16  1  0.72095000  0.00030600  0.55191200  1
  O  O17  1  0.22095000  0.99969400  0.94808800  1
  O  O18  1  0.27905000  0.99969400  0.44808800  1
  O  O19  1  0.77905000  0.00030600  0.05191200  1
  O  O20  1  0.38067400  0.57345000  0.00522300  1
  O  O21  1  0.88067400  0.42655000  0.49477700  1
  O  O22  1  0.61932600  0.42655000  0.99477700  1
  O  O23  1  0.11932600  0.57345000  0.50522300  1
  O  O24  1  0.95298500  0.94550700  0.31573100  1
  O  O25  1  0.45298500  0.05449300  0.18426900  1
  O  O26  1  0.04701500  0.05449300  0.68426900  1
  O  O27  1  0.54701500  0.94550700  0.81573100  1
  O  O28  1  0.53772600  0.90496800  0.19602600  1
  O  O29  1  0.03772600  0.09503200  0.30397400  1
  O  O30  1  0.46227400  0.09503200  0.80397400  1
  O  O31  1  0.96227400  0.90496800  0.69602600  1
