# generated using pymatgen
data_Rb2InCl5O
_symmetry_space_group_name_H-M   'P 1'
_cell_length_a   7.83016700
_cell_length_b   10.74705700
_cell_length_c   13.48070300
_cell_angle_alpha   90.00000000
_cell_angle_beta   90.00000000
_cell_angle_gamma   90.00000000
_symmetry_Int_Tables_number   1
_chemical_formula_structural   Rb2InCl5O
_chemical_formula_sum   'Rb8 In4 Cl20 O4'
_cell_volume   1134.41802273
_cell_formula_units_Z   4
loop_
 _symmetry_equiv_pos_site_id
 _symmetry_equiv_pos_as_xyz
  1  'x, y, z'
loop_
 _atom_site_type_symbol
 _atom_site_label
 _atom_site_symmetry_multiplicity
 _atom_site_fract_x
 _atom_site_fract_y
 _atom_site_fract_z
 _atom_site_occupancy
  Rb  Rb0  1  0.16226800  0.48753300  0.35988000  1
  Rb  Rb1  1  0.33773200  0.01246700  0.85988000  1
  Rb  Rb2  1  0.83773200  0.98753300  0.64012000  1
  Rb  Rb3  1  0.66226800  0.51246700  0.14012000  1
  Rb  Rb4  1  0.83773200  0.51246700  0.64012000  1
  Rb  Rb5  1  0.66226800  0.98753300  0.14012000  1
  Rb  Rb6  1  0.16226800  0.01246700  0.35988000  1
  Rb  Rb7  1  0.33773200  0.48753300  0.85988000  1
  In  In8  1  0.22975400  0.75000000  0.11013700  1
  In  In9  1  0.27024600  0.75000000  0.61013700  1
  In  In10  1  0.77024600  0.25000000  0.88986300  1
  In  In11  1  0.72975400  0.25000000  0.38986300  1
  Cl  Cl12  1  0.90869100  0.75000000  0.20553200  1
  Cl  Cl13  1  0.59130900  0.75000000  0.70553200  1
  Cl  Cl14  1  0.09130900  0.25000000  0.79446800  1
  Cl  Cl15  1  0.40869100  0.25000000  0.29446800  1
  Cl  Cl16  1  0.38398000  0.75000000  0.26886700  1
  Cl  Cl17  1  0.11602000  0.75000000  0.76886700  1
  Cl  Cl18  1  0.61602000  0.25000000  0.73113300  1
  Cl  Cl19  1  0.88398000  0.25000000  0.23113300  1
  Cl  Cl20  1  0.47176100  0.75000000  0.99062000  1
  Cl  Cl21  1  0.02823900  0.75000000  0.49062000  1
  Cl  Cl22  1  0.52823900  0.25000000  0.00938000  1
  Cl  Cl23  1  0.97176100  0.25000000  0.50938000  1
  Cl  Cl24  1  0.20035000  0.51785000  0.10083000  1
  Cl  Cl25  1  0.29965000  0.98215000  0.60083000  1
  Cl  Cl26  1  0.79965000  0.01785000  0.89917000  1
  Cl  Cl27  1  0.70035000  0.48215000  0.39917000  1
  Cl  Cl28  1  0.79965000  0.48215000  0.89917000  1
  Cl  Cl29  1  0.70035000  0.01785000  0.39917000  1
  Cl  Cl30  1  0.20035000  0.98215000  0.10083000  1
  Cl  Cl31  1  0.29965000  0.51785000  0.60083000  1
  O  O32  1  0.98386300  0.75000000  0.03377900  1
  O  O33  1  0.51613700  0.75000000  0.53377900  1
  O  O34  1  0.01613700  0.25000000  0.96622100  1
  O  O35  1  0.48386300  0.25000000  0.46622100  1
