# generated using pymatgen
data_Rb3(MoO3)10
_symmetry_space_group_name_H-M   'P 1'
_cell_length_a   7.70470600
_cell_length_b   10.30102973
_cell_length_c   10.35762339
_cell_angle_alpha   117.23155600
_cell_angle_beta   90.00000000
_cell_angle_gamma   111.96112811
_symmetry_Int_Tables_number   1
_chemical_formula_structural   Rb3(MoO3)10
_chemical_formula_sum   'Rb3 Mo10 O30'
_cell_volume   663.14021426
_cell_formula_units_Z   1
loop_
 _symmetry_equiv_pos_site_id
 _symmetry_equiv_pos_as_xyz
  1  'x, y, z'
loop_
 _atom_site_type_symbol
 _atom_site_label
 _atom_site_symmetry_multiplicity
 _atom_site_fract_x
 _atom_site_fract_y
 _atom_site_fract_z
 _atom_site_occupancy
  Rb  Rb0  1  0.50000000  0.00000000  0.50000000  1
  Rb  Rb1  1  0.81637800  0.63275600  0.28219300  1
  Rb  Rb2  1  0.18362200  0.36724400  0.71780700  1
  Mo  Mo3  1  0.22303600  0.44607200  0.17239500  1
  Mo  Mo4  1  0.77696400  0.55392800  0.82760500  1
  Mo  Mo5  1  0.82163900  0.15571200  0.95958000  1
  Mo  Mo6  1  0.33407300  0.15571200  0.95958000  1
  Mo  Mo7  1  0.17836100  0.84428800  0.04042000  1
  Mo  Mo8  1  0.66592700  0.84428800  0.04042000  1
  Mo  Mo9  1  0.61076500  0.72069500  0.65698300  1
  Mo  Mo10  1  0.10993000  0.72069500  0.65698300  1
  Mo  Mo11  1  0.38923500  0.27930500  0.34301700  1
  Mo  Mo12  1  0.89007000  0.27930500  0.34301700  1
  O  O13  1  0.50000000  0.50000000  0.50000000  1
  O  O14  1  0.00000000  0.50000000  0.50000000  1
  O  O15  1  0.24802100  0.49604100  0.03201300  1
  O  O16  1  0.75197900  0.50395900  0.96798700  1
  O  O17  1  0.31498300  0.62996700  0.33512600  1
  O  O18  1  0.68501700  0.37003300  0.66487400  1
  O  O19  1  0.57816500  0.15633100  0.98987100  1
  O  O20  1  0.42183500  0.84366900  0.01012900  1
  O  O21  1  0.08824700  0.17649300  0.99188200  1
  O  O22  1  0.91175300  0.82350700  0.00811800  1
  O  O23  1  0.84444900  0.68889700  0.68856600  1
  O  O24  1  0.15555100  0.31110300  0.31143400  1
  O  O25  1  0.35765500  0.71531000  0.67136700  1
  O  O26  1  0.64234500  0.28469000  0.32863300  1
  O  O27  1  0.83866200  0.19664800  0.81476100  1
  O  O28  1  0.35798500  0.19664800  0.81476100  1
  O  O29  1  0.16133800  0.80335200  0.18523900  1
  O  O30  1  0.64201500  0.80335200  0.18523900  1
  O  O31  1  0.94209400  0.36775900  0.16148900  1
  O  O32  1  0.42566600  0.36775900  0.16148900  1
  O  O33  1  0.05790600  0.63224100  0.83851100  1
  O  O34  1  0.57433400  0.63224100  0.83851100  1
  O  O35  1  0.68925100  0.81856300  0.55643900  1
  O  O36  1  0.12931200  0.81856300  0.55643900  1
  O  O37  1  0.31074900  0.18143700  0.44356100  1
  O  O38  1  0.87068800  0.18143700  0.44356100  1
  O  O39  1  0.71497600  0.92014700  0.85467300  1
  O  O40  1  0.20517100  0.92014700  0.85467300  1
  O  O41  1  0.28502400  0.07985300  0.14532700  1
  O  O42  1  0.79482900  0.07985300  0.14532700  1
