# generated using pymatgen
data_Ca2VP3O11
_symmetry_space_group_name_H-M   'P 1'
_cell_length_a   6.74557100
_cell_length_b   6.48841000
_cell_length_c   19.37163646
_cell_angle_alpha   80.76079252
_cell_angle_beta   90.00000000
_cell_angle_gamma   90.00000000
_symmetry_Int_Tables_number   1
_chemical_formula_structural   Ca2VP3O11
_chemical_formula_sum   'Ca8 V4 P12 O44'
_cell_volume   836.85878949
_cell_formula_units_Z   4
loop_
 _symmetry_equiv_pos_site_id
 _symmetry_equiv_pos_as_xyz
  1  'x, y, z'
loop_
 _atom_site_type_symbol
 _atom_site_label
 _atom_site_symmetry_multiplicity
 _atom_site_fract_x
 _atom_site_fract_y
 _atom_site_fract_z
 _atom_site_occupancy
  Ca  Ca0  1  0.14477900  0.33112100  0.57773300  1
  Ca  Ca1  1  0.64477900  0.66887900  0.92226700  1
  Ca  Ca2  1  0.85522100  0.66887900  0.42226700  1
  Ca  Ca3  1  0.35522100  0.33112100  0.07773300  1
  Ca  Ca4  1  0.48943500  0.32971000  0.77226800  1
  Ca  Ca5  1  0.98943500  0.67029000  0.72773200  1
  Ca  Ca6  1  0.51056500  0.67029000  0.22773200  1
  Ca  Ca7  1  0.01056500  0.32971000  0.27226800  1
  V  V8  1  0.64453400  0.05307400  0.62208700  1
  V  V9  1  0.14453400  0.94692600  0.87791300  1
  V  V10  1  0.35546600  0.94692600  0.37791300  1
  V  V11  1  0.85546600  0.05307400  0.12208700  1
  P  P12  1  0.65439400  0.57183000  0.58804200  1
  P  P13  1  0.15439400  0.42817000  0.91195800  1
  P  P14  1  0.34560600  0.42817000  0.41195800  1
  P  P15  1  0.84560600  0.57183000  0.08804200  1
  P  P16  1  0.29523400  0.82809200  0.54854600  1
  P  P17  1  0.79523400  0.17190800  0.95145400  1
  P  P18  1  0.70476600  0.17190800  0.45145400  1
  P  P19  1  0.20476600  0.82809200  0.04854600  1
  P  P20  1  0.48859400  0.81539300  0.77356400  1
  P  P21  1  0.98859400  0.18460700  0.72643600  1
  P  P22  1  0.51140600  0.18460700  0.22643600  1
  P  P23  1  0.01140600  0.81539300  0.27356400  1
  O  O24  1  0.37168300  0.01793600  0.58137400  1
  O  O25  1  0.87168300  0.98206400  0.91862600  1
  O  O26  1  0.62831700  0.98206400  0.41862600  1
  O  O27  1  0.12831700  0.01793600  0.08137400  1
  O  O28  1  0.70278300  0.72600200  0.63866800  1
  O  O29  1  0.20278300  0.27399800  0.86133200  1
  O  O30  1  0.29721700  0.27399800  0.36133200  1
  O  O31  1  0.79721700  0.72600200  0.13866800  1
  O  O32  1  0.15836200  0.69093700  0.59708600  1
  O  O33  1  0.65836200  0.30906300  0.90291400  1
  O  O34  1  0.84163800  0.30906300  0.40291400  1
  O  O35  1  0.34163800  0.69093700  0.09708600  1
  O  O36  1  0.55955500  0.36787700  0.62537400  1
  O  O37  1  0.05955500  0.63212300  0.87462600  1
  O  O38  1  0.44044500  0.63212300  0.37462600  1
  O  O39  1  0.94044500  0.36787700  0.12537400  1
  O  O40  1  0.82539100  0.53110800  0.54117600  1
  O  O41  1  0.32539100  0.46889200  0.95882400  1
  O  O42  1  0.17460900  0.46889200  0.45882400  1
  O  O43  1  0.67460900  0.53110800  0.04117600  1
  O  O44  1  0.78101600  0.09354400  0.52580600  1
  O  O45  1  0.28101600  0.90645600  0.97419400  1
  O  O46  1  0.21898400  0.90645600  0.47419400  1
  O  O47  1  0.71898400  0.09354400  0.02580600  1
  O  O48  1  0.48805900  0.68843900  0.53499000  1
  O  O49  1  0.98805900  0.31156100  0.96501000  1
  O  O50  1  0.51194100  0.31156100  0.46501000  1
  O  O51  1  0.01194100  0.68843900  0.03499000  1
  O  O52  1  0.53458300  0.01374200  0.71912800  1
  O  O53  1  0.03458300  0.98625800  0.78087200  1
  O  O54  1  0.46541700  0.98625800  0.28087200  1
  O  O55  1  0.96541700  0.01374200  0.21912800  1
  O  O56  1  0.33290000  0.67374500  0.74866500  1
  O  O57  1  0.83290000  0.32625500  0.75133500  1
  O  O58  1  0.66710000  0.32625500  0.25133500  1
  O  O59  1  0.16710000  0.67374500  0.24866500  1
  O  O60  1  0.91977000  0.09220700  0.65932700  1
  O  O61  1  0.41977000  0.90779300  0.84067300  1
  O  O62  1  0.08023000  0.90779300  0.34067300  1
  O  O63  1  0.58023000  0.09220700  0.15932700  1
  O  O64  1  0.67505400  0.68591800  0.79670400  1
  O  O65  1  0.17505400  0.31408200  0.70329600  1
  O  O66  1  0.32494600  0.31408200  0.20329600  1
  O  O67  1  0.82494600  0.68591800  0.29670400  1
