# generated using pymatgen
data_Pr2SiS5
_symmetry_space_group_name_H-M   'P 1'
_cell_length_a   8.31072300
_cell_length_b   8.75719714
_cell_length_c   12.22403753
_cell_angle_alpha   92.79587797
_cell_angle_beta   90.00000000
_cell_angle_gamma   90.00000000
_symmetry_Int_Tables_number   1
_chemical_formula_structural   Pr2SiS5
_chemical_formula_sum   'Pr8 Si4 S20'
_cell_volume   888.58982891
_cell_formula_units_Z   4
loop_
 _symmetry_equiv_pos_site_id
 _symmetry_equiv_pos_as_xyz
  1  'x, y, z'
loop_
 _atom_site_type_symbol
 _atom_site_label
 _atom_site_symmetry_multiplicity
 _atom_site_fract_x
 _atom_site_fract_y
 _atom_site_fract_z
 _atom_site_occupancy
  Pr  Pr0  1  0.42061800  0.49896900  0.66041000  1
  Pr  Pr1  1  0.92061800  0.50103100  0.83959000  1
  Pr  Pr2  1  0.57938200  0.50103100  0.33959000  1
  Pr  Pr3  1  0.07938200  0.49896900  0.16041000  1
  Pr  Pr4  1  0.42707800  0.74445300  0.00831400  1
  Pr  Pr5  1  0.92707800  0.25554700  0.49168600  1
  Pr  Pr6  1  0.57292200  0.25554700  0.99168600  1
  Pr  Pr7  1  0.07292200  0.74445300  0.50831400  1
  Si  Si8  1  0.21310100  0.03687100  0.21311500  1
  Si  Si9  1  0.71310100  0.96312900  0.28688500  1
  Si  Si10  1  0.78689900  0.96312900  0.78688500  1
  Si  Si11  1  0.28689900  0.03687100  0.71311500  1
  S  S12  1  0.58479200  0.52511600  0.86616300  1
  S  S13  1  0.08479200  0.47488400  0.63383700  1
  S  S14  1  0.41520800  0.47488400  0.13383700  1
  S  S15  1  0.91520800  0.52511600  0.36616300  1
  S  S16  1  0.79638000  0.94683800  0.44411800  1
  S  S17  1  0.29638000  0.05316200  0.05588200  1
  S  S18  1  0.20362000  0.05316200  0.55588200  1
  S  S19  1  0.70362000  0.94683800  0.94411800  1
  S  S20  1  0.66738600  0.76528300  0.19521100  1
  S  S21  1  0.16738600  0.23471700  0.30478900  1
  S  S22  1  0.33261400  0.23471700  0.80478900  1
  S  S23  1  0.83261400  0.76528300  0.69521100  1
  S  S24  1  0.10415500  0.67635500  0.97961600  1
  S  S25  1  0.60415500  0.32364500  0.52038400  1
  S  S26  1  0.89584500  0.32364500  0.02038400  1
  S  S27  1  0.39584500  0.67635500  0.47961600  1
  S  S28  1  0.32860600  0.82431400  0.77003600  1
  S  S29  1  0.82860600  0.17568600  0.72996400  1
  S  S30  1  0.67139400  0.17568600  0.22996400  1
  S  S31  1  0.17139400  0.82431400  0.27003600  1
