# generated using pymatgen
data_Mg2B4H22C2S
_symmetry_space_group_name_H-M   'P 1'
_cell_length_a   7.92104560
_cell_length_b   7.92104560
_cell_length_c   12.50885228
_cell_angle_alpha   83.64897945
_cell_angle_beta   83.64897945
_cell_angle_gamma   122.34113502
_symmetry_Int_Tables_number   1
_chemical_formula_structural   Mg2B4H22C2S
_chemical_formula_sum   'Mg4 B8 H44 C4 S2'
_cell_volume   645.41223114
_cell_formula_units_Z   2
loop_
 _symmetry_equiv_pos_site_id
 _symmetry_equiv_pos_as_xyz
  1  'x, y, z'
loop_
 _atom_site_type_symbol
 _atom_site_label
 _atom_site_symmetry_multiplicity
 _atom_site_fract_x
 _atom_site_fract_y
 _atom_site_fract_z
 _atom_site_occupancy
  Mg  Mg0  1  0.57244800  0.39807800  0.94344500  1
  Mg  Mg1  1  0.39807800  0.57244800  0.44344500  1
  Mg  Mg2  1  0.77001800  0.29961800  0.29902200  1
  Mg  Mg3  1  0.29961800  0.77001800  0.79902200  1
  B  B4  1  0.69499400  0.37283000  0.12001800  1
  B  B5  1  0.37283000  0.69499400  0.62001800  1
  B  B6  1  0.61204800  0.93075200  0.32688300  1
  B  B7  1  0.93075200  0.61204800  0.82688300  1
  B  B8  1  0.64148800  0.47056200  0.39436600  1
  B  B9  1  0.47056200  0.64148800  0.89436600  1
  B  B10  1  0.09925900  0.43713900  0.35109200  1
  B  B11  1  0.43713900  0.09925900  0.85109200  1
  H  H12  1  0.15851300  0.85920800  0.09089200  1
  H  H13  1  0.85920800  0.15851300  0.59089200  1
  H  H14  1  0.99083900  0.85765300  0.20104100  1
  H  H15  1  0.85765300  0.99083900  0.70104100  1
  H  H16  1  0.25474800  0.97209000  0.20482300  1
  H  H17  1  0.97209000  0.25474800  0.70482300  1
  H  H18  1  0.98359600  0.97743400  0.97180600  1
  H  H19  1  0.97743400  0.98359600  0.47180600  1
  H  H20  1  0.06164000  0.23812800  0.93725100  1
  H  H21  1  0.23812800  0.06164000  0.43725100  1
  H  H22  1  0.86913800  0.07378700  0.05668600  1
  H  H23  1  0.07378700  0.86913800  0.55668600  1
  H  H24  1  0.67224600  0.51044700  0.08996600  1
  H  H25  1  0.51044700  0.67224600  0.58996600  1
  H  H26  1  0.68267100  0.26803200  0.05229800  1
  H  H27  1  0.26803200  0.68267100  0.55229800  1
  H  H28  1  0.86957500  0.45634700  0.13715300  1
  H  H29  1  0.45634700  0.86957500  0.63715300  1
  H  H30  1  0.56056800  0.26119600  0.20156200  1
  H  H31  1  0.26119600  0.56056800  0.70156200  1
  H  H32  1  0.76067300  0.04878800  0.25254600  1
  H  H33  1  0.04878800  0.76067300  0.75254600  1
  H  H34  1  0.48924600  0.79523900  0.28554400  1
  H  H35  1  0.79523900  0.48924600  0.78554400  1
  H  H36  1  0.67322700  0.87344600  0.39906400  1
  H  H37  1  0.87344600  0.67322700  0.89906400  1
  H  H38  1  0.52683900  0.00750600  0.36799600  1
  H  H39  1  0.00750600  0.52683900  0.86799600  1
  H  H40  1  0.65882700  0.56241100  0.46887200  1
  H  H41  1  0.56241100  0.65882700  0.96887200  1
  H  H42  1  0.60177400  0.30250600  0.43700600  1
  H  H43  1  0.30250600  0.60177400  0.93700600  1
  H  H44  1  0.50679100  0.44304200  0.34455000  1
  H  H45  1  0.44304200  0.50679100  0.84455000  1
  H  H46  1  0.80340900  0.57283400  0.32763400  1
  H  H47  1  0.57283400  0.80340900  0.82763400  1
  H  H48  1  0.08584500  0.49030400  0.25800800  1
  H  H49  1  0.49030400  0.08584500  0.75800800  1
  H  H50  1  0.21594800  0.38208600  0.33770600  1
  H  H51  1  0.38208600  0.21594800  0.83770600  1
  H  H52  1  0.15767900  0.58421900  0.39516400  1
  H  H53  1  0.58421900  0.15767900  0.89516400  1
  H  H54  1  0.93857500  0.29337600  0.40983700  1
  H  H55  1  0.29337600  0.93857500  0.90983700  1
  C  C56  1  0.14573300  0.94426200  0.15119700  1
  C  C57  1  0.94426200  0.14573300  0.65119700  1
  C  C58  1  0.00961100  0.10967900  0.00503800  1
  C  C59  1  0.10967900  0.00961100  0.50503800  1
  S  S60  1  0.20844000  0.19019100  0.08393500  1
  S  S61  1  0.19019100  0.20844000  0.58393500  1
