# generated using pymatgen
data_CoH9C4(NO2)3
_symmetry_space_group_name_H-M   'P 1'
_cell_length_a   8.54140400
_cell_length_b   11.92446400
_cell_length_c   8.96512500
_cell_angle_alpha   90.00000000
_cell_angle_beta   90.00000000
_cell_angle_gamma   90.00000000
_symmetry_Int_Tables_number   1
_chemical_formula_structural   CoH9C4(NO2)3
_chemical_formula_sum   'Co4 H36 C16 N12 O24'
_cell_volume   913.11290377
_cell_formula_units_Z   4
loop_
 _symmetry_equiv_pos_site_id
 _symmetry_equiv_pos_as_xyz
  1  'x, y, z'
loop_
 _atom_site_type_symbol
 _atom_site_label
 _atom_site_symmetry_multiplicity
 _atom_site_fract_x
 _atom_site_fract_y
 _atom_site_fract_z
 _atom_site_occupancy
  Co  Co0  1  0.25038100  0.75000000  0.25000000  1
  Co  Co1  1  0.24961900  0.25000000  0.25000000  1
  Co  Co2  1  0.74961900  0.25000000  0.75000000  1
  Co  Co3  1  0.75038100  0.75000000  0.75000000  1
  H  H4  1  0.25000000  0.50000000  0.17693100  1
  H  H5  1  0.25000000  0.00000000  0.32306900  1
  H  H6  1  0.75000000  0.50000000  0.82306900  1
  H  H7  1  0.75000000  0.00000000  0.67693100  1
  H  H8  1  0.59208300  0.71294000  0.42798700  1
  H  H9  1  0.90791700  0.28706000  0.42798700  1
  H  H10  1  0.59208300  0.78706000  0.07201300  1
  H  H11  1  0.90791700  0.21294000  0.07201300  1
  H  H12  1  0.40791700  0.28706000  0.57201300  1
  H  H13  1  0.09208300  0.71294000  0.57201300  1
  H  H14  1  0.40791700  0.21294000  0.92798700  1
  H  H15  1  0.09208300  0.78706000  0.92798700  1
  H  H16  1  0.33146600  0.57726000  0.56910100  1
  H  H17  1  0.16853400  0.42274000  0.56910100  1
  H  H18  1  0.33146600  0.92274000  0.93089900  1
  H  H19  1  0.16853400  0.07726000  0.93089900  1
  H  H20  1  0.66853400  0.42274000  0.43089900  1
  H  H21  1  0.83146600  0.57726000  0.43089900  1
  H  H22  1  0.66853400  0.07726000  0.06910100  1
  H  H23  1  0.83146600  0.92274000  0.06910100  1
  H  H24  1  0.41429800  0.62397100  0.74147400  1
  H  H25  1  0.08570200  0.37602900  0.74147400  1
  H  H26  1  0.41429800  0.87602900  0.75852600  1
  H  H27  1  0.08570200  0.12397100  0.75852600  1
  H  H28  1  0.58570200  0.37602900  0.25852600  1
  H  H29  1  0.91429800  0.62397100  0.25852600  1
  H  H30  1  0.58570200  0.12397100  0.24147400  1
  H  H31  1  0.91429800  0.87602900  0.24147400  1
  H  H32  1  0.31387000  0.55888200  0.96351300  1
  H  H33  1  0.18613000  0.44111800  0.96351300  1
  H  H34  1  0.31387000  0.94111800  0.53648700  1
  H  H35  1  0.18613000  0.05888200  0.53648700  1
  H  H36  1  0.68613000  0.44111800  0.03648700  1
  H  H37  1  0.81387000  0.55888200  0.03648700  1
  H  H38  1  0.68613000  0.05888200  0.46351300  1
  H  H39  1  0.81387000  0.94111800  0.46351300  1
  C  C40  1  0.25000000  0.50000000  0.29963300  1
  C  C41  1  0.25000000  0.00000000  0.20036700  1
  C  C42  1  0.75000000  0.50000000  0.70036700  1
  C  C43  1  0.75000000  0.00000000  0.79963300  1
  C  C44  1  0.51918200  0.77636900  0.48613800  1
  C  C45  1  0.98081800  0.22363100  0.48613800  1
  C  C46  1  0.51918200  0.72363100  0.01386200  1
  C  C47  1  0.98081800  0.27636900  0.01386200  1
  C  C48  1  0.48081800  0.22363100  0.51386200  1
  C  C49  1  0.01918200  0.77636900  0.51386200  1
  C  C50  1  0.48081800  0.27636900  0.98613800  1
  C  C51  1  0.01918200  0.72363100  0.98613800  1
  C  C52  1  0.25000000  0.50000000  0.75757700  1
  C  C53  1  0.25000000  0.00000000  0.74242300  1
  C  C54  1  0.75000000  0.50000000  0.24242300  1
  C  C55  1  0.75000000  0.00000000  0.25757700  1
  N  N56  1  0.33996100  0.57292300  0.68289100  1
  N  N57  1  0.16003900  0.42707700  0.68289100  1
  N  N58  1  0.33996100  0.92707700  0.81710900  1
  N  N59  1  0.16003900  0.07292300  0.81710900  1
  N  N60  1  0.66003900  0.42707700  0.31710900  1
  N  N61  1  0.83996100  0.57292300  0.31710900  1
  N  N62  1  0.66003900  0.07292300  0.18289100  1
  N  N63  1  0.83996100  0.92707700  0.18289100  1
  N  N64  1  0.25000000  0.50000000  0.90629600  1
  N  N65  1  0.25000000  0.00000000  0.59370400  1
  N  N66  1  0.75000000  0.50000000  0.09370400  1
  N  N67  1  0.75000000  0.00000000  0.40629600  1
  O  O68  1  0.25725000  0.59400000  0.36618600  1
  O  O69  1  0.24275000  0.40600000  0.36618600  1
  O  O70  1  0.25725000  0.90600000  0.13381400  1
  O  O71  1  0.24275000  0.09400000  0.13381400  1
  O  O72  1  0.74275000  0.40600000  0.63381400  1
  O  O73  1  0.75725000  0.59400000  0.63381400  1
  O  O74  1  0.74275000  0.09400000  0.86618600  1
  O  O75  1  0.75725000  0.90600000  0.86618600  1
  O  O76  1  0.39821200  0.81402200  0.42073900  1
  O  O77  1  0.10178800  0.18597800  0.42073900  1
  O  O78  1  0.39821200  0.68597800  0.07926100  1
  O  O79  1  0.10178800  0.31402200  0.07926100  1
  O  O80  1  0.60178800  0.18597800  0.57926100  1
  O  O81  1  0.89821200  0.81402200  0.57926100  1
  O  O82  1  0.60178800  0.31402200  0.92073900  1
  O  O83  1  0.89821200  0.68597800  0.92073900  1
  O  O84  1  0.56096100  0.80722900  0.61583100  1
  O  O85  1  0.93903900  0.19277100  0.61583100  1
  O  O86  1  0.56096100  0.69277100  0.88416900  1
  O  O87  1  0.93903900  0.30722900  0.88416900  1
  O  O88  1  0.43903900  0.19277100  0.38416900  1
  O  O89  1  0.06096100  0.80722900  0.38416900  1
  O  O90  1  0.43903900  0.30722900  0.11583100  1
  O  O91  1  0.06096100  0.69277100  0.11583100  1
