# generated using pymatgen
data_Cd5(AsO5)4
_symmetry_space_group_name_H-M   'P 1'
_cell_length_a   10.38501974
_cell_length_b   10.38501974
_cell_length_c   10.10626389
_cell_angle_alpha   84.99042828
_cell_angle_beta   84.99042828
_cell_angle_gamma   54.80758347
_symmetry_Int_Tables_number   1
_chemical_formula_structural   Cd5(AsO5)4
_chemical_formula_sum   'Cd10 As8 O40'
_cell_volume   886.40839531
_cell_formula_units_Z   2
loop_
 _symmetry_equiv_pos_site_id
 _symmetry_equiv_pos_as_xyz
  1  'x, y, z'
loop_
 _atom_site_type_symbol
 _atom_site_label
 _atom_site_symmetry_multiplicity
 _atom_site_fract_x
 _atom_site_fract_y
 _atom_site_fract_z
 _atom_site_occupancy
  Cd  Cd0  1  0.10749500  0.89250500  0.25000000  1
  Cd  Cd1  1  0.89250500  0.10749500  0.75000000  1
  Cd  Cd2  1  0.73906700  0.59740300  0.18465900  1
  Cd  Cd3  1  0.40259700  0.26093300  0.31534100  1
  Cd  Cd4  1  0.26093300  0.40259700  0.81534100  1
  Cd  Cd5  1  0.59740300  0.73906700  0.68465900  1
  Cd  Cd6  1  0.80446300  0.84303400  0.36461600  1
  Cd  Cd7  1  0.15696600  0.19553700  0.13538400  1
  Cd  Cd8  1  0.19553700  0.15696600  0.63538400  1
  Cd  Cd9  1  0.84303400  0.80446300  0.86461600  1
  As  As10  1  0.72432700  0.11335700  0.08452700  1
  As  As11  1  0.88664300  0.27567300  0.41547300  1
  As  As12  1  0.27567300  0.88664300  0.91547300  1
  As  As13  1  0.11335700  0.72432700  0.58452700  1
  As  As14  1  0.09620500  0.58346600  0.11803800  1
  As  As15  1  0.41653400  0.90379500  0.38196200  1
  As  As16  1  0.90379500  0.41653400  0.88196200  1
  As  As17  1  0.58346600  0.09620500  0.61803800  1
  O  O18  1  0.55082900  0.12927500  0.13095200  1
  O  O19  1  0.87072500  0.44917100  0.36904800  1
  O  O20  1  0.44917100  0.87072500  0.86904800  1
  O  O21  1  0.12927500  0.55082900  0.63095200  1
  O  O22  1  0.68974100  0.29883800  0.07067500  1
  O  O23  1  0.70116200  0.31025900  0.42932500  1
  O  O24  1  0.31025900  0.70116200  0.92932500  1
  O  O25  1  0.29883800  0.68974100  0.57067500  1
  O  O26  1  0.84986100  0.99352800  0.20861700  1
  O  O27  1  0.00647200  0.15013900  0.29138300  1
  O  O28  1  0.15013900  0.00647200  0.79138300  1
  O  O29  1  0.99352800  0.84986100  0.70861700  1
  O  O30  1  0.80243900  0.02671500  0.93397700  1
  O  O31  1  0.97328500  0.19756100  0.56602300  1
  O  O32  1  0.19756100  0.97328500  0.06602300  1
  O  O33  1  0.02671500  0.80243900  0.43397700  1
  O  O34  1  0.07881000  0.60030400  0.94830800  1
  O  O35  1  0.39969600  0.92119000  0.55169200  1
  O  O36  1  0.92119000  0.39969600  0.05169200  1
  O  O37  1  0.60030400  0.07881000  0.44830800  1
  O  O38  1  0.20078700  0.65498300  0.16270900  1
  O  O39  1  0.34501700  0.79921300  0.33729100  1
  O  O40  1  0.79921300  0.34501700  0.83729100  1
  O  O41  1  0.65498300  0.20078700  0.66270900  1
  O  O42  1  0.20369000  0.38509700  0.16795800  1
  O  O43  1  0.61490300  0.79631000  0.33204200  1
  O  O44  1  0.79631000  0.61490300  0.83204200  1
  O  O45  1  0.38509700  0.20369000  0.66795800  1
  O  O46  1  0.90943200  0.67875600  0.18901900  1
  O  O47  1  0.32124400  0.09056800  0.31098100  1
  O  O48  1  0.09056800  0.32124400  0.81098100  1
  O  O49  1  0.67875600  0.90943200  0.68901900  1
  O  O50  1  0.52119400  0.58079400  0.20615600  1
  O  O51  1  0.41920600  0.47880600  0.29384400  1
  O  O52  1  0.47880600  0.41920600  0.79384400  1
  O  O53  1  0.58079400  0.52119400  0.70615600  1
  O  O54  1  0.77982200  0.65503300  0.50319200  1
  O  O55  1  0.34496700  0.22017800  0.99680800  1
  O  O56  1  0.22017800  0.34496700  0.49680800  1
  O  O57  1  0.65503300  0.77982200  0.00319200  1
