# generated using pymatgen
data_Ba2GaBiTe5
_symmetry_space_group_name_H-M   'P 1'
_cell_length_a   9.80223800
_cell_length_b   10.04968800
_cell_length_c   13.71192600
_cell_angle_alpha   90.00000000
_cell_angle_beta   90.00000000
_cell_angle_gamma   90.00000000
_symmetry_Int_Tables_number   1
_chemical_formula_structural   Ba2GaBiTe5
_chemical_formula_sum   'Ba8 Ga4 Bi4 Te20'
_cell_volume   1350.75406385
_cell_formula_units_Z   4
loop_
 _symmetry_equiv_pos_site_id
 _symmetry_equiv_pos_as_xyz
  1  'x, y, z'
loop_
 _atom_site_type_symbol
 _atom_site_label
 _atom_site_symmetry_multiplicity
 _atom_site_fract_x
 _atom_site_fract_y
 _atom_site_fract_z
 _atom_site_occupancy
  Ba  Ba0  1  0.00726800  0.11809700  0.82557000  1
  Ba  Ba1  1  0.49273200  0.38190300  0.32557000  1
  Ba  Ba2  1  0.50726800  0.88190300  0.17443000  1
  Ba  Ba3  1  0.99273200  0.61809700  0.67443000  1
  Ba  Ba4  1  0.99273200  0.88190300  0.17443000  1
  Ba  Ba5  1  0.50726800  0.61809700  0.67443000  1
  Ba  Ba6  1  0.49273200  0.11809700  0.82557000  1
  Ba  Ba7  1  0.00726800  0.38190300  0.32557000  1
  Ga  Ga8  1  0.25000000  0.33440300  0.60117900  1
  Ga  Ga9  1  0.25000000  0.16559700  0.10117900  1
  Ga  Ga10  1  0.75000000  0.66559700  0.39882100  1
  Ga  Ga11  1  0.75000000  0.83440300  0.89882100  1
  Bi  Bi12  1  0.25000000  0.97601700  0.52744200  1
  Bi  Bi13  1  0.25000000  0.52398300  0.02744200  1
  Bi  Bi14  1  0.75000000  0.02398300  0.47255800  1
  Bi  Bi15  1  0.75000000  0.47601700  0.97255800  1
  Te  Te16  1  0.03291900  0.17913500  0.56324900  1
  Te  Te17  1  0.46708100  0.32086500  0.06324900  1
  Te  Te18  1  0.53291900  0.82086500  0.43675100  1
  Te  Te19  1  0.96708100  0.67913500  0.93675100  1
  Te  Te20  1  0.96708100  0.82086500  0.43675100  1
  Te  Te21  1  0.53291900  0.67913500  0.93675100  1
  Te  Te22  1  0.46708100  0.17913500  0.56324900  1
  Te  Te23  1  0.03291900  0.32086500  0.06324900  1
  Te  Te24  1  0.25000000  0.87341000  0.72874700  1
  Te  Te25  1  0.25000000  0.62659000  0.22874700  1
  Te  Te26  1  0.75000000  0.12659000  0.27125300  1
  Te  Te27  1  0.75000000  0.37341000  0.77125300  1
  Te  Te28  1  0.25000000  0.39257300  0.78924200  1
  Te  Te29  1  0.25000000  0.10742700  0.28924200  1
  Te  Te30  1  0.75000000  0.60742700  0.21075800  1
  Te  Te31  1  0.75000000  0.89257300  0.71075800  1
  Te  Te32  1  0.25000000  0.95516300  0.99157500  1
  Te  Te33  1  0.25000000  0.54483700  0.49157500  1
  Te  Te34  1  0.75000000  0.04483700  0.00842500  1
  Te  Te35  1  0.75000000  0.45516300  0.50842500  1
