# generated using pymatgen
data_SrH18Cl2O17
_symmetry_space_group_name_H-M   'P 1'
_cell_length_a   10.22768672
_cell_length_b   10.22768672
_cell_length_c   11.31271200
_cell_angle_alpha   90.00000000
_cell_angle_beta   90.00000000
_cell_angle_gamma   140.66320610
_symmetry_Int_Tables_number   1
_chemical_formula_structural   SrH18Cl2O17
_chemical_formula_sum   'Sr2 H36 Cl4 O34'
_cell_volume   750.11357704
_cell_formula_units_Z   2
loop_
 _symmetry_equiv_pos_site_id
 _symmetry_equiv_pos_as_xyz
  1  'x, y, z'
loop_
 _atom_site_type_symbol
 _atom_site_label
 _atom_site_symmetry_multiplicity
 _atom_site_fract_x
 _atom_site_fract_y
 _atom_site_fract_z
 _atom_site_occupancy
  Sr  Sr0  1  0.55876500  0.55876500  0.75000000  1
  Sr  Sr1  1  0.44123500  0.44123500  0.25000000  1
  H  H2  1  0.31173600  0.78268700  0.43771300  1
  H  H3  1  0.21731300  0.68826400  0.56228700  1
  H  H4  1  0.31173600  0.78268700  0.06228700  1
  H  H5  1  0.21731300  0.68826400  0.93771300  1
  H  H6  1  0.68826400  0.21731300  0.56228700  1
  H  H7  1  0.78268700  0.31173600  0.43771300  1
  H  H8  1  0.68826400  0.21731300  0.93771300  1
  H  H9  1  0.78268700  0.31173600  0.06228700  1
  H  H10  1  0.31139900  0.23095000  0.53856800  1
  H  H11  1  0.76905000  0.68860100  0.46143200  1
  H  H12  1  0.31139900  0.23095000  0.96143200  1
  H  H13  1  0.76905000  0.68860100  0.03856800  1
  H  H14  1  0.68860100  0.76905000  0.46143200  1
  H  H15  1  0.23095000  0.31139900  0.53856800  1
  H  H16  1  0.68860100  0.76905000  0.03856800  1
  H  H17  1  0.23095000  0.31139900  0.96143200  1
  H  H18  1  0.50159100  0.77090200  0.56826600  1
  H  H19  1  0.22909800  0.49840900  0.43173400  1
  H  H20  1  0.50159100  0.77090200  0.93173400  1
  H  H21  1  0.22909800  0.49840900  0.06826600  1
  H  H22  1  0.49840900  0.22909800  0.43173400  1
  H  H23  1  0.77090200  0.50159100  0.56826600  1
  H  H24  1  0.49840900  0.22909800  0.06826600  1
  H  H25  1  0.77090200  0.50159100  0.93173400  1
  H  H26  1  0.72435200  0.94066100  0.62095000  1
  H  H27  1  0.05933900  0.27564800  0.37905000  1
  H  H28  1  0.72435200  0.94066100  0.87905000  1
  H  H29  1  0.05933900  0.27564800  0.12095000  1
  H  H30  1  0.27564800  0.05933900  0.37905000  1
  H  H31  1  0.94066100  0.72435200  0.62095000  1
  H  H32  1  0.27564800  0.05933900  0.12095000  1
  H  H33  1  0.94066100  0.72435200  0.87905000  1
  H  H34  1  0.03965200  0.03965200  0.68261900  1
  H  H35  1  0.96034800  0.96034800  0.31738100  1
  H  H36  1  0.03965200  0.03965200  0.81738100  1
  H  H37  1  0.96034800  0.96034800  0.18261900  1
  Cl  Cl38  1  0.01387700  0.35248000  0.75000000  1
  Cl  Cl39  1  0.64752000  0.98612300  0.25000000  1
  Cl  Cl40  1  0.98612300  0.64752000  0.25000000  1
  Cl  Cl41  1  0.35248000  0.01387700  0.75000000  1
  O  O42  1  0.91083200  0.22287400  0.64356300  1
  O  O43  1  0.77712600  0.08916800  0.35643700  1
  O  O44  1  0.91083200  0.22287400  0.85643700  1
  O  O45  1  0.77712600  0.08916800  0.14356300  1
  O  O46  1  0.08916800  0.77712600  0.35643700  1
  O  O47  1  0.22287400  0.91083200  0.64356300  1
  O  O48  1  0.08916800  0.77712600  0.14356300  1
  O  O49  1  0.22287400  0.91083200  0.85643700  1
  O  O50  1  0.29549000  0.70451000  0.50000000  1
  O  O51  1  0.29549000  0.70451000  0.00000000  1
  O  O52  1  0.70451000  0.29549000  0.50000000  1
  O  O53  1  0.70451000  0.29549000  0.00000000  1
  O  O54  1  0.27326700  0.27326700  0.59360100  1
  O  O55  1  0.72673300  0.72673300  0.40639900  1
  O  O56  1  0.27326700  0.27326700  0.90639900  1
  O  O57  1  0.72673300  0.72673300  0.09360100  1
  O  O58  1  0.61210400  0.79588700  0.59461200  1
  O  O59  1  0.20411300  0.38789600  0.40538800  1
  O  O60  1  0.61210400  0.79588700  0.90538800  1
  O  O61  1  0.20411300  0.38789600  0.09461200  1
  O  O62  1  0.38789600  0.20411300  0.40538800  1
  O  O63  1  0.79588700  0.61210400  0.59461200  1
  O  O64  1  0.38789600  0.20411300  0.09461200  1
  O  O65  1  0.79588700  0.61210400  0.90538800  1
  O  O66  1  0.22875100  0.47576300  0.75000000  1
  O  O67  1  0.52423700  0.77124900  0.25000000  1
  O  O68  1  0.77124900  0.52423700  0.25000000  1
  O  O69  1  0.47576300  0.22875100  0.75000000  1
  O  O70  1  0.00733700  0.48934500  0.75000000  1
  O  O71  1  0.51065500  0.99266300  0.25000000  1
  O  O72  1  0.99266300  0.51065500  0.25000000  1
  O  O73  1  0.48934500  0.00733700  0.75000000  1
  O  O74  1  0.94808400  0.94808400  0.75000000  1
  O  O75  1  0.05191600  0.05191600  0.25000000  1
