# generated using pymatgen
data_SrSn2H10Br6O5
_symmetry_space_group_name_H-M   'P 1'
_cell_length_a   10.08507977
_cell_length_b   10.08507977
_cell_length_c   9.41762413
_cell_angle_alpha   72.56465638
_cell_angle_beta   72.56465638
_cell_angle_gamma   78.89877626
_symmetry_Int_Tables_number   1
_chemical_formula_structural   SrSn2H10Br6O5
_chemical_formula_sum   'Sr2 Sn4 H20 Br12 O10'
_cell_volume   866.28695262
_cell_formula_units_Z   2
loop_
 _symmetry_equiv_pos_site_id
 _symmetry_equiv_pos_as_xyz
  1  'x, y, z'
loop_
 _atom_site_type_symbol
 _atom_site_label
 _atom_site_symmetry_multiplicity
 _atom_site_fract_x
 _atom_site_fract_y
 _atom_site_fract_z
 _atom_site_occupancy
  Sr  Sr0  1  0.98535900  0.01464100  0.25000000  1
  Sr  Sr1  1  0.01464100  0.98535900  0.75000000  1
  Sn  Sn2  1  0.48642600  0.26331600  0.97483800  1
  Sn  Sn3  1  0.73668400  0.51357400  0.52516200  1
  Sn  Sn4  1  0.51357400  0.73668400  0.02516200  1
  Sn  Sn5  1  0.26331600  0.48642600  0.47483800  1
  H  H6  1  0.19902700  0.23897300  0.15041700  1
  H  H7  1  0.76102700  0.80097300  0.34958300  1
  H  H8  1  0.80097300  0.76102700  0.84958300  1
  H  H9  1  0.23897300  0.19902700  0.65041700  1
  H  H10  1  0.07511600  0.29097700  0.27386900  1
  H  H11  1  0.70902300  0.92488400  0.22613100  1
  H  H12  1  0.92488400  0.70902300  0.72613100  1
  H  H13  1  0.29097700  0.07511600  0.77386900  1
  H  H14  1  0.20373900  0.88143100  0.46638400  1
  H  H15  1  0.11856900  0.79626100  0.03361600  1
  H  H16  1  0.79626100  0.11856900  0.53361600  1
  H  H17  1  0.88143100  0.20373900  0.96638400  1
  H  H18  1  0.24126400  0.03393500  0.40639700  1
  H  H19  1  0.96606500  0.75873600  0.09360300  1
  H  H20  1  0.75873600  0.96606500  0.59360300  1
  H  H21  1  0.03393500  0.24126400  0.90639700  1
  H  H22  1  0.79301600  0.31619600  0.22188100  1
  H  H23  1  0.68380400  0.20698400  0.27811900  1
  H  H24  1  0.20698400  0.68380400  0.77811900  1
  H  H25  1  0.31619600  0.79301600  0.72188100  1
  Br  Br26  1  0.44080800  0.17887600  0.29459800  1
  Br  Br27  1  0.82112400  0.55919200  0.20540200  1
  Br  Br28  1  0.55919200  0.82112400  0.70540200  1
  Br  Br29  1  0.17887600  0.44080800  0.79459800  1
  Br  Br30  1  0.69470300  0.42853500  0.90595600  1
  Br  Br31  1  0.57146500  0.30529700  0.59404400  1
  Br  Br32  1  0.30529700  0.57146500  0.09404400  1
  Br  Br33  1  0.42853500  0.69470300  0.40595600  1
  Br  Br34  1  0.68823500  0.02614600  0.96292200  1
  Br  Br35  1  0.97385400  0.31176500  0.53707800  1
  Br  Br36  1  0.31176500  0.97385400  0.03707800  1
  Br  Br37  1  0.02614600  0.68823500  0.46292200  1
  O  O38  1  0.09774000  0.24163800  0.19253300  1
  O  O39  1  0.75836200  0.90226000  0.30746700  1
  O  O40  1  0.90226000  0.75836200  0.80746700  1
  O  O41  1  0.24163800  0.09774000  0.69253300  1
  O  O42  1  0.16045400  0.97914500  0.44924700  1
  O  O43  1  0.02085500  0.83954600  0.05075300  1
  O  O44  1  0.83954600  0.02085500  0.55075300  1
  O  O45  1  0.97914500  0.16045400  0.94924700  1
  O  O46  1  0.78453800  0.21546200  0.25000000  1
  O  O47  1  0.21546200  0.78453800  0.75000000  1
