# generated using pymatgen
data_MgB2H7
_symmetry_space_group_name_H-M   'P 1'
_cell_length_a   7.88354410
_cell_length_b   8.34899220
_cell_length_c   10.18012511
_cell_angle_alpha   90.36897750
_cell_angle_beta   88.91383222
_cell_angle_gamma   91.74004858
_symmetry_Int_Tables_number   1
_chemical_formula_structural   MgB2H7
_chemical_formula_sum   'Mg4 B8 H28'
_cell_volume   669.61140979
_cell_formula_units_Z   4
loop_
 _symmetry_equiv_pos_site_id
 _symmetry_equiv_pos_as_xyz
  1  'x, y, z'
loop_
 _atom_site_type_symbol
 _atom_site_label
 _atom_site_symmetry_multiplicity
 _atom_site_fract_x
 _atom_site_fract_y
 _atom_site_fract_z
 _atom_site_occupancy
  Mg  Mg0  1  0.17187200  0.44019000  0.26726300  1
  Mg  Mg1  1  0.58575200  0.85094300  0.84318000  1
  Mg  Mg2  1  0.68656500  0.39384500  0.01851500  1
  Mg  Mg3  1  0.97440000  0.74936000  0.78822900  1
  B  B4  1  0.77506900  0.67951600  0.96196700  1
  B  B5  1  0.61789100  0.11852800  0.94394800  1
  B  B6  1  0.42208500  0.43999600  0.14128700  1
  B  B7  1  0.73136600  0.58408800  0.82983300  1
  B  B8  1  0.94964000  0.35716500  0.13362400  1
  B  B9  1  0.13600000  0.51749000  0.46572300  1
  B  B10  1  0.82795500  0.93072000  0.65906500  1
  B  B11  1  0.27416000  0.78892100  0.82442900  1
  H  H12  1  0.48306500  0.07041100  0.89704500  1
  H  H13  1  0.35251400  0.31628700  0.18553700  1
  H  H14  1  0.59189300  0.55530400  0.78580300  1
  H  H15  1  0.93438200  0.29444100  0.02596300  1
  H  H16  1  0.03731300  0.58076700  0.38822600  1
  H  H17  1  0.88490900  0.96837300  0.76781300  1
  H  H18  1  0.34680500  0.77512900  0.92908500  1
  H  H19  1  0.58958200  0.15947700  0.05783100  1
  H  H20  1  0.92095500  0.71896100  0.99245000  1
  H  H21  1  0.34882100  0.56495800  0.16703300  1
  H  H22  1  0.10388000  0.55461300  0.57710700  1
  H  H23  1  0.81854700  0.39371400  0.19047500  1
  H  H24  1  0.36584800  0.82191800  0.72887300  1
  H  H25  1  0.67231000  0.90401700  0.66824000  1
  H  H26  1  0.72704300  0.01787900  0.94858900  1
  H  H27  1  0.42406000  0.42619800  0.02165100  1
  H  H28  1  0.84233100  0.54091400  0.75075000  1
  H  H29  1  0.67160900  0.22644500  0.87055000  1
  H  H30  1  0.67339300  0.73535700  0.04020000  1
  H  H31  1  0.55857900  0.45142200  0.19444700  1
  H  H32  1  0.01724600  0.25982300  0.20467800  1
  H  H33  1  0.11995100  0.36890300  0.45216300  1
  H  H34  1  0.89015900  0.80796000  0.61254000  1
  H  H35  1  0.17433200  0.89855400  0.83830900  1
  H  H36  1  0.03245200  0.48305800  0.11519600  1
  H  H37  1  0.28231900  0.55711700  0.43198600  1
  H  H38  1  0.20693100  0.65626600  0.79968200  1
  H  H39  1  0.85397800  0.04097400  0.58472400  1
