# generated using pymatgen
data_NaMgP(CO3)2
_symmetry_space_group_name_H-M   'P 1'
_cell_length_a   9.71509700
_cell_length_b   10.11649600
_cell_length_c   11.73342700
_cell_angle_alpha   90.00000000
_cell_angle_beta   90.00000000
_cell_angle_gamma   90.00000000
_symmetry_Int_Tables_number   1
_chemical_formula_structural   NaMgP(CO3)2
_chemical_formula_sum   'Na8 Mg8 P8 C16 O48'
_cell_volume   1153.19335445
_cell_formula_units_Z   8
loop_
 _symmetry_equiv_pos_site_id
 _symmetry_equiv_pos_as_xyz
  1  'x, y, z'
loop_
 _atom_site_type_symbol
 _atom_site_label
 _atom_site_symmetry_multiplicity
 _atom_site_fract_x
 _atom_site_fract_y
 _atom_site_fract_z
 _atom_site_occupancy
  Na  Na0  1  0.07842400  0.11414600  0.93529500  1
  Na  Na1  1  0.42157600  0.61414600  0.06470500  1
  Na  Na2  1  0.57842400  0.88585400  0.56470500  1
  Na  Na3  1  0.92157600  0.38585400  0.43529500  1
  Na  Na4  1  0.92157600  0.88585400  0.06470500  1
  Na  Na5  1  0.57842400  0.38585400  0.93529500  1
  Na  Na6  1  0.42157600  0.11414600  0.43529500  1
  Na  Na7  1  0.07842400  0.61414600  0.56470500  1
  Mg  Mg8  1  0.91399500  0.31166700  0.10851400  1
  Mg  Mg9  1  0.58600500  0.81166700  0.89148600  1
  Mg  Mg10  1  0.41399500  0.68833300  0.39148600  1
  Mg  Mg11  1  0.08600500  0.18833300  0.60851400  1
  Mg  Mg12  1  0.08600500  0.68833300  0.89148600  1
  Mg  Mg13  1  0.41399500  0.18833300  0.10851400  1
  Mg  Mg14  1  0.58600500  0.31166700  0.60851400  1
  Mg  Mg15  1  0.91399500  0.81166700  0.39148600  1
  P  P16  1  0.71334400  0.09433300  0.96356900  1
  P  P17  1  0.78665600  0.59433300  0.03643100  1
  P  P18  1  0.21334400  0.90566700  0.53643100  1
  P  P19  1  0.28665600  0.40566700  0.46356900  1
  P  P20  1  0.28665600  0.90566700  0.03643100  1
  P  P21  1  0.21334400  0.40566700  0.96356900  1
  P  P22  1  0.78665600  0.09433300  0.46356900  1
  P  P23  1  0.71334400  0.59433300  0.53643100  1
  C  C24  1  0.67354000  0.14602700  0.81599100  1
  C  C25  1  0.82646000  0.64602700  0.18400900  1
  C  C26  1  0.17354000  0.85397300  0.68400900  1
  C  C27  1  0.32646000  0.35397300  0.31599100  1
  C  C28  1  0.32646000  0.85397300  0.18400900  1
  C  C29  1  0.17354000  0.35397300  0.81599100  1
  C  C30  1  0.82646000  0.14602700  0.31599100  1
  C  C31  1  0.67354000  0.64602700  0.68400900  1
  C  C32  1  0.55297900  0.07683600  0.75320900  1
  C  C33  1  0.94702100  0.57683600  0.24679100  1
  C  C34  1  0.05297900  0.92316400  0.74679100  1
  C  C35  1  0.44702100  0.42316400  0.25320900  1
  C  C36  1  0.44702100  0.92316400  0.24679100  1
  C  C37  1  0.05297900  0.42316400  0.75320900  1
  C  C38  1  0.94702100  0.07683600  0.25320900  1
  C  C39  1  0.55297900  0.57683600  0.74679100  1
  O  O40  1  0.85176900  0.15165000  0.00165600  1
  O  O41  1  0.64823100  0.65165000  0.99834400  1
  O  O42  1  0.35176900  0.84835000  0.49834400  1
  O  O43  1  0.14823100  0.34835000  0.50165600  1
  O  O44  1  0.14823100  0.84835000  0.99834400  1
  O  O45  1  0.35176900  0.34835000  0.00165600  1
  O  O46  1  0.64823100  0.15165000  0.50165600  1
  O  O47  1  0.85176900  0.65165000  0.49834400  1
  O  O48  1  0.71322000  0.94343800  0.96955800  1
  O  O49  1  0.78678000  0.44343800  0.03044200  1
  O  O50  1  0.21322000  0.05656200  0.53044200  1
  O  O51  1  0.28678000  0.55656200  0.46955800  1
  O  O52  1  0.28678000  0.05656200  0.03044200  1
  O  O53  1  0.21322000  0.55656200  0.96955800  1
  O  O54  1  0.78678000  0.94343800  0.46955800  1
  O  O55  1  0.71322000  0.44343800  0.53044200  1
  O  O56  1  0.58826500  0.16333300  0.01604200  1
  O  O57  1  0.91173500  0.66333300  0.98395800  1
  O  O58  1  0.08826500  0.83666700  0.48395800  1
  O  O59  1  0.41173500  0.33666700  0.51604200  1
  O  O60  1  0.41173500  0.83666700  0.98395800  1
  O  O61  1  0.08826500  0.33666700  0.01604200  1
  O  O62  1  0.91173500  0.16333300  0.51604200  1
  O  O63  1  0.58826500  0.66333300  0.48395800  1
  O  O64  1  0.72233700  0.24524400  0.76958500  1
  O  O65  1  0.77766300  0.74524400  0.23041500  1
  O  O66  1  0.22233700  0.75475600  0.73041500  1
  O  O67  1  0.27766300  0.25475600  0.26958500  1
  O  O68  1  0.27766300  0.75475600  0.23041500  1
  O  O69  1  0.22233700  0.25475600  0.76958500  1
  O  O70  1  0.77766300  0.24524400  0.26958500  1
  O  O71  1  0.72233700  0.74524400  0.73041500  1
  O  O72  1  0.53472800  0.95336900  0.76694100  1
  O  O73  1  0.96527200  0.45336900  0.23305900  1
  O  O74  1  0.03472800  0.04663100  0.73305900  1
  O  O75  1  0.46527200  0.54663100  0.26694100  1
  O  O76  1  0.46527200  0.04663100  0.23305900  1
  O  O77  1  0.03472800  0.54663100  0.76694100  1
  O  O78  1  0.96527200  0.95336900  0.26694100  1
  O  O79  1  0.53472800  0.45336900  0.73305900  1
  O  O80  1  0.48709700  0.14982500  0.68587400  1
  O  O81  1  0.01290300  0.64982500  0.31412600  1
  O  O82  1  0.98709700  0.85017500  0.81412600  1
  O  O83  1  0.51290300  0.35017500  0.18587400  1
  O  O84  1  0.51290300  0.85017500  0.31412600  1
  O  O85  1  0.98709700  0.35017500  0.68587400  1
  O  O86  1  0.01290300  0.14982500  0.18587400  1
  O  O87  1  0.48709700  0.64982500  0.81412600  1
