# generated using pymatgen
data_Na4Ti4Si3O22
_symmetry_space_group_name_H-M   'P 1'
_cell_length_a   7.80314043
_cell_length_b   7.80314043
_cell_length_c   7.80314051
_cell_angle_alpha   87.03651756
_cell_angle_beta   87.03651756
_cell_angle_gamma   87.03651929
_symmetry_Int_Tables_number   1
_chemical_formula_structural   Na4Ti4Si3O22
_chemical_formula_sum   'Na4 Ti4 Si3 O22'
_cell_volume   473.28261063
_cell_formula_units_Z   1
loop_
 _symmetry_equiv_pos_site_id
 _symmetry_equiv_pos_as_xyz
  1  'x, y, z'
loop_
 _atom_site_type_symbol
 _atom_site_label
 _atom_site_symmetry_multiplicity
 _atom_site_fract_x
 _atom_site_fract_y
 _atom_site_fract_z
 _atom_site_occupancy
  Na  Na0  1  0.72474700  0.72474700  0.72474700  1
  Na  Na1  1  0.38099500  0.38099500  0.96084500  1
  Na  Na2  1  0.96084500  0.38099500  0.38099500  1
  Na  Na3  1  0.38099500  0.96084500  0.38099500  1
  Ti  Ti4  1  0.11270500  0.11270500  0.11270500  1
  Ti  Ti5  1  0.84894100  0.14447700  0.84894100  1
  Ti  Ti6  1  0.14447700  0.84894100  0.84894100  1
  Ti  Ti7  1  0.84894100  0.84894100  0.14447700  1
  Si  Si8  1  0.98626300  0.98626300  0.49300900  1
  Si  Si9  1  0.49300900  0.98626300  0.98626300  1
  Si  Si10  1  0.98626300  0.49300900  0.98626300  1
  O  O11  1  0.88013100  0.88013100  0.88013100  1
  O  O12  1  0.10767800  0.86262300  0.10767800  1
  O  O13  1  0.86262300  0.10767800  0.10767800  1
  O  O14  1  0.10767800  0.10767800  0.86262300  1
  O  O15  1  0.10607200  0.36163200  0.10607200  1
  O  O16  1  0.36163200  0.10607200  0.10607200  1
  O  O17  1  0.10607200  0.10607200  0.36163200  1
  O  O18  1  0.86115900  0.39509200  0.86115900  1
  O  O19  1  0.39509200  0.86115900  0.86115900  1
  O  O20  1  0.86115900  0.86115900  0.39509200  1
  O  O21  1  0.12616600  0.60472700  0.86780900  1
  O  O22  1  0.86780900  0.60472700  0.12616600  1
  O  O23  1  0.60472700  0.86780900  0.12616600  1
  O  O24  1  0.60472700  0.12616600  0.86780900  1
  O  O25  1  0.86780900  0.12616600  0.60472700  1
  O  O26  1  0.12616600  0.86780900  0.60472700  1
  O  O27  1  0.33704900  0.33704900  0.55116300  1
  O  O28  1  0.55116300  0.33704900  0.33704900  1
  O  O29  1  0.33704900  0.55116300  0.33704900  1
  O  O30  1  0.52204000  0.30737700  0.52204000  1
  O  O31  1  0.30737700  0.52204000  0.52204000  1
  O  O32  1  0.52204000  0.52204000  0.30737700  1
