# generated using pymatgen
data_Rb3B3O10
_symmetry_space_group_name_H-M   'P 1'
_cell_length_a   8.18809800
_cell_length_b   9.63568500
_cell_length_c   14.09096000
_cell_angle_alpha   90.00000000
_cell_angle_beta   90.00000000
_cell_angle_gamma   90.00000000
_symmetry_Int_Tables_number   1
_chemical_formula_structural   Rb3B3O10
_chemical_formula_sum   'Rb12 B12 O40'
_cell_volume   1111.74761907
_cell_formula_units_Z   4
loop_
 _symmetry_equiv_pos_site_id
 _symmetry_equiv_pos_as_xyz
  1  'x, y, z'
loop_
 _atom_site_type_symbol
 _atom_site_label
 _atom_site_symmetry_multiplicity
 _atom_site_fract_x
 _atom_site_fract_y
 _atom_site_fract_z
 _atom_site_occupancy
  Rb  Rb0  1  0.94159500  0.75619800  0.00078000  1
  Rb  Rb1  1  0.05840500  0.25619800  0.99922000  1
  Rb  Rb2  1  0.55840500  0.25619800  0.50078000  1
  Rb  Rb3  1  0.44159500  0.75619800  0.49922000  1
  Rb  Rb4  1  0.51830300  0.70978700  0.78059500  1
  Rb  Rb5  1  0.48169700  0.20978700  0.21940500  1
  Rb  Rb6  1  0.98169700  0.20978700  0.28059500  1
  Rb  Rb7  1  0.01830300  0.70978700  0.71940500  1
  Rb  Rb8  1  0.51166400  0.71135200  0.21713600  1
  Rb  Rb9  1  0.48833600  0.21135200  0.78286400  1
  Rb  Rb10  1  0.98833600  0.21135200  0.71713600  1
  Rb  Rb11  1  0.01166400  0.71135200  0.28286400  1
  B  B12  1  0.27409700  0.95451600  0.90916300  1
  B  B13  1  0.72590300  0.45451600  0.09083700  1
  B  B14  1  0.22590300  0.45451600  0.40916300  1
  B  B15  1  0.77409700  0.95451600  0.59083700  1
  B  B16  1  0.26861500  0.95634300  0.09174400  1
  B  B17  1  0.73138500  0.45634300  0.90825600  1
  B  B18  1  0.23138500  0.45634300  0.59174400  1
  B  B19  1  0.76861500  0.95634300  0.40825600  1
  B  B20  1  0.53590900  0.97456100  0.00277900  1
  B  B21  1  0.46409100  0.47456100  0.99722100  1
  B  B22  1  0.96409100  0.47456100  0.50277900  1
  B  B23  1  0.03590900  0.97456100  0.49722100  1
  O  O24  1  0.45223000  0.97270800  0.91574000  1
  O  O25  1  0.54777000  0.47270800  0.08426000  1
  O  O26  1  0.04777000  0.47270800  0.41574000  1
  O  O27  1  0.95223000  0.97270800  0.58426000  1
  O  O28  1  0.22560700  0.82560800  0.86419500  1
  O  O29  1  0.77439300  0.32560800  0.13580500  1
  O  O30  1  0.27439300  0.32560800  0.36419500  1
  O  O31  1  0.72560700  0.82560800  0.63580500  1
  O  O32  1  0.20022400  0.03834000  0.83452000  1
  O  O33  1  0.79977600  0.53834000  0.16548000  1
  O  O34  1  0.29977600  0.53834000  0.33452000  1
  O  O35  1  0.70022400  0.03834000  0.66548000  1
  O  O36  1  0.19035200  0.97320300  0.99929400  1
  O  O37  1  0.80964800  0.47320300  0.00070600  1
  O  O38  1  0.30964800  0.47320300  0.49929400  1
  O  O39  1  0.69035200  0.97320300  0.50070600  1
  O  O40  1  0.19287200  0.04586800  0.16238200  1
  O  O41  1  0.80712800  0.54586800  0.83761800  1
  O  O42  1  0.30712800  0.54586800  0.66238200  1
  O  O43  1  0.69287200  0.04586800  0.33761800  1
  O  O44  1  0.21442000  0.83084200  0.13873700  1
  O  O45  1  0.78558000  0.33084200  0.86126300  1
  O  O46  1  0.28558000  0.33084200  0.63873700  1
  O  O47  1  0.71442000  0.83084200  0.36126300  1
  O  O48  1  0.44771800  0.97076200  0.08762000  1
  O  O49  1  0.55228200  0.47076200  0.91238000  1
  O  O50  1  0.05228200  0.47076200  0.58762000  1
  O  O51  1  0.94771800  0.97076200  0.41238000  1
  O  O52  1  0.70106900  0.97762700  0.00372400  1
  O  O53  1  0.29893100  0.47762700  0.99627600  1
  O  O54  1  0.79893100  0.47762700  0.50372400  1
  O  O55  1  0.20106900  0.97762700  0.49627600  1
  O  O56  1  0.19422900  0.45566000  0.83832400  1
  O  O57  1  0.80577100  0.95566000  0.16167600  1
  O  O58  1  0.30577100  0.95566000  0.33832400  1
  O  O59  1  0.69422900  0.45566000  0.66167600  1
  O  O60  1  0.16872400  0.45562600  0.16232300  1
  O  O61  1  0.83127600  0.95562600  0.83767700  1
  O  O62  1  0.33127600  0.95562600  0.66232300  1
  O  O63  1  0.66872400  0.45562600  0.33767700  1
