# generated using pymatgen
data_AlBr3N
_symmetry_space_group_name_H-M   'P 1'
_cell_length_a   12.08136000
_cell_length_b   12.80921900
_cell_length_c   19.26971300
_cell_angle_alpha   90.00000000
_cell_angle_beta   90.00000000
_cell_angle_gamma   90.00000000
_symmetry_Int_Tables_number   1
_chemical_formula_structural   AlBr3N
_chemical_formula_sum   'Al16 Br48 N16'
_cell_volume   2982.04177328
_cell_formula_units_Z   16
loop_
 _symmetry_equiv_pos_site_id
 _symmetry_equiv_pos_as_xyz
  1  'x, y, z'
loop_
 _atom_site_type_symbol
 _atom_site_label
 _atom_site_symmetry_multiplicity
 _atom_site_fract_x
 _atom_site_fract_y
 _atom_site_fract_z
 _atom_site_occupancy
  Al  Al0  1  0.69764400  0.46238400  0.29092500  1
  Al  Al1  1  0.19764400  0.03761600  0.70907500  1
  Al  Al2  1  0.30235600  0.96238400  0.20907500  1
  Al  Al3  1  0.80235600  0.53761600  0.79092500  1
  Al  Al4  1  0.30235600  0.53761600  0.70907500  1
  Al  Al5  1  0.80235600  0.96238400  0.29092500  1
  Al  Al6  1  0.69764400  0.03761600  0.79092500  1
  Al  Al7  1  0.19764400  0.46238400  0.20907500  1
  Al  Al8  1  0.71578400  0.24465400  0.03463400  1
  Al  Al9  1  0.21578400  0.25534600  0.96536600  1
  Al  Al10  1  0.28421600  0.74465400  0.46536600  1
  Al  Al11  1  0.78421600  0.75534600  0.53463400  1
  Al  Al12  1  0.28421600  0.75534600  0.96536600  1
  Al  Al13  1  0.78421600  0.74465400  0.03463400  1
  Al  Al14  1  0.71578400  0.25534600  0.53463400  1
  Al  Al15  1  0.21578400  0.24465400  0.46536600  1
  Br  Br16  1  0.63950200  0.29401200  0.27529700  1
  Br  Br17  1  0.13950200  0.20598800  0.72470300  1
  Br  Br18  1  0.36049800  0.79401200  0.22470300  1
  Br  Br19  1  0.86049800  0.70598800  0.77529700  1
  Br  Br20  1  0.36049800  0.70598800  0.72470300  1
  Br  Br21  1  0.86049800  0.79401200  0.27529700  1
  Br  Br22  1  0.63950200  0.20598800  0.77529700  1
  Br  Br23  1  0.13950200  0.29401200  0.22470300  1
  Br  Br24  1  0.85832400  0.48785700  0.34941000  1
  Br  Br25  1  0.35832400  0.01214300  0.65059000  1
  Br  Br26  1  0.14167600  0.98785700  0.15059000  1
  Br  Br27  1  0.64167600  0.51214300  0.84941000  1
  Br  Br28  1  0.14167600  0.51214300  0.65059000  1
  Br  Br29  1  0.64167600  0.98785700  0.34941000  1
  Br  Br30  1  0.85832400  0.01214300  0.84941000  1
  Br  Br31  1  0.35832400  0.48785700  0.15059000  1
  Br  Br32  1  0.93440600  0.08909600  0.30351100  1
  Br  Br33  1  0.43440600  0.41090400  0.69648900  1
  Br  Br34  1  0.06559400  0.58909600  0.19648900  1
  Br  Br35  1  0.56559400  0.91090400  0.80351100  1
  Br  Br36  1  0.06559400  0.91090400  0.69648900  1
  Br  Br37  1  0.56559400  0.58909600  0.30351100  1
  Br  Br38  1  0.93440600  0.41090400  0.80351100  1
  Br  Br39  1  0.43440600  0.08909600  0.19648900  1
  Br  Br40  1  0.86501700  0.23848700  0.10600900  1
  Br  Br41  1  0.36501700  0.26151300  0.89399100  1
  Br  Br42  1  0.13498300  0.73848700  0.39399100  1
  Br  Br43  1  0.63498300  0.76151300  0.60600900  1
  Br  Br44  1  0.13498300  0.76151300  0.89399100  1
  Br  Br45  1  0.63498300  0.73848700  0.10600900  1
  Br  Br46  1  0.86501700  0.26151300  0.60600900  1
  Br  Br47  1  0.36501700  0.23848700  0.39399100  1
  Br  Br48  1  0.60289900  0.38774200  0.04216300  1
  Br  Br49  1  0.10289900  0.11225800  0.95783700  1
  Br  Br50  1  0.39710100  0.88774200  0.45783700  1
  Br  Br51  1  0.89710100  0.61225800  0.54216300  1
  Br  Br52  1  0.39710100  0.61225800  0.95783700  1
  Br  Br53  1  0.89710100  0.88774200  0.04216300  1
  Br  Br54  1  0.60289900  0.11225800  0.54216300  1
  Br  Br55  1  0.10289900  0.38774200  0.45783700  1
  Br  Br56  1  0.63138300  0.08917300  0.00875900  1
  Br  Br57  1  0.13138300  0.41082700  0.99124100  1
  Br  Br58  1  0.36861700  0.58917300  0.49124100  1
  Br  Br59  1  0.86861700  0.91082700  0.50875900  1
  Br  Br60  1  0.36861700  0.91082700  0.99124100  1
  Br  Br61  1  0.86861700  0.58917300  0.00875900  1
  Br  Br62  1  0.63138300  0.41082700  0.50875900  1
  Br  Br63  1  0.13138300  0.08917300  0.49124100  1
  N  N64  1  0.75619900  0.49669300  0.19548300  1
  N  N65  1  0.25619900  0.00330700  0.80451700  1
  N  N66  1  0.24380100  0.99669300  0.30451700  1
  N  N67  1  0.74380100  0.50330700  0.69548300  1
  N  N68  1  0.24380100  0.50330700  0.80451700  1
  N  N69  1  0.74380100  0.99669300  0.19548300  1
  N  N70  1  0.75619900  0.00330700  0.69548300  1
  N  N71  1  0.25619900  0.49669300  0.30451700  1
  N  N72  1  0.79966800  0.22237200  0.44642900  1
  N  N73  1  0.29966800  0.27762800  0.55357100  1
  N  N74  1  0.20033200  0.72237200  0.05357100  1
  N  N75  1  0.70033200  0.77762800  0.94642900  1
  N  N76  1  0.20033200  0.77762800  0.55357100  1
  N  N77  1  0.70033200  0.72237200  0.44642900  1
  N  N78  1  0.79966800  0.27762800  0.94642900  1
  N  N79  1  0.29966800  0.22237200  0.05357100  1
