# generated using pymatgen
data_Sn3N3F11
_symmetry_space_group_name_H-M   'P 1'
_cell_length_a   8.04013400
_cell_length_b   7.29117100
_cell_length_c   10.52938300
_cell_angle_alpha   90.00000000
_cell_angle_beta   90.00000000
_cell_angle_gamma   90.00000000
_symmetry_Int_Tables_number   1
_chemical_formula_structural   Sn3N3F11
_chemical_formula_sum   'Sn6 N6 F22'
_cell_volume   617.25340448
_cell_formula_units_Z   2
loop_
 _symmetry_equiv_pos_site_id
 _symmetry_equiv_pos_as_xyz
  1  'x, y, z'
loop_
 _atom_site_type_symbol
 _atom_site_label
 _atom_site_symmetry_multiplicity
 _atom_site_fract_x
 _atom_site_fract_y
 _atom_site_fract_z
 _atom_site_occupancy
  Sn  Sn0  1  0.25000000  0.73461800  0.93333400  1
  Sn  Sn1  1  0.25000000  0.73461800  0.56666600  1
  Sn  Sn2  1  0.75000000  0.26538200  0.06666600  1
  Sn  Sn3  1  0.75000000  0.26538200  0.43333400  1
  Sn  Sn4  1  0.25000000  0.81590500  0.25000000  1
  Sn  Sn5  1  0.75000000  0.18409500  0.75000000  1
  N  N6  1  0.25000000  0.24419300  0.25000000  1
  N  N7  1  0.75000000  0.75580700  0.75000000  1
  N  N8  1  0.25000000  0.46313900  0.80454100  1
  N  N9  1  0.25000000  0.46313900  0.69545900  1
  N  N10  1  0.75000000  0.53686100  0.19545900  1
  N  N11  1  0.75000000  0.53686100  0.30454100  1
  F  F12  1  0.25000000  0.85919900  0.75000000  1
  F  F13  1  0.75000000  0.14080100  0.25000000  1
  F  F14  1  0.98987700  0.24812400  0.43382400  1
  F  F15  1  0.51012300  0.24812400  0.43382400  1
  F  F16  1  0.98987700  0.24812400  0.06617600  1
  F  F17  1  0.51012300  0.24812400  0.06617600  1
  F  F18  1  0.01012300  0.75187600  0.56617600  1
  F  F19  1  0.48987700  0.75187600  0.56617600  1
  F  F20  1  0.01012300  0.75187600  0.93382400  1
  F  F21  1  0.48987700  0.75187600  0.93382400  1
  F  F22  1  0.25000000  0.94468100  0.42891300  1
  F  F23  1  0.25000000  0.94468100  0.07108700  1
  F  F24  1  0.75000000  0.05531900  0.57108700  1
  F  F25  1  0.75000000  0.05531900  0.92891300  1
  F  F26  1  0.25000000  0.60276100  0.38481000  1
  F  F27  1  0.25000000  0.60276100  0.11519000  1
  F  F28  1  0.75000000  0.39723900  0.61519000  1
  F  F29  1  0.75000000  0.39723900  0.88481000  1
  F  F30  1  0.01193700  0.82738100  0.25000000  1
  F  F31  1  0.48806300  0.82738100  0.25000000  1
  F  F32  1  0.98806300  0.17261900  0.75000000  1
  F  F33  1  0.51193700  0.17261900  0.75000000  1
