# generated using pymatgen
data_Ce2Si2Ni15
_symmetry_space_group_name_H-M   'P 1'
_cell_length_a   8.29601634
_cell_length_b   8.29601634
_cell_length_c   8.24487900
_cell_angle_alpha   90.00000000
_cell_angle_beta   90.00000000
_cell_angle_gamma   120.00000272
_symmetry_Int_Tables_number   1
_chemical_formula_structural   Ce2Si2Ni15
_chemical_formula_sum   'Ce4 Si4 Ni30'
_cell_volume   491.42144417
_cell_formula_units_Z   2
loop_
 _symmetry_equiv_pos_site_id
 _symmetry_equiv_pos_as_xyz
  1  'x, y, z'
loop_
 _atom_site_type_symbol
 _atom_site_label
 _atom_site_symmetry_multiplicity
 _atom_site_fract_x
 _atom_site_fract_y
 _atom_site_fract_z
 _atom_site_occupancy
  Ce  Ce0  1  0.00000000  0.00000000  0.25000000  1
  Ce  Ce1  1  0.00000000  0.00000000  0.75000000  1
  Ce  Ce2  1  0.33333300  0.66666700  0.75000000  1
  Ce  Ce3  1  0.66666700  0.33333300  0.25000000  1
  Si  Si4  1  0.33333300  0.66666700  0.39586300  1
  Si  Si5  1  0.66666700  0.33333300  0.60413700  1
  Si  Si6  1  0.66666700  0.33333300  0.89586300  1
  Si  Si7  1  0.33333300  0.66666700  0.10413700  1
  Ni  Ni8  1  0.50000000  0.50000000  0.50000000  1
  Ni  Ni9  1  0.50000000  0.00000000  0.50000000  1
  Ni  Ni10  1  0.00000000  0.50000000  0.50000000  1
  Ni  Ni11  1  0.50000000  0.50000000  0.00000000  1
  Ni  Ni12  1  0.50000000  0.00000000  0.00000000  1
  Ni  Ni13  1  0.00000000  0.50000000  0.00000000  1
  Ni  Ni14  1  0.32896200  0.36403700  0.25000000  1
  Ni  Ni15  1  0.63596300  0.96492400  0.25000000  1
  Ni  Ni16  1  0.03507600  0.67103800  0.25000000  1
  Ni  Ni17  1  0.63596300  0.67103800  0.25000000  1
  Ni  Ni18  1  0.03507600  0.36403700  0.25000000  1
  Ni  Ni19  1  0.32896200  0.96492400  0.25000000  1
  Ni  Ni20  1  0.67103800  0.63596300  0.75000000  1
  Ni  Ni21  1  0.36403700  0.03507600  0.75000000  1
  Ni  Ni22  1  0.96492400  0.32896200  0.75000000  1
  Ni  Ni23  1  0.36403700  0.32896200  0.75000000  1
  Ni  Ni24  1  0.96492400  0.63596300  0.75000000  1
  Ni  Ni25  1  0.67103800  0.03507600  0.75000000  1
  Ni  Ni26  1  0.16763500  0.83236500  0.51645300  1
  Ni  Ni27  1  0.16763500  0.33526900  0.51645300  1
  Ni  Ni28  1  0.66473100  0.83236500  0.51645300  1
  Ni  Ni29  1  0.83236500  0.16763500  0.48354700  1
  Ni  Ni30  1  0.83236500  0.66473100  0.48354700  1
  Ni  Ni31  1  0.33526900  0.16763500  0.48354700  1
  Ni  Ni32  1  0.83236500  0.16763500  0.01645300  1
  Ni  Ni33  1  0.83236500  0.66473100  0.01645300  1
  Ni  Ni34  1  0.33526900  0.16763500  0.01645300  1
  Ni  Ni35  1  0.16763500  0.83236500  0.98354700  1
  Ni  Ni36  1  0.16763500  0.33526900  0.98354700  1
  Ni  Ni37  1  0.66473100  0.83236500  0.98354700  1
