# generated using pymatgen
data_Nd6GaFe13
_symmetry_space_group_name_H-M   'P 1'
_cell_length_a   8.13527100
_cell_length_b   8.13527100
_cell_length_c   13.16799561
_cell_angle_alpha   107.99314475
_cell_angle_beta   107.99314475
_cell_angle_gamma   90.00000000
_symmetry_Int_Tables_number   1
_chemical_formula_structural   Nd6GaFe13
_chemical_formula_sum   'Nd12 Ga2 Fe26'
_cell_volume   783.93542046
_cell_formula_units_Z   2
loop_
 _symmetry_equiv_pos_site_id
 _symmetry_equiv_pos_as_xyz
  1  'x, y, z'
loop_
 _atom_site_type_symbol
 _atom_site_label
 _atom_site_symmetry_multiplicity
 _atom_site_fract_x
 _atom_site_fract_y
 _atom_site_fract_z
 _atom_site_occupancy
  Nd  Nd0  1  0.39446900  0.39446900  0.78893800  1
  Nd  Nd1  1  0.89446900  0.89446900  0.78893800  1
  Nd  Nd2  1  0.60553100  0.60553100  0.21106200  1
  Nd  Nd3  1  0.10553100  0.10553100  0.21106200  1
  Nd  Nd4  1  0.97908500  0.47908500  0.62774500  1
  Nd  Nd5  1  0.64866100  0.14866100  0.62774500  1
  Nd  Nd6  1  0.14866100  0.97908500  0.62774500  1
  Nd  Nd7  1  0.47908500  0.64866100  0.62774500  1
  Nd  Nd8  1  0.02091500  0.52091500  0.37225500  1
  Nd  Nd9  1  0.35133900  0.85133900  0.37225500  1
  Nd  Nd10  1  0.85133900  0.02091500  0.37225500  1
  Nd  Nd11  1  0.52091500  0.35133900  0.37225500  1
  Ga  Ga12  1  0.25000000  0.25000000  0.50000000  1
  Ga  Ga13  1  0.75000000  0.75000000  0.50000000  1
  Fe  Fe14  1  0.00000000  0.50000000  0.00000000  1
  Fe  Fe15  1  0.50000000  0.00000000  0.00000000  1
  Fe  Fe16  1  0.71103100  0.56686900  0.00000000  1
  Fe  Fe17  1  0.28896900  0.43313100  0.00000000  1
  Fe  Fe18  1  0.78896900  0.06686900  0.00000000  1
  Fe  Fe19  1  0.21103100  0.93313100  0.00000000  1
  Fe  Fe20  1  0.56686900  0.28896900  0.00000000  1
  Fe  Fe21  1  0.43313100  0.71103100  0.00000000  1
  Fe  Fe22  1  0.06686900  0.21103100  0.00000000  1
  Fe  Fe23  1  0.93313100  0.78896900  0.00000000  1
  Fe  Fe24  1  0.12000100  0.62000100  0.88344700  1
  Fe  Fe25  1  0.76344600  0.26344600  0.88344700  1
  Fe  Fe26  1  0.26344600  0.12000100  0.88344700  1
  Fe  Fe27  1  0.62000100  0.76344600  0.88344700  1
  Fe  Fe28  1  0.87999900  0.37999900  0.11655300  1
  Fe  Fe29  1  0.23655400  0.73655400  0.11655300  1
  Fe  Fe30  1  0.73655400  0.87999900  0.11655300  1
  Fe  Fe31  1  0.37999900  0.23655400  0.11655300  1
  Fe  Fe32  1  0.51858600  0.01858600  0.81328300  1
  Fe  Fe33  1  0.29469700  0.79469700  0.81328300  1
  Fe  Fe34  1  0.79469700  0.51858600  0.81328300  1
  Fe  Fe35  1  0.01858600  0.29469700  0.81328300  1
  Fe  Fe36  1  0.48141400  0.98141400  0.18671700  1
  Fe  Fe37  1  0.70530300  0.20530300  0.18671700  1
  Fe  Fe38  1  0.20530300  0.48141400  0.18671700  1
  Fe  Fe39  1  0.98141400  0.70530300  0.18671700  1
