# generated using pymatgen
data_AlH8C2N
_symmetry_space_group_name_H-M   'P 1'
_cell_length_a   9.15254200
_cell_length_b   6.95579200
_cell_length_c   26.76560288
_cell_angle_alpha   87.01173912
_cell_angle_beta   90.00000000
_cell_angle_gamma   90.00000000
_symmetry_Int_Tables_number   1
_chemical_formula_structural   AlH8C2N
_chemical_formula_sum   'Al12 H96 C24 N12'
_cell_volume   1701.66633802
_cell_formula_units_Z   12
loop_
 _symmetry_equiv_pos_site_id
 _symmetry_equiv_pos_as_xyz
  1  'x, y, z'
loop_
 _atom_site_type_symbol
 _atom_site_label
 _atom_site_symmetry_multiplicity
 _atom_site_fract_x
 _atom_site_fract_y
 _atom_site_fract_z
 _atom_site_occupancy
  Al  Al0  1  0.58232600  0.62675400  0.07800800  1
  Al  Al1  1  0.08232600  0.37324600  0.42199200  1
  Al  Al2  1  0.41767400  0.37324600  0.92199200  1
  Al  Al3  1  0.91767400  0.62675400  0.57800800  1
  Al  Al4  1  0.92761000  0.73261100  0.09954300  1
  Al  Al5  1  0.42761000  0.26738900  0.40045700  1
  Al  Al6  1  0.07239000  0.26738900  0.90045700  1
  Al  Al7  1  0.57239000  0.73261100  0.59954300  1
  Al  Al8  1  0.69001800  0.69712300  0.19304600  1
  Al  Al9  1  0.19001800  0.30287700  0.30695400  1
  Al  Al10  1  0.30998200  0.30287700  0.80695400  1
  Al  Al11  1  0.80998200  0.69712300  0.69304600  1
  H  H12  1  0.61609300  0.40194400  0.08810700  1
  H  H13  1  0.11609300  0.59805600  0.41189300  1
  H  H14  1  0.38390700  0.59805600  0.91189300  1
  H  H15  1  0.88390700  0.40194400  0.58810700  1
  H  H16  1  0.45165600  0.69365500  0.04128600  1
  H  H17  1  0.95165600  0.30634500  0.45871400  1
  H  H18  1  0.54834400  0.30634500  0.95871400  1
  H  H19  1  0.04834400  0.69365500  0.54128600  1
  H  H20  1  0.96666300  0.50836100  0.10622200  1
  H  H21  1  0.46666300  0.49163900  0.39377800  1
  H  H22  1  0.03333700  0.49163900  0.89377800  1
  H  H23  1  0.53333700  0.50836100  0.60622200  1
  H  H24  1  0.05113200  0.88244800  0.08012400  1
  H  H25  1  0.55113200  0.11755200  0.41987600  1
  H  H26  1  0.94886800  0.11755200  0.91987600  1
  H  H27  1  0.44886800  0.88244800  0.58012400  1
  H  H28  1  0.64033600  0.81766700  0.23970200  1
  H  H29  1  0.14033600  0.18233300  0.26029800  1
  H  H30  1  0.35966400  0.18233300  0.76029800  1
  H  H31  1  0.85966400  0.81766700  0.73970200  1
  H  H32  1  0.72497600  0.47203600  0.20124100  1
  H  H33  1  0.22497600  0.52796400  0.29875900  1
  H  H34  1  0.27502400  0.52796400  0.79875900  1
  H  H35  1  0.77502400  0.47203600  0.70124100  1
  H  H36  1  0.36917000  0.91987700  0.11511600  1
  H  H37  1  0.86917000  0.08012300  0.38488400  1
  H  H38  1  0.63083000  0.08012300  0.88488400  1
  H  H39  1  0.13083000  0.91987700  0.61511600  1
  H  H40  1  0.54193900  0.02682000  0.12681600  1
  H  H41  1  0.04193900  0.97318000  0.37318400  1
  H  H42  1  0.45806100  0.97318000  0.87318400  1
  H  H43  1  0.95806100  0.02682000  0.62681600  1
  H  H44  1  0.42610200  0.95653400  0.17786600  1
  H  H45  1  0.92610200  0.04346600  0.32213400  1
  H  H46  1  0.57389800  0.04346600  0.82213400  1
  H  H47  1  0.07389800  0.95653400  0.67786600  1
  H  H48  1  0.32124200  0.58786100  0.13707700  1
  H  H49  1  0.82124200  0.41213900  0.36292300  1
  H  H50  1  0.67875800  0.41213900  0.86292300  1
  H  H51  1  0.17875800  0.58786100  0.63707700  1
  H  H52  1  0.37399000  0.63022300  0.19972300  1
  H  H53  1  0.87399000  0.36977700  0.30027700  1
  H  H54  1  0.62601000  0.36977700  0.80027700  1
  H  H55  1  0.12601000  0.63022300  0.69972300  1
  H  H56  1  0.45680300  0.43904000  0.16776400  1
  H  H57  1  0.95680300  0.56096000  0.33223600  1
  H  H58  1  0.54319700  0.56096000  0.83223600  1
  H  H59  1  0.04319700  0.43904000  0.66776400  1
  H  H60  1  0.90194700  0.71435000  0.99047300  1
  H  H61  1  0.40194700  0.28565000  0.50952700  1
  H  H62  1  0.09805300  0.28565000  0.00952700  1
  H  H63  1  0.59805300  0.71435000  0.49047300  1
  H  H64  1  0.71591500  0.65231600  0.98059200  1
  H  H65  1  0.21591500  0.34768400  0.51940800  1
  H  H66  1  0.28408500  0.34768400  0.01940800  1
  H  H67  1  0.78408500  0.65231600  0.48059200  1
  H  H68  1  0.82872600  0.49637800  0.01903200  1
  H  H69  1  0.32872600  0.50362200  0.48096800  1
  H  H70  1  0.17127400  0.50362200  0.98096800  1
  H  H71  1  0.67127400  0.49637800  0.51903200  1
  H  H72  1  0.83553600  0.02014700  0.01701000  1
  H  H73  1  0.33553600  0.97985300  0.48299000  1
  H  H74  1  0.16446400  0.97985300  0.98299000  1
  H  H75  1  0.66446400  0.02014700  0.51701000  1
  H  H76  1  0.70244200  0.04950800  0.06455200  1
  H  H77  1  0.20244200  0.95049200  0.43544800  1
  H  H78  1  0.29755800  0.95049200  0.93544800  1
  H  H79  1  0.79755800  0.04950800  0.56455200  1
  H  H80  1  0.64889500  0.96452400  0.00566500  1
  H  H81  1  0.14889500  0.03547600  0.49433500  1
  H  H82  1  0.35110500  0.03547600  0.99433500  1
  H  H83  1  0.85110500  0.96452400  0.50566500  1
  H  H84  1  0.83893400  0.07891700  0.20426400  1
  H  H85  1  0.33893400  0.92108300  0.29573600  1
  H  H86  1  0.16106600  0.92108300  0.79573600  1
  H  H87  1  0.66106600  0.07891700  0.70426400  1
  H  H88  1  0.77831400  0.09584500  0.14097800  1
  H  H89  1  0.27831400  0.90415500  0.35902200  1
  H  H90  1  0.22168600  0.90415500  0.85902200  1
  H  H91  1  0.72168600  0.09584500  0.64097800  1
  H  H92  1  0.96860900  0.09751800  0.15443600  1
  H  H93  1  0.46860900  0.90248200  0.34556400  1
  H  H94  1  0.03139100  0.90248200  0.84556400  1
  H  H95  1  0.53139100  0.09751800  0.65443600  1
  H  H96  1  0.96240100  0.79831400  0.23838800  1
  H  H97  1  0.46240100  0.20168600  0.26161200  1
  H  H98  1  0.03759900  0.20168600  0.76161200  1
  H  H99  1  0.53759900  0.79831400  0.73838800  1
  H  H100  1  0.09037600  0.82247200  0.18866300  1
  H  H101  1  0.59037600  0.17752800  0.31133700  1
  H  H102  1  0.90962400  0.17752800  0.81133700  1
  H  H103  1  0.40962400  0.82247200  0.68866300  1
  H  H104  1  0.99839300  0.59737000  0.20103700  1
  H  H105  1  0.49839300  0.40263000  0.29896300  1
  H  H106  1  0.00160700  0.40263000  0.79896300  1
  H  H107  1  0.50160700  0.59737000  0.70103700  1
  C  C108  1  0.46376600  0.91707100  0.14066900  1
  C  C109  1  0.96376600  0.08292900  0.35933100  1
  C  C110  1  0.53623400  0.08292900  0.85933100  1
  C  C111  1  0.03623400  0.91707100  0.64066900  1
  C  C112  1  0.41453600  0.58652800  0.16319500  1
  C  C113  1  0.91453600  0.41347200  0.33680500  1
  C  C114  1  0.58546400  0.41347200  0.83680500  1
  C  C115  1  0.08546400  0.58652800  0.66319500  1
  C  C116  1  0.80460100  0.64771400  0.00842700  1
  C  C117  1  0.30460100  0.35228600  0.49157300  1
  C  C118  1  0.19539900  0.35228600  0.99157300  1
  C  C119  1  0.69539900  0.64771400  0.50842700  1
  C  C120  1  0.73542600  0.95849900  0.03422200  1
  C  C121  1  0.23542600  0.04150100  0.46577800  1
  C  C122  1  0.26457400  0.04150100  0.96577800  1
  C  C123  1  0.76457400  0.95849900  0.53422200  1
  C  C124  1  0.86257900  0.03482900  0.16621800  1
  C  C125  1  0.36257900  0.96517100  0.33378200  1
  C  C126  1  0.13742100  0.96517100  0.83378200  1
  C  C127  1  0.63742100  0.03482900  0.66621800  1
  C  C128  1  0.98598500  0.75462900  0.20025100  1
  C  C129  1  0.48598500  0.24537100  0.29974900  1
  C  C130  1  0.01401500  0.24537100  0.79974900  1
  C  C131  1  0.51401500  0.75462900  0.70025100  1
  N  N132  1  0.53076800  0.72168100  0.14390000  1
  N  N133  1  0.03076800  0.27831900  0.35610000  1
  N  N134  1  0.46923200  0.27831900  0.85610000  1
  N  N135  1  0.96923200  0.72168100  0.64390000  1
  N  N136  1  0.76149400  0.75565100  0.05299700  1
  N  N137  1  0.26149400  0.24434900  0.44700300  1
  N  N138  1  0.23850600  0.24434900  0.94700300  1
  N  N139  1  0.73850600  0.75565100  0.55299700  1
  N  N140  1  0.86718900  0.82058600  0.16519700  1
  N  N141  1  0.36718900  0.17941400  0.33480300  1
  N  N142  1  0.13281100  0.17941400  0.83480300  1
  N  N143  1  0.63281100  0.82058600  0.66519700  1
