# generated using pymatgen
data_Mg(BH4)2
_symmetry_space_group_name_H-M   'P 1'
_cell_length_a   8.28545324
_cell_length_b   8.23499924
_cell_length_c   7.77372368
_cell_angle_alpha   62.25852927
_cell_angle_beta   61.60226990
_cell_angle_gamma   56.13920083
_symmetry_Int_Tables_number   1
_chemical_formula_structural   Mg(BH4)2
_chemical_formula_sum   'Mg4 B8 H32'
_cell_volume   372.56617967
_cell_formula_units_Z   4
loop_
 _symmetry_equiv_pos_site_id
 _symmetry_equiv_pos_as_xyz
  1  'x, y, z'
loop_
 _atom_site_type_symbol
 _atom_site_label
 _atom_site_symmetry_multiplicity
 _atom_site_fract_x
 _atom_site_fract_y
 _atom_site_fract_z
 _atom_site_occupancy
  Mg  Mg0  1  0.50000000  0.50000000  0.50000000  1
  Mg  Mg1  1  0.75000000  0.75000000  0.75000000  1
  Mg  Mg2  1  0.00000000  0.00000000  0.00000000  1
  Mg  Mg3  1  0.25000000  0.25000000  0.25000000  1
  B  B4  1  0.87224200  0.37588800  0.90656000  1
  B  B5  1  0.84530900  0.90656100  0.37588800  1
  B  B6  1  0.90656100  0.84530900  0.87224200  1
  B  B7  1  0.37588800  0.87224200  0.84530900  1
  B  B8  1  0.37775800  0.87411200  0.34344000  1
  B  B9  1  0.40469100  0.34344000  0.87411200  1
  B  B10  1  0.34344000  0.40469100  0.37775800  1
  B  B11  1  0.87411200  0.37775800  0.40469100  1
  H  H12  1  0.86615400  0.73038900  0.45350000  1
  H  H13  1  0.94995800  0.45350000  0.73038900  1
  H  H14  1  0.45350000  0.94995800  0.86615400  1
  H  H15  1  0.73038900  0.86615400  0.94995800  1
  H  H16  1  0.38384600  0.51961100  0.79650000  1
  H  H17  1  0.30004200  0.79650000  0.51961100  1
  H  H18  1  0.79650000  0.30004200  0.38384600  1
  H  H19  1  0.51961100  0.38384600  0.30004200  1
  H  H20  1  0.74252300  0.49671300  0.00754200  1
  H  H21  1  0.75322200  0.00754200  0.49671300  1
  H  H22  1  0.00754200  0.75322200  0.74252300  1
  H  H23  1  0.49671300  0.74252300  0.75322200  1
  H  H24  1  0.50747700  0.75328700  0.24245800  1
  H  H25  1  0.49677800  0.24245800  0.75328700  1
  H  H26  1  0.24245800  0.49677800  0.50747700  1
  H  H27  1  0.75328700  0.50747700  0.49677800  1
  H  H28  1  0.29475500  0.78837200  0.01616000  1
  H  H29  1  0.90071300  0.01616000  0.78837200  1
  H  H30  1  0.01616000  0.90071300  0.29475500  1
  H  H31  1  0.78837200  0.29475500  0.90071300  1
  H  H32  1  0.95524500  0.46162800  0.23384000  1
  H  H33  1  0.34928700  0.23384000  0.46162800  1
  H  H34  1  0.23384000  0.34928700  0.95524500  1
  H  H35  1  0.46162800  0.95524500  0.34928700  1
  H  H36  1  0.98778000  0.74597000  0.00833200  1
  H  H37  1  0.25791800  0.00833200  0.74597000  1
  H  H38  1  0.00833200  0.25791800  0.98778000  1
  H  H39  1  0.74597000  0.98778000  0.25791800  1
  H  H40  1  0.26222000  0.50403000  0.24166800  1
  H  H41  1  0.99208200  0.24166800  0.50403000  1
  H  H42  1  0.24166800  0.99208200  0.26222000  1
  H  H43  1  0.50403000  0.26222000  0.99208200  1
