# generated using pymatgen
data_Nb4Ag2O11
_symmetry_space_group_name_H-M   'P 1'
_cell_length_a   6.33082154
_cell_length_b   6.33082154
_cell_length_c   13.07966799
_cell_angle_alpha   76.15885988
_cell_angle_beta   76.15885988
_cell_angle_gamma   59.04815687
_symmetry_Int_Tables_number   1
_chemical_formula_structural   Nb4Ag2O11
_chemical_formula_sum   'Nb8 Ag4 O22'
_cell_volume   432.24960786
_cell_formula_units_Z   2
loop_
 _symmetry_equiv_pos_site_id
 _symmetry_equiv_pos_as_xyz
  1  'x, y, z'
loop_
 _atom_site_type_symbol
 _atom_site_label
 _atom_site_symmetry_multiplicity
 _atom_site_fract_x
 _atom_site_fract_y
 _atom_site_fract_z
 _atom_site_occupancy
  Nb  Nb0  1  0.75363100  0.60791200  0.24934600  1
  Nb  Nb1  1  0.60791200  0.75363100  0.74934600  1
  Nb  Nb2  1  0.39361000  0.24472400  0.24947500  1
  Nb  Nb3  1  0.24472400  0.39361000  0.74947500  1
  Nb  Nb4  1  0.12575500  0.88216900  0.24217500  1
  Nb  Nb5  1  0.88216900  0.12575500  0.74217500  1
  Nb  Nb6  1  0.51589500  0.00026100  0.99299200  1
  Nb  Nb7  1  0.00026100  0.51589500  0.49299200  1
  Ag  Ag8  1  0.32269200  0.83508400  0.51106800  1
  Ag  Ag9  1  0.83508400  0.32269200  0.01106800  1
  Ag  Ag10  1  0.17798800  0.66422000  0.98619400  1
  Ag  Ag11  1  0.66422000  0.17798800  0.48619400  1
  O  O12  1  0.74306400  0.71948900  0.09604600  1
  O  O13  1  0.71948900  0.74306400  0.59604600  1
  O  O14  1  0.27399100  0.25444700  0.40856800  1
  O  O15  1  0.25444700  0.27399100  0.90856800  1
  O  O16  1  0.74994000  0.56988200  0.40931500  1
  O  O17  1  0.56988200  0.74994000  0.90931500  1
  O  O18  1  0.43564700  0.23896300  0.09576900  1
  O  O19  1  0.23896300  0.43564700  0.59576900  1
  O  O20  1  0.22120600  0.93819600  0.09293500  1
  O  O21  1  0.93819600  0.22120600  0.59293500  1
  O  O22  1  0.05890400  0.77781300  0.40891000  1
  O  O23  1  0.77781300  0.05890400  0.90891000  1
  O  O24  1  0.99312300  0.24819200  0.25366300  1
  O  O25  1  0.24819200  0.99312300  0.75366300  1
  O  O26  1  0.75287500  0.00351800  0.25007700  1
  O  O27  1  0.00351800  0.75287500  0.75007700  1
  O  O28  1  0.40670200  0.90506100  0.28122700  1
  O  O29  1  0.90506100  0.40670200  0.78122700  1
  O  O30  1  0.09436700  0.59053900  0.22011000  1
  O  O31  1  0.59053900  0.09436700  0.72011000  1
  O  O32  1  0.49368100  0.50390100  0.25188000  1
  O  O33  1  0.50390100  0.49368100  0.75188000  1
