# generated using pymatgen
data_P4Pb2O15
_symmetry_space_group_name_H-M   'P 1'
_cell_length_a   7.73488300
_cell_length_b   9.84523831
_cell_length_c   10.26287610
_cell_angle_alpha   69.00326091
_cell_angle_beta   73.39633168
_cell_angle_gamma   68.94309349
_symmetry_Int_Tables_number   1
_chemical_formula_structural   P4Pb2O15
_chemical_formula_sum   'P8 Pb4 O30'
_cell_volume   669.77234313
_cell_formula_units_Z   2
loop_
 _symmetry_equiv_pos_site_id
 _symmetry_equiv_pos_as_xyz
  1  'x, y, z'
loop_
 _atom_site_type_symbol
 _atom_site_label
 _atom_site_symmetry_multiplicity
 _atom_site_fract_x
 _atom_site_fract_y
 _atom_site_fract_z
 _atom_site_occupancy
  P  P0  1  0.59353800  0.84130700  0.74099700  1
  P  P1  1  0.40646200  0.15869300  0.25900300  1
  P  P2  1  0.21063500  0.82131400  0.77072900  1
  P  P3  1  0.78936500  0.17868600  0.22927100  1
  P  P4  1  0.36907200  0.50710700  0.75279200  1
  P  P5  1  0.63092800  0.49289300  0.24720800  1
  P  P6  1  0.73657800  0.52354900  0.74235400  1
  P  P7  1  0.26342200  0.47645100  0.25764600  1
  Pb  Pb8  1  0.71298600  0.14249100  0.89433100  1
  Pb  Pb9  1  0.28701400  0.85750900  0.10566900  1
  Pb  Pb10  1  0.03251800  0.74020200  0.53802600  1
  Pb  Pb11  1  0.96748200  0.25979800  0.46197400  1
  O  O12  1  0.40772800  0.85949300  0.68594300  1
  O  O13  1  0.59227200  0.14050700  0.31405700  1
  O  O14  1  0.27114700  0.63760900  0.83449500  1
  O  O15  1  0.72885300  0.36239100  0.16550500  1
  O  O16  1  0.56621100  0.54603800  0.66816500  1
  O  O17  1  0.43378900  0.45396200  0.33183500  1
  O  O18  1  0.66240800  0.65940100  0.81565800  1
  O  O19  1  0.33759200  0.34059900  0.18434200  1
  O  O20  1  0.73589100  0.88025200  0.60599600  1
  O  O21  1  0.26410900  0.11974800  0.39400400  1
  O  O22  1  0.54914500  0.92067700  0.85097600  1
  O  O23  1  0.45085500  0.07932300  0.14902400  1
  O  O24  1  0.12571800  0.89083700  0.89015900  1
  O  O25  1  0.87428200  0.10916300  0.10984100  1
  O  O26  1  0.09457700  0.86601600  0.65683200  1
  O  O27  1  0.90542300  0.13398400  0.34316800  1
  O  O28  1  0.25702000  0.53807200  0.64072500  1
  O  O29  1  0.74298000  0.46192800  0.35927500  1
  O  O30  1  0.40664100  0.35384500  0.85735300  1
  O  O31  1  0.59335900  0.64615500  0.14264700  1
  O  O32  1  0.77430500  0.37842100  0.85752400  1
  O  O33  1  0.22569500  0.62157900  0.14247600  1
  O  O34  1  0.89593800  0.55317300  0.61822000  1
  O  O35  1  0.10406200  0.44682700  0.38178000  1
  O  O36  1  0.78451000  0.79214100  0.26792400  1
  O  O37  1  0.21549000  0.20785900  0.73207600  1
  O  O38  1  0.83854900  0.80116800  0.14111900  1
  O  O39  1  0.16145100  0.19883200  0.85888100  1
  O  O40  1  0.83954100  0.19111300  0.66121000  1
  O  O41  1  0.16045900  0.80888700  0.33879000  1
