# generated using pymatgen
data_Ca6MnSi6Pb2(SO16)2
_symmetry_space_group_name_H-M   'P 1'
_cell_length_a   7.80374188
_cell_length_b   7.80374188
_cell_length_c   13.00696531
_cell_angle_alpha   78.04736794
_cell_angle_beta   78.04736794
_cell_angle_gamma   63.38624284
_symmetry_Int_Tables_number   1
_chemical_formula_structural   Ca6MnSi6Pb2(SO16)2
_chemical_formula_sum   'Ca6 Mn1 Si6 Pb2 S2 O32'
_cell_volume   686.87949930
_cell_formula_units_Z   1
loop_
 _symmetry_equiv_pos_site_id
 _symmetry_equiv_pos_as_xyz
  1  'x, y, z'
loop_
 _atom_site_type_symbol
 _atom_site_label
 _atom_site_symmetry_multiplicity
 _atom_site_fract_x
 _atom_site_fract_y
 _atom_site_fract_z
 _atom_site_occupancy
  Ca  Ca0  1  0.44539000  0.44539000  0.23174700  1
  Ca  Ca1  1  0.55461000  0.55461000  0.76825300  1
  Ca  Ca2  1  0.93124600  0.46612300  0.32381800  1
  Ca  Ca3  1  0.46612300  0.93124600  0.32381800  1
  Ca  Ca4  1  0.06875400  0.53387700  0.67618200  1
  Ca  Ca5  1  0.53387700  0.06875400  0.67618200  1
  Mn  Mn6  1  0.50000000  0.50000000  0.50000000  1
  Si  Si7  1  0.23867300  0.23867300  0.48500600  1
  Si  Si8  1  0.76132700  0.76132700  0.51499400  1
  Si  Si9  1  0.11463100  0.76193900  0.37223000  1
  Si  Si10  1  0.76193900  0.11463100  0.37223000  1
  Si  Si11  1  0.88536900  0.23806100  0.62777000  1
  Si  Si12  1  0.23806100  0.88536900  0.62777000  1
  Pb  Pb13  1  0.89255200  0.89255200  0.13042900  1
  Pb  Pb14  1  0.10744800  0.10744800  0.86957100  1
  S  S15  1  0.23276100  0.23276100  0.10845800  1
  S  S16  1  0.76723900  0.76723900  0.89154200  1
  O  O17  1  0.27507100  0.27507100  0.35812600  1
  O  O18  1  0.72492900  0.72492900  0.64187400  1
  O  O19  1  0.67435500  0.67435500  0.44729100  1
  O  O20  1  0.32564500  0.32564500  0.55270900  1
  O  O21  1  0.00118800  0.68215300  0.48013000  1
  O  O22  1  0.68215300  0.00118800  0.48013000  1
  O  O23  1  0.99881200  0.31784700  0.51987000  1
  O  O24  1  0.31784700  0.99881200  0.51987000  1
  O  O25  1  0.09771400  0.68416000  0.26995200  1
  O  O26  1  0.68416000  0.09771400  0.26995200  1
  O  O27  1  0.90228600  0.31584000  0.73004800  1
  O  O28  1  0.31584000  0.90228600  0.73004800  1
  O  O29  1  0.67986700  0.34288700  0.38581600  1
  O  O30  1  0.34288700  0.67986700  0.38581600  1
  O  O31  1  0.32013300  0.65711300  0.61418400  1
  O  O32  1  0.65711300  0.32013300  0.61418400  1
  O  O33  1  0.00239800  0.00239800  0.36268300  1
  O  O34  1  0.99760200  0.99760200  0.63731700  1
  O  O35  1  0.21956000  0.21956000  0.00032000  1
  O  O36  1  0.78044000  0.78044000  0.99968000  1
  O  O37  1  0.34524800  0.34524800  0.10836800  1
  O  O38  1  0.65475200  0.65475200  0.89163200  1
  O  O39  1  0.03473200  0.33186900  0.16746100  1
  O  O40  1  0.33186900  0.03473200  0.16746100  1
  O  O41  1  0.96526800  0.66813100  0.83253900  1
  O  O42  1  0.66813100  0.96526800  0.83253900  1
  O  O43  1  0.72966900  0.72966900  0.22480900  1
  O  O44  1  0.27033100  0.27033100  0.77519100  1
  O  O45  1  0.73697000  0.36089300  0.09899700  1
  O  O46  1  0.36089300  0.73697000  0.09899700  1
  O  O47  1  0.26303000  0.63910700  0.90100300  1
  O  O48  1  0.63910700  0.26303000  0.90100300  1
