# generated using pymatgen
data_Sr2Fe(PO4)3
_symmetry_space_group_name_H-M   'P 1'
_cell_length_a   8.15590960
_cell_length_b   8.15590960
_cell_length_c   9.07976454
_cell_angle_alpha   113.87824500
_cell_angle_beta   113.87824500
_cell_angle_gamma   92.72378325
_symmetry_Int_Tables_number   1
_chemical_formula_structural   Sr2Fe(PO4)3
_chemical_formula_sum   'Sr4 Fe2 P6 O24'
_cell_volume   488.60514922
_cell_formula_units_Z   2
loop_
 _symmetry_equiv_pos_site_id
 _symmetry_equiv_pos_as_xyz
  1  'x, y, z'
loop_
 _atom_site_type_symbol
 _atom_site_label
 _atom_site_symmetry_multiplicity
 _atom_site_fract_x
 _atom_site_fract_y
 _atom_site_fract_z
 _atom_site_occupancy
  Sr  Sr0  1  0.66460000  0.74577000  0.30080700  1
  Sr  Sr1  1  0.25423000  0.33540000  0.19919300  1
  Sr  Sr2  1  0.33540000  0.25423000  0.69919300  1
  Sr  Sr3  1  0.74577000  0.66460000  0.80080700  1
  Fe  Fe4  1  0.00000000  0.50000000  0.50000000  1
  Fe  Fe5  1  0.50000000  0.00000000  0.00000000  1
  P  P6  1  0.96912800  0.03087200  0.25000000  1
  P  P7  1  0.03087200  0.96912800  0.75000000  1
  P  P8  1  0.63253400  0.24902400  0.45076300  1
  P  P9  1  0.75097600  0.36746600  0.04923700  1
  P  P10  1  0.36746600  0.75097600  0.54923700  1
  P  P11  1  0.24902400  0.63253400  0.95076300  1
  O  O12  1  0.02946700  0.23465300  0.40013300  1
  O  O13  1  0.76534700  0.97053300  0.09986700  1
  O  O14  1  0.97053300  0.76534700  0.59986700  1
  O  O15  1  0.23465300  0.02946700  0.90013300  1
  O  O16  1  0.80104600  0.42011500  0.55051100  1
  O  O17  1  0.57988500  0.19895400  0.94948900  1
  O  O18  1  0.19895400  0.57988500  0.44948900  1
  O  O19  1  0.42011500  0.80104600  0.05051100  1
  O  O20  1  0.80574100  0.46672500  0.25617300  1
  O  O21  1  0.53327500  0.19425900  0.24382700  1
  O  O22  1  0.19425900  0.53327500  0.74382700  1
  O  O23  1  0.46672500  0.80574100  0.75617300  1
  O  O24  1  0.97161700  0.88743400  0.32028700  1
  O  O25  1  0.11256600  0.02838300  0.17971300  1
  O  O26  1  0.02838300  0.11256600  0.67971300  1
  O  O27  1  0.88743400  0.97161700  0.82028700  1
  O  O28  1  0.49940600  0.31923700  0.53020200  1
  O  O29  1  0.68076300  0.50059400  0.96979800  1
  O  O30  1  0.50059400  0.68076300  0.46979800  1
  O  O31  1  0.31923700  0.49940600  0.03020200  1
  O  O32  1  0.69564800  0.08329400  0.47602500  1
  O  O33  1  0.91670600  0.30435200  0.02397400  1
  O  O34  1  0.30435200  0.91670600  0.52397500  1
  O  O35  1  0.08329400  0.69564800  0.97602500  1
