# generated using pymatgen
data_Tm4Ga21Ni10
_symmetry_space_group_name_H-M   'P 1'
_cell_length_a   10.58066380
_cell_length_b   10.58066380
_cell_length_c   15.50642452
_cell_angle_alpha   57.03230332
_cell_angle_beta   57.03230332
_cell_angle_gamma   22.04826213
_symmetry_Int_Tables_number   1
_chemical_formula_structural   Tm4Ga21Ni10
_chemical_formula_sum   'Tm4 Ga21 Ni10'
_cell_volume   542.34101331
_cell_formula_units_Z   1
loop_
 _symmetry_equiv_pos_site_id
 _symmetry_equiv_pos_as_xyz
  1  'x, y, z'
loop_
 _atom_site_type_symbol
 _atom_site_label
 _atom_site_symmetry_multiplicity
 _atom_site_fract_x
 _atom_site_fract_y
 _atom_site_fract_z
 _atom_site_occupancy
  Tm  Tm0  1  0.87951700  0.87951700  0.33307800  1
  Tm  Tm1  1  0.12048300  0.12048300  0.66692200  1
  Tm  Tm2  1  0.23091200  0.23091200  0.17331800  1
  Tm  Tm3  1  0.76908800  0.76908800  0.82668200  1
  Ga  Ga4  1  0.46039200  0.46039200  0.36673400  1
  Ga  Ga5  1  0.53960800  0.53960800  0.63326600  1
  Ga  Ga6  1  0.79814600  0.79814600  0.00367900  1
  Ga  Ga7  1  0.20185400  0.20185400  0.99632100  1
  Ga  Ga8  1  0.70193400  0.70193400  0.49714500  1
  Ga  Ga9  1  0.29806600  0.29806600  0.50285500  1
  Ga  Ga10  1  0.88286200  0.88286200  0.55166500  1
  Ga  Ga11  1  0.11713800  0.11713800  0.44833500  1
  Ga  Ga12  1  0.61497400  0.61497400  0.29650000  1
  Ga  Ga13  1  0.38502600  0.38502600  0.70350000  1
  Ga  Ga14  1  0.75252700  0.75252700  0.29322600  1
  Ga  Ga15  1  0.24747300  0.24747300  0.70677400  1
  Ga  Ga16  1  0.60167800  0.60167800  0.00355000  1
  Ga  Ga17  1  0.39832200  0.39832200  0.99645000  1
  Ga  Ga18  1  0.99311600  0.99311600  0.09082200  1
  Ga  Ga19  1  0.00688400  0.00688400  0.90917800  1
  Ga  Ga20  1  0.93533900  0.93533900  0.79556800  1
  Ga  Ga21  1  0.06466100  0.06466100  0.20443200  1
  Ga  Ga22  1  0.50000000  0.50000000  0.50000000  1
  Ga  Ga23  1  0.37225500  0.37225500  0.19635000  1
  Ga  Ga24  1  0.62774500  0.62774500  0.80365000  1
  Ni  Ni25  1  0.49795600  0.49795600  0.18487300  1
  Ni  Ni26  1  0.50204400  0.50204400  0.81512700  1
  Ni  Ni27  1  0.86558500  0.86558500  0.10532700  1
  Ni  Ni28  1  0.13441500  0.13441500  0.89467300  1
  Ni  Ni29  1  0.74912700  0.74912700  0.61543000  1
  Ni  Ni30  1  0.25087300  0.25087300  0.38457000  1
  Ni  Ni31  1  0.65307200  0.65307200  0.11403700  1
  Ni  Ni32  1  0.34692800  0.34692800  0.88596300  1
  Ni  Ni33  1  0.97574200  0.97574200  0.60664200  1
  Ni  Ni34  1  0.02425800  0.02425800  0.39335800  1
