# generated using pymatgen
data_NpN4O11
_symmetry_space_group_name_H-M   'P 1'
_cell_length_a   8.42662930
_cell_length_b   8.42662930
_cell_length_c   8.42662969
_cell_angle_alpha   66.90786610
_cell_angle_beta   66.90786610
_cell_angle_gamma   66.90786372
_symmetry_Int_Tables_number   1
_chemical_formula_structural   NpN4O11
_chemical_formula_sum   'Np2 N8 O22'
_cell_volume   485.80656729
_cell_formula_units_Z   2
loop_
 _symmetry_equiv_pos_site_id
 _symmetry_equiv_pos_as_xyz
  1  'x, y, z'
loop_
 _atom_site_type_symbol
 _atom_site_label
 _atom_site_symmetry_multiplicity
 _atom_site_fract_x
 _atom_site_fract_y
 _atom_site_fract_z
 _atom_site_occupancy
  Np  Np0  1  0.25000000  0.25000000  0.25000000  1
  Np  Np1  1  0.75000000  0.75000000  0.75000000  1
  N  N2  1  0.50000000  0.50000000  0.50000000  1
  N  N3  1  0.00000000  0.00000000  0.00000000  1
  N  N4  1  0.56078200  0.93921800  0.25000000  1
  N  N5  1  0.25000000  0.56078200  0.93921800  1
  N  N6  1  0.93921800  0.25000000  0.56078200  1
  N  N7  1  0.75000000  0.43921800  0.06078200  1
  N  N8  1  0.06078200  0.75000000  0.43921800  1
  N  N9  1  0.43921800  0.06078200  0.75000000  1
  O  O10  1  0.15957000  0.15957000  0.15957000  1
  O  O11  1  0.65957000  0.65957000  0.65957000  1
  O  O12  1  0.84043000  0.84043000  0.84043000  1
  O  O13  1  0.34043000  0.34043000  0.34043000  1
  O  O14  1  0.69080700  0.80919300  0.25000000  1
  O  O15  1  0.25000000  0.69080700  0.80919300  1
  O  O16  1  0.80919300  0.25000000  0.69080700  1
  O  O17  1  0.75000000  0.30919300  0.19080700  1
  O  O18  1  0.19080700  0.75000000  0.30919300  1
  O  O19  1  0.30919300  0.19080700  0.75000000  1
  O  O20  1  0.41185700  0.94542500  0.38027100  1
  O  O21  1  0.38027100  0.41185700  0.94542500  1
  O  O22  1  0.94542500  0.38027100  0.41185700  1
  O  O23  1  0.88027100  0.44542500  0.91185700  1
  O  O24  1  0.91185700  0.88027100  0.44542500  1
  O  O25  1  0.44542500  0.91185700  0.88027100  1
  O  O26  1  0.58814300  0.05457500  0.61972900  1
  O  O27  1  0.61972900  0.58814300  0.05457500  1
  O  O28  1  0.05457500  0.61972900  0.58814300  1
  O  O29  1  0.11972900  0.55457500  0.08814300  1
  O  O30  1  0.08814300  0.11972900  0.55457500  1
  O  O31  1  0.55457500  0.08814300  0.11972900  1
