# generated using pymatgen
data_Sn2As2H24C8S2O3
_symmetry_space_group_name_H-M   'P 1'
_cell_length_a   7.51454600
_cell_length_b   12.40742147
_cell_length_c   13.41201601
_cell_angle_alpha   70.52186418
_cell_angle_beta   74.51605370
_cell_angle_gamma   84.79274602
_symmetry_Int_Tables_number   1
_chemical_formula_structural   Sn2As2H24C8S2O3
_chemical_formula_sum   'Sn4 As4 H48 C16 S4 O6'
_cell_volume   1136.12730552
_cell_formula_units_Z   2
loop_
 _symmetry_equiv_pos_site_id
 _symmetry_equiv_pos_as_xyz
  1  'x, y, z'
loop_
 _atom_site_type_symbol
 _atom_site_label
 _atom_site_symmetry_multiplicity
 _atom_site_fract_x
 _atom_site_fract_y
 _atom_site_fract_z
 _atom_site_occupancy
  Sn  Sn0  1  0.27986000  0.51840900  0.24419300  1
  Sn  Sn1  1  0.72014000  0.48159100  0.75580700  1
  Sn  Sn2  1  0.54923200  0.36415300  0.07796900  1
  Sn  Sn3  1  0.45076800  0.63584700  0.92203100  1
  As  As4  1  0.46695000  0.18599500  0.35415000  1
  As  As5  1  0.53305000  0.81400500  0.64585000  1
  As  As6  1  0.05929400  0.76828600  0.23833000  1
  As  As7  1  0.94070600  0.23171400  0.76167000  1
  H  H8  1  0.04651900  0.35529200  0.26358500  1
  H  H9  1  0.95348100  0.64470800  0.73641500  1
  H  H10  1  0.97182900  0.40627300  0.37964100  1
  H  H11  1  0.02817100  0.59372700  0.62035900  1
  H  H12  1  0.92631200  0.48999000  0.25133000  1
  H  H13  1  0.07368800  0.51001000  0.74867000  1
  H  H14  1  0.45907600  0.63255000  0.32657300  1
  H  H15  1  0.54092400  0.36745000  0.67342700  1
  H  H16  1  0.38111000  0.49784100  0.42684300  1
  H  H17  1  0.61889000  0.50215900  0.57315700  1
  H  H18  1  0.58624800  0.50372400  0.31883200  1
  H  H19  1  0.41375200  0.49627600  0.68116800  1
  H  H20  1  0.23570500  0.26907500  0.08216800  1
  H  H21  1  0.76429500  0.73092500  0.91783200  1
  H  H22  1  0.42313700  0.24581100  0.97517500  1
  H  H23  1  0.57686300  0.75418900  0.02482500  1
  H  H24  1  0.40729300  0.16093700  0.11541000  1
  H  H25  1  0.59270700  0.83906300  0.88459000  1
  H  H26  1  0.87125100  0.41414800  0.10660300  1
  H  H27  1  0.12874900  0.58585200  0.89339700  1
  H  H28  1  0.87104400  0.26863400  0.10806200  1
  H  H29  1  0.12895600  0.73136600  0.89193800  1
  H  H30  1  0.91210700  0.38392300  0.97974400  1
  H  H31  1  0.08789300  0.61607700  0.02025600  1
  H  H32  1  0.16327800  0.11647500  0.35278200  1
  H  H33  1  0.83672200  0.88352500  0.64721800  1
  H  H34  1  0.23445200  0.03652000  0.47525500  1
  H  H35  1  0.76554800  0.96348000  0.52474500  1
  H  H36  1  0.13302000  0.17554300  0.46341400  1
  H  H37  1  0.86698000  0.82445700  0.53658600  1
  H  H38  1  0.43600400  0.27412800  0.50307500  1
  H  H39  1  0.56399600  0.72587200  0.49692500  1
  H  H40  1  0.54251800  0.13573300  0.53321500  1
  H  H41  1  0.45748200  0.86426700  0.46678500  1
  H  H42  1  0.67713800  0.25776500  0.43641000  1
  H  H43  1  0.32286200  0.74223500  0.56359000  1
  H  H44  1  0.23951100  0.94972000  0.12238900  1
  H  H45  1  0.76048900  0.05028000  0.87761100  1
  H  H46  1  0.09140800  0.96226900  0.24810400  1
  H  H47  1  0.90859200  0.03773100  0.75189600  1
  H  H48  1  0.30693500  0.88597400  0.24907600  1
  H  H49  1  0.69306500  0.11402600  0.75092400  1
  H  H50  1  0.79476500  0.74295000  0.16564700  1
  H  H51  1  0.20523500  0.25705000  0.83435300  1
  H  H52  1  0.77112000  0.87254200  0.20086900  1
  H  H53  1  0.22888000  0.12745800  0.79913100  1
  H  H54  1  0.92901000  0.86722500  0.07484500  1
  H  H55  1  0.07099000  0.13277500  0.92515500  1
  C  C56  1  0.02331800  0.43065900  0.29055200  1
  C  C57  1  0.97668200  0.56934100  0.70944800  1
  C  C58  1  0.44955200  0.54082800  0.34088300  1
  C  C59  1  0.55044800  0.45917200  0.65911700  1
  C  C60  1  0.38136000  0.24505200  0.06008400  1
  C  C61  1  0.61864000  0.75494800  0.93991600  1
  C  C62  1  0.83890100  0.35757900  0.06633700  1
  C  C63  1  0.16109900  0.64242100  0.93366300  1
  C  C64  1  0.21913100  0.12193800  0.41835800  1
  C  C65  1  0.78086900  0.87806200  0.58164200  1
  C  C66  1  0.54010000  0.21872900  0.46967000  1
  C  C67  1  0.45990000  0.78127100  0.53033000  1
  C  C68  1  0.19120800  0.90754200  0.21078300  1
  C  C69  1  0.80879200  0.09245800  0.78921700  1
  C  C70  1  0.86625300  0.81838400  0.16025400  1
  C  C71  1  0.13374700  0.18161600  0.83974600  1
  S  S72  1  0.65366100  0.07558200  0.28730200  1
  S  S73  1  0.34633900  0.92441800  0.71269800  1
  S  S74  1  0.95943400  0.67641000  0.40460000  1
  S  S75  1  0.04056600  0.32359000  0.59540000  1
  O  O76  1  0.44268600  0.32086200  0.25692700  1
  O  O77  1  0.55731400  0.67913800  0.74307300  1
  O  O78  1  0.21392900  0.68900000  0.16566400  1
  O  O79  1  0.78607100  0.31100000  0.83433600  1
  O  O80  1  0.42313000  0.51485000  0.09258000  1
  O  O81  1  0.57687000  0.48515000  0.90742000  1
