# generated using pymatgen
data_Sn2H12C4Cl2O
_symmetry_space_group_name_H-M   'P 1'
_cell_length_a   19.48795100
_cell_length_b   7.48525900
_cell_length_c   9.29972098
_cell_angle_alpha   69.91347667
_cell_angle_beta   90.00000000
_cell_angle_gamma   90.00000000
_symmetry_Int_Tables_number   1
_chemical_formula_structural   Sn2H12C4Cl2O
_chemical_formula_sum   'Sn8 H48 C16 Cl8 O4'
_cell_volume   1274.05882518
_cell_formula_units_Z   4
loop_
 _symmetry_equiv_pos_site_id
 _symmetry_equiv_pos_as_xyz
  1  'x, y, z'
loop_
 _atom_site_type_symbol
 _atom_site_label
 _atom_site_symmetry_multiplicity
 _atom_site_fract_x
 _atom_site_fract_y
 _atom_site_fract_z
 _atom_site_occupancy
  Sn  Sn0  1  0.53727300  0.52116500  0.15869000  1
  Sn  Sn1  1  0.03727300  0.47883500  0.34131000  1
  Sn  Sn2  1  0.46272700  0.47883500  0.84131000  1
  Sn  Sn3  1  0.96272700  0.52116500  0.65869000  1
  Sn  Sn4  1  0.65826900  0.58403400  0.84479200  1
  Sn  Sn5  1  0.15826900  0.41596600  0.65520800  1
  Sn  Sn6  1  0.34173100  0.41596600  0.15520800  1
  Sn  Sn7  1  0.84173100  0.58403400  0.34479200  1
  H  H8  1  0.51291700  0.16520200  0.35753500  1
  H  H9  1  0.01291700  0.83479800  0.14246500  1
  H  H10  1  0.48708300  0.83479800  0.64246500  1
  H  H11  1  0.98708300  0.16520200  0.85753500  1
  H  H12  1  0.58489300  0.26766700  0.42220600  1
  H  H13  1  0.08489300  0.73233300  0.07779400  1
  H  H14  1  0.41510700  0.73233300  0.57779400  1
  H  H15  1  0.91510700  0.26766700  0.92220600  1
  H  H16  1  0.59578100  0.17421200  0.26976900  1
  H  H17  1  0.09578100  0.82578800  0.23023100  1
  H  H18  1  0.40421900  0.82578800  0.73023100  1
  H  H19  1  0.90421900  0.17421200  0.76976900  1
  H  H20  1  0.45676500  0.79178000  0.20453500  1
  H  H21  1  0.95676500  0.20822000  0.29546500  1
  H  H22  1  0.54323500  0.20822000  0.79546500  1
  H  H23  1  0.04323500  0.79178000  0.70453500  1
  H  H24  1  0.53024700  0.90027200  0.08824400  1
  H  H25  1  0.03024700  0.09972800  0.41175600  1
  H  H26  1  0.46975300  0.09972800  0.91175600  1
  H  H27  1  0.96975300  0.90027200  0.58824400  1
  H  H28  1  0.53912000  0.78900600  0.29168900  1
  H  H29  1  0.03912000  0.21099400  0.20831100  1
  H  H30  1  0.46088000  0.21099400  0.70831100  1
  H  H31  1  0.96088000  0.78900600  0.79168900  1
  H  H32  1  0.71820900  0.25828100  0.84249600  1
  H  H33  1  0.21820900  0.74171900  0.65750400  1
  H  H34  1  0.28179100  0.74171900  0.15750400  1
  H  H35  1  0.78179100  0.25828100  0.34249600  1
  H  H36  1  0.68369900  0.22739800  0.02934000  1
  H  H37  1  0.18369900  0.77260200  0.47066000  1
  H  H38  1  0.31630100  0.77260200  0.97066000  1
  H  H39  1  0.81630100  0.22739800  0.52934000  1
  H  H40  1  0.76404000  0.34840200  0.97160800  1
  H  H41  1  0.26404000  0.65159800  0.52839200  1
  H  H42  1  0.23596000  0.65159800  0.02839200  1
  H  H43  1  0.73596000  0.34840200  0.47160800  1
  H  H44  1  0.68365300  0.92326200  0.62413700  1
  H  H45  1  0.18365300  0.07673800  0.87586300  1
  H  H46  1  0.31634700  0.07673800  0.37586300  1
  H  H47  1  0.81634700  0.92326200  0.12413700  1
  H  H48  1  0.73472400  0.90306800  0.79044400  1
  H  H49  1  0.23472400  0.09693200  0.70955600  1
  H  H50  1  0.26527600  0.09693200  0.20955600  1
  H  H51  1  0.76527600  0.90306800  0.29044400  1
  H  H52  1  0.64515500  0.95874200  0.78868800  1
  H  H53  1  0.14515500  0.04125800  0.71131200  1
  H  H54  1  0.35484500  0.04125800  0.21131200  1
  H  H55  1  0.85484500  0.95874200  0.28868800  1
  C  C56  1  0.56030800  0.24678700  0.32320000  1
  C  C57  1  0.06030800  0.75321300  0.17680000  1
  C  C58  1  0.43969200  0.75321300  0.67680000  1
  C  C59  1  0.93969200  0.24678700  0.82320000  1
  C  C60  1  0.51219200  0.78478200  0.18927900  1
  C  C61  1  0.01219200  0.21521800  0.31072100  1
  C  C62  1  0.48780800  0.21521800  0.81072100  1
  C  C63  1  0.98780800  0.78478200  0.68927900  1
  C  C64  1  0.71345200  0.32063300  0.93285200  1
  C  C65  1  0.21345200  0.67936700  0.56714800  1
  C  C66  1  0.28654800  0.67936700  0.06714800  1
  C  C67  1  0.78654800  0.32063300  0.43285200  1
  C  C68  1  0.68400400  0.88048700  0.74932000  1
  C  C69  1  0.18400400  0.11951300  0.75068000  1
  C  C70  1  0.31599600  0.11951300  0.25068000  1
  C  C71  1  0.81599600  0.88048700  0.24932000  1
  Cl  Cl72  1  0.66986400  0.61964700  0.13278200  1
  Cl  Cl73  1  0.16986400  0.38035300  0.36721800  1
  Cl  Cl74  1  0.33013600  0.38035300  0.86721800  1
  Cl  Cl75  1  0.83013600  0.61964700  0.63278200  1
  Cl  Cl76  1  0.61401700  0.55460600  0.60441200  1
  Cl  Cl77  1  0.11401700  0.44539400  0.89558800  1
  Cl  Cl78  1  0.38598300  0.44539400  0.39558800  1
  Cl  Cl79  1  0.88598300  0.55460600  0.10441200  1
  O  O80  1  0.55911800  0.54040100  0.93364700  1
  O  O81  1  0.05911800  0.45959900  0.56635300  1
  O  O82  1  0.44088200  0.45959900  0.06635300  1
  O  O83  1  0.94088200  0.54040100  0.43364700  1
