# generated using pymatgen
data_Ga2CuSe3O10
_symmetry_space_group_name_H-M   'P 1'
_cell_length_a   6.69383500
_cell_length_b   9.92967000
_cell_length_c   13.29246400
_cell_angle_alpha   90.00000000
_cell_angle_beta   90.00000000
_cell_angle_gamma   90.00000000
_symmetry_Int_Tables_number   1
_chemical_formula_structural   Ga2CuSe3O10
_chemical_formula_sum   'Ga8 Cu4 Se12 O40'
_cell_volume   883.51781575
_cell_formula_units_Z   4
loop_
 _symmetry_equiv_pos_site_id
 _symmetry_equiv_pos_as_xyz
  1  'x, y, z'
loop_
 _atom_site_type_symbol
 _atom_site_label
 _atom_site_symmetry_multiplicity
 _atom_site_fract_x
 _atom_site_fract_y
 _atom_site_fract_z
 _atom_site_occupancy
  Ga  Ga0  1  0.75000000  0.21376200  0.25000000  1
  Ga  Ga1  1  0.75000000  0.78623800  0.75000000  1
  Ga  Ga2  1  0.25000000  0.78623800  0.75000000  1
  Ga  Ga3  1  0.25000000  0.21376200  0.25000000  1
  Ga  Ga4  1  0.50000000  0.99651100  0.12703900  1
  Ga  Ga5  1  0.50000000  0.00348900  0.87296100  1
  Ga  Ga6  1  0.00000000  0.99651100  0.37296100  1
  Ga  Ga7  1  0.00000000  0.00348900  0.62703900  1
  Cu  Cu8  1  0.75000000  0.66146100  0.25000000  1
  Cu  Cu9  1  0.75000000  0.33853900  0.75000000  1
  Cu  Cu10  1  0.25000000  0.33853900  0.75000000  1
  Cu  Cu11  1  0.25000000  0.66146100  0.25000000  1
  Se  Se12  1  0.50000000  0.44111300  0.37929800  1
  Se  Se13  1  0.50000000  0.55888700  0.62070200  1
  Se  Se14  1  0.00000000  0.44111300  0.12070200  1
  Se  Se15  1  0.00000000  0.55888700  0.87929800  1
  Se  Se16  1  0.50000000  0.91547800  0.36774900  1
  Se  Se17  1  0.50000000  0.08452200  0.63225100  1
  Se  Se18  1  0.00000000  0.91547800  0.13225100  1
  Se  Se19  1  0.00000000  0.08452200  0.86774900  1
  Se  Se20  1  0.50000000  0.69391000  0.03209900  1
  Se  Se21  1  0.50000000  0.30609000  0.96790100  1
  Se  Se22  1  0.00000000  0.69391000  0.46790100  1
  Se  Se23  1  0.00000000  0.30609000  0.53209900  1
  O  O24  1  0.50000000  0.15778300  0.20402000  1
  O  O25  1  0.50000000  0.84221700  0.79598000  1
  O  O26  1  0.00000000  0.15778300  0.29598000  1
  O  O27  1  0.00000000  0.84221700  0.70402000  1
  O  O28  1  0.70242500  0.33674300  0.35906300  1
  O  O29  1  0.70242500  0.66325700  0.64093700  1
  O  O30  1  0.79757500  0.33674300  0.14093700  1
  O  O31  1  0.79757500  0.66325700  0.85906300  1
  O  O32  1  0.29757500  0.66325700  0.64093700  1
  O  O33  1  0.29757500  0.33674300  0.35906300  1
  O  O34  1  0.20242500  0.66325700  0.85906300  1
  O  O35  1  0.20242500  0.33674300  0.14093700  1
  O  O36  1  0.50000000  0.54304800  0.27139500  1
  O  O37  1  0.50000000  0.45695200  0.72860500  1
  O  O38  1  0.00000000  0.54304800  0.22860500  1
  O  O39  1  0.00000000  0.45695200  0.77139500  1
  O  O40  1  0.50000000  0.85976100  0.24145300  1
  O  O41  1  0.50000000  0.14023900  0.75854700  1
  O  O42  1  0.00000000  0.85976100  0.25854700  1
  O  O43  1  0.00000000  0.14023900  0.74145300  1
  O  O44  1  0.69744200  0.02858700  0.36859000  1
  O  O45  1  0.69744200  0.97141300  0.63141000  1
  O  O46  1  0.80255800  0.02858700  0.13141000  1
  O  O47  1  0.80255800  0.97141300  0.86859000  1
  O  O48  1  0.30255800  0.97141300  0.63141000  1
  O  O49  1  0.30255800  0.02858700  0.36859000  1
  O  O50  1  0.19744200  0.97141300  0.86859000  1
  O  O51  1  0.19744200  0.02858700  0.13141000  1
  O  O52  1  0.70900400  0.67164600  0.10620000  1
  O  O53  1  0.70900400  0.32835400  0.89380000  1
  O  O54  1  0.79099600  0.67164600  0.39380000  1
  O  O55  1  0.79099600  0.32835400  0.60620000  1
  O  O56  1  0.29099600  0.32835400  0.89380000  1
  O  O57  1  0.29099600  0.67164600  0.10620000  1
  O  O58  1  0.20900400  0.32835400  0.60620000  1
  O  O59  1  0.20900400  0.67164600  0.39380000  1
  O  O60  1  0.50000000  0.87306700  0.01630400  1
  O  O61  1  0.50000000  0.12693300  0.98369600  1
  O  O62  1  0.00000000  0.87306700  0.48369600  1
  O  O63  1  0.00000000  0.12693300  0.51630400  1
