# generated using pymatgen
data_PbI2
_symmetry_space_group_name_H-M   'P 1'
_cell_length_a   4.66146242
_cell_length_b   4.66146242
_cell_length_c   86.88354500
_cell_angle_alpha   90.00000000
_cell_angle_beta   90.00000000
_cell_angle_gamma   120.00000601
_symmetry_Int_Tables_number   1
_chemical_formula_structural   PbI2
_chemical_formula_sum   'Pb12 I24'
_cell_volume   1634.98025924
_cell_formula_units_Z   12
loop_
 _symmetry_equiv_pos_site_id
 _symmetry_equiv_pos_as_xyz
  1  'x, y, z'
loop_
 _atom_site_type_symbol
 _atom_site_label
 _atom_site_symmetry_multiplicity
 _atom_site_fract_x
 _atom_site_fract_y
 _atom_site_fract_z
 _atom_site_occupancy
  Pb  Pb0  1  0.66666700  0.33333300  0.97916500  1
  Pb  Pb1  1  0.66666700  0.33333300  0.89584600  1
  Pb  Pb2  1  0.66666700  0.33333300  0.81252100  1
  Pb  Pb3  1  0.66666700  0.33333300  0.72915500  1
  Pb  Pb4  1  0.66666700  0.33333300  0.64582300  1
  Pb  Pb5  1  0.66666700  0.33333300  0.56253600  1
  Pb  Pb6  1  0.33333300  0.66666700  0.47917500  1
  Pb  Pb7  1  0.33333300  0.66666700  0.39582500  1
  Pb  Pb8  1  0.66666700  0.33333300  0.31249500  1
  Pb  Pb9  1  0.66666700  0.33333300  0.22914800  1
  Pb  Pb10  1  0.33333300  0.66666700  0.14584600  1
  Pb  Pb11  1  0.33333300  0.66666700  0.06251600  1
  I  I12  1  0.33333300  0.66666700  0.00086600  1
  I  I13  1  0.00000000  0.00000000  0.95746000  1
  I  I14  1  0.33333300  0.66666700  0.91755200  1
  I  I15  1  0.00000000  0.00000000  0.87411300  1
  I  I16  1  0.33333300  0.66666700  0.83419600  1
  I  I17  1  0.00000000  0.00000000  0.79077700  1
  I  I18  1  0.33333300  0.66666700  0.75089500  1
  I  I19  1  0.00000000  0.00000000  0.70744400  1
  I  I20  1  0.33333300  0.66666700  0.66751700  1
  I  I21  1  0.00000000  0.00000000  0.62416200  1
  I  I22  1  0.33333300  0.66666700  0.58421100  1
  I  I23  1  0.00000000  0.00000000  0.54078900  1
  I  I24  1  0.66666700  0.33333300  0.50085100  1
  I  I25  1  0.00000000  0.00000000  0.45747100  1
  I  I26  1  0.66666700  0.33333300  0.41753800  1
  I  I27  1  0.00000000  0.00000000  0.37413600  1
  I  I28  1  0.33333300  0.66666700  0.33419400  1
  I  I29  1  0.00000000  0.00000000  0.29079600  1
  I  I30  1  0.33333300  0.66666700  0.25088400  1
  I  I31  1  0.00000000  0.00000000  0.20745300  1
  I  I32  1  0.66666700  0.33333300  0.16751200  1
  I  I33  1  0.00000000  0.00000000  0.12413500  1
  I  I34  1  0.66666700  0.33333300  0.08417000  1
  I  I35  1  0.00000000  0.00000000  0.04082500  1
