# generated using pymatgen
data_AlPb3OF9
_symmetry_space_group_name_H-M   'P 1'
_cell_length_a   5.79316000
_cell_length_b   5.73736600
_cell_length_c   24.93790107
_cell_angle_alpha   81.67814063
_cell_angle_beta   90.00000000
_cell_angle_gamma   90.00000000
_symmetry_Int_Tables_number   1
_chemical_formula_structural   AlPb3OF9
_chemical_formula_sum   'Al4 Pb12 O4 F36'
_cell_volume   820.14546890
_cell_formula_units_Z   4
loop_
 _symmetry_equiv_pos_site_id
 _symmetry_equiv_pos_as_xyz
  1  'x, y, z'
loop_
 _atom_site_type_symbol
 _atom_site_label
 _atom_site_symmetry_multiplicity
 _atom_site_fract_x
 _atom_site_fract_y
 _atom_site_fract_z
 _atom_site_occupancy
  Al  Al0  1  0.18443200  0.89551700  0.40758600  1
  Al  Al1  1  0.31556800  0.89551700  0.90758600  1
  Al  Al2  1  0.81556800  0.10448300  0.59241400  1
  Al  Al3  1  0.68443200  0.10448300  0.09241400  1
  Pb  Pb4  1  0.67396100  0.38169200  0.43916600  1
  Pb  Pb5  1  0.82603900  0.38169200  0.93916600  1
  Pb  Pb6  1  0.32603900  0.61830800  0.56083400  1
  Pb  Pb7  1  0.17396100  0.61830800  0.06083400  1
  Pb  Pb8  1  0.67605400  0.94303000  0.31019700  1
  Pb  Pb9  1  0.82394600  0.94303000  0.81019700  1
  Pb  Pb10  1  0.32394600  0.05697000  0.68980300  1
  Pb  Pb11  1  0.17605400  0.05697000  0.18980300  1
  Pb  Pb12  1  0.14380000  0.46907300  0.31176600  1
  Pb  Pb13  1  0.35620000  0.46907300  0.81176600  1
  Pb  Pb14  1  0.85620000  0.53092700  0.68823400  1
  Pb  Pb15  1  0.64380000  0.53092700  0.18823400  1
  O  O16  1  0.72126800  0.63776400  0.50647900  1
  O  O17  1  0.77873200  0.63776400  0.00647900  1
  O  O18  1  0.27873200  0.36223600  0.49352100  1
  O  O19  1  0.22126800  0.36223600  0.99352100  1
  F  F20  1  0.36203300  0.16649200  0.39012400  1
  F  F21  1  0.13796700  0.16649200  0.89012400  1
  F  F22  1  0.63796700  0.83350800  0.60987600  1
  F  F23  1  0.86203300  0.83350800  0.10987600  1
  F  F24  1  0.13273300  0.90869500  0.33326300  1
  F  F25  1  0.36726700  0.90869500  0.83326300  1
  F  F26  1  0.86726700  0.09130500  0.66673700  1
  F  F27  1  0.63273300  0.09130500  0.16673700  1
  F  F28  1  0.24329100  0.88284700  0.47763700  1
  F  F29  1  0.25670900  0.88284700  0.97763700  1
  F  F30  1  0.75670900  0.11715300  0.52236300  1
  F  F31  1  0.74329100  0.11715300  0.02236300  1
  F  F32  1  0.03214800  0.61286200  0.41547100  1
  F  F33  1  0.46785200  0.61286200  0.91547100  1
  F  F34  1  0.96785200  0.38713800  0.58452900  1
  F  F35  1  0.53214800  0.38713800  0.08452900  1
  F  F36  1  0.45099400  0.72801500  0.39618300  1
  F  F37  1  0.04900600  0.72801500  0.89618300  1
  F  F38  1  0.54900600  0.27198500  0.60381700  1
  F  F39  1  0.95099400  0.27198500  0.10381700  1
  F  F40  1  0.91682900  0.06869300  0.40748500  1
  F  F41  1  0.58317100  0.06869300  0.90748500  1
  F  F42  1  0.08317100  0.93130700  0.59251500  1
  F  F43  1  0.41682900  0.93130700  0.09251500  1
  F  F44  1  0.91661400  0.75488600  0.24524900  1
  F  F45  1  0.58338600  0.75488600  0.74524900  1
  F  F46  1  0.08338600  0.24511400  0.75475100  1
  F  F47  1  0.41661400  0.24511400  0.25475100  1
  F  F48  1  0.92077100  0.25520300  0.24840400  1
  F  F49  1  0.57922900  0.25520300  0.74840400  1
  F  F50  1  0.07922900  0.74479700  0.75159600  1
  F  F51  1  0.42077100  0.74479700  0.25159600  1
  F  F52  1  0.73157600  0.47531500  0.34073700  1
  F  F53  1  0.76842400  0.47531500  0.84073700  1
  F  F54  1  0.26842400  0.52468500  0.65926300  1
  F  F55  1  0.23157600  0.52468500  0.15926300  1
