# generated using pymatgen
data_Mn2O3
_symmetry_space_group_name_H-M   'P 1'
_cell_length_a   10.51999036
_cell_length_b   10.51999036
_cell_length_c   10.64882129
_cell_angle_alpha   60.39940383
_cell_angle_beta   60.39940383
_cell_angle_gamma   59.99999775
_symmetry_Int_Tables_number   1
_chemical_formula_structural   Mn2O3
_chemical_formula_sum   'Mn32 O48'
_cell_volume   838.32580616
_cell_formula_units_Z   16
loop_
 _symmetry_equiv_pos_site_id
 _symmetry_equiv_pos_as_xyz
  1  'x, y, z'
loop_
 _atom_site_type_symbol
 _atom_site_label
 _atom_site_symmetry_multiplicity
 _atom_site_fract_x
 _atom_site_fract_y
 _atom_site_fract_z
 _atom_site_occupancy
  Mn  Mn0  1  0.24962600  0.24827000  0.75423200  1
  Mn  Mn1  1  0.24827000  0.74787200  0.75423200  1
  Mn  Mn2  1  0.74787200  0.24962600  0.75423200  1
  Mn  Mn3  1  0.75037400  0.75173000  0.24576800  1
  Mn  Mn4  1  0.75173000  0.25212800  0.24576800  1
  Mn  Mn5  1  0.25212800  0.75037400  0.24576800  1
  Mn  Mn6  1  0.00000000  0.50000000  0.50000000  1
  Mn  Mn7  1  0.50000000  0.00000000  0.50000000  1
  Mn  Mn8  1  0.00000000  0.00000000  0.50000000  1
  Mn  Mn9  1  0.50000000  0.00000000  0.00000000  1
  Mn  Mn10  1  0.00000000  0.50000000  0.00000000  1
  Mn  Mn11  1  0.50000000  0.50000000  0.00000000  1
  Mn  Mn12  1  0.76302700  0.76302700  0.71091900  1
  Mn  Mn13  1  0.23697300  0.23697300  0.28908100  1
  Mn  Mn14  1  0.50000000  0.50000000  0.50000000  1
  Mn  Mn15  1  0.00000000  0.00000000  0.00000000  1
  Mn  Mn16  1  0.39041900  0.86039500  0.88207800  1
  Mn  Mn17  1  0.86039500  0.86710800  0.88207800  1
  Mn  Mn18  1  0.86710800  0.39041900  0.88207800  1
  Mn  Mn19  1  0.60958100  0.13960500  0.11792200  1
  Mn  Mn20  1  0.13960500  0.13289200  0.11792200  1
  Mn  Mn21  1  0.13289200  0.60958100  0.11792200  1
  Mn  Mn22  1  0.36635100  0.36889900  0.37929900  1
  Mn  Mn23  1  0.36889900  0.88545100  0.37929900  1
  Mn  Mn24  1  0.88545100  0.36635100  0.37929900  1
  Mn  Mn25  1  0.63364900  0.63110100  0.62070100  1
  Mn  Mn26  1  0.63110100  0.11454900  0.62070100  1
  Mn  Mn27  1  0.11454900  0.63364900  0.62070100  1
  Mn  Mn28  1  0.38810100  0.38810100  0.83569800  1
  Mn  Mn29  1  0.61189900  0.61189900  0.16430200  1
  Mn  Mn30  1  0.88413200  0.88413200  0.34760300  1
  Mn  Mn31  1  0.11586800  0.11586800  0.65239700  1
  O  O32  1  0.06083700  0.28076700  0.93056200  1
  O  O33  1  0.28076700  0.72783400  0.93056200  1
  O  O34  1  0.72783400  0.06083700  0.93056200  1
  O  O35  1  0.93916300  0.71923300  0.06943800  1
  O  O36  1  0.71923300  0.27216600  0.06943800  1
  O  O37  1  0.27216600  0.93916300  0.06943800  1
  O  O38  1  0.18188300  0.01501000  0.31863200  1
  O  O39  1  0.01501000  0.48447500  0.31863200  1
  O  O40  1  0.48447500  0.18188300  0.31863200  1
  O  O41  1  0.81811700  0.98499000  0.68136800  1
  O  O42  1  0.98499000  0.51552500  0.68136800  1
  O  O43  1  0.51552500  0.81811700  0.68136800  1
  O  O44  1  0.43709900  0.20745900  0.58268900  1
  O  O45  1  0.20745900  0.77275200  0.58268900  1
  O  O46  1  0.77275200  0.43709900  0.58268900  1
  O  O47  1  0.56290100  0.79254100  0.41731100  1
  O  O48  1  0.79254100  0.22724800  0.41731100  1
  O  O49  1  0.22724800  0.56290100  0.41731100  1
  O  O50  1  0.31526300  0.45488800  0.17542300  1
  O  O51  1  0.45488800  0.05442600  0.17542300  1
  O  O52  1  0.05442600  0.31526300  0.17542300  1
  O  O53  1  0.68473700  0.54511200  0.82457700  1
  O  O54  1  0.54511200  0.94557400  0.82457700  1
  O  O55  1  0.94557400  0.68473700  0.82457700  1
  O  O56  1  0.47900400  0.66002500  0.05924200  1
  O  O57  1  0.66002500  0.80173000  0.05924200  1
  O  O58  1  0.80173000  0.47900400  0.05924200  1
  O  O59  1  0.52099600  0.33997500  0.94075800  1
  O  O60  1  0.33997500  0.19827000  0.94075800  1
  O  O61  1  0.19827000  0.52099600  0.94075800  1
  O  O62  1  0.71735400  0.55571600  0.30505300  1
  O  O63  1  0.55571600  0.42187800  0.30505300  1
  O  O64  1  0.42187800  0.71735400  0.30505300  1
  O  O65  1  0.28264600  0.44428400  0.69494700  1
  O  O66  1  0.44428400  0.57812200  0.69494700  1
  O  O67  1  0.57812200  0.28264600  0.69494700  1
  O  O68  1  0.99083200  0.82801900  0.48249100  1
  O  O69  1  0.82801900  0.69865900  0.48249100  1
  O  O70  1  0.69865900  0.99083200  0.48249100  1
  O  O71  1  0.00916800  0.17198100  0.51750900  1
  O  O72  1  0.17198100  0.30134100  0.51750900  1
  O  O73  1  0.30134100  0.00916800  0.51750900  1
  O  O74  1  0.78374900  0.93581900  0.21011300  1
  O  O75  1  0.93581900  0.07032000  0.21011300  1
  O  O76  1  0.07032000  0.78374900  0.21011300  1
  O  O77  1  0.21625100  0.06418100  0.78988700  1
  O  O78  1  0.06418100  0.92968000  0.78988700  1
  O  O79  1  0.92968000  0.21625100  0.78988700  1
