# generated using pymatgen
data_ZnCuCO5
_symmetry_space_group_name_H-M   'P 1'
_cell_length_a   8.82763300
_cell_length_b   3.24086000
_cell_length_c   12.58988485
_cell_angle_alpha   81.52751341
_cell_angle_beta   90.00000000
_cell_angle_gamma   90.00000000
_symmetry_Int_Tables_number   1
_chemical_formula_structural   ZnCuCO5
_chemical_formula_sum   'Zn4 Cu4 C4 O20'
_cell_volume   356.25475692
_cell_formula_units_Z   4
loop_
 _symmetry_equiv_pos_site_id
 _symmetry_equiv_pos_as_xyz
  1  'x, y, z'
loop_
 _atom_site_type_symbol
 _atom_site_label
 _atom_site_symmetry_multiplicity
 _atom_site_fract_x
 _atom_site_fract_y
 _atom_site_fract_z
 _atom_site_occupancy
  Zn  Zn0  1  0.72964500  0.39971400  0.89522300  1
  Zn  Zn1  1  0.22964500  0.60028600  0.60477700  1
  Zn  Zn2  1  0.27035500  0.60028600  0.10477700  1
  Zn  Zn3  1  0.77035500  0.39971400  0.39522300  1
  Cu  Cu4  1  0.50079900  0.02054100  0.71605500  1
  Cu  Cu5  1  0.00079900  0.97945900  0.78394500  1
  Cu  Cu6  1  0.49920100  0.97945900  0.28394500  1
  Cu  Cu7  1  0.99920100  0.02054100  0.21605500  1
  C  C8  1  0.77964900  0.37981400  0.63581500  1
  C  C9  1  0.27964900  0.62018600  0.86418500  1
  C  C10  1  0.22035100  0.62018600  0.36418500  1
  C  C11  1  0.72035100  0.37981400  0.13581500  1
  O  O12  1  0.63239400  0.43642900  0.63814700  1
  O  O13  1  0.13239400  0.56357100  0.86185300  1
  O  O14  1  0.36760600  0.56357100  0.36185300  1
  O  O15  1  0.86760600  0.43642900  0.13814700  1
  O  O16  1  0.85172900  0.38675500  0.72809600  1
  O  O17  1  0.35172900  0.61324500  0.77190400  1
  O  O18  1  0.14827100  0.61324500  0.27190400  1
  O  O19  1  0.64827100  0.38675500  0.22809600  1
  O  O20  1  0.84948000  0.34083100  0.55117600  1
  O  O21  1  0.34948000  0.65916900  0.94882400  1
  O  O22  1  0.15052000  0.65916900  0.44882400  1
  O  O23  1  0.65052000  0.34083100  0.05117600  1
  O  O24  1  0.60926700  0.93490500  0.84037400  1
  O  O25  1  0.10926700  0.06509500  0.65962600  1
  O  O26  1  0.39073300  0.06509500  0.15962600  1
  O  O27  1  0.89073300  0.93490500  0.34037400  1
  O  O28  1  0.87312100  0.89290600  0.90202200  1
  O  O29  1  0.37312100  0.10709400  0.59797800  1
  O  O30  1  0.12687900  0.10709400  0.09797800  1
  O  O31  1  0.62687900  0.89290600  0.40202200  1
