# generated using pymatgen
data_InRhO3
_symmetry_space_group_name_H-M   'P 1'
_cell_length_a   7.70857200
_cell_length_b   7.70857900
_cell_length_c   10.79162661
_cell_angle_alpha   45.77266245
_cell_angle_beta   90.00000000
_cell_angle_gamma   90.00000000
_symmetry_Int_Tables_number   1
_chemical_formula_structural   InRhO3
_chemical_formula_sum   'In8 Rh8 O24'
_cell_volume   459.51381585
_cell_formula_units_Z   8
loop_
 _symmetry_equiv_pos_site_id
 _symmetry_equiv_pos_as_xyz
  1  'x, y, z'
loop_
 _atom_site_type_symbol
 _atom_site_label
 _atom_site_symmetry_multiplicity
 _atom_site_fract_x
 _atom_site_fract_y
 _atom_site_fract_z
 _atom_site_occupancy
  In  In0  1  0.74479400  0.54961900  0.73068000  1
  In  In1  1  0.75520600  0.54961900  0.23068000  1
  In  In2  1  0.25520600  0.45038100  0.26932000  1
  In  In3  1  0.24479400  0.45038100  0.76932000  1
  In  In4  1  0.73416300  0.04649600  0.22399000  1
  In  In5  1  0.76583700  0.04649600  0.72399000  1
  In  In6  1  0.26583700  0.95350400  0.77601000  1
  In  In7  1  0.23416300  0.95350400  0.27601000  1
  Rh  Rh8  1  0.50000000  0.00000000  0.50000000  1
  Rh  Rh9  1  0.00000000  0.00000000  0.00000000  1
  Rh  Rh10  1  0.50000000  0.50000000  0.00000000  1
  Rh  Rh11  1  0.00000000  0.50000000  0.50000000  1
  Rh  Rh12  1  0.50000000  0.00000000  0.00000000  1
  Rh  Rh13  1  0.00000000  0.00000000  0.50000000  1
  Rh  Rh14  1  0.50000000  0.50000000  0.50000000  1
  Rh  Rh15  1  0.00000000  0.50000000  0.00000000  1
  O  O16  1  0.97320300  0.34596700  0.89759900  1
  O  O17  1  0.52679700  0.34596700  0.39759900  1
  O  O18  1  0.02679700  0.65403300  0.10240100  1
  O  O19  1  0.47320300  0.65403300  0.60240100  1
  O  O20  1  0.03958800  0.14630400  0.75134000  1
  O  O21  1  0.46041200  0.14630400  0.25134000  1
  O  O22  1  0.96041200  0.85369600  0.24866000  1
  O  O23  1  0.53958800  0.85369600  0.74866000  1
  O  O24  1  0.75253600  0.92783400  0.47258100  1
  O  O25  1  0.74746400  0.92783400  0.97258100  1
  O  O26  1  0.24746400  0.07216600  0.52741900  1
  O  O27  1  0.25253600  0.07216600  0.02741900  1
  O  O28  1  0.09608800  0.22268200  0.24830000  1
  O  O29  1  0.40391200  0.22268200  0.74830000  1
  O  O30  1  0.90391200  0.77731800  0.75170000  1
  O  O31  1  0.59608800  0.77731800  0.25170000  1
  O  O32  1  0.74930300  0.42516700  0.60168700  1
  O  O33  1  0.75069700  0.42516700  0.10168700  1
  O  O34  1  0.25069700  0.57483300  0.39831300  1
  O  O35  1  0.24930300  0.57483300  0.89831300  1
  O  O36  1  0.90226700  0.28191000  0.46571900  1
  O  O37  1  0.59773300  0.28191000  0.96571900  1
  O  O38  1  0.09773300  0.71809000  0.53428100  1
  O  O39  1  0.40226700  0.71809000  0.03428100  1
