# generated using pymatgen
data_K2Mn(BH4)4
_symmetry_space_group_name_H-M   'P 1'
_cell_length_a   8.24041700
_cell_length_b   10.26233200
_cell_length_c   14.06180735
_cell_angle_alpha   90.00000000
_cell_angle_beta   115.21671966
_cell_angle_gamma   90.00000000
_symmetry_Int_Tables_number   1
_chemical_formula_structural   K2Mn(BH4)4
_chemical_formula_sum   'K8 Mn4 B16 H64'
_cell_volume   1075.82668303
_cell_formula_units_Z   4
loop_
 _symmetry_equiv_pos_site_id
 _symmetry_equiv_pos_as_xyz
  1  'x, y, z'
loop_
 _atom_site_type_symbol
 _atom_site_label
 _atom_site_symmetry_multiplicity
 _atom_site_fract_x
 _atom_site_fract_y
 _atom_site_fract_z
 _atom_site_occupancy
  K  K0  1  0.28564600  0.14337000  0.06111600  1
  K  K1  1  0.28564600  0.35663000  0.56111600  1
  K  K2  1  0.71435400  0.85663000  0.93888400  1
  K  K3  1  0.71435400  0.64337000  0.43888400  1
  K  K4  1  0.01750200  0.98548000  0.70485800  1
  K  K5  1  0.01750200  0.51452000  0.20485800  1
  K  K6  1  0.98249800  0.01452000  0.29514200  1
  K  K7  1  0.98249800  0.48548000  0.79514200  1
  Mn  Mn8  1  0.64539700  0.28749200  0.91732000  1
  Mn  Mn9  1  0.64539700  0.21250800  0.41732000  1
  Mn  Mn10  1  0.35460300  0.71250800  0.08268000  1
  Mn  Mn11  1  0.35460300  0.78749200  0.58268000  1
  B  B12  1  0.14700200  0.82729900  0.13377000  1
  B  B13  1  0.14700200  0.67270100  0.63377000  1
  B  B14  1  0.85299800  0.17270100  0.86623000  1
  B  B15  1  0.85299800  0.32729900  0.36623000  1
  B  B16  1  0.30529900  0.22541000  0.30838000  1
  B  B17  1  0.30529900  0.27459000  0.80838000  1
  B  B18  1  0.69470100  0.77459000  0.69162000  1
  B  B19  1  0.69470100  0.72541000  0.19162000  1
  B  B20  1  0.71294400  0.15142800  0.07229900  1
  B  B21  1  0.71294400  0.34857200  0.57229900  1
  B  B22  1  0.28705600  0.84857200  0.92770100  1
  B  B23  1  0.28705600  0.65142800  0.42770100  1
  B  B24  1  0.70892100  0.99151700  0.42118500  1
  B  B25  1  0.70892100  0.50848300  0.92118500  1
  B  B26  1  0.29107900  0.00848300  0.57881500  1
  B  B27  1  0.29107900  0.49151700  0.07881500  1
  H  H28  1  0.09572700  0.77546400  0.04566600  1
  H  H29  1  0.09572700  0.72453600  0.54566600  1
  H  H30  1  0.90427300  0.22453600  0.95433400  1
  H  H31  1  0.90427300  0.27546400  0.45433400  1
  H  H32  1  0.27568500  0.76614400  0.19915300  1
  H  H33  1  0.27568500  0.73385600  0.69915300  1
  H  H34  1  0.72431500  0.23385600  0.80084700  1
  H  H35  1  0.72431500  0.26614400  0.30084700  1
  H  H36  1  0.02324500  0.81902300  0.15941300  1
  H  H37  1  0.02324500  0.68097700  0.65941300  1
  H  H38  1  0.97675500  0.18097700  0.84058700  1
  H  H39  1  0.97675500  0.31902300  0.34058700  1
  H  H40  1  0.19231400  0.93930100  0.13100300  1
  H  H41  1  0.19231400  0.56069900  0.63100300  1
  H  H42  1  0.80768600  0.06069900  0.86899700  1
  H  H43  1  0.80768600  0.43930100  0.36899700  1
  H  H44  1  0.17789000  0.24428200  0.22299400  1
  H  H45  1  0.17789000  0.25571800  0.72299400  1
  H  H46  1  0.82211000  0.75571800  0.77700600  1
  H  H47  1  0.82211000  0.74428200  0.27700600  1
  H  H48  1  0.28753700  0.28848600  0.37643400  1
  H  H49  1  0.28753700  0.21151400  0.87643400  1
  H  H50  1  0.71246300  0.71151400  0.62356600  1
  H  H51  1  0.71246300  0.78848600  0.12356600  1
  H  H52  1  0.43750500  0.26883800  0.29523900  1
  H  H53  1  0.43750500  0.23116200  0.79523900  1
  H  H54  1  0.56249500  0.73116200  0.70476100  1
  H  H55  1  0.56249500  0.76883800  0.20476100  1
  H  H56  1  0.32381600  0.10959700  0.32975000  1
  H  H57  1  0.32381600  0.39040300  0.82975000  1
  H  H58  1  0.67618400  0.89040300  0.67025000  1
  H  H59  1  0.67618400  0.60959700  0.17025000  1
  H  H60  1  0.57984800  0.13344400  0.98737000  1
  H  H61  1  0.57984800  0.36655600  0.48737000  1
  H  H62  1  0.42015200  0.86655600  0.01263000  1
  H  H63  1  0.42015200  0.63344400  0.51263000  1
  H  H64  1  0.82812100  0.07188500  0.08040300  1
  H  H65  1  0.82812100  0.42811500  0.58040300  1
  H  H66  1  0.17187900  0.92811500  0.91959700  1
  H  H67  1  0.17187900  0.57188500  0.41959700  1
  H  H68  1  0.66552100  0.14482800  0.14320100  1
  H  H69  1  0.66552100  0.35517200  0.64320100  1
  H  H70  1  0.33447900  0.85517200  0.85679900  1
  H  H71  1  0.33447900  0.64482800  0.35679900  1
  H  H72  1  0.77569000  0.26268700  0.07482200  1
  H  H73  1  0.77569000  0.23731300  0.57482200  1
  H  H74  1  0.22431000  0.73731300  0.92517800  1
  H  H75  1  0.22431000  0.76268700  0.42517800  1
  H  H76  1  0.66106200  0.05536200  0.33846400  1
  H  H77  1  0.66106200  0.44463800  0.83846400  1
  H  H78  1  0.33893800  0.94463800  0.66153600  1
  H  H79  1  0.33893800  0.55536200  0.16153600  1
  H  H80  1  0.62280000  0.02758900  0.47054600  1
  H  H81  1  0.62280000  0.47241100  0.97054600  1
  H  H82  1  0.37720000  0.97241100  0.52945400  1
  H  H83  1  0.37720000  0.52758900  0.02945400  1
  H  H84  1  0.86935200  0.00554000  0.47397700  1
  H  H85  1  0.86935200  0.49446000  0.97397700  1
  H  H86  1  0.13064800  0.99446000  0.52602300  1
  H  H87  1  0.13064800  0.50554000  0.02602300  1
  H  H88  1  0.66614500  0.88083000  0.39134800  1
  H  H89  1  0.66614500  0.61917000  0.89134800  1
  H  H90  1  0.33385500  0.11917000  0.60865200  1
  H  H91  1  0.33385500  0.38083000  0.10865200  1
