# generated using pymatgen
data_Zn3Sb2H42(S4N7)2
_symmetry_space_group_name_H-M   'P 1'
_cell_length_a   8.15470100
_cell_length_b   8.69670180
_cell_length_c   13.52014336
_cell_angle_alpha   84.22325851
_cell_angle_beta   88.36965184
_cell_angle_gamma   74.34901019
_symmetry_Int_Tables_number   1
_chemical_formula_structural   Zn3Sb2H42(S4N7)2
_chemical_formula_sum   'Zn3 Sb2 H42 S8 N14'
_cell_volume   918.59462316
_cell_formula_units_Z   1
loop_
 _symmetry_equiv_pos_site_id
 _symmetry_equiv_pos_as_xyz
  1  'x, y, z'
loop_
 _atom_site_type_symbol
 _atom_site_label
 _atom_site_symmetry_multiplicity
 _atom_site_fract_x
 _atom_site_fract_y
 _atom_site_fract_z
 _atom_site_occupancy
  Zn  Zn0  1  0.85771700  0.27033900  0.03519400  1
  Zn  Zn1  1  0.14228300  0.72966100  0.96480600  1
  Zn  Zn2  1  0.50000000  0.00000000  0.50000000  1
  Sb  Sb3  1  0.77151600  0.33182900  0.76882400  1
  Sb  Sb4  1  0.22848400  0.66817100  0.23117600  1
  H  H5  1  0.94774800  0.25231400  0.21947000  1
  H  H6  1  0.05225200  0.74768600  0.78053000  1
  H  H7  1  0.07352100  0.09432200  0.16677300  1
  H  H8  1  0.92647900  0.90567800  0.83322700  1
  H  H9  1  0.10974700  0.27193900  0.14819700  1
  H  H10  1  0.89025300  0.72806100  0.85180300  1
  H  H11  1  0.64268500  0.12750200  0.98804700  1
  H  H12  1  0.35731500  0.87249800  0.01195300  1
  H  H13  1  0.74415600  0.02306700  0.08979900  1
  H  H14  1  0.25584400  0.97693300  0.91020100  1
  H  H15  1  0.58353900  0.18720900  0.10070600  1
  H  H16  1  0.41646100  0.81279100  0.89929400  1
  H  H17  1  0.67584700  0.55226100  0.97978300  1
  H  H18  1  0.32415300  0.44773900  0.02021700  1
  H  H19  1  0.61465800  0.51043500  0.09657700  1
  H  H20  1  0.38534200  0.48956500  0.90342300  1
  H  H21  1  0.79168100  0.56804600  0.07571100  1
  H  H22  1  0.20831900  0.43195400  0.92428900  1
  H  H23  1  0.83482900  0.86512100  0.54049300  1
  H  H24  1  0.16517100  0.13487900  0.45950700  1
  H  H25  1  0.72909000  0.85393900  0.64534900  1
  H  H26  1  0.27091000  0.14606100  0.35465100  1
  H  H27  1  0.77328200  0.02402700  0.60369000  1
  H  H28  1  0.22671800  0.97597300  0.39631000  1
  H  H29  1  0.77636600  0.93757600  0.36549000  1
  H  H30  1  0.22363400  0.06242400  0.63451000  1
  H  H31  1  0.65586500  0.12047200  0.33396300  1
  H  H32  1  0.34413500  0.87952800  0.66603700  1
  H  H33  1  0.59462700  0.96368600  0.30673800  1
  H  H34  1  0.40537300  0.03631400  0.69326200  1
  H  H35  1  0.43328000  0.32840200  0.44418300  1
  H  H36  1  0.56672000  0.67159800  0.55581700  1
  H  H37  1  0.37972300  0.30148800  0.56153300  1
  H  H38  1  0.62027700  0.69851200  0.43846700  1
  H  H39  1  0.58018000  0.28390400  0.53285800  1
  H  H40  1  0.41982000  0.71609600  0.46714200  1
  H  H41  1  0.81091000  0.37386900  0.39890200  1
  H  H42  1  0.18909000  0.62613100  0.60109800  1
  H  H43  1  0.69553500  0.44775700  0.29838700  1
  H  H44  1  0.30446500  0.55224300  0.70161300  1
  H  H45  1  0.87835900  0.48825100  0.31370400  1
  H  H46  1  0.12164100  0.51174900  0.68629600  1
  S  S47  1  0.00460100  0.25208900  0.88840500  1
  S  S48  1  0.99539900  0.74791100  0.11159500  1
  S  S49  1  0.59390400  0.16317100  0.80859200  1
  S  S50  1  0.40609600  0.83682900  0.19140800  1
  S  S51  1  0.62627900  0.60288300  0.78753900  1
  S  S52  1  0.37372100  0.39711700  0.21246100  1
  S  S53  1  0.90025600  0.29972400  0.61286600  1
  S  S54  1  0.09974400  0.70027600  0.38713400  1
  N  N55  1  0.01472100  0.21478600  0.15558700  1
  N  N56  1  0.98527900  0.78521400  0.84441300  1
  N  N57  1  0.68581600  0.13652200  0.05790400  1
  N  N58  1  0.31418400  0.86347800  0.94209600  1
  N  N59  1  0.71794500  0.50164500  0.05009300  1
  N  N60  1  0.28205500  0.49835500  0.94990700  1
  N  N61  1  0.73782200  0.92779000  0.58246700  1
  N  N62  1  0.26217800  0.07221000  0.41753300  1
  N  N63  1  0.65261300  0.00649300  0.36018200  1
  N  N64  1  0.34738700  0.99350700  0.63981800  1
  N  N65  1  0.47161800  0.26013800  0.51011300  1
  N  N66  1  0.52838200  0.73986200  0.48988700  1
  N  N67  1  0.81801800  0.39875200  0.32351300  1
  N  N68  1  0.18198200  0.60124800  0.67648700  1
