# generated using pymatgen
data_KH2SNO3
_symmetry_space_group_name_H-M   'P 1'
_cell_length_a   6.03094500
_cell_length_b   8.34084400
_cell_length_c   8.48465100
_cell_angle_alpha   90.00000000
_cell_angle_beta   90.00000000
_cell_angle_gamma   90.00000000
_symmetry_Int_Tables_number   1
_chemical_formula_structural   KH2SNO3
_chemical_formula_sum   'K4 H8 S4 N4 O12'
_cell_volume   426.80485367
_cell_formula_units_Z   4
loop_
 _symmetry_equiv_pos_site_id
 _symmetry_equiv_pos_as_xyz
  1  'x, y, z'
loop_
 _atom_site_type_symbol
 _atom_site_label
 _atom_site_symmetry_multiplicity
 _atom_site_fract_x
 _atom_site_fract_y
 _atom_site_fract_z
 _atom_site_occupancy
  K  K0  1  0.33514800  0.50000000  0.75000000  1
  K  K1  1  0.66485200  0.00000000  0.25000000  1
  K  K2  1  0.66485200  0.50000000  0.25000000  1
  K  K3  1  0.33514800  0.00000000  0.75000000  1
  H  H4  1  0.75878300  0.35012600  0.87796400  1
  H  H5  1  0.24121700  0.85012600  0.12203600  1
  H  H6  1  0.75878300  0.64987400  0.62203600  1
  H  H7  1  0.24121700  0.14987400  0.37796400  1
  H  H8  1  0.24121700  0.64987400  0.12203600  1
  H  H9  1  0.75878300  0.14987400  0.87796400  1
  H  H10  1  0.24121700  0.35012600  0.37796400  1
  H  H11  1  0.75878300  0.85012600  0.62203600  1
  S  S12  1  0.82209800  0.25000000  0.63846800  1
  S  S13  1  0.17790200  0.75000000  0.36153200  1
  S  S14  1  0.82209800  0.75000000  0.86153200  1
  S  S15  1  0.17790200  0.25000000  0.13846800  1
  N  N16  1  0.70625500  0.25000000  0.81792100  1
  N  N17  1  0.29374500  0.75000000  0.18207900  1
  N  N18  1  0.70625500  0.75000000  0.68207900  1
  N  N19  1  0.29374500  0.25000000  0.31792100  1
  O  O20  1  0.06577500  0.25000000  0.65462100  1
  O  O21  1  0.93422500  0.75000000  0.34537900  1
  O  O22  1  0.06577500  0.75000000  0.84537900  1
  O  O23  1  0.93422500  0.25000000  0.15462100  1
  O  O24  1  0.73792200  0.10222800  0.56595900  1
  O  O25  1  0.26207800  0.60222800  0.43404100  1
  O  O26  1  0.73792200  0.89777200  0.93404100  1
  O  O27  1  0.26207800  0.39777200  0.06595900  1
  O  O28  1  0.26207800  0.89777200  0.43404100  1
  O  O29  1  0.73792200  0.39777200  0.56595900  1
  O  O30  1  0.26207800  0.10222800  0.06595900  1
  O  O31  1  0.73792200  0.60222800  0.93404100  1
