# generated using pymatgen
data_UPH3(CO5)2
_symmetry_space_group_name_H-M   'P 1'
_cell_length_a   7.00291800
_cell_length_b   8.31113149
_cell_length_c   8.77294569
_cell_angle_alpha   107.78968581
_cell_angle_beta   90.00000000
_cell_angle_gamma   90.00000000
_symmetry_Int_Tables_number   1
_chemical_formula_structural   UPH3(CO5)2
_chemical_formula_sum   'U2 P2 H6 C4 O20'
_cell_volume   486.18964047
_cell_formula_units_Z   2
loop_
 _symmetry_equiv_pos_site_id
 _symmetry_equiv_pos_as_xyz
  1  'x, y, z'
loop_
 _atom_site_type_symbol
 _atom_site_label
 _atom_site_symmetry_multiplicity
 _atom_site_fract_x
 _atom_site_fract_y
 _atom_site_fract_z
 _atom_site_occupancy
  U  U0  1  0.03882000  0.27582700  0.07827500  1
  U  U1  1  0.53882000  0.72417300  0.92172500  1
  P  P2  1  0.55195300  0.17651500  0.12395000  1
  P  P3  1  0.05195300  0.82348500  0.87605000  1
  H  H4  1  0.64046300  0.71576500  0.42089300  1
  H  H5  1  0.14046300  0.28423500  0.57910700  1
  H  H6  1  0.45997000  0.32017800  0.40091800  1
  H  H7  1  0.95997000  0.67982200  0.59908200  1
  H  H8  1  0.69855900  0.23715000  0.37974600  1
  H  H9  1  0.19855900  0.76285000  0.62025400  1
  C  C10  1  0.67660000  0.47449800  0.34006100  1
  C  C11  1  0.17660000  0.52550200  0.65993900  1
  C  C12  1  0.59214600  0.30624300  0.33151600  1
  C  C13  1  0.09214600  0.69375700  0.66848400  1
  O  O14  1  0.03530600  0.36758800  0.91419400  1
  O  O15  1  0.53530600  0.63241200  0.08580600  1
  O  O16  1  0.02528700  0.16075500  0.22506700  1
  O  O17  1  0.52528700  0.83924500  0.77493300  1
  O  O18  1  0.04356700  0.00829800  0.87938400  1
  O  O19  1  0.54356700  0.99170200  0.12061600  1
  O  O20  1  0.35944500  0.23303600  0.06869100  1
  O  O21  1  0.85944500  0.76696400  0.93130900  1
  O  O22  1  0.71648500  0.21184700  0.02343300  1
  O  O23  1  0.21648500  0.78815300  0.97656700  1
  O  O24  1  0.18412700  0.49495100  0.23699200  1
  O  O25  1  0.68412700  0.50504900  0.76300800  1
  O  O26  1  0.83109200  0.48701500  0.27350000  1
  O  O27  1  0.33109200  0.51298500  0.72650000  1
  O  O28  1  0.57711200  0.60631300  0.42204100  1
  O  O29  1  0.07711200  0.39368700  0.57795900  1
  O  O30  1  0.05536500  0.92478700  0.38727400  1
  O  O31  1  0.55536500  0.07521300  0.61272600  1
  O  O32  1  0.24448100  0.09603700  0.54197500  1
  O  O33  1  0.74448100  0.90396300  0.45802500  1
