# generated using pymatgen
data_NaZn(BH4)3
_symmetry_space_group_name_H-M   'P 1'
_cell_length_a   4.47795200
_cell_length_b   8.66787500
_cell_length_c   18.83422080
_cell_angle_alpha   83.02529784
_cell_angle_beta   90.00000000
_cell_angle_gamma   90.00000000
_symmetry_Int_Tables_number   1
_chemical_formula_structural   NaZn(BH4)3
_chemical_formula_sum   'Na4 Zn4 B12 H48'
_cell_volume   725.62784933
_cell_formula_units_Z   4
loop_
 _symmetry_equiv_pos_site_id
 _symmetry_equiv_pos_as_xyz
  1  'x, y, z'
loop_
 _atom_site_type_symbol
 _atom_site_label
 _atom_site_symmetry_multiplicity
 _atom_site_fract_x
 _atom_site_fract_y
 _atom_site_fract_z
 _atom_site_occupancy
  Na  Na0  1  0.65499800  0.31451500  0.36208900  1
  Na  Na1  1  0.15499800  0.68548500  0.13791100  1
  Na  Na2  1  0.34500200  0.68548500  0.63791100  1
  Na  Na3  1  0.84500200  0.31451500  0.86208900  1
  Zn  Zn4  1  0.95625900  0.77464300  0.39358500  1
  Zn  Zn5  1  0.45625900  0.22535700  0.10641500  1
  Zn  Zn6  1  0.04374100  0.22535700  0.60641500  1
  Zn  Zn7  1  0.54374100  0.77464300  0.89358500  1
  B  B8  1  0.46558500  0.27784700  0.98811600  1
  B  B9  1  0.96558500  0.72215300  0.51188400  1
  B  B10  1  0.53441500  0.72215300  0.01188400  1
  B  B11  1  0.03441500  0.27784700  0.48811600  1
  B  B12  1  0.38454200  0.59465700  0.82293600  1
  B  B13  1  0.88454200  0.40534300  0.67706400  1
  B  B14  1  0.61545800  0.40534300  0.17706400  1
  B  B15  1  0.11545800  0.59465700  0.32293600  1
  B  B16  1  0.75716300  0.99814800  0.35125300  1
  B  B17  1  0.25716300  0.00185200  0.14874700  1
  B  B18  1  0.24283700  0.00185200  0.64874700  1
  B  B19  1  0.74283700  0.99814800  0.85125300  1
  H  H20  1  0.63276500  0.17793400  0.02087300  1
  H  H21  1  0.13276500  0.82206600  0.47912700  1
  H  H22  1  0.36723500  0.82206600  0.97912700  1
  H  H23  1  0.86723500  0.17793400  0.52087300  1
  H  H24  1  0.27814700  0.33660100  0.02660300  1
  H  H25  1  0.77814700  0.66339900  0.47339700  1
  H  H26  1  0.72185300  0.66339900  0.97339700  1
  H  H27  1  0.22185300  0.33660100  0.52660300  1
  H  H28  1  0.32256200  0.21073000  0.94659200  1
  H  H29  1  0.82256200  0.78927000  0.55340800  1
  H  H30  1  0.67743800  0.78927000  0.05340800  1
  H  H31  1  0.17743800  0.21073000  0.44659200  1
  H  H32  1  0.62152500  0.38488500  0.96277300  1
  H  H33  1  0.12152500  0.61511500  0.53722700  1
  H  H34  1  0.37847500  0.61511500  0.03722700  1
  H  H35  1  0.87847500  0.38488500  0.46277300  1
  H  H36  1  0.31358900  0.64613000  0.76291100  1
  H  H37  1  0.81358900  0.35387000  0.73708900  1
  H  H38  1  0.68641100  0.35387000  0.23708900  1
  H  H39  1  0.18641100  0.64613000  0.26291100  1
  H  H40  1  0.22529500  0.66242500  0.86470100  1
  H  H41  1  0.72529500  0.33757500  0.63529900  1
  H  H42  1  0.77470500  0.33757500  0.13529900  1
  H  H43  1  0.27470500  0.66242500  0.36470100  1
  H  H44  1  0.65707300  0.61387400  0.83114500  1
  H  H45  1  0.15707300  0.38612600  0.66885500  1
  H  H46  1  0.34292700  0.38612600  0.16885500  1
  H  H47  1  0.84292700  0.61387400  0.33114500  1
  H  H48  1  0.33110600  0.45683800  0.83843500  1
  H  H49  1  0.83110600  0.54316200  0.66156500  1
  H  H50  1  0.66889400  0.54316200  0.16156500  1
  H  H51  1  0.16889400  0.45683800  0.33843500  1
  H  H52  1  0.67211900  0.05803200  0.40274100  1
  H  H53  1  0.17211900  0.94196800  0.09725900  1
  H  H54  1  0.32788100  0.94196800  0.59725900  1
  H  H55  1  0.82788100  0.05803200  0.90274100  1
  H  H56  1  0.71795200  0.06888400  0.29285500  1
  H  H57  1  0.21795200  0.93111600  0.20714500  1
  H  H58  1  0.28204800  0.93111600  0.70714500  1
  H  H59  1  0.78204800  0.06888400  0.79285500  1
  H  H60  1  0.61338700  0.87459500  0.35053000  1
  H  H61  1  0.11338700  0.12540500  0.14947000  1
  H  H62  1  0.38661300  0.12540500  0.64947000  1
  H  H63  1  0.88661300  0.87459500  0.85053000  1
  H  H64  1  0.03537000  0.97840800  0.35580400  1
  H  H65  1  0.53537000  0.02159200  0.14419600  1
  H  H66  1  0.96463000  0.02159200  0.64419600  1
  H  H67  1  0.46463000  0.97840800  0.85580400  1
