# generated using pymatgen
data_K3HoSi3O10
_symmetry_space_group_name_H-M   'P 1'
_cell_length_a   5.94599600
_cell_length_b   13.25410000
_cell_length_c   13.59456600
_cell_angle_alpha   90.00000000
_cell_angle_beta   90.00000000
_cell_angle_gamma   90.00000000
_symmetry_Int_Tables_number   1
_chemical_formula_structural   K3HoSi3O10
_chemical_formula_sum   'K12 Ho4 Si12 O40'
_cell_volume   1071.37178078
_cell_formula_units_Z   4
loop_
 _symmetry_equiv_pos_site_id
 _symmetry_equiv_pos_as_xyz
  1  'x, y, z'
loop_
 _atom_site_type_symbol
 _atom_site_label
 _atom_site_symmetry_multiplicity
 _atom_site_fract_x
 _atom_site_fract_y
 _atom_site_fract_z
 _atom_site_occupancy
  K  K0  1  0.92298600  0.37218300  0.75000000  1
  K  K1  1  0.57701400  0.87218300  0.75000000  1
  K  K2  1  0.07701400  0.62781700  0.25000000  1
  K  K3  1  0.42298600  0.12781700  0.25000000  1
  K  K4  1  0.91361000  0.86272500  0.51568100  1
  K  K5  1  0.58639000  0.36272500  0.98431900  1
  K  K6  1  0.08639000  0.13727500  0.01568100  1
  K  K7  1  0.41361000  0.63727500  0.48431900  1
  K  K8  1  0.08639000  0.13727500  0.48431900  1
  K  K9  1  0.41361000  0.63727500  0.01568100  1
  K  K10  1  0.91361000  0.86272500  0.98431900  1
  K  K11  1  0.58639000  0.36272500  0.51568100  1
  Ho  Ho12  1  0.08556000  0.03916200  0.75000000  1
  Ho  Ho13  1  0.41444000  0.53916200  0.75000000  1
  Ho  Ho14  1  0.91444000  0.96083800  0.25000000  1
  Ho  Ho15  1  0.58556000  0.46083800  0.25000000  1
  Si  Si16  1  0.58930300  0.09669000  0.60129000  1
  Si  Si17  1  0.91069700  0.59669000  0.89871000  1
  Si  Si18  1  0.41069700  0.90331000  0.10129000  1
  Si  Si19  1  0.08930300  0.40331000  0.39871000  1
  Si  Si20  1  0.41069700  0.90331000  0.39871000  1
  Si  Si21  1  0.08930300  0.40331000  0.10129000  1
  Si  Si22  1  0.58930300  0.09669000  0.89871000  1
  Si  Si23  1  0.91069700  0.59669000  0.60129000  1
  Si  Si24  1  0.41518900  0.25258500  0.75000000  1
  Si  Si25  1  0.08481100  0.75258500  0.75000000  1
  Si  Si26  1  0.58481100  0.74741500  0.25000000  1
  Si  Si27  1  0.91518900  0.24741500  0.25000000  1
  O  O28  1  0.58422700  0.13310200  0.48387800  1
  O  O29  1  0.91577300  0.63310200  0.01612200  1
  O  O30  1  0.41577300  0.86689800  0.98387800  1
  O  O31  1  0.08422700  0.36689800  0.51612200  1
  O  O32  1  0.41577300  0.86689800  0.51612200  1
  O  O33  1  0.08422700  0.36689800  0.98387800  1
  O  O34  1  0.58422700  0.13310200  0.01612200  1
  O  O35  1  0.91577300  0.63310200  0.48387800  1
  O  O36  1  0.82456000  0.04422000  0.63132300  1
  O  O37  1  0.67544000  0.54422000  0.86867700  1
  O  O38  1  0.17544000  0.95578000  0.13132300  1
  O  O39  1  0.32456000  0.45578000  0.36867700  1
  O  O40  1  0.17544000  0.95578000  0.36867700  1
  O  O41  1  0.32456000  0.45578000  0.13132300  1
  O  O42  1  0.82456000  0.04422000  0.86867700  1
  O  O43  1  0.67544000  0.54422000  0.63132300  1
  O  O44  1  0.36476300  0.03196500  0.63181800  1
  O  O45  1  0.13523700  0.53196500  0.86818200  1
  O  O46  1  0.63523700  0.96803500  0.13181800  1
  O  O47  1  0.86476300  0.46803500  0.36818200  1
  O  O48  1  0.63523700  0.96803500  0.36818200  1
  O  O49  1  0.86476300  0.46803500  0.13181800  1
  O  O50  1  0.36476300  0.03196500  0.86818200  1
  O  O51  1  0.13523700  0.53196500  0.63181800  1
  O  O52  1  0.56797300  0.21104200  0.65383100  1
  O  O53  1  0.93202700  0.71104200  0.84616900  1
  O  O54  1  0.43202700  0.78895800  0.15383100  1
  O  O55  1  0.06797300  0.28895800  0.34616900  1
  O  O56  1  0.43202700  0.78895800  0.34616900  1
  O  O57  1  0.06797300  0.28895800  0.15383100  1
  O  O58  1  0.56797300  0.21104200  0.84616900  1
  O  O59  1  0.93202700  0.71104200  0.65383100  1
  O  O60  1  0.16806100  0.20344500  0.75000000  1
  O  O61  1  0.33193900  0.70344500  0.75000000  1
  O  O62  1  0.83193900  0.79655500  0.25000000  1
  O  O63  1  0.66806100  0.29655500  0.25000000  1
  O  O64  1  0.43262500  0.37306200  0.75000000  1
  O  O65  1  0.06737500  0.87306200  0.75000000  1
  O  O66  1  0.56737500  0.62693800  0.25000000  1
  O  O67  1  0.93262500  0.12693800  0.25000000  1
