# generated using pymatgen
data_Sc(Ga5Mo)8
_symmetry_space_group_name_H-M   'P 1'
_cell_length_a   9.63097526
_cell_length_b   9.63097526
_cell_length_c   9.63097527
_cell_angle_alpha   94.71946732
_cell_angle_beta   94.71946732
_cell_angle_gamma   94.71947299
_symmetry_Int_Tables_number   1
_chemical_formula_structural   Sc(Ga5Mo)8
_chemical_formula_sum   'Sc1 Ga40 Mo8'
_cell_volume   883.70722179
_cell_formula_units_Z   1
loop_
 _symmetry_equiv_pos_site_id
 _symmetry_equiv_pos_as_xyz
  1  'x, y, z'
loop_
 _atom_site_type_symbol
 _atom_site_label
 _atom_site_symmetry_multiplicity
 _atom_site_fract_x
 _atom_site_fract_y
 _atom_site_fract_z
 _atom_site_occupancy
  Sc  Sc0  1  0.00000000  0.00000000  0.00000000  1
  Ga  Ga1  1  0.50000000  0.50000000  0.50000000  1
  Ga  Ga2  1  0.00000000  0.50000000  0.50000000  1
  Ga  Ga3  1  0.50000000  0.00000000  0.50000000  1
  Ga  Ga4  1  0.50000000  0.50000000  0.00000000  1
  Ga  Ga5  1  0.26866500  0.63674700  0.61168100  1
  Ga  Ga6  1  0.61168100  0.26866500  0.63674700  1
  Ga  Ga7  1  0.63674700  0.61168100  0.26866500  1
  Ga  Ga8  1  0.73133500  0.36325300  0.38831900  1
  Ga  Ga9  1  0.38831900  0.73133500  0.36325300  1
  Ga  Ga10  1  0.36325300  0.38831900  0.73133500  1
  Ga  Ga11  1  0.67603900  0.77904000  0.53705800  1
  Ga  Ga12  1  0.53705800  0.67603900  0.77904000  1
  Ga  Ga13  1  0.77904000  0.53705800  0.67603900  1
  Ga  Ga14  1  0.32396100  0.22096000  0.46294200  1
  Ga  Ga15  1  0.46294200  0.32396100  0.22096000  1
  Ga  Ga16  1  0.22096000  0.46294200  0.32396100  1
  Ga  Ga17  1  0.78006000  0.07205600  0.45190200  1
  Ga  Ga18  1  0.45190200  0.78006000  0.07205600  1
  Ga  Ga19  1  0.07205600  0.45190200  0.78006000  1
  Ga  Ga20  1  0.21994000  0.92794400  0.54809800  1
  Ga  Ga21  1  0.54809800  0.21994000  0.92794400  1
  Ga  Ga22  1  0.92794400  0.54809800  0.21994000  1
  Ga  Ga23  1  0.96704600  0.78554400  0.59824400  1
  Ga  Ga24  1  0.59824400  0.96704600  0.78554400  1
  Ga  Ga25  1  0.78554400  0.59824400  0.96704600  1
  Ga  Ga26  1  0.03295400  0.21445600  0.40175600  1
  Ga  Ga27  1  0.40175600  0.03295400  0.21445600  1
  Ga  Ga28  1  0.21445600  0.40175600  0.03295400  1
  Ga  Ga29  1  0.05445400  0.73221100  0.87008000  1
  Ga  Ga30  1  0.87008000  0.05445400  0.73221100  1
  Ga  Ga31  1  0.73221100  0.87008000  0.05445400  1
  Ga  Ga32  1  0.94554600  0.26778900  0.12992000  1
  Ga  Ga33  1  0.12992000  0.94554600  0.26778900  1
  Ga  Ga34  1  0.26778900  0.12992000  0.94554600  1
  Ga  Ga35  1  0.12289200  0.17407700  0.68453200  1
  Ga  Ga36  1  0.68453200  0.12289200  0.17407700  1
  Ga  Ga37  1  0.17407700  0.68453200  0.12289200  1
  Ga  Ga38  1  0.87710800  0.82592300  0.31546800  1
  Ga  Ga39  1  0.31546800  0.87710800  0.82592300  1
  Ga  Ga40  1  0.82592300  0.31546800  0.87710800  1
  Mo  Mo41  1  0.79875300  0.79875300  0.79875300  1
  Mo  Mo42  1  0.20124700  0.20124700  0.20124700  1
  Mo  Mo43  1  0.29374800  0.61129400  0.88745800  1
  Mo  Mo44  1  0.88745800  0.29374800  0.61129400  1
  Mo  Mo45  1  0.61129400  0.88745800  0.29374800  1
  Mo  Mo46  1  0.70625200  0.38870600  0.11254200  1
  Mo  Mo47  1  0.11254200  0.70625200  0.38870600  1
  Mo  Mo48  1  0.38870600  0.11254200  0.70625200  1
