# generated using pymatgen
data_AsPHBr3OF6
_symmetry_space_group_name_H-M   'P 1'
_cell_length_a   8.85837900
_cell_length_b   9.09665300
_cell_length_c   13.38991600
_cell_angle_alpha   90.00000000
_cell_angle_beta   90.00000000
_cell_angle_gamma   90.00000000
_symmetry_Int_Tables_number   1
_chemical_formula_structural   AsPHBr3OF6
_chemical_formula_sum   'As4 P4 H4 Br12 O4 F24'
_cell_volume   1078.98085388
_cell_formula_units_Z   4
loop_
 _symmetry_equiv_pos_site_id
 _symmetry_equiv_pos_as_xyz
  1  'x, y, z'
loop_
 _atom_site_type_symbol
 _atom_site_label
 _atom_site_symmetry_multiplicity
 _atom_site_fract_x
 _atom_site_fract_y
 _atom_site_fract_z
 _atom_site_occupancy
  As  As0  1  0.68630000  0.75000000  0.56152200  1
  As  As1  1  0.81370000  0.75000000  0.06152200  1
  As  As2  1  0.31370000  0.25000000  0.43847800  1
  As  As3  1  0.18630000  0.25000000  0.93847800  1
  P  P4  1  0.27689700  0.75000000  0.27887200  1
  P  P5  1  0.22310300  0.75000000  0.77887200  1
  P  P6  1  0.72310300  0.25000000  0.72112800  1
  P  P7  1  0.77689700  0.25000000  0.22112800  1
  H  H8  1  0.45427000  0.75000000  0.40113600  1
  H  H9  1  0.04573000  0.75000000  0.90113600  1
  H  H10  1  0.54573000  0.25000000  0.59886400  1
  H  H11  1  0.95427000  0.25000000  0.09886400  1
  Br  Br12  1  0.10326700  0.75000000  0.39091200  1
  Br  Br13  1  0.39673300  0.75000000  0.89091200  1
  Br  Br14  1  0.89673300  0.25000000  0.60908800  1
  Br  Br15  1  0.60326700  0.25000000  0.10908800  1
  Br  Br16  1  0.25350700  0.94182500  0.18653500  1
  Br  Br17  1  0.24649300  0.55817500  0.68653500  1
  Br  Br18  1  0.74649300  0.44182500  0.81346500  1
  Br  Br19  1  0.75350700  0.05817500  0.31346500  1
  Br  Br20  1  0.74649300  0.05817500  0.81346500  1
  Br  Br21  1  0.75350700  0.44182500  0.31346500  1
  Br  Br22  1  0.25350700  0.55817500  0.18653500  1
  Br  Br23  1  0.24649300  0.94182500  0.68653500  1
  O  O24  1  0.43656000  0.75000000  0.32594300  1
  O  O25  1  0.06344000  0.75000000  0.82594300  1
  O  O26  1  0.56344000  0.25000000  0.67405700  1
  O  O27  1  0.93656000  0.25000000  0.17405700  1
  F  F28  1  0.49164000  0.75000000  0.51414700  1
  F  F29  1  0.00836000  0.75000000  0.01414700  1
  F  F30  1  0.50836000  0.25000000  0.48585300  1
  F  F31  1  0.99164000  0.25000000  0.98585300  1
  F  F32  1  0.61589300  0.75000000  0.68433500  1
  F  F33  1  0.88410700  0.75000000  0.18433500  1
  F  F34  1  0.38410700  0.25000000  0.31566500  1
  F  F35  1  0.11589300  0.25000000  0.81566500  1
  F  F36  1  0.74724000  0.75000000  0.43452000  1
  F  F37  1  0.75276000  0.75000000  0.93452000  1
  F  F38  1  0.25276000  0.25000000  0.56548000  1
  F  F39  1  0.24724000  0.25000000  0.06548000  1
  F  F40  1  0.87548900  0.75000000  0.60250200  1
  F  F41  1  0.62451100  0.75000000  0.10250200  1
  F  F42  1  0.12451100  0.25000000  0.39749800  1
  F  F43  1  0.37548900  0.25000000  0.89749800  1
  F  F44  1  0.68194500  0.55577100  0.55924400  1
  F  F45  1  0.81805500  0.94422900  0.05924400  1
  F  F46  1  0.31805500  0.05577100  0.44075600  1
  F  F47  1  0.18194500  0.44422900  0.94075600  1
  F  F48  1  0.31805500  0.44422900  0.44075600  1
  F  F49  1  0.18194500  0.05577100  0.94075600  1
  F  F50  1  0.68194500  0.94422900  0.55924400  1
  F  F51  1  0.81805500  0.55577100  0.05924400  1
