# generated using pymatgen
data_Na7Cu4(AsO4)5
_symmetry_space_group_name_H-M   'P 1'
_cell_length_a   7.94526884
_cell_length_b   8.75469856
_cell_length_c   30.68877739
_cell_angle_alpha   88.79051775
_cell_angle_beta   87.33383767
_cell_angle_gamma   63.01406571
_symmetry_Int_Tables_number   1
_chemical_formula_structural   Na7Cu4(AsO4)5
_chemical_formula_sum   'Na28 Cu16 As20 O80'
_cell_volume   1900.17763854
_cell_formula_units_Z   4
loop_
 _symmetry_equiv_pos_site_id
 _symmetry_equiv_pos_as_xyz
  1  'x, y, z'
loop_
 _atom_site_type_symbol
 _atom_site_label
 _atom_site_symmetry_multiplicity
 _atom_site_fract_x
 _atom_site_fract_y
 _atom_site_fract_z
 _atom_site_occupancy
  Na  Na0  1  0.71989671  0.47277879  0.06652121  1
  Na  Na1  1  0.80732451  0.47277879  0.43347879  1
  Na  Na2  1  0.28010329  0.52722121  0.93347879  1
  Na  Na3  1  0.19267549  0.52722121  0.56652121  1
  Na  Na4  1  0.05592664  0.94792139  0.31597645  1
  Na  Na5  1  0.99615197  0.94792139  0.18402355  1
  Na  Na6  1  0.94407336  0.05207861  0.68402355  1
  Na  Na7  1  0.00384803  0.05207861  0.81597645  1
  Na  Na8  1  0.53650015  0.97870562  0.05428766  1
  Na  Na9  1  0.48479423  0.97870562  0.44571234  1
  Na  Na10  1  0.46349985  0.02129438  0.94571234  1
  Na  Na11  1  0.51520577  0.02129438  0.55428766  1
  Na  Na12  1  0.58242753  0.93605689  0.17281933  1
  Na  Na13  1  0.48151558  0.93605689  0.32718067  1
  Na  Na14  1  0.41757247  0.06394311  0.82718067  1
  Na  Na15  1  0.51848442  0.06394311  0.67281933  1
  Na  Na16  1  0.37048596  0.73216101  0.12477306  1
  Na  Na17  1  0.89735303  0.73216101  0.37522694  1
  Na  Na18  1  0.62951404  0.26783899  0.87522694  1
  Na  Na19  1  0.10264697  0.26783899  0.62477306  1
  Na  Na20  1  0.89868195  0.75345577  0.98270393  1
  Na  Na21  1  0.34786228  0.75345577  0.51729607  1
  Na  Na22  1  0.10131805  0.24654423  0.01729607  1
  Na  Na23  1  0.65213772  0.24654423  0.48270393  1
  Na  Na24  1  0.17516161  0.21930757  0.23749262  1
  Na  Na25  1  0.60553082  0.21930757  0.26250738  1
  Na  Na26  1  0.82483839  0.78069243  0.76250738  1
  Na  Na27  1  0.39446918  0.78069243  0.73749262  1
  Cu  Cu28  1  0.93043339  0.04396563  0.07634023  1
  Cu  Cu29  1  0.02560098  0.04396563  0.42365977  1
  Cu  Cu30  1  0.06956661  0.95603437  0.92365977  1
  Cu  Cu31  1  0.97439902  0.95603437  0.57634023  1
  Cu  Cu32  1  0.66464007  0.57929093  0.92962789  1
  Cu  Cu33  1  0.75606900  0.57929093  0.57037211  1
  Cu  Cu34  1  0.33535993  0.42070907  0.07037211  1
  Cu  Cu35  1  0.24393100  0.42070907  0.42962789  1
  Cu  Cu36  1  0.19954950  0.51113513  0.17755888  1
  Cu  Cu37  1  0.28931538  0.51113513  0.32244112  1
  Cu  Cu38  1  0.80045050  0.48886487  0.82244112  1
  Cu  Cu39  1  0.71068462  0.48886487  0.67755888  1
  Cu  Cu40  1  0.81533818  0.50162536  0.18674099  1
  Cu  Cu41  1  0.68303646  0.50162536  0.31325901  1
  Cu  Cu42  1  0.18466182  0.49837464  0.81325901  1
  Cu  Cu43  1  0.31696354  0.49837464  0.68674099  1
  As  As44  1  0.39635914  0.71717442  0.23536518  1
  As  As45  1  0.88646644  0.71717442  0.26463482  1
  As  As46  1  0.60364086  0.28282558  0.76463482  1
  As  As47  1  0.11353356  0.28282558  0.73536518  1
  As  As48  1  0.16007087  0.20057285  0.12571550  1
  As  As49  1  0.63935628  0.20057285  0.37428450  1
  As  As50  1  0.83992913  0.79942715  0.87428450  1
  As  As51  1  0.36064372  0.79942715  0.62571550  1
  As  As52  1  0.61471730  0.27100153  0.15712168  1
  As  As53  1  0.11428117  0.27100153  0.34287832  1
  As  As54  1  0.38528270  0.72899847  0.84287832  1
  As  As55  1  0.88571883  0.72899847  0.65712168  1
  As  As56  1  0.93264670  0.69192142  0.09008264  1
  As  As57  1  0.37543188  0.69192142  0.40991736  1
  As  As58  1  0.06735330  0.30807858  0.90991736  1
  As  As59  1  0.62456812  0.30807858  0.59008264  1
  As  As60  1  0.66822859  0.22752025  0.98406149  1
  As  As61  1  0.10425116  0.22752025  0.51593851  1
  As  As62  1  0.33177141  0.77247975  0.01593851  1
  As  As63  1  0.89574884  0.77247975  0.48406149  1
  O  O64  1  0.28799798  0.91531383  0.25868945  1
  O  O65  1  0.79668819  0.91531383  0.24131055  1
  O  O66  1  0.71200202  0.08468617  0.74131055  1
  O  O67  1  0.20331181  0.08468617  0.75868945  1
  O  O68  1  0.24622836  0.69127504  0.20059933  1
  O  O69  1  0.06249660  0.69127504  0.29940067  1
  O  O70  1  0.75377164  0.30872496  0.79940067  1
  O  O71  1  0.93750340  0.30872496  0.70059933  1
  O  O72  1  0.58495115  0.69728605  0.20115288  1
  O  O73  1  0.71776279  0.69728605  0.29884712  1
  O  O74  1  0.41504885  0.30271395  0.79884712  1
  O  O75  1  0.28223721  0.30271395  0.70115288  1
  O  O76  1  0.47268998  0.55212748  0.27296513  1
  O  O77  1  0.97518254  0.55212748  0.22703487  1
  O  O78  1  0.52731002  0.44787252  0.72703487  1
  O  O79  1  0.02481746  0.44787252  0.77296513  1
  O  O80  1  0.24702800  0.01882693  0.15590074  1
  O  O81  1  0.73414507  0.01882693  0.34409926  1
  O  O82  1  0.75297200  0.98117307  0.84409926  1
  O  O83  1  0.26585493  0.98117307  0.65590074  1
  O  O84  1  0.96885689  0.23239402  0.09603105  1
  O  O85  1  0.79874909  0.23239402  0.40396895  1
  O  O86  1  0.03114311  0.76760598  0.90396895  1
  O  O87  1  0.20125091  0.76760598  0.59603105  1
  O  O88  1  0.33727604  0.21262185  0.09367778  1
  O  O89  1  0.45010211  0.21262185  0.40632222  1
  O  O90  1  0.66272396  0.78737815  0.90632222  1
  O  O91  1  0.54989789  0.78737815  0.59367778  1
  O  O92  1  0.55122032  0.37913017  0.33911921  1
  O  O93  1  0.06964951  0.37913017  0.16088079  1
  O  O94  1  0.44877968  0.62086983  0.66088079  1
  O  O95  1  0.93035049  0.62086983  0.83911921  1
  O  O96  1  0.51567592  0.42750951  0.11856656  1
  O  O97  1  0.05681457  0.42750951  0.38143344  1
  O  O98  1  0.48432408  0.57249049  0.88143344  1
  O  O99  1  0.94318543  0.57249049  0.61856656  1
  O  O100  1  0.74513182  0.06989198  0.13466733  1
  O  O101  1  0.18497620  0.06989198  0.36533267  1
  O  O102  1  0.25486818  0.93010802  0.86533267  1
  O  O103  1  0.81502380  0.93010802  0.63466733  1
  O  O104  1  0.76411299  0.30348690  0.19115133  1
  O  O105  1  0.93240011  0.30348690  0.30884867  1
  O  O106  1  0.23588701  0.69651310  0.80884867  1
  O  O107  1  0.06759989  0.69651310  0.69115133  1
  O  O108  1  0.43451197  0.27390973  0.19269321  1
  O  O109  1  0.29157829  0.27390973  0.30730679  1
  O  O110  1  0.56548803  0.72609027  0.80730679  1
  O  O111  1  0.70842171  0.72609027  0.69269321  1
  O  O112  1  0.07483516  0.69863213  0.13008803  1
  O  O113  1  0.22653270  0.69863213  0.36991197  1
  O  O114  1  0.92516484  0.30136787  0.86991197  1
  O  O115  1  0.77346730  0.30136787  0.63008803  1
  O  O116  1  0.72620978  0.69429665  0.10981512  1
  O  O117  1  0.57949357  0.69429665  0.39018488  1
  O  O118  1  0.27379022  0.30570335  0.89018488  1
  O  O119  1  0.42050643  0.30570335  0.60981512  1
  O  O120  1  0.86904127  0.87072579  0.05592855  1
  O  O121  1  0.26023294  0.87072579  0.44407145  1
  O  O122  1  0.13095873  0.12927421  0.94407145  1
  O  O123  1  0.73976706  0.12927421  0.55592855  1
  O  O124  1  0.05727334  0.51847137  0.05504322  1
  O  O125  1  0.42425529  0.51847137  0.44495678  1
  O  O126  1  0.94272666  0.48152863  0.94495678  1
  O  O127  1  0.57574471  0.48152863  0.55504322  1
  O  O128  1  0.80685166  0.23023695  0.02456814  1
  O  O129  1  0.96291139  0.23023695  0.47543186  1
  O  O130  1  0.19314834  0.76976305  0.97543186  1
  O  O131  1  0.03708861  0.76976305  0.52456814  1
  O  O132  1  0.59461586  0.40904133  0.95164323  1
  O  O133  1  0.99634281  0.40904133  0.54835677  1
  O  O134  1  0.40538414  0.59095867  0.04835677  1
  O  O135  1  0.00365719  0.59095867  0.45164323  1
  O  O136  1  0.78015116  0.05394110  0.94864009  1
  O  O137  1  0.16590774  0.05394110  0.55135991  1
  O  O138  1  0.21984884  0.94605890  0.05135991  1
  O  O139  1  0.83409226  0.94605890  0.44864009  1
  O  O140  1  0.46501947  0.22004395  0.00379039  1
  O  O141  1  0.31493658  0.22004395  0.49620961  1
  O  O142  1  0.53498053  0.77995605  0.99620961  1
  O  O143  1  0.68506342  0.77995605  0.50379039  1
