# generated using pymatgen
data_Co(W3Cl7)2
_symmetry_space_group_name_H-M   'P 1'
_cell_length_a   12.77919900
_cell_length_b   12.77919900
_cell_length_c   12.77919900
_cell_angle_alpha   90.00000000
_cell_angle_beta   90.00000000
_cell_angle_gamma   90.00000000
_symmetry_Int_Tables_number   1
_chemical_formula_structural   Co(W3Cl7)2
_chemical_formula_sum   'Co4 W24 Cl56'
_cell_volume   2086.94449845
_cell_formula_units_Z   4
loop_
 _symmetry_equiv_pos_site_id
 _symmetry_equiv_pos_as_xyz
  1  'x, y, z'
loop_
 _atom_site_type_symbol
 _atom_site_label
 _atom_site_symmetry_multiplicity
 _atom_site_fract_x
 _atom_site_fract_y
 _atom_site_fract_z
 _atom_site_occupancy
  Co  Co0  1  0.75000000  0.25000000  0.25000000  1
  Co  Co1  1  0.25000000  0.25000000  0.75000000  1
  Co  Co2  1  0.25000000  0.75000000  0.25000000  1
  Co  Co3  1  0.75000000  0.75000000  0.75000000  1
  W  W4  1  0.10865900  0.22280800  0.27271800  1
  W  W5  1  0.89134100  0.22280800  0.72728200  1
  W  W6  1  0.89134100  0.77719200  0.27271800  1
  W  W7  1  0.10865900  0.77719200  0.72728200  1
  W  W8  1  0.27271800  0.10865900  0.22280800  1
  W  W9  1  0.72728200  0.89134100  0.22280800  1
  W  W10  1  0.27271800  0.89134100  0.77719200  1
  W  W11  1  0.72728200  0.10865900  0.77719200  1
  W  W12  1  0.22280800  0.27271800  0.10865900  1
  W  W13  1  0.22280800  0.72728200  0.89134100  1
  W  W14  1  0.77719200  0.27271800  0.89134100  1
  W  W15  1  0.77719200  0.72728200  0.10865900  1
  W  W16  1  0.39134100  0.27719200  0.22728200  1
  W  W17  1  0.60865900  0.27719200  0.77271800  1
  W  W18  1  0.60865900  0.72280800  0.22728200  1
  W  W19  1  0.39134100  0.72280800  0.77271800  1
  W  W20  1  0.22728200  0.39134100  0.27719200  1
  W  W21  1  0.77271800  0.60865900  0.27719200  1
  W  W22  1  0.22728200  0.60865900  0.72280800  1
  W  W23  1  0.77271800  0.39134100  0.72280800  1
  W  W24  1  0.27719200  0.22728200  0.39134100  1
  W  W25  1  0.27719200  0.77271800  0.60865900  1
  W  W26  1  0.72280800  0.22728200  0.60865900  1
  W  W27  1  0.72280800  0.77271800  0.39134100  1
  Cl  Cl28  1  0.92199000  0.18089900  0.30965000  1
  Cl  Cl29  1  0.07801000  0.18089900  0.69035000  1
  Cl  Cl30  1  0.07801000  0.81910100  0.30965000  1
  Cl  Cl31  1  0.92199000  0.81910100  0.69035000  1
  Cl  Cl32  1  0.30965000  0.92199000  0.18089900  1
  Cl  Cl33  1  0.69035000  0.07801000  0.18089900  1
  Cl  Cl34  1  0.30965000  0.07801000  0.81910100  1
  Cl  Cl35  1  0.69035000  0.92199000  0.81910100  1
  Cl  Cl36  1  0.18089900  0.30965000  0.92199000  1
  Cl  Cl37  1  0.18089900  0.69035000  0.07801000  1
  Cl  Cl38  1  0.81910100  0.30965000  0.07801000  1
  Cl  Cl39  1  0.81910100  0.69035000  0.92199000  1
  Cl  Cl40  1  0.57801000  0.31910100  0.19035000  1
  Cl  Cl41  1  0.42199000  0.31910100  0.80965000  1
  Cl  Cl42  1  0.42199000  0.68089900  0.19035000  1
  Cl  Cl43  1  0.57801000  0.68089900  0.80965000  1
  Cl  Cl44  1  0.19035000  0.57801000  0.31910100  1
  Cl  Cl45  1  0.80965000  0.42199000  0.31910100  1
  Cl  Cl46  1  0.19035000  0.42199000  0.68089900  1
  Cl  Cl47  1  0.80965000  0.57801000  0.68089900  1
  Cl  Cl48  1  0.31910100  0.19035000  0.57801000  1
  Cl  Cl49  1  0.31910100  0.80965000  0.42199000  1
  Cl  Cl50  1  0.68089900  0.19035000  0.42199000  1
  Cl  Cl51  1  0.68089900  0.80965000  0.57801000  1
  Cl  Cl52  1  0.38916400  0.61083600  0.61083600  1
  Cl  Cl53  1  0.61083600  0.61083600  0.38916400  1
  Cl  Cl54  1  0.61083600  0.38916400  0.61083600  1
  Cl  Cl55  1  0.38916400  0.38916400  0.38916400  1
  Cl  Cl56  1  0.11083600  0.88916400  0.88916400  1
  Cl  Cl57  1  0.88916400  0.88916400  0.11083600  1
  Cl  Cl58  1  0.88916400  0.11083600  0.88916400  1
  Cl  Cl59  1  0.11083600  0.11083600  0.11083600  1
  Cl  Cl60  1  0.06811000  0.37982400  0.16390400  1
  Cl  Cl61  1  0.93189000  0.37982400  0.83609600  1
  Cl  Cl62  1  0.93189000  0.62017600  0.16390400  1
  Cl  Cl63  1  0.06811000  0.62017600  0.83609600  1
  Cl  Cl64  1  0.16390400  0.06811000  0.37982400  1
  Cl  Cl65  1  0.83609600  0.93189000  0.37982400  1
  Cl  Cl66  1  0.16390400  0.93189000  0.62017600  1
  Cl  Cl67  1  0.83609600  0.06811000  0.62017600  1
  Cl  Cl68  1  0.37982400  0.16390400  0.06811000  1
  Cl  Cl69  1  0.37982400  0.83609600  0.93189000  1
  Cl  Cl70  1  0.62017600  0.16390400  0.93189000  1
  Cl  Cl71  1  0.62017600  0.83609600  0.06811000  1
  Cl  Cl72  1  0.43189000  0.12017600  0.33609600  1
  Cl  Cl73  1  0.56811000  0.12017600  0.66390400  1
  Cl  Cl74  1  0.56811000  0.87982400  0.33609600  1
  Cl  Cl75  1  0.43189000  0.87982400  0.66390400  1
  Cl  Cl76  1  0.33609600  0.43189000  0.12017600  1
  Cl  Cl77  1  0.66390400  0.56811000  0.12017600  1
  Cl  Cl78  1  0.33609600  0.56811000  0.87982400  1
  Cl  Cl79  1  0.66390400  0.43189000  0.87982400  1
  Cl  Cl80  1  0.12017600  0.33609600  0.43189000  1
  Cl  Cl81  1  0.12017600  0.66390400  0.56811000  1
  Cl  Cl82  1  0.87982400  0.33609600  0.56811000  1
  Cl  Cl83  1  0.87982400  0.66390400  0.43189000  1
