# generated using pymatgen
data_Ca9Mg(PO4)7
_symmetry_space_group_name_H-M   'P 1'
_cell_length_a   13.86278468
_cell_length_b   13.86278468
_cell_length_c   13.86278474
_cell_angle_alpha   44.28637271
_cell_angle_beta   44.28637271
_cell_angle_gamma   44.28637486
_symmetry_Int_Tables_number   1
_chemical_formula_structural   Ca9Mg(PO4)7
_chemical_formula_sum   'Ca18 Mg2 P14 O56'
_cell_volume   1180.43531056
_cell_formula_units_Z   2
loop_
 _symmetry_equiv_pos_site_id
 _symmetry_equiv_pos_as_xyz
  1  'x, y, z'
loop_
 _atom_site_type_symbol
 _atom_site_label
 _atom_site_symmetry_multiplicity
 _atom_site_fract_x
 _atom_site_fract_y
 _atom_site_fract_z
 _atom_site_occupancy
  Ca  Ca0  1  0.96582100  0.53062100  0.98797700  1
  Ca  Ca1  1  0.53062100  0.98797700  0.96582100  1
  Ca  Ca2  1  0.98797700  0.96582100  0.53062100  1
  Ca  Ca3  1  0.46582100  0.48797700  0.03062100  1
  Ca  Ca4  1  0.48797700  0.03062100  0.46582100  1
  Ca  Ca5  1  0.03062100  0.46582100  0.48797700  1
  Ca  Ca6  1  0.06924800  0.65431900  0.08188300  1
  Ca  Ca7  1  0.65431900  0.08188300  0.06924800  1
  Ca  Ca8  1  0.08188300  0.06924800  0.65431900  1
  Ca  Ca9  1  0.56924800  0.58188300  0.15431900  1
  Ca  Ca10  1  0.58188300  0.15431900  0.56924800  1
  Ca  Ca11  1  0.15431900  0.56924800  0.58188300  1
  Ca  Ca12  1  0.93999600  0.34466000  0.91155400  1
  Ca  Ca13  1  0.34466000  0.91155400  0.93999600  1
  Ca  Ca14  1  0.91155400  0.93999600  0.34466000  1
  Ca  Ca15  1  0.43999600  0.41155400  0.84466000  1
  Ca  Ca16  1  0.41155400  0.84466000  0.43999600  1
  Ca  Ca17  1  0.84466000  0.43999600  0.41155400  1
  Mg  Mg18  1  0.50019900  0.50019900  0.50019900  1
  Mg  Mg19  1  0.00019900  0.00019900  0.00019900  1
  P  P20  1  0.74611200  0.74611200  0.74611200  1
  P  P21  1  0.24611200  0.24611200  0.24611200  1
  P  P22  1  0.81029600  0.31864100  0.77907200  1
  P  P23  1  0.31864100  0.77907200  0.81029600  1
  P  P24  1  0.77907200  0.81029600  0.31864100  1
  P  P25  1  0.31029600  0.27907200  0.81864100  1
  P  P26  1  0.27907200  0.81864100  0.31029600  1
  P  P27  1  0.81864100  0.31029600  0.27907200  1
  P  P28  1  0.72622700  0.18127800  0.69070600  1
  P  P29  1  0.18127800  0.69070600  0.72622700  1
  P  P30  1  0.69070600  0.72622700  0.18127800  1
  P  P31  1  0.22622700  0.19070600  0.68127800  1
  P  P32  1  0.19070600  0.68127800  0.22622700  1
  P  P33  1  0.68127800  0.22622700  0.19070600  1
  O  O34  1  0.70456200  0.70456200  0.70456200  1
  O  O35  1  0.20456200  0.20456200  0.20456200  1
  O  O36  1  0.60889200  0.78068600  0.88861700  1
  O  O37  1  0.78068600  0.88861700  0.60889200  1
  O  O38  1  0.88861700  0.60889200  0.78068600  1
  O  O39  1  0.10889200  0.38861700  0.28068600  1
  O  O40  1  0.38861700  0.28068600  0.10889200  1
  O  O41  1  0.28068600  0.10889200  0.38861700  1
  O  O42  1  0.86133000  0.39754900  0.76642700  1
  O  O43  1  0.39754900  0.76642700  0.86133000  1
  O  O44  1  0.76642700  0.86133000  0.39754900  1
  O  O45  1  0.36133000  0.26642700  0.89754900  1
  O  O46  1  0.26642700  0.89754900  0.36133000  1
  O  O47  1  0.89754900  0.36133000  0.26642700  1
  O  O48  1  0.63604700  0.37557500  0.85635100  1
  O  O49  1  0.37557500  0.85635100  0.63604700  1
  O  O50  1  0.85635100  0.63604700  0.37557500  1
  O  O51  1  0.13604700  0.35635100  0.87557500  1
  O  O52  1  0.35635100  0.87557500  0.13604700  1
  O  O53  1  0.87557500  0.13604700  0.35635100  1
  O  O54  1  0.88498500  0.34018400  0.61495900  1
  O  O55  1  0.34018400  0.61495900  0.88498500  1
  O  O56  1  0.61495900  0.88498500  0.34018400  1
  O  O57  1  0.38498500  0.11495900  0.84018400  1
  O  O58  1  0.11495900  0.84018400  0.38498500  1
  O  O59  1  0.84018400  0.38498500  0.11495900  1
  O  O60  1  0.87856700  0.14190200  0.87378300  1
  O  O61  1  0.14190200  0.87378300  0.87856700  1
  O  O62  1  0.87378300  0.87856700  0.14190200  1
  O  O63  1  0.37856700  0.37378300  0.64190200  1
  O  O64  1  0.37378300  0.64190200  0.37856700  1
  O  O65  1  0.64190200  0.37856700  0.37378300  1
  O  O66  1  0.70196100  0.08591300  0.69222100  1
  O  O67  1  0.08591300  0.69222100  0.70196100  1
  O  O68  1  0.69222100  0.70196100  0.08591300  1
  O  O69  1  0.20196100  0.19222100  0.58591300  1
  O  O70  1  0.19222100  0.58591300  0.20196100  1
  O  O71  1  0.58591300  0.20196100  0.19222100  1
  O  O72  1  0.89796100  0.14662100  0.59397300  1
  O  O73  1  0.14662100  0.59397300  0.89796100  1
  O  O74  1  0.59397300  0.89796100  0.14662100  1
  O  O75  1  0.39796100  0.09397300  0.64662100  1
  O  O76  1  0.09397300  0.64662100  0.39796100  1
  O  O77  1  0.64662100  0.39796100  0.09397300  1
  O  O78  1  0.66543200  0.13881800  0.85761300  1
  O  O79  1  0.13881800  0.85761300  0.66543200  1
  O  O80  1  0.85761300  0.66543200  0.13881800  1
  O  O81  1  0.16543200  0.35761300  0.63881800  1
  O  O82  1  0.35761300  0.63881800  0.16543200  1
  O  O83  1  0.63881800  0.16543200  0.35761300  1
  O  O84  1  0.63591800  0.35709200  0.61455200  1
  O  O85  1  0.35709200  0.61455200  0.63591800  1
  O  O86  1  0.61455200  0.63591800  0.35709200  1
  O  O87  1  0.13591800  0.11455200  0.85709200  1
  O  O88  1  0.11455200  0.85709200  0.13591800  1
  O  O89  1  0.85709200  0.13591800  0.11455200  1
