# generated using pymatgen
data_Zn3As2
_symmetry_space_group_name_H-M   'P 1'
_cell_length_a   14.65623289
_cell_length_b   14.65623289
_cell_length_c   14.65623289
_cell_angle_alpha   131.95157088
_cell_angle_beta   131.95157088
_cell_angle_gamma   70.30552617
_symmetry_Int_Tables_number   1
_chemical_formula_structural   Zn3As2
_chemical_formula_sum   'Zn48 As32'
_cell_volume   1706.58967240
_cell_formula_units_Z   16
loop_
 _symmetry_equiv_pos_site_id
 _symmetry_equiv_pos_as_xyz
  1  'x, y, z'
loop_
 _atom_site_type_symbol
 _atom_site_label
 _atom_site_symmetry_multiplicity
 _atom_site_fract_x
 _atom_site_fract_y
 _atom_site_fract_z
 _atom_site_occupancy
  Zn  Zn0  1  0.95956600  0.68648900  0.02382400  1
  Zn  Zn1  1  0.16266500  0.18648900  0.72692300  1
  Zn  Zn2  1  0.43648900  0.91266500  0.22692300  1
  Zn  Zn3  1  0.93648900  0.70956600  0.52382400  1
  Zn  Zn4  1  0.66266500  0.93574200  0.97617600  1
  Zn  Zn5  1  0.45956600  0.43574200  0.27307700  1
  Zn  Zn6  1  0.68574200  0.20956600  0.77307700  1
  Zn  Zn7  1  0.18574200  0.41266500  0.47617600  1
  Zn  Zn8  1  0.18712200  0.44233600  0.02983000  1
  Zn  Zn9  1  0.91250600  0.94233600  0.25521500  1
  Zn  Zn10  1  0.19233600  0.66250600  0.75521500  1
  Zn  Zn11  1  0.69233600  0.93712200  0.52983000  1
  Zn  Zn12  1  0.41250600  0.15729200  0.97017000  1
  Zn  Zn13  1  0.68712200  0.65729200  0.74478500  1
  Zn  Zn14  1  0.90729200  0.43712200  0.24478500  1
  Zn  Zn15  1  0.40729200  0.16250600  0.47017000  1
  Zn  Zn16  1  0.93153100  0.43059700  0.72898500  1
  Zn  Zn17  1  0.20161300  0.93059700  0.49906600  1
  Zn  Zn18  1  0.18059700  0.95161300  0.99906600  1
  Zn  Zn19  1  0.68059700  0.68153100  0.22898500  1
  Zn  Zn20  1  0.70161300  0.20254700  0.27101500  1
  Zn  Zn21  1  0.43153100  0.70254700  0.50093400  1
  Zn  Zn22  1  0.95254700  0.18153100  0.00093400  1
  Zn  Zn23  1  0.45254700  0.45161300  0.77101500  1
  Zn  Zn24  1  0.31709800  0.82083800  0.28828900  1
  Zn  Zn25  1  0.03254900  0.32083800  0.50374000  1
  Zn  Zn26  1  0.57083800  0.78254900  0.00374000  1
  Zn  Zn27  1  0.07083800  0.06709800  0.78828900  1
  Zn  Zn28  1  0.53254900  0.02881000  0.71171100  1
  Zn  Zn29  1  0.81709800  0.52881000  0.49626000  1
  Zn  Zn30  1  0.77881000  0.56709800  0.99626000  1
  Zn  Zn31  1  0.27881000  0.28254900  0.21171100  1
  Zn  Zn32  1  0.05482700  0.79099800  0.97503900  1
  Zn  Zn33  1  0.31596000  0.29099800  0.73617100  1
  Zn  Zn34  1  0.54099800  0.06596000  0.23617100  1
  Zn  Zn35  1  0.04099800  0.80482700  0.47503900  1
  Zn  Zn36  1  0.81596000  0.07978900  0.02496100  1
  Zn  Zn37  1  0.55482700  0.57978900  0.26382900  1
  Zn  Zn38  1  0.82978900  0.30482700  0.76382900  1
  Zn  Zn39  1  0.32978900  0.56596000  0.52496100  1
  Zn  Zn40  1  0.30639200  0.55848700  0.98194800  1
  Zn  Zn41  1  0.07654000  0.05848700  0.25209500  1
  Zn  Zn42  1  0.30848700  0.82654000  0.75209500  1
  Zn  Zn43  1  0.80848700  0.05639200  0.48194800  1
  Zn  Zn44  1  0.57654000  0.32444400  0.01805200  1
  Zn  Zn45  1  0.80639200  0.82444400  0.74790500  1
  Zn  Zn46  1  0.07444400  0.55639200  0.24790500  1
  Zn  Zn47  1  0.57444400  0.32654000  0.51805200  1
  As  As48  1  0.24795300  0.74795300  0.50000000  1
  As  As49  1  0.74795300  0.24795300  0.50000000  1
  As  As50  1  0.49795300  0.49795300  0.00000000  1
  As  As51  1  0.99795300  0.99795300  0.00000000  1
  As  As52  1  0.49817500  0.99817500  0.50000000  1
  As  As53  1  0.99817500  0.49817500  0.50000000  1
  As  As54  1  0.74817500  0.74817500  0.00000000  1
  As  As55  1  0.24817500  0.24817500  0.00000000  1
  As  As56  1  0.36647400  0.62016900  0.24555200  1
  As  As57  1  0.87461700  0.12016900  0.25369500  1
  As  As58  1  0.37016900  0.62461700  0.75369500  1
  As  As59  1  0.87016900  0.11647400  0.74555200  1
  As  As60  1  0.37461700  0.12092300  0.75444800  1
  As  As61  1  0.86647400  0.62092300  0.74630500  1
  As  As62  1  0.87092300  0.61647400  0.24630500  1
  As  As63  1  0.37092300  0.12461700  0.25444800  1
  As  As64  1  0.12121500  0.87923700  0.25294900  1
  As  As65  1  0.12628700  0.37923700  0.75802100  1
  As  As66  1  0.62923700  0.87628700  0.25802100  1
  As  As67  1  0.12923700  0.87121600  0.75294900  1
  As  As68  1  0.62628700  0.86826600  0.74705100  1
  As  As69  1  0.62121600  0.36826600  0.24197900  1
  As  As70  1  0.61826600  0.37121600  0.74197900  1
  As  As71  1  0.11826600  0.37628700  0.24705100  1
  As  As72  1  0.99171100  0.49638700  0.99588900  1
  As  As73  1  0.00049800  0.99638700  0.50467600  1
  As  As74  1  0.24638700  0.75049800  0.00467600  1
  As  As75  1  0.74638700  0.74171100  0.49588900  1
  As  As76  1  0.50049800  0.99582200  0.00411100  1
  As  As77  1  0.49171100  0.49582200  0.49532400  1
  As  As78  1  0.74582200  0.24171100  0.99532400  1
  As  As79  1  0.24582200  0.25049800  0.50411100  1
