# generated using pymatgen
data_SmS2NO12
_symmetry_space_group_name_H-M   'P 1'
_cell_length_a   5.94000200
_cell_length_b   22.47625900
_cell_length_c   10.25427090
_cell_angle_alpha   90.00000000
_cell_angle_beta   92.00516101
_cell_angle_gamma   90.00000000
_symmetry_Int_Tables_number   1
_chemical_formula_structural   SmS2NO12
_chemical_formula_sum   'Sm4 S8 N4 O48'
_cell_volume   1368.19940386
_cell_formula_units_Z   4
loop_
 _symmetry_equiv_pos_site_id
 _symmetry_equiv_pos_as_xyz
  1  'x, y, z'
loop_
 _atom_site_type_symbol
 _atom_site_label
 _atom_site_symmetry_multiplicity
 _atom_site_fract_x
 _atom_site_fract_y
 _atom_site_fract_z
 _atom_site_occupancy
  Sm  Sm0  1  0.18979000  0.92233100  0.74378400  1
  Sm  Sm1  1  0.81021000  0.42233100  0.75621600  1
  Sm  Sm2  1  0.81021000  0.07766900  0.25621600  1
  Sm  Sm3  1  0.18979000  0.57766900  0.24378400  1
  S  S4  1  0.12017900  0.72334700  0.86325200  1
  S  S5  1  0.87982100  0.22334700  0.63674800  1
  S  S6  1  0.87982100  0.27665300  0.13674800  1
  S  S7  1  0.12017900  0.77665300  0.36325200  1
  S  S8  1  0.69078300  0.90682100  0.76358600  1
  S  S9  1  0.30921700  0.40682100  0.73641400  1
  S  S10  1  0.30921700  0.09317900  0.23641400  1
  S  S11  1  0.69078300  0.59317900  0.26358600  1
  N  N12  1  0.65248900  0.78009600  0.11988600  1
  N  N13  1  0.34751100  0.28009600  0.38011400  1
  N  N14  1  0.34751100  0.21990400  0.88011400  1
  N  N15  1  0.65248900  0.71990400  0.61988600  1
  O  O16  1  0.08088600  0.83913700  0.34708300  1
  O  O17  1  0.91911400  0.33913700  0.15291700  1
  O  O18  1  0.91911400  0.16086300  0.65291700  1
  O  O19  1  0.08088600  0.66086300  0.84708300  1
  O  O20  1  0.19980400  0.94013900  0.10440800  1
  O  O21  1  0.80019600  0.44013900  0.39559200  1
  O  O22  1  0.80019600  0.05986100  0.89559200  1
  O  O23  1  0.19980400  0.55986100  0.60440800  1
  O  O24  1  0.93405600  0.73547100  0.36018700  1
  O  O25  1  0.06594400  0.23547100  0.13981300  1
  O  O26  1  0.06594400  0.26452900  0.63981300  1
  O  O27  1  0.93405600  0.76452900  0.86018700  1
  O  O28  1  0.34544100  0.75432800  0.38247600  1
  O  O29  1  0.65455900  0.25432800  0.11752400  1
  O  O30  1  0.65455900  0.24567200  0.61752400  1
  O  O31  1  0.34544100  0.74567200  0.88247600  1
  O  O32  1  0.51342700  0.63670500  0.30214600  1
  O  O33  1  0.48657300  0.13670500  0.19785400  1
  O  O34  1  0.48657300  0.36329500  0.69785400  1
  O  O35  1  0.51342700  0.86329500  0.80214600  1
  O  O36  1  0.56278400  0.96050100  0.71721000  1
  O  O37  1  0.43721600  0.46050100  0.78279000  1
  O  O38  1  0.43721600  0.03949900  0.28279000  1
  O  O39  1  0.56278400  0.53949900  0.21721000  1
  O  O40  1  0.83601100  0.61799100  0.16077800  1
  O  O41  1  0.16398900  0.11799100  0.33922200  1
  O  O42  1  0.16398900  0.38200900  0.83922200  1
  O  O43  1  0.83601100  0.88200900  0.66077800  1
  O  O44  1  0.85031700  0.57603200  0.37384700  1
  O  O45  1  0.14968300  0.07603200  0.12615300  1
  O  O46  1  0.14968300  0.42396800  0.62615300  1
  O  O47  1  0.85031700  0.92396800  0.87384700  1
  O  O48  1  0.18349700  0.56175900  0.03962700  1
  O  O49  1  0.81650300  0.06175900  0.46037300  1
  O  O50  1  0.81650300  0.43824100  0.96037300  1
  O  O51  1  0.18349700  0.93824100  0.53962700  1
  O  O52  1  0.23928400  0.89158100  0.05400000  1
  O  O53  1  0.76071600  0.39158100  0.44600000  1
  O  O54  1  0.76071600  0.10841900  0.94600000  1
  O  O55  1  0.23928400  0.60841900  0.55400000  1
  O  O56  1  0.69207500  0.92178200  0.30318300  1
  O  O57  1  0.30792500  0.42178200  0.19681700  1
  O  O58  1  0.30792500  0.07821800  0.69681700  1
  O  O59  1  0.69207500  0.57821800  0.80318300  1
  O  O60  1  0.78394700  0.95803000  0.23254700  1
  O  O61  1  0.21605300  0.45803000  0.26745300  1
  O  O62  1  0.21605300  0.04197000  0.76745300  1
  O  O63  1  0.78394700  0.54197000  0.73254700  1
