# generated using pymatgen
data_Sb2Cl7O6
_symmetry_space_group_name_H-M   'P 1'
_cell_length_a   21.95500400
_cell_length_b   9.85817100
_cell_length_c   17.11282934
_cell_angle_alpha   55.73146552
_cell_angle_beta   90.00000000
_cell_angle_gamma   90.00000000
_symmetry_Int_Tables_number   1
_chemical_formula_structural   Sb2Cl7O6
_chemical_formula_sum   'Sb16 Cl56 O48'
_cell_volume   3060.87795388
_cell_formula_units_Z   8
loop_
 _symmetry_equiv_pos_site_id
 _symmetry_equiv_pos_as_xyz
  1  'x, y, z'
loop_
 _atom_site_type_symbol
 _atom_site_label
 _atom_site_symmetry_multiplicity
 _atom_site_fract_x
 _atom_site_fract_y
 _atom_site_fract_z
 _atom_site_occupancy
  Sb  Sb0  1  0.70151200  0.16704500  0.21790900  1
  Sb  Sb1  1  0.79848800  0.16704500  0.71790900  1
  Sb  Sb2  1  0.29848800  0.83295500  0.78209100  1
  Sb  Sb3  1  0.20151200  0.83295500  0.28209100  1
  Sb  Sb4  1  0.67980000  0.85752600  0.20259500  1
  Sb  Sb5  1  0.82020000  0.85752600  0.70259500  1
  Sb  Sb6  1  0.32020000  0.14247400  0.79740500  1
  Sb  Sb7  1  0.17980000  0.14247400  0.29740500  1
  Sb  Sb8  1  0.56171800  0.87318000  0.85026000  1
  Sb  Sb9  1  0.93828200  0.87318000  0.35026000  1
  Sb  Sb10  1  0.43828200  0.12682000  0.14974000  1
  Sb  Sb11  1  0.06171800  0.12682000  0.64974000  1
  Sb  Sb12  1  0.53644100  0.10637100  0.62686200  1
  Sb  Sb13  1  0.96355900  0.10637100  0.12686200  1
  Sb  Sb14  1  0.46355900  0.89362900  0.37313800  1
  Sb  Sb15  1  0.03644100  0.89362900  0.87313800  1
  Cl  Cl16  1  0.71967600  0.02486900  0.38079900  1
  Cl  Cl17  1  0.78032400  0.02486900  0.88079900  1
  Cl  Cl18  1  0.28032400  0.97513100  0.61920100  1
  Cl  Cl19  1  0.21967600  0.97513100  0.11920100  1
  Cl  Cl20  1  0.78701800  0.33801200  0.17029200  1
  Cl  Cl21  1  0.71298200  0.33801200  0.67029200  1
  Cl  Cl22  1  0.21298200  0.66198800  0.82970800  1
  Cl  Cl23  1  0.28701800  0.66198800  0.32970800  1
  Cl  Cl24  1  0.62941700  0.34858700  0.20992600  1
  Cl  Cl25  1  0.87058300  0.34858700  0.70992600  1
  Cl  Cl26  1  0.37058300  0.65141300  0.79007400  1
  Cl  Cl27  1  0.12941700  0.65141300  0.29007400  1
  Cl  Cl28  1  0.68964900  0.64117600  0.36167800  1
  Cl  Cl29  1  0.81035100  0.64117600  0.86167800  1
  Cl  Cl30  1  0.31035100  0.35882400  0.63832200  1
  Cl  Cl31  1  0.18964900  0.35882400  0.13832200  1
  Cl  Cl32  1  0.74624200  0.75331500  0.14203500  1
  Cl  Cl33  1  0.75375800  0.75331500  0.64203500  1
  Cl  Cl34  1  0.25375800  0.24668500  0.85796500  1
  Cl  Cl35  1  0.24624200  0.24668500  0.35796500  1
  Cl  Cl36  1  0.58893200  0.76931100  0.17380500  1
  Cl  Cl37  1  0.91106800  0.76931100  0.67380500  1
  Cl  Cl38  1  0.41106800  0.23068900  0.82619500  1
  Cl  Cl39  1  0.08893200  0.23068900  0.32619500  1
  Cl  Cl40  1  0.57960900  0.07567500  0.87911600  1
  Cl  Cl41  1  0.92039100  0.07567500  0.37911600  1
  Cl  Cl42  1  0.42039100  0.92432500  0.12088400  1
  Cl  Cl43  1  0.07960900  0.92432500  0.62088400  1
  Cl  Cl44  1  0.49112700  0.72205900  0.97171900  1
  Cl  Cl45  1  0.00887300  0.72205900  0.47171900  1
  Cl  Cl46  1  0.50887300  0.27794100  0.02828100  1
  Cl  Cl47  1  0.99112700  0.27794100  0.52828100  1
  Cl  Cl48  1  0.64797600  0.71582500  0.93029200  1
  Cl  Cl49  1  0.85202400  0.71582500  0.43029200  1
  Cl  Cl50  1  0.35202400  0.28417500  0.06970800  1
  Cl  Cl51  1  0.14797600  0.28417500  0.56970800  1
  Cl  Cl52  1  0.54871800  0.36207700  0.60567400  1
  Cl  Cl53  1  0.95128200  0.36207700  0.10567400  1
  Cl  Cl54  1  0.45128200  0.63792300  0.39432600  1
  Cl  Cl55  1  0.04871800  0.63792300  0.89432600  1
  Cl  Cl56  1  0.59923500  0.16341000  0.50155400  1
  Cl  Cl57  1  0.90076500  0.16341000  0.00155400  1
  Cl  Cl58  1  0.40076500  0.83659000  0.49844600  1
  Cl  Cl59  1  0.09923500  0.83659000  0.99844600  1
  Cl  Cl60  1  0.44298300  0.16678900  0.54809000  1
  Cl  Cl61  1  0.05701700  0.16678900  0.04809000  1
  Cl  Cl62  1  0.55701700  0.83321100  0.45191000  1
  Cl  Cl63  1  0.94298300  0.83321100  0.95191000  1
  Cl  Cl64  1  0.69167600  0.24365600  0.99851000  1
  Cl  Cl65  1  0.80832400  0.24365600  0.49851000  1
  Cl  Cl66  1  0.30832400  0.75634400  0.00149000  1
  Cl  Cl67  1  0.19167600  0.75634400  0.50149000  1
  Cl  Cl68  1  0.54884700  0.69472200  0.72788700  1
  Cl  Cl69  1  0.95115300  0.69472200  0.22788700  1
  Cl  Cl70  1  0.45115300  0.30527800  0.27211300  1
  Cl  Cl71  1  0.04884700  0.30527800  0.77211300  1
  O  O72  1  0.74510500  0.99976300  0.20499800  1
  O  O73  1  0.75489500  0.99976300  0.70499800  1
  O  O74  1  0.25489500  0.00023700  0.79500200  1
  O  O75  1  0.24510500  0.00023700  0.29500200  1
  O  O76  1  0.63732100  0.00508500  0.23304400  1
  O  O77  1  0.86267900  0.00508500  0.73304400  1
  O  O78  1  0.36267900  0.99491500  0.76695600  1
  O  O79  1  0.13732100  0.99491500  0.26695600  1
  O  O80  1  0.66566300  0.07129000  0.04831200  1
  O  O81  1  0.83433700  0.07129000  0.54831200  1
  O  O82  1  0.33433700  0.92871000  0.95168800  1
  O  O83  1  0.16566300  0.92871000  0.45168800  1
  O  O84  1  0.67909400  0.30303300  0.06255700  1
  O  O85  1  0.82090600  0.30303300  0.56255700  1
  O  O86  1  0.32090600  0.69696700  0.93744300  1
  O  O87  1  0.17909400  0.69696700  0.43744300  1
  O  O88  1  0.65706800  0.34569600  0.91461200  1
  O  O89  1  0.84293200  0.34569600  0.41461200  1
  O  O90  1  0.34293200  0.65430400  0.08538800  1
  O  O91  1  0.15706800  0.65430400  0.58538800  1
  O  O92  1  0.75551900  0.24266000  0.98424100  1
  O  O93  1  0.74448100  0.24266000  0.48424100  1
  O  O94  1  0.24448100  0.75734000  0.01575900  1
  O  O95  1  0.25551900  0.75734000  0.51575900  1
  O  O96  1  0.49513600  0.00434900  0.75410400  1
  O  O97  1  0.00486400  0.00434900  0.25410400  1
  O  O98  1  0.50486400  0.99565100  0.24589600  1
  O  O99  1  0.99513600  0.99565100  0.74589600  1
  O  O100  1  0.60375700  0.99761400  0.72341700  1
  O  O101  1  0.89624300  0.99761400  0.22341700  1
  O  O102  1  0.39624300  0.00238600  0.27658300  1
  O  O103  1  0.10375700  0.00238600  0.77658300  1
  O  O104  1  0.52026500  0.85812200  0.65120100  1
  O  O105  1  0.97973500  0.85812200  0.15120100  1
  O  O106  1  0.47973500  0.14187800  0.34879900  1
  O  O107  1  0.02026500  0.14187800  0.84879900  1
  O  O108  1  0.54122500  0.67865000  0.82131100  1
  O  O109  1  0.95877500  0.67865000  0.32131100  1
  O  O110  1  0.45877500  0.32135000  0.17868900  1
  O  O111  1  0.04122500  0.32135000  0.67868900  1
  O  O112  1  0.61163500  0.69166000  0.70834400  1
  O  O113  1  0.88836500  0.69166000  0.20834400  1
  O  O114  1  0.38836500  0.30834000  0.29165600  1
  O  O115  1  0.11163500  0.30834000  0.79165600  1
  O  O116  1  0.51289700  0.56885700  0.73384600  1
  O  O117  1  0.98710300  0.56885700  0.23384600  1
  O  O118  1  0.48710300  0.43114300  0.26615400  1
  O  O119  1  0.01289700  0.43114300  0.76615400  1
