# generated using pymatgen
data_Rb2PdC4N4O
_symmetry_space_group_name_H-M   'P 1'
_cell_length_a   7.71619800
_cell_length_b   9.96719000
_cell_length_c   13.87990700
_cell_angle_alpha   90.00000000
_cell_angle_beta   90.00000000
_cell_angle_gamma   90.00000000
_symmetry_Int_Tables_number   1
_chemical_formula_structural   Rb2PdC4N4O
_chemical_formula_sum   'Rb8 Pd4 C16 N16 O4'
_cell_volume   1067.48715171
_cell_formula_units_Z   4
loop_
 _symmetry_equiv_pos_site_id
 _symmetry_equiv_pos_as_xyz
  1  'x, y, z'
loop_
 _atom_site_type_symbol
 _atom_site_label
 _atom_site_symmetry_multiplicity
 _atom_site_fract_x
 _atom_site_fract_y
 _atom_site_fract_z
 _atom_site_occupancy
  Rb  Rb0  1  0.30757400  0.25000000  0.75000000  1
  Rb  Rb1  1  0.19242600  0.75000000  0.75000000  1
  Rb  Rb2  1  0.69242600  0.75000000  0.25000000  1
  Rb  Rb3  1  0.80757400  0.25000000  0.25000000  1
  Rb  Rb4  1  0.75000000  0.00000000  0.59939600  1
  Rb  Rb5  1  0.75000000  0.50000000  0.90060400  1
  Rb  Rb6  1  0.25000000  0.00000000  0.40060400  1
  Rb  Rb7  1  0.25000000  0.50000000  0.09939600  1
  Pd  Pd8  1  0.50000000  0.50000000  0.50000000  1
  Pd  Pd9  1  0.00000000  0.50000000  0.50000000  1
  Pd  Pd10  1  0.50000000  0.00000000  0.00000000  1
  Pd  Pd11  1  0.00000000  0.00000000  0.00000000  1
  C  C12  1  0.00227300  0.47105800  0.64232400  1
  C  C13  1  0.49772700  0.52894200  0.64232400  1
  C  C14  1  0.00227300  0.02894200  0.85767600  1
  C  C15  1  0.49772700  0.97105800  0.85767600  1
  C  C16  1  0.99772700  0.52894200  0.35767600  1
  C  C17  1  0.50227300  0.47105800  0.35767600  1
  C  C18  1  0.99772700  0.97105800  0.14232400  1
  C  C19  1  0.50227300  0.02894200  0.14232400  1
  C  C20  1  0.96907600  0.30300400  0.47980900  1
  C  C21  1  0.53092400  0.69699600  0.47980900  1
  C  C22  1  0.96907600  0.19699600  0.02019100  1
  C  C23  1  0.53092400  0.80300400  0.02019100  1
  C  C24  1  0.03092400  0.69699600  0.52019100  1
  C  C25  1  0.46907600  0.30300400  0.52019100  1
  C  C26  1  0.03092400  0.80300400  0.97980900  1
  C  C27  1  0.46907600  0.19699600  0.97980900  1
  N  N28  1  0.01122800  0.45650800  0.72626900  1
  N  N29  1  0.48877200  0.54349200  0.72626900  1
  N  N30  1  0.01122800  0.04349200  0.77373100  1
  N  N31  1  0.48877200  0.95650800  0.77373100  1
  N  N32  1  0.98877200  0.54349200  0.27373100  1
  N  N33  1  0.51122800  0.45650800  0.27373100  1
  N  N34  1  0.98877200  0.95650800  0.22626900  1
  N  N35  1  0.51122800  0.04349200  0.22626900  1
  N  N36  1  0.95121700  0.18786600  0.46539900  1
  N  N37  1  0.54878300  0.81213400  0.46539900  1
  N  N38  1  0.95121700  0.31213400  0.03460100  1
  N  N39  1  0.54878300  0.68786600  0.03460100  1
  N  N40  1  0.04878300  0.81213400  0.53460100  1
  N  N41  1  0.45121700  0.18786600  0.53460100  1
  N  N42  1  0.04878300  0.68786600  0.96539900  1
  N  N43  1  0.45121700  0.31213400  0.96539900  1
  O  O44  1  0.71761600  0.25000000  0.75000000  1
  O  O45  1  0.78238400  0.75000000  0.75000000  1
  O  O46  1  0.28238400  0.75000000  0.25000000  1
  O  O47  1  0.21761600  0.25000000  0.25000000  1
