# generated using pymatgen
data_Zn3Si12H78(C13O2)2
_symmetry_space_group_name_H-M   'P 1'
_cell_length_a   10.26204900
_cell_length_b   11.98540241
_cell_length_c   14.07953270
_cell_angle_alpha   103.13039208
_cell_angle_beta   97.72674264
_cell_angle_gamma   111.15707394
_symmetry_Int_Tables_number   1
_chemical_formula_structural   Zn3Si12H78(C13O2)2
_chemical_formula_sum   'Zn3 Si12 H78 C26 O4'
_cell_volume   1527.44560103
_cell_formula_units_Z   1
loop_
 _symmetry_equiv_pos_site_id
 _symmetry_equiv_pos_as_xyz
  1  'x, y, z'
loop_
 _atom_site_type_symbol
 _atom_site_label
 _atom_site_symmetry_multiplicity
 _atom_site_fract_x
 _atom_site_fract_y
 _atom_site_fract_z
 _atom_site_occupancy
  Zn  Zn0  1  0.00000000  0.50000000  0.50000000  1
  Zn  Zn1  1  0.90575000  0.70837500  0.53182500  1
  Zn  Zn2  1  0.09425000  0.29162500  0.46817500  1
  Si  Si3  1  0.43866500  0.52029900  0.75376800  1
  Si  Si4  1  0.56133500  0.47970100  0.24623200  1
  Si  Si5  1  0.04905000  0.39091100  0.78578400  1
  Si  Si6  1  0.95095000  0.60908900  0.21421600  1
  Si  Si7  1  0.36901800  0.84138700  0.64153600  1
  Si  Si8  1  0.63098200  0.15861300  0.35846400  1
  Si  Si9  1  0.16064800  0.83817500  0.85657600  1
  Si  Si10  1  0.83935200  0.16182500  0.14342400  1
  Si  Si11  1  0.18600300  0.71441100  0.70579200  1
  Si  Si12  1  0.81399700  0.28558900  0.29420800  1
  Si  Si13  1  0.20426000  0.51680200  0.70257700  1
  Si  Si14  1  0.79574000  0.48319800  0.29742300  1
  H  H15  1  0.39252600  0.65578300  0.53056000  1
  H  H16  1  0.60747400  0.34421700  0.46944000  1
  H  H17  1  0.27347200  0.70436800  0.46379100  1
  H  H18  1  0.72652800  0.29563200  0.53620900  1
  H  H19  1  0.46220700  0.79141400  0.48974900  1
  H  H20  1  0.53779300  0.20858600  0.51025100  1
  H  H21  1  0.91389300  0.83067500  0.79900100  1
  H  H22  1  0.08610700  0.16932500  0.20099900  1
  H  H23  1  0.90376800  0.70524100  0.84959100  1
  H  H24  1  0.09623200  0.29475900  0.15040900  1
  H  H25  1  0.96393100  0.86033700  0.93136400  1
  H  H26  1  0.03606900  0.13966300  0.06863600  1
  H  H27  1  0.80561500  0.34690300  0.81643500  1
  H  H28  1  0.19438500  0.65309700  0.18356500  1
  H  H29  1  0.89938600  0.51033500  0.83533600  1
  H  H30  1  0.10061400  0.48966500  0.16466400  1
  H  H31  1  0.82086200  0.40562700  0.71131400  1
  H  H32  1  0.17913800  0.59437300  0.28868600  1
  H  H33  1  0.65952300  0.55309700  0.69214000  1
  H  H34  1  0.34047700  0.44690300  0.30786000  1
  H  H35  1  0.50915700  0.49866200  0.58873200  1
  H  H36  1  0.49084300  0.50133800  0.41126800  1
  H  H37  1  0.58673100  0.65908500  0.66362500  1
  H  H38  1  0.41326900  0.34091500  0.33637500  1
  H  H39  1  0.92621900  0.19402700  0.63989500  1
  H  H40  1  0.07378100  0.80597300  0.36010500  1
  H  H41  1  0.08368100  0.19401700  0.71035300  1
  H  H42  1  0.91631900  0.80598300  0.28964700  1
  H  H43  1  0.92496800  0.16127300  0.75653900  1
  H  H44  1  0.07503200  0.83872700  0.24346100  1
  H  H45  1  0.36805200  0.33371800  0.81934900  1
  H  H46  1  0.63194800  0.66628200  0.18065100  1
  H  H47  1  0.37314500  0.28828900  0.69063600  1
  H  H48  1  0.62685500  0.71171100  0.30936400  1
  H  H49  1  0.53608600  0.36675500  0.78562200  1
  H  H50  1  0.46391400  0.63324500  0.21437800  1
  H  H51  1  0.63209800  0.96528700  0.68644100  1
  H  H52  1  0.36790200  0.03471300  0.31355900  1
  H  H53  1  0.56035600  0.99362800  0.79346600  1
  H  H54  1  0.43964400  0.00637200  0.20653400  1
  H  H55  1  0.58965700  0.85412700  0.75469800  1
  H  H56  1  0.41034300  0.14587300  0.24530200  1
  H  H57  1  0.55172000  0.73345700  0.88230700  1
  H  H58  1  0.44828000  0.26654300  0.11769300  1
  H  H59  1  0.47132000  0.61475500  0.93866300  1
  H  H60  1  0.52868000  0.38524500  0.06133700  1
  H  H61  1  0.63848500  0.63492900  0.90621200  1
  H  H62  1  0.36151500  0.36507100  0.09378800  1
  H  H63  1  0.23833800  0.06500700  0.94370600  1
  H  H64  1  0.76166200  0.93499300  0.05629400  1
  H  H65  1  0.36832900  0.04241300  0.87874800  1
  H  H66  1  0.63167100  0.95758700  0.12125200  1
  H  H67  1  0.20541800  0.03768400  0.81143000  1
  H  H68  1  0.79458200  0.96231600  0.18857000  1
  H  H69  1  0.21846400  0.85827400  0.03776000  1
  H  H70  1  0.78153600  0.14172600  0.96224000  1
  H  H71  1  0.19884700  0.70799500  0.96539800  1
  H  H72  1  0.80115300  0.29200500  0.03460200  1
  H  H73  1  0.36082100  0.84176800  0.98441800  1
  H  H74  1  0.63917900  0.15823200  0.01558200  1
  H  H75  1  0.21194200  0.93201100  0.56154800  1
  H  H76  1  0.78805800  0.06798900  0.43845200  1
  H  H77  1  0.33527800  0.04389100  0.67351000  1
  H  H78  1  0.66472200  0.95610900  0.32649000  1
  H  H79  1  0.39544100  0.01060900  0.56193500  1
  H  H80  1  0.60455900  0.98939100  0.43806500  1
  H  H81  1  0.72807300  0.81060900  0.52001300  1
  H  H82  1  0.27192700  0.18939100  0.47998700  1
  H  H83  1  0.86399300  0.89171500  0.63445600  1
  H  H84  1  0.13600700  0.10828500  0.36554400  1
  H  H85  1  0.90305900  0.91417400  0.51881500  1
  H  H86  1  0.09694100  0.08582600  0.48118500  1
  H  H87  1  0.05858500  0.35352900  0.95171700  1
  H  H88  1  0.94141500  0.64647100  0.04828300  1
  H  H89  1  0.23173300  0.39339600  0.92577600  1
  H  H90  1  0.76826700  0.60660400  0.07422400  1
  H  H91  1  0.16999400  0.51275700  0.96764700  1
  H  H92  1  0.83000600  0.48724300  0.03235300  1
  C  C93  1  0.37489800  0.73763400  0.52042400  1
  C  C94  1  0.62510200  0.26236600  0.47957600  1
  C  C95  1  0.96668000  0.80446100  0.85826000  1
  C  C96  1  0.03332000  0.19553900  0.14174000  1
  C  C97  1  0.87811400  0.41673900  0.78692300  1
  C  C98  1  0.12188600  0.58326100  0.21307700  1
  C  C99  1  0.55895000  0.56230600  0.66564200  1
  C  C100  1  0.44105000  0.43769400  0.33435800  1
  C  C101  1  0.99194000  0.21943800  0.71613300  1
  C  C102  1  0.00806000  0.78056200  0.28386700  1
  C  C103  1  0.42661700  0.36200300  0.76299500  1
  C  C104  1  0.57338300  0.63799700  0.23700500  1
  C  C105  1  0.55486000  0.92031800  0.72780000  1
  C  C106  1  0.44514000  0.07968200  0.27220000  1
  C  C107  1  0.53297200  0.63717200  0.88231600  1
  C  C108  1  0.46702800  0.36282800  0.11768400  1
  C  C109  1  0.25225400  0.01186400  0.87359700  1
  C  C110  1  0.74774600  0.98813600  0.12640300  1
  C  C111  1  0.24314700  0.80822800  0.97139100  1
  C  C112  1  0.75685300  0.19177200  0.02860900  1
  C  C113  1  0.32248200  0.96856800  0.60710600  1
  C  C114  1  0.67751800  0.03143200  0.39289400  1
  C  C115  1  0.84354500  0.84469300  0.55382100  1
  C  C116  1  0.15645500  0.15530700  0.44617900  1
  C  C117  1  0.13704900  0.41612500  0.92023500  1
  C  C118  1  0.86295100  0.58387500  0.07976500  1
  O  O119  1  0.12942800  0.44294200  0.57767600  1
  O  O120  1  0.87057200  0.55705800  0.42232400  1
  O  O121  1  0.03787800  0.65699500  0.60897300  1
  O  O122  1  0.96212200  0.34300500  0.39102700  1
