# generated using pymatgen
data_Sn6P3NO14
_symmetry_space_group_name_H-M   'P 1'
_cell_length_a   7.02975300
_cell_length_b   12.57602700
_cell_length_c   19.73263500
_cell_angle_alpha   90.00000000
_cell_angle_beta   90.00000000
_cell_angle_gamma   90.00000000
_symmetry_Int_Tables_number   1
_chemical_formula_structural   Sn6P3NO14
_chemical_formula_sum   'Sn24 P12 N4 O56'
_cell_volume   1744.49050324
_cell_formula_units_Z   4
loop_
 _symmetry_equiv_pos_site_id
 _symmetry_equiv_pos_as_xyz
  1  'x, y, z'
loop_
 _atom_site_type_symbol
 _atom_site_label
 _atom_site_symmetry_multiplicity
 _atom_site_fract_x
 _atom_site_fract_y
 _atom_site_fract_z
 _atom_site_occupancy
  Sn  Sn0  1  0.18344800  0.10978200  0.94916400  1
  Sn  Sn1  1  0.31655200  0.60978200  0.55083600  1
  Sn  Sn2  1  0.68344800  0.89021800  0.55083600  1
  Sn  Sn3  1  0.81655200  0.39021800  0.94916400  1
  Sn  Sn4  1  0.81655200  0.89021800  0.05083600  1
  Sn  Sn5  1  0.68344800  0.39021800  0.44916400  1
  Sn  Sn6  1  0.31655200  0.10978200  0.44916400  1
  Sn  Sn7  1  0.18344800  0.60978200  0.05083600  1
  Sn  Sn8  1  0.30436500  0.84550000  0.90569000  1
  Sn  Sn9  1  0.19563500  0.34550000  0.59431000  1
  Sn  Sn10  1  0.80436500  0.15450000  0.59431000  1
  Sn  Sn11  1  0.69563500  0.65450000  0.90569000  1
  Sn  Sn12  1  0.69563500  0.15450000  0.09431000  1
  Sn  Sn13  1  0.80436500  0.65450000  0.40569000  1
  Sn  Sn14  1  0.19563500  0.84550000  0.40569000  1
  Sn  Sn15  1  0.30436500  0.34550000  0.09431000  1
  Sn  Sn16  1  0.97344400  0.00661100  0.79119200  1
  Sn  Sn17  1  0.52655600  0.50661100  0.70880800  1
  Sn  Sn18  1  0.47344400  0.99338900  0.70880800  1
  Sn  Sn19  1  0.02655600  0.49338900  0.79119200  1
  Sn  Sn20  1  0.02655600  0.99338900  0.20880800  1
  Sn  Sn21  1  0.47344400  0.49338900  0.29119200  1
  Sn  Sn22  1  0.52655600  0.00661100  0.29119200  1
  Sn  Sn23  1  0.97344400  0.50661100  0.20880800  1
  P  P24  1  0.50000000  0.75000000  0.75743200  1
  P  P25  1  0.00000000  0.25000000  0.74256800  1
  P  P26  1  0.50000000  0.25000000  0.24256800  1
  P  P27  1  0.00000000  0.75000000  0.25743200  1
  P  P28  1  0.35198600  0.96546700  0.08108500  1
  P  P29  1  0.14801400  0.46546700  0.41891500  1
  P  P30  1  0.85198600  0.03453300  0.41891500  1
  P  P31  1  0.64801400  0.53453300  0.08108500  1
  P  P32  1  0.64801400  0.03453300  0.91891500  1
  P  P33  1  0.85198600  0.53453300  0.58108500  1
  P  P34  1  0.14801400  0.96546700  0.58108500  1
  P  P35  1  0.35198600  0.46546700  0.91891500  1
  N  N36  1  0.50000000  0.25000000  0.80720400  1
  N  N37  1  0.00000000  0.75000000  0.69279600  1
  N  N38  1  0.50000000  0.75000000  0.19279600  1
  N  N39  1  0.00000000  0.25000000  0.30720400  1
  O  O40  1  0.21770600  0.97338400  0.01675800  1
  O  O41  1  0.28229400  0.47338400  0.48324200  1
  O  O42  1  0.71770600  0.02661600  0.48324200  1
  O  O43  1  0.78229400  0.52661600  0.01675800  1
  O  O44  1  0.78229400  0.02661600  0.98324200  1
  O  O45  1  0.71770600  0.52661600  0.51675800  1
  O  O46  1  0.28229400  0.97338400  0.51675800  1
  O  O47  1  0.21770600  0.47338400  0.98324200  1
  O  O48  1  0.48702700  0.11305600  0.93673000  1
  O  O49  1  0.01297300  0.61305600  0.56327000  1
  O  O50  1  0.98702700  0.88694400  0.56327000  1
  O  O51  1  0.51297300  0.38694400  0.93673000  1
  O  O52  1  0.51297300  0.88694400  0.06327000  1
  O  O53  1  0.98702700  0.38694400  0.43673000  1
  O  O54  1  0.01297300  0.11305600  0.43673000  1
  O  O55  1  0.48702700  0.61305600  0.06327000  1
  O  O56  1  0.15027500  0.98234400  0.87949400  1
  O  O57  1  0.34972500  0.48234400  0.62050600  1
  O  O58  1  0.65027500  0.01765600  0.62050600  1
  O  O59  1  0.84972500  0.51765600  0.87949400  1
  O  O60  1  0.84972500  0.01765600  0.12050600  1
  O  O61  1  0.65027500  0.51765600  0.37949400  1
  O  O62  1  0.34972500  0.98234400  0.37949400  1
  O  O63  1  0.15027500  0.48234400  0.12050600  1
  O  O64  1  0.57353500  0.92037600  0.90312900  1
  O  O65  1  0.92646500  0.42037600  0.59687100  1
  O  O66  1  0.07353500  0.07962400  0.59687100  1
  O  O67  1  0.42646500  0.57962400  0.90312900  1
  O  O68  1  0.42646500  0.07962400  0.09687100  1
  O  O69  1  0.07353500  0.57962400  0.40312900  1
  O  O70  1  0.92646500  0.92037600  0.40312900  1
  O  O71  1  0.57353500  0.42037600  0.09687100  1
  O  O72  1  0.34293200  0.80473400  0.80140500  1
  O  O73  1  0.15706800  0.30473400  0.69859500  1
  O  O74  1  0.84293200  0.19526600  0.69859500  1
  O  O75  1  0.65706800  0.69526600  0.80140500  1
  O  O76  1  0.65706800  0.19526600  0.19859500  1
  O  O77  1  0.84293200  0.69526600  0.30140500  1
  O  O78  1  0.15706800  0.80473400  0.30140500  1
  O  O79  1  0.34293200  0.30473400  0.19859500  1
  O  O80  1  0.09312900  0.16308100  0.78764600  1
  O  O81  1  0.40687100  0.66308100  0.71235400  1
  O  O82  1  0.59312900  0.83691900  0.71235400  1
  O  O83  1  0.90687100  0.33691900  0.78764600  1
  O  O84  1  0.90687100  0.83691900  0.21235400  1
  O  O85  1  0.59312900  0.33691900  0.28764600  1
  O  O86  1  0.40687100  0.16308100  0.28764600  1
  O  O87  1  0.09312900  0.66308100  0.21235400  1
  O  O88  1  0.76510200  0.07639200  0.85863400  1
  O  O89  1  0.73489800  0.57639200  0.64136600  1
  O  O90  1  0.26510200  0.92360800  0.64136600  1
  O  O91  1  0.23489800  0.42360800  0.85863400  1
  O  O92  1  0.23489800  0.92360800  0.14136600  1
  O  O93  1  0.26510200  0.42360800  0.35863400  1
  O  O94  1  0.73489800  0.07639200  0.35863400  1
  O  O95  1  0.76510200  0.57639200  0.14136600  1
