# generated using pymatgen
data_BaTeMo2O9
_symmetry_space_group_name_H-M   'P 1'
_cell_length_a   5.79168500
_cell_length_b   15.10439000
_cell_length_c   18.04993300
_cell_angle_alpha   90.00000000
_cell_angle_beta   90.00000000
_cell_angle_gamma   90.00000000
_symmetry_Int_Tables_number   1
_chemical_formula_structural   BaTeMo2O9
_chemical_formula_sum   'Ba8 Te8 Mo16 O72'
_cell_volume   1579.00577425
_cell_formula_units_Z   8
loop_
 _symmetry_equiv_pos_site_id
 _symmetry_equiv_pos_as_xyz
  1  'x, y, z'
loop_
 _atom_site_type_symbol
 _atom_site_label
 _atom_site_symmetry_multiplicity
 _atom_site_fract_x
 _atom_site_fract_y
 _atom_site_fract_z
 _atom_site_occupancy
  Ba  Ba0  1  0.97357400  0.33805600  0.20131000  1
  Ba  Ba1  1  0.02642600  0.66194400  0.70131000  1
  Ba  Ba2  1  0.97357400  0.16194400  0.70131000  1
  Ba  Ba3  1  0.02642600  0.83805600  0.20131000  1
  Ba  Ba4  1  0.48997000  0.09130700  0.26238800  1
  Ba  Ba5  1  0.51003000  0.90869300  0.76238800  1
  Ba  Ba6  1  0.48997000  0.40869300  0.76238800  1
  Ba  Ba7  1  0.51003000  0.59130700  0.26238800  1
  Te  Te8  1  0.84963900  0.28829600  0.92613000  1
  Te  Te9  1  0.15036100  0.71170400  0.42613000  1
  Te  Te10  1  0.84963900  0.21170400  0.42613000  1
  Te  Te11  1  0.15036100  0.78829600  0.92613000  1
  Te  Te12  1  0.35511000  0.96664700  0.03855900  1
  Te  Te13  1  0.64489000  0.03335300  0.53855900  1
  Te  Te14  1  0.35511000  0.53335300  0.53855900  1
  Te  Te15  1  0.64489000  0.46664700  0.03855900  1
  Mo  Mo16  1  0.48400500  0.24233300  0.07224600  1
  Mo  Mo17  1  0.51599500  0.75766700  0.57224600  1
  Mo  Mo18  1  0.48400500  0.25766700  0.57224600  1
  Mo  Mo19  1  0.51599500  0.74233300  0.07224600  1
  Mo  Mo20  1  0.48041800  0.16248900  0.85078200  1
  Mo  Mo21  1  0.51958200  0.83751100  0.35078200  1
  Mo  Mo22  1  0.48041800  0.33751100  0.35078200  1
  Mo  Mo23  1  0.51958200  0.66248900  0.85078200  1
  Mo  Mo24  1  0.98914100  0.01002000  0.89114700  1
  Mo  Mo25  1  0.01085900  0.98998000  0.39114700  1
  Mo  Mo26  1  0.98914100  0.48998000  0.39114700  1
  Mo  Mo27  1  0.01085900  0.51002000  0.89114700  1
  Mo  Mo28  1  0.97832800  0.08835900  0.11266000  1
  Mo  Mo29  1  0.02167200  0.91164100  0.61266000  1
  Mo  Mo30  1  0.97832800  0.41164100  0.61266000  1
  Mo  Mo31  1  0.02167200  0.58835900  0.11266000  1
  O  O32  1  0.82640900  0.16963000  0.05752000  1
  O  O33  1  0.17359100  0.83037000  0.55752000  1
  O  O34  1  0.82640900  0.33037000  0.55752000  1
  O  O35  1  0.17359100  0.66963000  0.05752000  1
  O  O36  1  0.74273000  0.34432100  0.05304200  1
  O  O37  1  0.25727000  0.65567900  0.55304200  1
  O  O38  1  0.74273000  0.15567900  0.55304200  1
  O  O39  1  0.25727000  0.84432100  0.05304200  1
  O  O40  1  0.55999400  0.23855700  0.16816300  1
  O  O41  1  0.44000600  0.76144300  0.66816300  1
  O  O42  1  0.55999400  0.26144300  0.66816300  1
  O  O43  1  0.44000600  0.73855700  0.16816300  1
  O  O44  1  0.26535700  0.32347700  0.07234200  1
  O  O45  1  0.73464300  0.67652300  0.57234200  1
  O  O46  1  0.26535700  0.17652300  0.57234200  1
  O  O47  1  0.73464300  0.82347700  0.07234200  1
  O  O48  1  0.04842400  0.14887900  0.19422500  1
  O  O49  1  0.95157600  0.85112100  0.69422500  1
  O  O50  1  0.04842400  0.35112100  0.69422500  1
  O  O51  1  0.95157600  0.64887900  0.19422500  1
  O  O52  1  0.75139000  0.01837500  0.14244300  1
  O  O53  1  0.24861000  0.98162500  0.64244300  1
  O  O54  1  0.75139000  0.48162500  0.64244300  1
  O  O55  1  0.24861000  0.51837500  0.14244300  1
  O  O56  1  0.24317100  0.99453300  0.13715000  1
  O  O57  1  0.75682900  0.00546700  0.63715000  1
  O  O58  1  0.24317100  0.50546700  0.63715000  1
  O  O59  1  0.75682900  0.49453300  0.13715000  1
  O  O60  1  0.31936400  0.14133200  0.06190800  1
  O  O61  1  0.68063600  0.85866800  0.56190800  1
  O  O62  1  0.31936400  0.35866800  0.56190800  1
  O  O63  1  0.68063600  0.64133200  0.06190800  1
  O  O64  1  0.54796500  0.24289600  0.95320100  1
  O  O65  1  0.45203500  0.75710400  0.45320100  1
  O  O66  1  0.54796500  0.25710400  0.45320100  1
  O  O67  1  0.45203500  0.74289600  0.95320100  1
  O  O68  1  0.74608500  0.40916700  0.91042600  1
  O  O69  1  0.25391500  0.59083300  0.41042600  1
  O  O70  1  0.74608500  0.09083300  0.41042600  1
  O  O71  1  0.25391500  0.90916700  0.91042600  1
  O  O72  1  0.74264400  0.25763700  0.82737300  1
  O  O73  1  0.25735600  0.74236300  0.32737300  1
  O  O74  1  0.74264400  0.24236300  0.32737300  1
  O  O75  1  0.25735600  0.75763700  0.82737300  1
  O  O76  1  0.55155900  0.09852500  0.77141100  1
  O  O77  1  0.44844100  0.90147500  0.27141100  1
  O  O78  1  0.55155900  0.40147500  0.27141100  1
  O  O79  1  0.44844100  0.59852500  0.77141100  1
  O  O80  1  0.32012100  0.08444000  0.90686700  1
  O  O81  1  0.67987900  0.91556000  0.40686700  1
  O  O82  1  0.32012100  0.41556000  0.40686700  1
  O  O83  1  0.67987900  0.58444000  0.90686700  1
  O  O84  1  0.25937000  0.23295800  0.81721400  1
  O  O85  1  0.74063000  0.76704200  0.31721400  1
  O  O86  1  0.25937000  0.26704200  0.31721400  1
  O  O87  1  0.74063000  0.73295800  0.81721400  1
  O  O88  1  0.05741900  0.01380000  0.79503400  1
  O  O89  1  0.94258100  0.98620000  0.29503400  1
  O  O90  1  0.05741900  0.48620000  0.29503400  1
  O  O91  1  0.94258100  0.51380000  0.79503400  1
  O  O92  1  0.77865000  0.92511700  0.89282800  1
  O  O93  1  0.22135000  0.07488300  0.39282800  1
  O  O94  1  0.77865000  0.57488300  0.39282800  1
  O  O95  1  0.22135000  0.42511700  0.89282800  1
  O  O96  1  0.81508700  0.10863000  0.90203900  1
  O  O97  1  0.18491300  0.89137000  0.40203900  1
  O  O98  1  0.81508700  0.39137000  0.40203900  1
  O  O99  1  0.18491300  0.60863000  0.90203900  1
  O  O100  1  0.05118700  0.00871100  0.01098300  1
  O  O101  1  0.94881300  0.99128900  0.51098300  1
  O  O102  1  0.05118700  0.49128900  0.51098300  1
  O  O103  1  0.94881300  0.50871100  0.01098300  1
