# generated using pymatgen
data_Ag2Mo(I2O7)2
_symmetry_space_group_name_H-M   'P 1'
_cell_length_a   7.02469994
_cell_length_b   7.02469994
_cell_length_c   17.76058119
_cell_angle_alpha   81.57761005
_cell_angle_beta   81.57761005
_cell_angle_gamma   48.99385845
_symmetry_Int_Tables_number   1
_chemical_formula_structural   Ag2Mo(I2O7)2
_chemical_formula_sum   'Ag4 Mo2 I8 O28'
_cell_volume   652.75797613
_cell_formula_units_Z   2
loop_
 _symmetry_equiv_pos_site_id
 _symmetry_equiv_pos_as_xyz
  1  'x, y, z'
loop_
 _atom_site_type_symbol
 _atom_site_label
 _atom_site_symmetry_multiplicity
 _atom_site_fract_x
 _atom_site_fract_y
 _atom_site_fract_z
 _atom_site_occupancy
  Ag  Ag0  1  0.67079700  0.68198600  0.03987400  1
  Ag  Ag1  1  0.31801400  0.32920300  0.46012600  1
  Ag  Ag2  1  0.32920300  0.31801400  0.96012600  1
  Ag  Ag3  1  0.68198600  0.67079700  0.53987400  1
  Mo  Mo4  1  0.56871800  0.43128200  0.25000000  1
  Mo  Mo5  1  0.43128200  0.56871800  0.75000000  1
  I  I6  1  0.85713500  0.06129200  0.08776800  1
  I  I7  1  0.93870800  0.14286500  0.41223200  1
  I  I8  1  0.14286500  0.93870800  0.91223200  1
  I  I9  1  0.06129200  0.85713500  0.58776800  1
  I  I10  1  0.20163300  0.22212200  0.17427700  1
  I  I11  1  0.77787800  0.79836700  0.32572300  1
  I  I12  1  0.79836700  0.77787800  0.82572300  1
  I  I13  1  0.22212200  0.20163300  0.67427700  1
  O  O14  1  0.58305100  0.09460500  0.06980200  1
  O  O15  1  0.90539500  0.41694900  0.43019800  1
  O  O16  1  0.41694900  0.90539500  0.93019800  1
  O  O17  1  0.09460500  0.58305100  0.56980200  1
  O  O18  1  0.65292300  0.37662000  0.13920500  1
  O  O19  1  0.62338000  0.34707700  0.36079500  1
  O  O20  1  0.34707700  0.62338000  0.86079500  1
  O  O21  1  0.37662000  0.65292300  0.63920500  1
  O  O22  1  0.84740600  0.24969300  0.00036400  1
  O  O23  1  0.75030700  0.15259400  0.49963600  1
  O  O24  1  0.15259400  0.75030700  0.99963600  1
  O  O25  1  0.24969300  0.84740600  0.50036400  1
  O  O26  1  0.21511500  0.03386500  0.10833300  1
  O  O27  1  0.96613500  0.78488500  0.39166700  1
  O  O28  1  0.78488500  0.96613500  0.89166700  1
  O  O29  1  0.03386500  0.21511500  0.60833300  1
  O  O30  1  0.97404900  0.25029600  0.25226500  1
  O  O31  1  0.74970400  0.02595100  0.24773500  1
  O  O32  1  0.02595100  0.74970400  0.74773500  1
  O  O33  1  0.25029600  0.97404900  0.75226500  1
  O  O34  1  0.99536900  0.53284600  0.12459900  1
  O  O35  1  0.46715400  0.00463100  0.37540100  1
  O  O36  1  0.00463100  0.46715400  0.87540100  1
  O  O37  1  0.53284600  0.99536900  0.62459900  1
  O  O38  1  0.27373300  0.50711000  0.25690900  1
  O  O39  1  0.49289000  0.72626700  0.24309100  1
  O  O40  1  0.72626700  0.49289000  0.74309100  1
  O  O41  1  0.50711000  0.27373300  0.75690900  1
