# generated using pymatgen
data_CoP4F12
_symmetry_space_group_name_H-M   'P 1'
_cell_length_a   7.87464704
_cell_length_b   7.87464704
_cell_length_c   13.03418605
_cell_angle_alpha   65.81254962
_cell_angle_beta   65.81254962
_cell_angle_gamma   60.61321493
_symmetry_Int_Tables_number   1
_chemical_formula_structural   CoP4F12
_chemical_formula_sum   'Co2 P8 F24'
_cell_volume   619.88991855
_cell_formula_units_Z   2
loop_
 _symmetry_equiv_pos_site_id
 _symmetry_equiv_pos_as_xyz
  1  'x, y, z'
loop_
 _atom_site_type_symbol
 _atom_site_label
 _atom_site_symmetry_multiplicity
 _atom_site_fract_x
 _atom_site_fract_y
 _atom_site_fract_z
 _atom_site_occupancy
  Co  Co0  1  0.60341200  0.39658800  0.25000000  1
  Co  Co1  1  0.39658800  0.60341200  0.75000000  1
  P  P2  1  0.72515400  0.24243100  0.39760700  1
  P  P3  1  0.75756900  0.27484600  0.10239300  1
  P  P4  1  0.27484600  0.75756900  0.60239300  1
  P  P5  1  0.24243100  0.72515400  0.89760700  1
  P  P6  1  0.56985000  0.70697200  0.19267200  1
  P  P7  1  0.29302800  0.43015000  0.30732800  1
  P  P8  1  0.43015000  0.29302800  0.80732800  1
  P  P9  1  0.70697200  0.56985000  0.69267200  1
  F  F10  1  0.77230600  0.36017700  0.44948500  1
  F  F11  1  0.63982300  0.22769400  0.05051500  1
  F  F12  1  0.22769400  0.63982300  0.55051500  1
  F  F13  1  0.36017700  0.77230600  0.94948500  1
  F  F14  1  0.60032800  0.14128700  0.51614900  1
  F  F15  1  0.85871300  0.39967200  0.98385100  1
  F  F16  1  0.39967200  0.85871300  0.48385100  1
  F  F17  1  0.14128700  0.60032800  0.01614900  1
  F  F18  1  0.93469100  0.05496300  0.39069400  1
  F  F19  1  0.94503700  0.06530900  0.10930600  1
  F  F20  1  0.06530900  0.94503700  0.60930600  1
  F  F21  1  0.05496300  0.93469100  0.89069400  1
  F  F22  1  0.35834200  0.88769300  0.21286500  1
  F  F23  1  0.11230700  0.64165800  0.28713500  1
  F  F24  1  0.64165800  0.11230700  0.78713500  1
  F  F25  1  0.88769300  0.35834200  0.71286500  1
  F  F26  1  0.68471900  0.76512600  0.24050300  1
  F  F27  1  0.23487400  0.31528100  0.25949700  1
  F  F28  1  0.31528100  0.23487400  0.75949700  1
  F  F29  1  0.76512600  0.68471900  0.74050300  1
  F  F30  1  0.65427200  0.79886500  0.05868300  1
  F  F31  1  0.20113500  0.34572800  0.44131700  1
  F  F32  1  0.34572800  0.20113500  0.94131700  1
  F  F33  1  0.79886500  0.65427200  0.55868300  1
