# generated using pymatgen
data_Ca5Zr3F22
_symmetry_space_group_name_H-M   'P 1'
_cell_length_a   7.51808700
_cell_length_b   10.06852000
_cell_length_c   10.14109400
_cell_angle_alpha   90.00000000
_cell_angle_beta   90.00000000
_cell_angle_gamma   90.00000000
_symmetry_Int_Tables_number   1
_chemical_formula_structural   Ca5Zr3F22
_chemical_formula_sum   'Ca10 Zr6 F44'
_cell_volume   767.64034595
_cell_formula_units_Z   2
loop_
 _symmetry_equiv_pos_site_id
 _symmetry_equiv_pos_as_xyz
  1  'x, y, z'
loop_
 _atom_site_type_symbol
 _atom_site_label
 _atom_site_symmetry_multiplicity
 _atom_site_fract_x
 _atom_site_fract_y
 _atom_site_fract_z
 _atom_site_occupancy
  Ca  Ca0  1  0.26026300  0.75230100  0.78839700  1
  Ca  Ca1  1  0.73973700  0.75230100  0.21160300  1
  Ca  Ca2  1  0.23973700  0.24769900  0.28839700  1
  Ca  Ca3  1  0.76026300  0.24769900  0.71160300  1
  Ca  Ca4  1  0.00000000  0.94477700  0.50000000  1
  Ca  Ca5  1  0.50000000  0.05522300  0.00000000  1
  Ca  Ca6  1  0.50000000  0.53761600  0.50000000  1
  Ca  Ca7  1  0.00000000  0.46238400  0.00000000  1
  Ca  Ca8  1  0.50000000  0.97816900  0.50000000  1
  Ca  Ca9  1  0.00000000  0.02183100  0.00000000  1
  Zr  Zr10  1  0.75216000  0.77624200  0.78785300  1
  Zr  Zr11  1  0.24784000  0.77624200  0.21214700  1
  Zr  Zr12  1  0.74784000  0.22375800  0.28785300  1
  Zr  Zr13  1  0.25216000  0.22375800  0.71214700  1
  Zr  Zr14  1  0.50000000  0.46124000  0.00000000  1
  Zr  Zr15  1  0.00000000  0.53876000  0.50000000  1
  F  F16  1  0.25958900  0.89405500  0.61268800  1
  F  F17  1  0.74041100  0.89405500  0.38731200  1
  F  F18  1  0.24041100  0.10594500  0.11268800  1
  F  F19  1  0.75958900  0.10594500  0.88731200  1
  F  F20  1  0.74110700  0.93157700  0.64810900  1
  F  F21  1  0.25889300  0.93157700  0.35189100  1
  F  F22  1  0.75889300  0.06842300  0.14810900  1
  F  F23  1  0.24110700  0.06842300  0.85189100  1
  F  F24  1  0.55947900  0.70817400  0.64823400  1
  F  F25  1  0.44052100  0.70817400  0.35176600  1
  F  F26  1  0.94052100  0.29182600  0.14823400  1
  F  F27  1  0.05947900  0.29182600  0.85176600  1
  F  F28  1  0.91218000  0.71191700  0.61123900  1
  F  F29  1  0.08782000  0.71191700  0.38876100  1
  F  F30  1  0.58782000  0.28808300  0.11123900  1
  F  F31  1  0.41218000  0.28808300  0.88876100  1
  F  F32  1  0.77843100  0.60520500  0.38966900  1
  F  F33  1  0.22156900  0.60520500  0.61033100  1
  F  F34  1  0.72156900  0.39479500  0.88966900  1
  F  F35  1  0.27843100  0.39479500  0.11033100  1
  F  F36  1  0.51540000  0.87761200  0.84279200  1
  F  F37  1  0.48460000  0.87761200  0.15720800  1
  F  F38  1  0.98460000  0.12238800  0.34279200  1
  F  F39  1  0.01540000  0.12238800  0.65720800  1
  F  F40  1  0.99474100  0.87869300  0.80449300  1
  F  F41  1  0.00525900  0.87869300  0.19550700  1
  F  F42  1  0.50525900  0.12130700  0.30449300  1
  F  F43  1  0.49474100  0.12130700  0.69550700  1
  F  F44  1  0.93447900  0.62963700  0.84976400  1
  F  F45  1  0.06552100  0.62963700  0.15023600  1
  F  F46  1  0.56552100  0.37036300  0.34976400  1
  F  F47  1  0.43447900  0.37036300  0.65023600  1
  F  F48  1  0.22449600  0.46698200  0.39362900  1
  F  F49  1  0.77550400  0.46698200  0.60637100  1
  F  F50  1  0.27550400  0.53301800  0.89362900  1
  F  F51  1  0.72449600  0.53301800  0.10637100  1
  F  F52  1  0.77976200  0.83081900  0.99043500  1
  F  F53  1  0.22023800  0.83081900  0.00956500  1
  F  F54  1  0.72023800  0.16918100  0.49043500  1
  F  F55  1  0.27976200  0.16918100  0.50956500  1
  F  F56  1  0.58271700  0.62809200  0.88294900  1
  F  F57  1  0.41728300  0.62809200  0.11705100  1
  F  F58  1  0.91728300  0.37190800  0.38294900  1
  F  F59  1  0.08271700  0.37190800  0.61705100  1
