# generated using pymatgen
data_Tm3InS6
_symmetry_space_group_name_H-M   'P 1'
_cell_length_a   3.82279500
_cell_length_b   13.25905100
_cell_length_c   16.49957500
_cell_angle_alpha   90.00000000
_cell_angle_beta   90.00000000
_cell_angle_gamma   90.00000000
_symmetry_Int_Tables_number   1
_chemical_formula_structural   Tm3InS6
_chemical_formula_sum   'Tm12 In4 S24'
_cell_volume   836.30791700
_cell_formula_units_Z   4
loop_
 _symmetry_equiv_pos_site_id
 _symmetry_equiv_pos_as_xyz
  1  'x, y, z'
loop_
 _atom_site_type_symbol
 _atom_site_label
 _atom_site_symmetry_multiplicity
 _atom_site_fract_x
 _atom_site_fract_y
 _atom_site_fract_z
 _atom_site_occupancy
  Tm  Tm0  1  0.25353400  0.03584600  0.77594100  1
  Tm  Tm1  1  0.25353400  0.96415400  0.22405900  1
  Tm  Tm2  1  0.74646600  0.46415400  0.27594100  1
  Tm  Tm3  1  0.74646600  0.53584600  0.72405900  1
  Tm  Tm4  1  0.26474300  0.24639500  0.61127100  1
  Tm  Tm5  1  0.26474300  0.75360500  0.38872900  1
  Tm  Tm6  1  0.73525700  0.25360500  0.11127100  1
  Tm  Tm7  1  0.73525700  0.74639500  0.88872900  1
  Tm  Tm8  1  0.74766400  0.30944800  0.85617000  1
  Tm  Tm9  1  0.74766400  0.69055200  0.14383000  1
  Tm  Tm10  1  0.25233600  0.19055200  0.35617000  1
  Tm  Tm11  1  0.25233600  0.80944800  0.64383000  1
  In  In12  1  0.75304500  0.00000000  0.50000000  1
  In  In13  1  0.24695500  0.50000000  0.00000000  1
  In  In14  1  0.39080700  0.50000000  0.50000000  1
  In  In15  1  0.60919300  0.00000000  0.00000000  1
  S  S16  1  0.76963900  0.39644300  0.59474800  1
  S  S17  1  0.76963900  0.60355700  0.40525200  1
  S  S18  1  0.23036100  0.10355700  0.09474800  1
  S  S19  1  0.23036100  0.89644300  0.90525200  1
  S  S20  1  0.24659700  0.30551100  0.97992900  1
  S  S21  1  0.24659700  0.69448900  0.02007100  1
  S  S22  1  0.75340300  0.19448900  0.47992900  1
  S  S23  1  0.75340300  0.80551100  0.52007100  1
  S  S24  1  0.75062100  0.10798000  0.88291600  1
  S  S25  1  0.75062100  0.89202000  0.11708400  1
  S  S26  1  0.24937900  0.39202000  0.38291600  1
  S  S27  1  0.24937900  0.60798000  0.61708400  1
  S  S28  1  0.76007500  0.17923000  0.71684300  1
  S  S29  1  0.76007500  0.82077000  0.28315700  1
  S  S30  1  0.23992500  0.32077000  0.21684300  1
  S  S31  1  0.23992500  0.67923000  0.78315700  1
  S  S32  1  0.24931400  0.38419000  0.75642900  1
  S  S33  1  0.24931400  0.61581000  0.24357100  1
  S  S34  1  0.75068600  0.11581000  0.25642900  1
  S  S35  1  0.75068600  0.88419000  0.74357100  1
  S  S36  1  0.25390900  0.02092000  0.60663400  1
  S  S37  1  0.25390900  0.97908000  0.39336600  1
  S  S38  1  0.74609100  0.47908000  0.10663400  1
  S  S39  1  0.74609100  0.52092000  0.89336600  1
