# generated using pymatgen
data_H3CN5O4
_symmetry_space_group_name_H-M   'P 1'
_cell_length_a   5.25509600
_cell_length_b   10.02381000
_cell_length_c   11.56918300
_cell_angle_alpha   90.00000000
_cell_angle_beta   90.00000000
_cell_angle_gamma   90.00000000
_symmetry_Int_Tables_number   1
_chemical_formula_structural   H3CN5O4
_chemical_formula_sum   'H12 C4 N20 O16'
_cell_volume   609.41925362
_cell_formula_units_Z   4
loop_
 _symmetry_equiv_pos_site_id
 _symmetry_equiv_pos_as_xyz
  1  'x, y, z'
loop_
 _atom_site_type_symbol
 _atom_site_label
 _atom_site_symmetry_multiplicity
 _atom_site_fract_x
 _atom_site_fract_y
 _atom_site_fract_z
 _atom_site_occupancy
  H  H0  1  0.99281200  0.34640100  0.05943500  1
  H  H1  1  0.49281200  0.15359900  0.94056500  1
  H  H2  1  0.00718800  0.84640100  0.44056500  1
  H  H3  1  0.50718800  0.65359900  0.55943500  1
  H  H4  1  0.24003000  0.39969800  0.15569700  1
  H  H5  1  0.74003000  0.10030200  0.84430300  1
  H  H6  1  0.75997000  0.89969800  0.34430300  1
  H  H7  1  0.25997000  0.60030200  0.65569700  1
  H  H8  1  0.07693900  0.74581000  0.12367100  1
  H  H9  1  0.57693900  0.75419000  0.87632900  1
  H  H10  1  0.92306100  0.24581000  0.37632900  1
  H  H11  1  0.42306100  0.25419000  0.62367100  1
  C  C12  1  0.01740000  0.54337900  0.08554600  1
  C  C13  1  0.51740000  0.95662100  0.91445400  1
  C  C14  1  0.98260000  0.04337900  0.41445400  1
  C  C15  1  0.48260000  0.45662100  0.58554600  1
  N  N16  1  0.83207500  0.59273400  0.01745800  1
  N  N17  1  0.33207500  0.90726600  0.98254200  1
  N  N18  1  0.16792500  0.09273400  0.48254200  1
  N  N19  1  0.66792500  0.40726600  0.51745800  1
  N  N20  1  0.09104400  0.41917600  0.10165200  1
  N  N21  1  0.59104400  0.08082400  0.89834800  1
  N  N22  1  0.90895600  0.91917600  0.39834800  1
  N  N23  1  0.40895600  0.58082400  0.60165200  1
  N  N24  1  0.13321500  0.64896200  0.14286700  1
  N  N25  1  0.63321500  0.85103800  0.85713300  1
  N  N26  1  0.86678500  0.14896200  0.35713300  1
  N  N27  1  0.36678500  0.35103800  0.64286700  1
  N  N28  1  0.67996700  0.50764000  0.95865300  1
  N  N29  1  0.17996700  0.99236000  0.04134700  1
  N  N30  1  0.32003300  0.00764000  0.54134700  1
  N  N31  1  0.82003300  0.49236000  0.45865300  1
  N  N32  1  0.34549200  0.64298700  0.21361500  1
  N  N33  1  0.84549200  0.85701300  0.78638500  1
  N  N34  1  0.65450800  0.14298700  0.28638500  1
  N  N35  1  0.15450800  0.35701300  0.71361500  1
  O  O36  1  0.69501400  0.38279300  0.96653400  1
  O  O37  1  0.19501400  0.11720700  0.03346600  1
  O  O38  1  0.30498600  0.88279300  0.53346600  1
  O  O39  1  0.80498600  0.61720700  0.46653400  1
  O  O40  1  0.51614100  0.56336200  0.89593000  1
  O  O41  1  0.01614100  0.93663800  0.10407000  1
  O  O42  1  0.48385900  0.06336200  0.60407000  1
  O  O43  1  0.98385900  0.43663800  0.39593000  1
  O  O44  1  0.45110100  0.53413100  0.22937900  1
  O  O45  1  0.95110100  0.96586900  0.77062100  1
  O  O46  1  0.54889900  0.03413100  0.27062100  1
  O  O47  1  0.04889900  0.46586900  0.72937900  1
  O  O48  1  0.41077800  0.75090900  0.25556100  1
  O  O49  1  0.91077800  0.74909100  0.74443900  1
  O  O50  1  0.58922200  0.25090900  0.24443900  1
  O  O51  1  0.08922200  0.24909100  0.75556100  1
