# generated using pymatgen
data_GdSbMo2O9
_symmetry_space_group_name_H-M   'P 1'
_cell_length_a   9.77419707
_cell_length_b   9.77419707
_cell_length_c   10.92572486
_cell_angle_alpha   68.12209443
_cell_angle_beta   68.12209443
_cell_angle_gamma   95.37477751
_symmetry_Int_Tables_number   1
_chemical_formula_structural   GdSbMo2O9
_chemical_formula_sum   'Gd4 Sb4 Mo8 O36'
_cell_volume   865.46797566
_cell_formula_units_Z   4
loop_
 _symmetry_equiv_pos_site_id
 _symmetry_equiv_pos_as_xyz
  1  'x, y, z'
loop_
 _atom_site_type_symbol
 _atom_site_label
 _atom_site_symmetry_multiplicity
 _atom_site_fract_x
 _atom_site_fract_y
 _atom_site_fract_z
 _atom_site_occupancy
  Gd  Gd0  1  0.67271000  0.32729000  0.75000000  1
  Gd  Gd1  1  0.32729000  0.67271000  0.25000000  1
  Gd  Gd2  1  0.12533300  0.87466700  0.75000000  1
  Gd  Gd3  1  0.87466700  0.12533300  0.25000000  1
  Sb  Sb4  1  0.65015500  0.61872400  0.96416000  1
  Sb  Sb5  1  0.38127600  0.34984500  0.53584000  1
  Sb  Sb6  1  0.34984500  0.38127600  0.03584000  1
  Sb  Sb7  1  0.61872400  0.65015500  0.46416000  1
  Mo  Mo8  1  0.04727800  0.25966000  0.47323200  1
  Mo  Mo9  1  0.74034000  0.95272200  0.02676800  1
  Mo  Mo10  1  0.95272200  0.74034000  0.52676800  1
  Mo  Mo11  1  0.25966000  0.04727800  0.97323200  1
  Mo  Mo12  1  0.06009100  0.43404400  0.80481500  1
  Mo  Mo13  1  0.56595600  0.93990900  0.69518500  1
  Mo  Mo14  1  0.93990900  0.56595600  0.19518500  1
  Mo  Mo15  1  0.43404400  0.06009100  0.30481500  1
  O  O16  1  0.06430600  0.09499100  0.60104900  1
  O  O17  1  0.90500900  0.93569400  0.89895100  1
  O  O18  1  0.93569400  0.90500900  0.39895100  1
  O  O19  1  0.09499100  0.06430600  0.10104900  1
  O  O20  1  0.87109500  0.29790500  0.56404400  1
  O  O21  1  0.70209500  0.12890500  0.93595600  1
  O  O22  1  0.12890500  0.70209500  0.43595600  1
  O  O23  1  0.29790500  0.87109500  0.06404400  1
  O  O24  1  0.04740500  0.22380500  0.32313800  1
  O  O25  1  0.77619500  0.95259500  0.17686200  1
  O  O26  1  0.95259500  0.77619500  0.67686200  1
  O  O27  1  0.22380500  0.04740500  0.82313800  1
  O  O28  1  0.77938900  0.59583100  0.57749000  1
  O  O29  1  0.40416900  0.22061100  0.92251000  1
  O  O30  1  0.22061100  0.40416900  0.42251000  1
  O  O31  1  0.59583100  0.77938900  0.07749000  1
  O  O32  1  0.98073000  0.30534900  0.99450700  1
  O  O33  1  0.69465100  0.01927000  0.50549300  1
  O  O34  1  0.01927000  0.69465100  0.00549300  1
  O  O35  1  0.30534900  0.98073000  0.49450700  1
  O  O36  1  0.14463100  0.61909300  0.77414600  1
  O  O37  1  0.38090700  0.85536900  0.72585400  1
  O  O38  1  0.85536900  0.38090700  0.22585400  1
  O  O39  1  0.61909300  0.14463100  0.27414600  1
  O  O40  1  0.91053400  0.44441100  0.74815000  1
  O  O41  1  0.55558900  0.08946600  0.75185000  1
  O  O42  1  0.08946600  0.55558900  0.25185000  1
  O  O43  1  0.44441100  0.91053400  0.24815000  1
  O  O44  1  0.21138900  0.36667500  0.69993300  1
  O  O45  1  0.63332500  0.78861100  0.80006700  1
  O  O46  1  0.78861100  0.63332500  0.30006700  1
  O  O47  1  0.36667500  0.21138900  0.19993300  1
  O  O48  1  0.57587600  0.45967000  0.89941500  1
  O  O49  1  0.54033000  0.42412400  0.60058500  1
  O  O50  1  0.42412400  0.54033000  0.10058500  1
  O  O51  1  0.45967000  0.57587600  0.39941500  1
