# generated using pymatgen
data_H6C3(NO)2
_symmetry_space_group_name_H-M   'P 1'
_cell_length_a   7.32541200
_cell_length_b   8.50254279
_cell_length_c   9.04480843
_cell_angle_alpha   92.92645252
_cell_angle_beta   90.00000000
_cell_angle_gamma   90.00000000
_symmetry_Int_Tables_number   1
_chemical_formula_structural   H6C3(NO)2
_chemical_formula_sum   'H24 C12 N8 O8'
_cell_volume   562.61786554
_cell_formula_units_Z   4
loop_
 _symmetry_equiv_pos_site_id
 _symmetry_equiv_pos_as_xyz
  1  'x, y, z'
loop_
 _atom_site_type_symbol
 _atom_site_label
 _atom_site_symmetry_multiplicity
 _atom_site_fract_x
 _atom_site_fract_y
 _atom_site_fract_z
 _atom_site_occupancy
  H  H0  1  0.88241700  0.78386900  0.17380700  1
  H  H1  1  0.38241700  0.71613100  0.82619300  1
  H  H2  1  0.11758300  0.21613100  0.82619300  1
  H  H3  1  0.61758300  0.28386900  0.17380700  1
  H  H4  1  0.32975900  0.66183900  0.32728700  1
  H  H5  1  0.82975900  0.83816100  0.67271300  1
  H  H6  1  0.67024100  0.33816100  0.67271300  1
  H  H7  1  0.17024100  0.16183900  0.32728700  1
  H  H8  1  0.81378100  0.91315000  0.38951100  1
  H  H9  1  0.31378100  0.58685000  0.61048900  1
  H  H10  1  0.18622000  0.08685000  0.61048900  1
  H  H11  1  0.68621900  0.41315000  0.38951100  1
  H  H12  1  0.47849800  0.67549800  0.11051600  1
  H  H13  1  0.97849800  0.82450200  0.88948400  1
  H  H14  1  0.52150200  0.32450200  0.88948400  1
  H  H15  1  0.02150200  0.17549800  0.11051600  1
  H  H16  1  0.04082700  0.53053500  0.35025200  1
  H  H17  1  0.54082700  0.96946500  0.64974800  1
  H  H18  1  0.95917300  0.46946500  0.64974800  1
  H  H19  1  0.45917300  0.03053500  0.35025200  1
  H  H20  1  0.01137700  0.52550300  0.15385500  1
  H  H21  1  0.51137700  0.97449700  0.84614500  1
  H  H22  1  0.98862300  0.47449700  0.84614500  1
  H  H23  1  0.48862300  0.02550300  0.15385500  1
  C  C24  1  0.90371000  0.80929300  0.39757000  1
  C  C25  1  0.40371000  0.69070700  0.60243000  1
  C  C26  1  0.09629000  0.19070700  0.60243000  1
  C  C27  1  0.59629000  0.30929300  0.39757000  1
  C  C28  1  0.05750500  0.59768000  0.25071100  1
  C  C29  1  0.55750500  0.90232000  0.74928900  1
  C  C30  1  0.94249500  0.40232000  0.74928900  1
  C  C31  1  0.44249500  0.09768000  0.25071100  1
  C  C32  1  0.33096300  0.64743400  0.10199000  1
  C  C33  1  0.83096300  0.85256600  0.89801000  1
  C  C34  1  0.66903700  0.35256600  0.89801000  1
  C  C35  1  0.16903700  0.14743400  0.10199000  1
  N  N36  1  0.94154600  0.73700200  0.26588900  1
  N  N37  1  0.44154600  0.76299800  0.73411100  1
  N  N38  1  0.05845400  0.26299800  0.73411100  1
  N  N39  1  0.55845400  0.23700200  0.26588900  1
  N  N40  1  0.25035800  0.63391100  0.23413200  1
  N  N41  1  0.75035800  0.86608900  0.76586800  1
  N  N42  1  0.74964200  0.36608900  0.76586800  1
  N  N43  1  0.24964200  0.13391100  0.23413200  1
  O  O44  1  0.96194400  0.76821900  0.51944500  1
  O  O45  1  0.46194400  0.73178100  0.48055500  1
  O  O46  1  0.03805600  0.23178100  0.48055500  1
  O  O47  1  0.53805600  0.26821900  0.51944500  1
  O  O48  1  0.25370900  0.63092900  0.97923300  1
  O  O49  1  0.75370900  0.86907100  0.02076700  1
  O  O50  1  0.74629100  0.36907100  0.02076700  1
  O  O51  1  0.24629100  0.13092900  0.97923300  1
