# generated using pymatgen
data_Na2Al3Si3NO13
_symmetry_space_group_name_H-M   'P 1'
_cell_length_a   5.28820400
_cell_length_b   15.39972100
_cell_length_c   16.49417100
_cell_angle_alpha   90.00000000
_cell_angle_beta   90.00000000
_cell_angle_gamma   90.00000000
_symmetry_Int_Tables_number   1
_chemical_formula_structural   Na2Al3Si3NO13
_chemical_formula_sum   'Na8 Al12 Si12 N4 O52'
_cell_volume   1343.23359666
_cell_formula_units_Z   4
loop_
 _symmetry_equiv_pos_site_id
 _symmetry_equiv_pos_as_xyz
  1  'x, y, z'
loop_
 _atom_site_type_symbol
 _atom_site_label
 _atom_site_symmetry_multiplicity
 _atom_site_fract_x
 _atom_site_fract_y
 _atom_site_fract_z
 _atom_site_occupancy
  Na  Na0  1  0.47032700  0.25128000  0.41156400  1
  Na  Na1  1  0.97032700  0.74872000  0.58843600  1
  Na  Na2  1  0.97032700  0.75128000  0.08843600  1
  Na  Na3  1  0.47032700  0.24872000  0.91156400  1
  Na  Na4  1  0.97014100  0.25298900  0.08328800  1
  Na  Na5  1  0.47014100  0.74701100  0.91671200  1
  Na  Na6  1  0.47014100  0.75298900  0.41671200  1
  Na  Na7  1  0.97014100  0.24701100  0.58328800  1
  Al  Al8  1  0.99247600  0.24755000  0.29891800  1
  Al  Al9  1  0.49247600  0.75245000  0.70108200  1
  Al  Al10  1  0.49247600  0.74755000  0.20108200  1
  Al  Al11  1  0.99247600  0.25245000  0.79891800  1
  Al  Al12  1  0.50923900  0.39341400  0.04974200  1
  Al  Al13  1  0.00923900  0.60658600  0.95025800  1
  Al  Al14  1  0.00923900  0.89341400  0.45025800  1
  Al  Al15  1  0.50923900  0.10658600  0.54974200  1
  Al  Al16  1  0.50700200  0.10097800  0.05257600  1
  Al  Al17  1  0.00700200  0.89902200  0.94742400  1
  Al  Al18  1  0.00700200  0.60097800  0.44742400  1
  Al  Al19  1  0.50700200  0.39902200  0.55257600  1
  Si  Si20  1  0.01037900  0.38842200  0.44683200  1
  Si  Si21  1  0.51037900  0.61157800  0.55316800  1
  Si  Si22  1  0.51037900  0.88842200  0.05316800  1
  Si  Si23  1  0.01037900  0.11157800  0.94683200  1
  Si  Si24  1  0.00728700  0.10626600  0.44226900  1
  Si  Si25  1  0.50728700  0.89373400  0.55773100  1
  Si  Si26  1  0.50728700  0.60626600  0.05773100  1
  Si  Si27  1  0.00728700  0.39373400  0.94226900  1
  Si  Si28  1  0.49072400  0.24945900  0.19417500  1
  Si  Si29  1  0.99072400  0.75054100  0.80582500  1
  Si  Si30  1  0.99072400  0.74945900  0.30582500  1
  Si  Si31  1  0.49072400  0.25054100  0.69417500  1
  N  N32  1  0.28793200  0.97015300  0.24927400  1
  N  N33  1  0.78793200  0.02984700  0.75072600  1
  N  N34  1  0.78793200  0.47015300  0.25072600  1
  N  N35  1  0.28793200  0.52984700  0.74927400  1
  O  O36  1  0.73289800  0.35835500  0.48219900  1
  O  O37  1  0.23289800  0.64164500  0.51780100  1
  O  O38  1  0.23289800  0.85835500  0.01780100  1
  O  O39  1  0.73289800  0.14164500  0.98219900  1
  O  O40  1  0.21856400  0.35847300  0.51583300  1
  O  O41  1  0.71856400  0.64152700  0.48416700  1
  O  O42  1  0.71856400  0.85847300  0.98416700  1
  O  O43  1  0.21856400  0.14152700  0.01583300  1
  O  O44  1  0.73158700  0.13967200  0.47557600  1
  O  O45  1  0.23158700  0.86032800  0.52442400  1
  O  O46  1  0.23158700  0.63967200  0.02442400  1
  O  O47  1  0.73158700  0.36032800  0.97557600  1
  O  O48  1  0.21595200  0.14113600  0.50918700  1
  O  O49  1  0.71595200  0.85886400  0.49081300  1
  O  O50  1  0.71595200  0.64113600  0.99081300  1
  O  O51  1  0.21595200  0.35886400  0.00918700  1
  O  O52  1  0.02607400  0.49126300  0.42957200  1
  O  O53  1  0.52607400  0.50873700  0.57042800  1
  O  O54  1  0.52607400  0.99126300  0.07042800  1
  O  O55  1  0.02607400  0.00873700  0.92957200  1
  O  O56  1  0.02029100  0.00294500  0.42909500  1
  O  O57  1  0.52029100  0.99705500  0.57090500  1
  O  O58  1  0.52029100  0.50294500  0.07090500  1
  O  O59  1  0.02029100  0.49705500  0.92909500  1
  O  O60  1  0.07670600  0.15635200  0.35724000  1
  O  O61  1  0.57670600  0.84364800  0.64276000  1
  O  O62  1  0.57670600  0.65635200  0.14276000  1
  O  O63  1  0.07670600  0.34364800  0.85724000  1
  O  O64  1  0.07432600  0.33223200  0.36529400  1
  O  O65  1  0.57432600  0.66776800  0.63470600  1
  O  O66  1  0.57432600  0.83223200  0.13470600  1
  O  O67  1  0.07432600  0.16776800  0.86529400  1
  O  O68  1  0.66305800  0.24790500  0.27745600  1
  O  O69  1  0.16305800  0.75209500  0.72254400  1
  O  O70  1  0.16305800  0.74790500  0.22254400  1
  O  O71  1  0.66305800  0.25209500  0.77745600  1
  O  O72  1  0.18771800  0.25198300  0.21200300  1
  O  O73  1  0.68771800  0.74801700  0.78799700  1
  O  O74  1  0.68771800  0.75198300  0.28799700  1
  O  O75  1  0.18771800  0.24801700  0.71200300  1
  O  O76  1  0.57801100  0.32803100  0.13470400  1
  O  O77  1  0.07801100  0.67196900  0.86529600  1
  O  O78  1  0.07801100  0.82803100  0.36529600  1
  O  O79  1  0.57801100  0.17196900  0.63470400  1
  O  O80  1  0.56843700  0.15982800  0.14374200  1
  O  O81  1  0.06843700  0.84017200  0.85625800  1
  O  O82  1  0.06843700  0.65982800  0.35625800  1
  O  O83  1  0.56843700  0.34017200  0.64374200  1
  O  O84  1  0.75316900  0.09286000  0.24122000  1
  O  O85  1  0.25316900  0.90714000  0.75878000  1
  O  O86  1  0.25316900  0.59286000  0.25878000  1
  O  O87  1  0.75316900  0.40714000  0.74122000  1
