# generated using pymatgen
data_Na3VIO13
_symmetry_space_group_name_H-M   'P 1'
_cell_length_a   6.07676562
_cell_length_b   8.35250149
_cell_length_c   10.85144965
_cell_angle_alpha   77.95138966
_cell_angle_beta   88.69347719
_cell_angle_gamma   90.20074135
_symmetry_Int_Tables_number   1
_chemical_formula_structural   Na3VIO13
_chemical_formula_sum   'Na6 V2 I2 O26'
_cell_volume   538.48583836
_cell_formula_units_Z   2
loop_
 _symmetry_equiv_pos_site_id
 _symmetry_equiv_pos_as_xyz
  1  'x, y, z'
loop_
 _atom_site_type_symbol
 _atom_site_label
 _atom_site_symmetry_multiplicity
 _atom_site_fract_x
 _atom_site_fract_y
 _atom_site_fract_z
 _atom_site_occupancy
  Na  Na0  1  0.70422300  0.45957400  0.33270300  1
  Na  Na1  1  0.29577700  0.54042600  0.66729700  1
  Na  Na2  1  0.35044200  0.88345400  0.34605800  1
  Na  Na3  1  0.64955800  0.11654600  0.65394200  1
  Na  Na4  1  0.39231300  0.77827500  0.05999600  1
  Na  Na5  1  0.60768700  0.22172500  0.94000400  1
  V  V6  1  0.07525000  0.18330900  0.04807300  1
  V  V7  1  0.92475000  0.81669100  0.95192700  1
  I  I8  1  0.15093300  0.12943100  0.77197000  1
  I  I9  1  0.84906700  0.87056900  0.22803000  1
  O  O10  1  0.29849400  0.98530000  0.69531400  1
  O  O11  1  0.70150600  0.01470000  0.30468600  1
  O  O12  1  0.01078400  0.24412100  0.62558800  1
  O  O13  1  0.98921600  0.75587900  0.37441200  1
  O  O14  1  0.39151500  0.27367000  0.75855600  1
  O  O15  1  0.60848500  0.72633000  0.24144400  1
  O  O16  1  0.31794100  0.28614000  0.06116900  1
  O  O17  1  0.68205900  0.71386000  0.93883100  1
  O  O18  1  0.89046800  0.30132000  0.10625800  1
  O  O19  1  0.10953200  0.69868000  0.89374200  1
  O  O20  1  0.99131900  0.26347600  0.87673800  1
  O  O21  1  0.00868100  0.73652400  0.12326200  1
  O  O22  1  0.88586700  0.98705200  0.80748100  1
  O  O23  1  0.11413300  0.01294800  0.19251900  1
  O  O24  1  0.21868900  0.01671700  0.94499600  1
  O  O25  1  0.78131100  0.98328300  0.05500400  1
  O  O26  1  0.09882400  0.43925100  0.21548200  1
  O  O27  1  0.90117600  0.56074900  0.78451800  1
  O  O28  1  0.28872000  0.42997800  0.18104300  1
  O  O29  1  0.71128000  0.57002200  0.81895700  1
  O  O30  1  0.43900600  0.21692000  0.43945400  1
  O  O31  1  0.56099400  0.78308000  0.56054600  1
  O  O32  1  0.26845000  0.57805900  0.43785300  1
  O  O33  1  0.73155000  0.42194100  0.56214700  1
  O  O34  1  0.24854700  0.17271000  0.42723600  1
  O  O35  1  0.75145300  0.82729000  0.57276400  1
