# generated using pymatgen
data_Na4Ga3Ge3B(HO3)4
_symmetry_space_group_name_H-M   'P 1'
_cell_length_a   9.24225200
_cell_length_b   9.24225200
_cell_length_c   9.24225200
_cell_angle_alpha   90.00000000
_cell_angle_beta   90.00000000
_cell_angle_gamma   90.00000000
_symmetry_Int_Tables_number   1
_chemical_formula_structural   Na4Ga3Ge3B(HO3)4
_chemical_formula_sum   'Na8 Ga6 Ge6 B2 H8 O24'
_cell_volume   789.46597566
_cell_formula_units_Z   2
loop_
 _symmetry_equiv_pos_site_id
 _symmetry_equiv_pos_as_xyz
  1  'x, y, z'
loop_
 _atom_site_type_symbol
 _atom_site_label
 _atom_site_symmetry_multiplicity
 _atom_site_fract_x
 _atom_site_fract_y
 _atom_site_fract_z
 _atom_site_occupancy
  Na  Na0  1  0.32939500  0.67060500  0.32939500  1
  Na  Na1  1  0.67060500  0.32939500  0.32939500  1
  Na  Na2  1  0.32939500  0.32939500  0.67060500  1
  Na  Na3  1  0.67060500  0.67060500  0.67060500  1
  Na  Na4  1  0.82939500  0.82939500  0.17060500  1
  Na  Na5  1  0.17060500  0.82939500  0.82939500  1
  Na  Na6  1  0.82939500  0.17060500  0.82939500  1
  Na  Na7  1  0.17060500  0.17060500  0.17060500  1
  Ga  Ga8  1  0.00000000  0.50000000  0.25000000  1
  Ga  Ga9  1  0.50000000  0.75000000  0.00000000  1
  Ga  Ga10  1  0.25000000  0.00000000  0.50000000  1
  Ga  Ga11  1  0.50000000  0.25000000  0.00000000  1
  Ga  Ga12  1  0.75000000  0.00000000  0.50000000  1
  Ga  Ga13  1  0.00000000  0.50000000  0.75000000  1
  Ge  Ge14  1  0.50000000  0.00000000  0.25000000  1
  Ge  Ge15  1  0.00000000  0.75000000  0.50000000  1
  Ge  Ge16  1  0.25000000  0.50000000  0.00000000  1
  Ge  Ge17  1  0.00000000  0.25000000  0.50000000  1
  Ge  Ge18  1  0.75000000  0.50000000  0.00000000  1
  Ge  Ge19  1  0.50000000  0.00000000  0.75000000  1
  B  B20  1  0.50000000  0.50000000  0.50000000  1
  B  B21  1  0.00000000  0.00000000  0.00000000  1
  H  H22  1  0.07685200  0.92314800  0.07685200  1
  H  H23  1  0.92314800  0.07685200  0.07685200  1
  H  H24  1  0.07685200  0.07685200  0.92314800  1
  H  H25  1  0.92314800  0.92314800  0.92314800  1
  H  H26  1  0.57685200  0.57685200  0.42314800  1
  H  H27  1  0.42314800  0.57685200  0.57685200  1
  H  H28  1  0.57685200  0.42314800  0.57685200  1
  H  H29  1  0.42314800  0.42314800  0.42314800  1
  O  O30  1  0.08103500  0.64651300  0.36084700  1
  O  O31  1  0.35348700  0.63915300  0.08103500  1
  O  O32  1  0.36084700  0.91896500  0.35348700  1
  O  O33  1  0.91896500  0.35348700  0.36084700  1
  O  O34  1  0.64651300  0.36084700  0.08103500  1
  O  O35  1  0.63915300  0.08103500  0.35348700  1
  O  O36  1  0.08103500  0.35348700  0.63915300  1
  O  O37  1  0.35348700  0.36084700  0.91896500  1
  O  O38  1  0.36084700  0.08103500  0.64651300  1
  O  O39  1  0.91896500  0.64651300  0.63915300  1
  O  O40  1  0.64651300  0.63915300  0.91896500  1
  O  O41  1  0.63915300  0.91896500  0.64651300  1
  O  O42  1  0.58103500  0.86084700  0.14651300  1
  O  O43  1  0.85348700  0.58103500  0.13915300  1
  O  O44  1  0.86084700  0.85348700  0.41896500  1
  O  O45  1  0.41896500  0.86084700  0.85348700  1
  O  O46  1  0.14651300  0.58103500  0.86084700  1
  O  O47  1  0.13915300  0.85348700  0.58103500  1
  O  O48  1  0.58103500  0.13915300  0.85348700  1
  O  O49  1  0.85348700  0.41896500  0.86084700  1
  O  O50  1  0.86084700  0.14651300  0.58103500  1
  O  O51  1  0.41896500  0.13915300  0.14651300  1
  O  O52  1  0.14651300  0.41896500  0.13915300  1
  O  O53  1  0.13915300  0.14651300  0.41896500  1
