# generated using pymatgen
data_ZnH16(IO8)2
_symmetry_space_group_name_H-M   'P 1'
_cell_length_a   5.57111200
_cell_length_b   10.82734300
_cell_length_c   12.03365481
_cell_angle_alpha   66.92940572
_cell_angle_beta   90.00000000
_cell_angle_gamma   90.00000000
_symmetry_Int_Tables_number   1
_chemical_formula_structural   ZnH16(IO8)2
_chemical_formula_sum   'Zn2 H32 I4 O32'
_cell_volume   667.82072545
_cell_formula_units_Z   2
loop_
 _symmetry_equiv_pos_site_id
 _symmetry_equiv_pos_as_xyz
  1  'x, y, z'
loop_
 _atom_site_type_symbol
 _atom_site_label
 _atom_site_symmetry_multiplicity
 _atom_site_fract_x
 _atom_site_fract_y
 _atom_site_fract_z
 _atom_site_occupancy
  Zn  Zn0  1  0.00000000  0.00000000  0.00000000  1
  Zn  Zn1  1  0.50000000  0.00000000  0.50000000  1
  H  H2  1  0.59797300  0.63595300  0.39675200  1
  H  H3  1  0.09797300  0.36404700  0.10324800  1
  H  H4  1  0.40202700  0.36404700  0.60324800  1
  H  H5  1  0.90202700  0.63595300  0.89675200  1
  H  H6  1  0.36501200  0.48541100  0.32954100  1
  H  H7  1  0.86501200  0.51458900  0.17045900  1
  H  H8  1  0.63498800  0.51458900  0.67045900  1
  H  H9  1  0.13498800  0.48541100  0.82954100  1
  H  H10  1  0.16693900  0.75394200  0.11188900  1
  H  H11  1  0.66693900  0.24605800  0.38811100  1
  H  H12  1  0.83306100  0.24605800  0.88811100  1
  H  H13  1  0.33306100  0.75394200  0.61188900  1
  H  H14  1  0.26911100  0.81026400  0.97625100  1
  H  H15  1  0.76911100  0.18973600  0.52374900  1
  H  H16  1  0.73088900  0.18973600  0.02374900  1
  H  H17  1  0.23088900  0.81026400  0.47625100  1
  H  H18  1  0.76383800  0.78901200  0.15355800  1
  H  H19  1  0.26383800  0.21098800  0.34644200  1
  H  H20  1  0.23616200  0.21098800  0.84644200  1
  H  H21  1  0.73616200  0.78901200  0.65355800  1
  H  H22  1  0.54767200  0.87989400  0.08303500  1
  H  H23  1  0.04767200  0.12010600  0.41696500  1
  H  H24  1  0.45232800  0.12010600  0.91696500  1
  H  H25  1  0.95232800  0.87989400  0.58303500  1
  H  H26  1  0.16820000  0.11189200  0.15854900  1
  H  H27  1  0.66820000  0.88810800  0.34145100  1
  H  H28  1  0.83180000  0.88810800  0.84145100  1
  H  H29  1  0.33180000  0.11189200  0.65854900  1
  H  H30  1  0.15498400  0.95053100  0.22931500  1
  H  H31  1  0.65498400  0.04946900  0.27068500  1
  H  H32  1  0.84501600  0.04946900  0.77068500  1
  H  H33  1  0.34501600  0.95053100  0.72931500  1
  I  I34  1  0.03858800  0.62370800  0.37725400  1
  I  I35  1  0.53858800  0.37629200  0.12274600  1
  I  I36  1  0.96141200  0.37629200  0.62274600  1
  I  I37  1  0.46141200  0.62370800  0.87725400  1
  O  O38  1  0.96421200  0.64331000  0.22231500  1
  O  O39  1  0.46421200  0.35669000  0.27768500  1
  O  O40  1  0.03578800  0.35669000  0.77768500  1
  O  O41  1  0.53578800  0.64331000  0.72231500  1
  O  O42  1  0.73258400  0.69386000  0.40386400  1
  O  O43  1  0.23258400  0.30614000  0.09613600  1
  O  O44  1  0.26741600  0.30614000  0.59613600  1
  O  O45  1  0.76741600  0.69386000  0.90386400  1
  O  O46  1  0.17715100  0.78298000  0.35552700  1
  O  O47  1  0.67715100  0.21702000  0.14447300  1
  O  O48  1  0.82284900  0.21702000  0.64447300  1
  O  O49  1  0.32284900  0.78298000  0.85552700  1
  O  O50  1  0.35842300  0.55282800  0.36731000  1
  O  O51  1  0.85842300  0.44717200  0.13269000  1
  O  O52  1  0.64157700  0.44717200  0.63269000  1
  O  O53  1  0.14157700  0.55282800  0.86731000  1
  O  O54  1  0.09740600  0.56104000  0.55759200  1
  O  O55  1  0.59740600  0.43896000  0.94240800  1
  O  O56  1  0.90259400  0.43896000  0.44240800  1
  O  O57  1  0.40259400  0.56104000  0.05759200  1
  O  O58  1  0.23871600  0.83451300  0.04800500  1
  O  O59  1  0.73871600  0.16548700  0.45199500  1
  O  O60  1  0.76128400  0.16548700  0.95199500  1
  O  O61  1  0.26128400  0.83451300  0.54800500  1
  O  O62  1  0.71293100  0.88353300  0.11125400  1
  O  O63  1  0.21293100  0.11646700  0.38874600  1
  O  O64  1  0.28706900  0.11646700  0.88874600  1
  O  O65  1  0.78706900  0.88353300  0.61125400  1
  O  O66  1  0.13873700  0.02675200  0.15059700  1
  O  O67  1  0.63873700  0.97324800  0.34940300  1
  O  O68  1  0.86126300  0.97324800  0.84940300  1
  O  O69  1  0.36126300  0.02675200  0.65059700  1
