# generated using pymatgen
data_USe2NO8
_symmetry_space_group_name_H-M   'P 1'
_cell_length_a   10.75350900
_cell_length_b   8.85953700
_cell_length_c   12.65642972
_cell_angle_alpha   51.43917181
_cell_angle_beta   90.00000000
_cell_angle_gamma   90.00000000
_symmetry_Int_Tables_number   1
_chemical_formula_structural   USe2NO8
_chemical_formula_sum   'U4 Se8 N4 O32'
_cell_volume   942.86531570
_cell_formula_units_Z   4
loop_
 _symmetry_equiv_pos_site_id
 _symmetry_equiv_pos_as_xyz
  1  'x, y, z'
loop_
 _atom_site_type_symbol
 _atom_site_label
 _atom_site_symmetry_multiplicity
 _atom_site_fract_x
 _atom_site_fract_y
 _atom_site_fract_z
 _atom_site_occupancy
  U  U0  1  0.70003100  0.31375400  0.31109000  1
  U  U1  1  0.79996900  0.31375400  0.81109000  1
  U  U2  1  0.29996900  0.68624600  0.68891000  1
  U  U3  1  0.20003100  0.68624600  0.18891000  1
  Se  Se4  1  0.87365800  0.78957200  0.09470000  1
  Se  Se5  1  0.62634200  0.78957200  0.59470000  1
  Se  Se6  1  0.12634200  0.21042800  0.90530000  1
  Se  Se7  1  0.37365800  0.21042800  0.40530000  1
  Se  Se8  1  0.52821200  0.72103900  0.29202300  1
  Se  Se9  1  0.97178800  0.72103900  0.79202300  1
  Se  Se10  1  0.47178800  0.27896100  0.70797700  1
  Se  Se11  1  0.02821200  0.27896100  0.20797700  1
  N  N12  1  0.55760200  0.77077900  0.95647200  1
  N  N13  1  0.94239800  0.77077900  0.45647200  1
  N  N14  1  0.44239800  0.22922100  0.04352800  1
  N  N15  1  0.05760200  0.22922100  0.54352800  1
  O  O16  1  0.79425200  0.97454300  0.95532800  1
  O  O17  1  0.70574800  0.97454300  0.45532800  1
  O  O18  1  0.20574800  0.02545700  0.04467200  1
  O  O19  1  0.29425200  0.02545700  0.54467200  1
  O  O20  1  0.81265400  0.58524800  0.12734700  1
  O  O21  1  0.68734600  0.58524800  0.62734700  1
  O  O22  1  0.18734600  0.41475200  0.87265300  1
  O  O23  1  0.31265400  0.41475200  0.37265300  1
  O  O24  1  0.02313600  0.79240400  0.04346200  1
  O  O25  1  0.47686400  0.79240400  0.54346200  1
  O  O26  1  0.97686400  0.20759600  0.95653800  1
  O  O27  1  0.52313600  0.20759600  0.45653800  1
  O  O28  1  0.38599800  0.81010300  0.22682800  1
  O  O29  1  0.11400200  0.81010300  0.72682800  1
  O  O30  1  0.61400200  0.18989700  0.77317200  1
  O  O31  1  0.88599800  0.18989700  0.27317200  1
  O  O32  1  0.58560100  0.60797100  0.23352000  1
  O  O33  1  0.91439900  0.60797100  0.73352000  1
  O  O34  1  0.41439900  0.39202900  0.76648000  1
  O  O35  1  0.08560100  0.39202900  0.26648000  1
  O  O36  1  0.62214600  0.88607000  0.26790500  1
  O  O37  1  0.87785400  0.88607000  0.76790500  1
  O  O38  1  0.37785400  0.11393000  0.73209500  1
  O  O39  1  0.12214600  0.11393000  0.23209500  1
  O  O40  1  0.60651500  0.31151000  0.19468800  1
  O  O41  1  0.89348500  0.31151000  0.69468800  1
  O  O42  1  0.39348500  0.68849000  0.80531200  1
  O  O43  1  0.10651500  0.68849000  0.30531200  1
  O  O44  1  0.78538800  0.32732400  0.42718800  1
  O  O45  1  0.71461200  0.32732400  0.92718800  1
  O  O46  1  0.21461200  0.67267600  0.57281200  1
  O  O47  1  0.28538800  0.67267600  0.07281200  1
