# generated using pymatgen
data_ZrMnH10O5F6
_symmetry_space_group_name_H-M   'P 1'
_cell_length_a   7.63976800
_cell_length_b   8.77552656
_cell_length_c   8.97780441
_cell_angle_alpha   59.97783378
_cell_angle_beta   64.81889550
_cell_angle_gamma   64.19636000
_symmetry_Int_Tables_number   1
_chemical_formula_structural   ZrMnH10O5F6
_chemical_formula_sum   'Zr2 Mn2 H20 O10 F12'
_cell_volume   452.22030826
_cell_formula_units_Z   2
loop_
 _symmetry_equiv_pos_site_id
 _symmetry_equiv_pos_as_xyz
  1  'x, y, z'
loop_
 _atom_site_type_symbol
 _atom_site_label
 _atom_site_symmetry_multiplicity
 _atom_site_fract_x
 _atom_site_fract_y
 _atom_site_fract_z
 _atom_site_occupancy
  Zr  Zr0  1  0.74555400  0.50000000  0.50000000  1
  Zr  Zr1  1  0.24496400  0.50000000  0.50000000  1
  Mn  Mn2  1  0.76532200  0.18419200  0.27483300  1
  Mn  Mn3  1  0.22434700  0.81580800  0.72516700  1
  H  H4  1  0.17264300  0.62247900  0.09592600  1
  H  H5  1  0.89104900  0.37752100  0.90407400  1
  H  H6  1  0.26043200  0.47052000  0.01165500  1
  H  H7  1  0.74260700  0.52948000  0.98834500  1
  H  H8  1  0.18744800  0.17248500  0.43924200  1
  H  H9  1  0.79917500  0.82751500  0.56075800  1
  H  H10  1  0.80046400  0.88171200  0.88532500  1
  H  H11  1  0.56750100  0.11828800  0.11467500  1
  H  H12  1  0.70905300  0.91820300  0.22017700  1
  H  H13  1  0.84743300  0.08179700  0.77982300  1
  H  H14  1  0.13760600  0.91384800  0.22414800  1
  H  H15  1  0.27560200  0.08615200  0.77585200  1
  H  H16  1  0.58075200  0.71138700  0.13024000  1
  H  H17  1  0.42237900  0.28861300  0.86976000  1
  H  H18  1  0.80682400  0.96450000  0.62250700  1
  H  H19  1  0.39383100  0.03550000  0.37749300  1
  H  H20  1  0.50725600  0.81362300  0.95410700  1
  H  H21  1  0.27498700  0.18637700  0.04589300  1
  H  H22  1  0.48765900  0.96974600  0.69044500  1
  H  H23  1  0.14785000  0.03025400  0.30955500  1
  O  O24  1  0.89518800  0.95317400  0.78524100  1
  O  O25  1  0.63360400  0.04682600  0.21475900  1
  O  O26  1  0.35613600  0.95845600  0.78225900  1
  O  O27  1  0.09685000  0.04154400  0.21774100  1
  O  O28  1  0.73913800  0.95630400  0.55419300  1
  O  O29  1  0.24963600  0.04369600  0.44580700  1
  O  O30  1  0.20444800  0.60406900  0.98738400  1
  O  O31  1  0.79590200  0.39593100  0.01261600  1
  O  O32  1  0.62905300  0.75071600  0.99856900  1
  O  O33  1  0.37833800  0.24928400  0.00143100  1
  F  F34  1  0.79597700  0.29229600  0.73688900  1
  F  F35  1  0.82516200  0.70770400  0.26311100  1
  F  F36  1  0.15550600  0.29998000  0.74425200  1
  F  F37  1  0.19973800  0.70002100  0.25574800  1
  F  F38  1  0.50398400  0.62327900  0.35697400  1
  F  F39  1  0.48423700  0.37672100  0.64302600  1
  F  F40  1  0.08563000  0.38796400  0.43261400  1
  F  F41  1  0.90620900  0.61203600  0.56738600  1
  F  F42  1  0.45992500  0.31727100  0.38404100  1
  F  F43  1  0.16123700  0.68272900  0.61595900  1
  F  F44  1  0.82926400  0.31676500  0.38397300  1
  F  F45  1  0.53000200  0.68323500  0.61602700  1
