# generated using pymatgen
data_Cs3AsSe4O
_symmetry_space_group_name_H-M   'P 1'
_cell_length_a   10.46810600
_cell_length_b   10.55001500
_cell_length_c   15.86837623
_cell_angle_alpha   90.00000000
_cell_angle_beta   130.21441776
_cell_angle_gamma   90.00000000
_symmetry_Int_Tables_number   1
_chemical_formula_structural   Cs3AsSe4O
_chemical_formula_sum   'Cs12 As4 Se16 O4'
_cell_volume   1338.25445304
_cell_formula_units_Z   4
loop_
 _symmetry_equiv_pos_site_id
 _symmetry_equiv_pos_as_xyz
  1  'x, y, z'
loop_
 _atom_site_type_symbol
 _atom_site_label
 _atom_site_symmetry_multiplicity
 _atom_site_fract_x
 _atom_site_fract_y
 _atom_site_fract_z
 _atom_site_occupancy
  Cs  Cs0  1  0.83666300  0.82574500  0.74965900  1
  Cs  Cs1  1  0.83666300  0.67425500  0.24965900  1
  Cs  Cs2  1  0.16333700  0.17425500  0.25034100  1
  Cs  Cs3  1  0.16333700  0.32574500  0.75034100  1
  Cs  Cs4  1  0.25938900  0.07473200  0.54448700  1
  Cs  Cs5  1  0.25938900  0.42526800  0.04448700  1
  Cs  Cs6  1  0.74061100  0.92526800  0.45551300  1
  Cs  Cs7  1  0.74061100  0.57473200  0.95551300  1
  Cs  Cs8  1  0.64169100  0.03908700  0.95727900  1
  Cs  Cs9  1  0.64169100  0.46091300  0.45727900  1
  Cs  Cs10  1  0.35830900  0.96091300  0.04272100  1
  Cs  Cs11  1  0.35830900  0.53908700  0.54272100  1
  As  As12  1  0.25973600  0.78417100  0.73388400  1
  As  As13  1  0.25973600  0.71582900  0.23388400  1
  As  As14  1  0.74026400  0.21582900  0.26611600  1
  As  As15  1  0.74026400  0.28417100  0.76611600  1
  Se  Se16  1  0.48258900  0.80790200  0.73530800  1
  Se  Se17  1  0.48258900  0.69209800  0.23530800  1
  Se  Se18  1  0.51741100  0.19209800  0.26469200  1
  Se  Se19  1  0.51741100  0.30790200  0.76469200  1
  Se  Se20  1  0.15863500  0.98415200  0.73210500  1
  Se  Se21  1  0.15863500  0.51584800  0.23210500  1
  Se  Se22  1  0.84136500  0.01584800  0.26789500  1
  Se  Se23  1  0.84136500  0.48415200  0.76789500  1
  Se  Se24  1  0.05181300  0.65059500  0.59351600  1
  Se  Se25  1  0.05181300  0.84940500  0.09351600  1
  Se  Se26  1  0.94818700  0.34940500  0.40648400  1
  Se  Se27  1  0.94818700  0.15059500  0.90648400  1
  Se  Se28  1  0.36590700  0.67503400  0.90654200  1
  Se  Se29  1  0.36590700  0.82496600  0.40654200  1
  Se  Se30  1  0.63409300  0.32496600  0.09345800  1
  Se  Se31  1  0.63409300  0.17503400  0.59345800  1
  O  O32  1  0.55748000  0.75041000  0.01232400  1
  O  O33  1  0.55748000  0.74959000  0.51232400  1
  O  O34  1  0.44252000  0.24959000  0.98767600  1
  O  O35  1  0.44252000  0.25041000  0.48767600  1
