# generated using pymatgen
data_Er5(Ge5Ir2)2
_symmetry_space_group_name_H-M   'P 1'
_cell_length_a   13.01243700
_cell_length_b   13.01243700
_cell_length_c   4.32721600
_cell_angle_alpha   90.00000000
_cell_angle_beta   90.00000000
_cell_angle_gamma   90.00000000
_symmetry_Int_Tables_number   1
_chemical_formula_structural   Er5(Ge5Ir2)2
_chemical_formula_sum   'Er10 Ge20 Ir8'
_cell_volume   732.69943055
_cell_formula_units_Z   2
loop_
 _symmetry_equiv_pos_site_id
 _symmetry_equiv_pos_as_xyz
  1  'x, y, z'
loop_
 _atom_site_type_symbol
 _atom_site_label
 _atom_site_symmetry_multiplicity
 _atom_site_fract_x
 _atom_site_fract_y
 _atom_site_fract_z
 _atom_site_occupancy
  Er  Er0  1  0.50000000  0.50000000  0.00000000  1
  Er  Er1  1  0.00000000  0.00000000  0.00000000  1
  Er  Er2  1  0.67396300  0.17396300  0.50000000  1
  Er  Er3  1  0.32603700  0.82603700  0.50000000  1
  Er  Er4  1  0.17396300  0.32603700  0.50000000  1
  Er  Er5  1  0.82603700  0.67396300  0.50000000  1
  Er  Er6  1  0.88429500  0.38429500  0.50000000  1
  Er  Er7  1  0.11570500  0.61570500  0.50000000  1
  Er  Er8  1  0.38429500  0.11570500  0.50000000  1
  Er  Er9  1  0.61570500  0.88429500  0.50000000  1
  Ge  Ge10  1  0.56631700  0.06631700  0.00000000  1
  Ge  Ge11  1  0.43368300  0.93368300  0.00000000  1
  Ge  Ge12  1  0.06631700  0.43368300  0.00000000  1
  Ge  Ge13  1  0.93368300  0.56631700  0.00000000  1
  Ge  Ge14  1  0.66323200  0.70008500  0.00000000  1
  Ge  Ge15  1  0.33676800  0.29991500  0.00000000  1
  Ge  Ge16  1  0.16323200  0.79991500  0.00000000  1
  Ge  Ge17  1  0.83676800  0.20008500  0.00000000  1
  Ge  Ge18  1  0.29991500  0.66323200  0.00000000  1
  Ge  Ge19  1  0.70008500  0.33676800  0.00000000  1
  Ge  Ge20  1  0.20008500  0.16323200  0.00000000  1
  Ge  Ge21  1  0.79991500  0.83676800  0.00000000  1
  Ge  Ge22  1  0.65591300  0.50901200  0.50000000  1
  Ge  Ge23  1  0.34408700  0.49098800  0.50000000  1
  Ge  Ge24  1  0.15591300  0.99098800  0.50000000  1
  Ge  Ge25  1  0.84408700  0.00901200  0.50000000  1
  Ge  Ge26  1  0.49098800  0.65591300  0.50000000  1
  Ge  Ge27  1  0.50901200  0.34408700  0.50000000  1
  Ge  Ge28  1  0.00901200  0.15591300  0.50000000  1
  Ge  Ge29  1  0.99098800  0.84408700  0.50000000  1
  Ir  Ir30  1  0.74655000  0.52094600  0.00000000  1
  Ir  Ir31  1  0.25345000  0.47905400  0.00000000  1
  Ir  Ir32  1  0.24655000  0.97905400  0.00000000  1
  Ir  Ir33  1  0.75345000  0.02094600  0.00000000  1
  Ir  Ir34  1  0.47905400  0.74655000  0.00000000  1
  Ir  Ir35  1  0.52094600  0.25345000  0.00000000  1
  Ir  Ir36  1  0.02094600  0.24655000  0.00000000  1
  Ir  Ir37  1  0.97905400  0.75345000  0.00000000  1
