# generated using pymatgen
data_LiZn(ClO)3
_symmetry_space_group_name_H-M   'P 1'
_cell_length_a   6.82110800
_cell_length_b   7.26329000
_cell_length_c   15.54041000
_cell_angle_alpha   90.00000000
_cell_angle_beta   90.00000000
_cell_angle_gamma   90.00000000
_symmetry_Int_Tables_number   1
_chemical_formula_structural   LiZn(ClO)3
_chemical_formula_sum   'Li4 Zn4 Cl12 O12'
_cell_volume   769.92918597
_cell_formula_units_Z   4
loop_
 _symmetry_equiv_pos_site_id
 _symmetry_equiv_pos_as_xyz
  1  'x, y, z'
loop_
 _atom_site_type_symbol
 _atom_site_label
 _atom_site_symmetry_multiplicity
 _atom_site_fract_x
 _atom_site_fract_y
 _atom_site_fract_z
 _atom_site_occupancy
  Li  Li0  1  0.97611500  0.25000000  0.80035100  1
  Li  Li1  1  0.47611500  0.25000000  0.69964900  1
  Li  Li2  1  0.02388500  0.75000000  0.19964900  1
  Li  Li3  1  0.52388500  0.75000000  0.30035100  1
  Zn  Zn4  1  0.70036100  0.25000000  0.31967900  1
  Zn  Zn5  1  0.20036100  0.25000000  0.18032100  1
  Zn  Zn6  1  0.29963900  0.75000000  0.68032100  1
  Zn  Zn7  1  0.79963900  0.75000000  0.81967900  1
  Cl  Cl8  1  0.85407300  0.25000000  0.18754400  1
  Cl  Cl9  1  0.35407300  0.25000000  0.31245600  1
  Cl  Cl10  1  0.14592700  0.75000000  0.81245600  1
  Cl  Cl11  1  0.64592700  0.75000000  0.68754400  1
  Cl  Cl12  1  0.76746400  0.98148200  0.38778300  1
  Cl  Cl13  1  0.26746400  0.51851800  0.11221700  1
  Cl  Cl14  1  0.23253600  0.48148200  0.61221700  1
  Cl  Cl15  1  0.73253600  0.01851800  0.88778300  1
  Cl  Cl16  1  0.23253600  0.01851800  0.61221700  1
  Cl  Cl17  1  0.73253600  0.48148200  0.88778300  1
  Cl  Cl18  1  0.76746400  0.51851800  0.38778300  1
  Cl  Cl19  1  0.26746400  0.98148200  0.11221700  1
  O  O20  1  0.70925800  0.25000000  0.77053600  1
  O  O21  1  0.20925800  0.25000000  0.72946400  1
  O  O22  1  0.29074200  0.75000000  0.22946400  1
  O  O23  1  0.79074200  0.75000000  0.27053600  1
  O  O24  1  0.73946800  0.16495700  0.58654200  1
  O  O25  1  0.23946800  0.33504300  0.91345800  1
  O  O26  1  0.26053200  0.66495700  0.41345800  1
  O  O27  1  0.76053200  0.83504300  0.08654200  1
  O  O28  1  0.26053200  0.83504300  0.41345800  1
  O  O29  1  0.76053200  0.66495700  0.08654200  1
  O  O30  1  0.73946800  0.33504300  0.58654200  1
  O  O31  1  0.23946800  0.16495700  0.91345800  1
