# generated using pymatgen
data_Ca13(Ge11Au25)2
_symmetry_space_group_name_H-M   'P 1'
_cell_length_a   12.94534774
_cell_length_b   12.94534774
_cell_length_c   12.94534774
_cell_angle_alpha   109.47122063
_cell_angle_beta   109.47122063
_cell_angle_gamma   109.47122063
_symmetry_Int_Tables_number   1
_chemical_formula_structural   Ca13(Ge11Au25)2
_chemical_formula_sum   'Ca13 Ge22 Au50'
_cell_volume   1670.01076970
_cell_formula_units_Z   1
loop_
 _symmetry_equiv_pos_site_id
 _symmetry_equiv_pos_as_xyz
  1  'x, y, z'
loop_
 _atom_site_type_symbol
 _atom_site_label
 _atom_site_symmetry_multiplicity
 _atom_site_fract_x
 _atom_site_fract_y
 _atom_site_fract_z
 _atom_site_occupancy
  Ca  Ca0  1  0.00000000  0.00000000  0.00000000  1
  Ca  Ca1  1  0.30624500  0.11746600  0.81122100  1
  Ca  Ca2  1  0.69375500  0.88253400  0.18877900  1
  Ca  Ca3  1  0.69375500  0.50497600  0.81122100  1
  Ca  Ca4  1  0.30624500  0.49502400  0.18877900  1
  Ca  Ca5  1  0.11746600  0.81122100  0.30624500  1
  Ca  Ca6  1  0.88253400  0.18877900  0.69375500  1
  Ca  Ca7  1  0.50497600  0.81122100  0.69375500  1
  Ca  Ca8  1  0.49502400  0.18877900  0.30624500  1
  Ca  Ca9  1  0.81122100  0.30624500  0.11746600  1
  Ca  Ca10  1  0.18877900  0.69375500  0.88253400  1
  Ca  Ca11  1  0.81122100  0.69375500  0.50497600  1
  Ca  Ca12  1  0.18877900  0.30624500  0.49502400  1
  Ge  Ge13  1  0.08668200  0.85620900  0.76952700  1
  Ge  Ge14  1  0.91331800  0.14379100  0.23047300  1
  Ge  Ge15  1  0.91331800  0.68284500  0.76952700  1
  Ge  Ge16  1  0.08668200  0.31715500  0.23047300  1
  Ge  Ge17  1  0.85620900  0.76952700  0.08668200  1
  Ge  Ge18  1  0.14379100  0.23047300  0.91331800  1
  Ge  Ge19  1  0.68284500  0.76952700  0.91331800  1
  Ge  Ge20  1  0.31715500  0.23047300  0.08668200  1
  Ge  Ge21  1  0.76952700  0.08668200  0.85620900  1
  Ge  Ge22  1  0.23047300  0.91331800  0.14379100  1
  Ge  Ge23  1  0.76952700  0.91331800  0.68284500  1
  Ge  Ge24  1  0.23047300  0.08668200  0.31715500  1
  Ge  Ge25  1  0.30096100  0.50000000  0.80096100  1
  Ge  Ge26  1  0.69903900  0.50000000  0.19903900  1
  Ge  Ge27  1  0.50000000  0.80096100  0.30096100  1
  Ge  Ge28  1  0.50000000  0.19903900  0.69903900  1
  Ge  Ge29  1  0.80096100  0.30096100  0.50000000  1
  Ge  Ge30  1  0.19903900  0.69903900  0.50000000  1
  Ge  Ge31  1  0.00000000  0.00000000  0.50000000  1
  Ge  Ge32  1  0.50000000  0.00000000  0.00000000  1
  Ge  Ge33  1  0.00000000  0.50000000  0.00000000  1
  Ge  Ge34  1  0.50000000  0.50000000  0.50000000  1
  Au  Au35  1  0.09302200  0.85990000  0.55988100  1
  Au  Au36  1  0.69998100  0.14010000  0.23312200  1
  Au  Au37  1  0.90697800  0.46685900  0.76687800  1
  Au  Au38  1  0.30001900  0.53314100  0.44011900  1
  Au  Au39  1  0.85990000  0.55988100  0.09302200  1
  Au  Au40  1  0.14010000  0.23312200  0.69998100  1
  Au  Au41  1  0.46685900  0.76687800  0.90697800  1
  Au  Au42  1  0.53314100  0.44011900  0.30001900  1
  Au  Au43  1  0.55988100  0.09302200  0.85990000  1
  Au  Au44  1  0.23312200  0.69998100  0.14010000  1
  Au  Au45  1  0.76687800  0.90697800  0.46685900  1
  Au  Au46  1  0.44011900  0.30001900  0.53314100  1
  Au  Au47  1  0.90697800  0.14010000  0.44011900  1
  Au  Au48  1  0.30001900  0.85990000  0.76687800  1
  Au  Au49  1  0.09302200  0.53314100  0.23312200  1
  Au  Au50  1  0.69998100  0.46685900  0.55988100  1
  Au  Au51  1  0.14010000  0.44011900  0.90697800  1
  Au  Au52  1  0.85990000  0.76687800  0.30001900  1
  Au  Au53  1  0.53314100  0.23312200  0.09302200  1
  Au  Au54  1  0.46685900  0.55988100  0.69998100  1
  Au  Au55  1  0.44011900  0.90697800  0.14010000  1
  Au  Au56  1  0.76687800  0.30001900  0.85990000  1
  Au  Au57  1  0.23312200  0.09302200  0.53314100  1
  Au  Au58  1  0.55988100  0.69998100  0.46685900  1
  Au  Au59  1  0.35470700  0.95203100  0.59732400  1
  Au  Au60  1  0.64529300  0.04796900  0.40267600  1
  Au  Au61  1  0.64529300  0.24261700  0.59732400  1
  Au  Au62  1  0.35470700  0.75738300  0.40267600  1
  Au  Au63  1  0.95203100  0.59732400  0.35470700  1
  Au  Au64  1  0.04796900  0.40267600  0.64529300  1
  Au  Au65  1  0.24261700  0.59732400  0.64529300  1
  Au  Au66  1  0.75738300  0.40267600  0.35470700  1
  Au  Au67  1  0.59732400  0.35470700  0.95203100  1
  Au  Au68  1  0.40267600  0.64529300  0.04796900  1
  Au  Au69  1  0.59732400  0.64529300  0.24261700  1
  Au  Au70  1  0.40267600  0.35470700  0.75738300  1
  Au  Au71  1  0.00000000  0.00000000  0.71662900  1
  Au  Au72  1  0.71662900  0.00000000  0.00000000  1
  Au  Au73  1  0.00000000  0.71662900  0.00000000  1
  Au  Au74  1  0.28337100  0.28337100  0.28337100  1
  Au  Au75  1  0.00000000  0.00000000  0.28337100  1
  Au  Au76  1  0.28337100  0.00000000  0.00000000  1
  Au  Au77  1  0.00000000  0.28337100  0.00000000  1
  Au  Au78  1  0.71662900  0.71662900  0.71662900  1
  Au  Au79  1  0.60037500  0.00000000  0.60037500  1
  Au  Au80  1  0.39962500  0.00000000  0.39962500  1
  Au  Au81  1  0.00000000  0.60037500  0.60037500  1
  Au  Au82  1  0.00000000  0.39962500  0.39962500  1
  Au  Au83  1  0.60037500  0.60037500  0.00000000  1
  Au  Au84  1  0.39962500  0.39962500  0.00000000  1
