# generated using pymatgen
data_C
_symmetry_space_group_name_H-M   'P 1'
_cell_length_a   4.71844100
_cell_length_b   10.10800500
_cell_length_c   15.70374058
_cell_angle_alpha   73.92420511
_cell_angle_beta   90.00000000
_cell_angle_gamma   90.00000000
_symmetry_Int_Tables_number   1
_chemical_formula_structural   C
_chemical_formula_sum   C48
_cell_volume   719.68686307
_cell_formula_units_Z   48
loop_
 _symmetry_equiv_pos_site_id
 _symmetry_equiv_pos_as_xyz
  1  'x, y, z'
loop_
 _atom_site_type_symbol
 _atom_site_label
 _atom_site_symmetry_multiplicity
 _atom_site_fract_x
 _atom_site_fract_y
 _atom_site_fract_z
 _atom_site_occupancy
  C  C0  1  0.92032600  0.33682300  0.62426500  1
  C  C1  1  0.42032600  0.16317700  0.87573500  1
  C  C2  1  0.07967400  0.66317700  0.37573500  1
  C  C3  1  0.57967400  0.83682300  0.12426500  1
  C  C4  1  0.97054000  0.21017800  0.60912500  1
  C  C5  1  0.47054000  0.28982200  0.89087500  1
  C  C6  1  0.02946000  0.78982200  0.39087500  1
  C  C7  1  0.52946000  0.71017800  0.10912500  1
  C  C8  1  0.86206500  0.16288600  0.55167500  1
  C  C9  1  0.36206500  0.33711400  0.94832500  1
  C  C10  1  0.13793500  0.83711400  0.44832500  1
  C  C11  1  0.63793500  0.66288600  0.05167500  1
  C  C12  1  0.66551400  0.22525100  0.48758300  1
  C  C13  1  0.16551400  0.27474900  0.01241700  1
  C  C14  1  0.33448600  0.77474900  0.51241700  1
  C  C15  1  0.83448600  0.72525100  0.98758300  1
  C  C16  1  0.52766500  0.19027300  0.41890600  1
  C  C17  1  0.02766500  0.30972700  0.08109400  1
  C  C18  1  0.47233500  0.80972700  0.58109400  1
  C  C19  1  0.97233500  0.69027300  0.91890600  1
  C  C20  1  0.35196800  0.25947500  0.36620400  1
  C  C21  1  0.85196800  0.24052500  0.13379600  1
  C  C22  1  0.64803200  0.74052500  0.63379600  1
  C  C23  1  0.14803200  0.75947500  0.86620400  1
  C  C24  1  0.24749100  0.38906400  0.36259700  1
  C  C25  1  0.74749100  0.11093600  0.13740300  1
  C  C26  1  0.75250900  0.61093600  0.63740400  1
  C  C27  1  0.25250900  0.88906400  0.86259600  1
  C  C28  1  0.05279900  0.47883300  0.31092900  1
  C  C29  1  0.55279900  0.02116700  0.18907100  1
  C  C30  1  0.94720100  0.52116700  0.68907100  1
  C  C31  1  0.44720100  0.97883300  0.81092900  1
  C  C32  1  0.98027200  0.59432300  0.31666000  1
  C  C33  1  0.48027200  0.90567700  0.18334000  1
  C  C34  1  0.01972800  0.40567700  0.68334000  1
  C  C35  1  0.51972800  0.09432300  0.81666000  1
  C  C36  1  0.70582400  0.41967400  0.56127200  1
  C  C37  1  0.20582400  0.08032600  0.93872800  1
  C  C38  1  0.29417600  0.58032600  0.43872800  1
  C  C39  1  0.79417600  0.91967400  0.06127200  1
  C  C40  1  0.58166900  0.36504900  0.49379800  1
  C  C41  1  0.08166900  0.13495100  0.00620200  1
  C  C42  1  0.41833100  0.63495100  0.50620200  1
  C  C43  1  0.91833100  0.86504900  0.99379800  1
  C  C44  1  0.37622800  0.44549900  0.43241700  1
  C  C45  1  0.87622800  0.05450100  0.06758300  1
  C  C46  1  0.62377200  0.55450100  0.56758300  1
  C  C47  1  0.12377200  0.94549900  0.93241700  1
