# generated using pymatgen
data_BaPr2In2O7
_symmetry_space_group_name_H-M   'P 1'
_cell_length_a   5.99061800
_cell_length_b   5.99061800
_cell_length_c   20.84855500
_cell_angle_alpha   90.00000000
_cell_angle_beta   90.00000000
_cell_angle_gamma   90.00000000
_symmetry_Int_Tables_number   1
_chemical_formula_structural   BaPr2In2O7
_chemical_formula_sum   'Ba4 Pr8 In8 O28'
_cell_volume   748.20260141
_cell_formula_units_Z   4
loop_
 _symmetry_equiv_pos_site_id
 _symmetry_equiv_pos_as_xyz
  1  'x, y, z'
loop_
 _atom_site_type_symbol
 _atom_site_label
 _atom_site_symmetry_multiplicity
 _atom_site_fract_x
 _atom_site_fract_y
 _atom_site_fract_z
 _atom_site_occupancy
  Ba  Ba0  1  0.23838400  0.76161600  0.50000000  1
  Ba  Ba1  1  0.76161600  0.23838400  0.50000000  1
  Ba  Ba2  1  0.26161600  0.26161600  0.00000000  1
  Ba  Ba3  1  0.73838400  0.73838400  0.00000000  1
  Pr  Pr4  1  0.22131200  0.77868800  0.31440000  1
  Pr  Pr5  1  0.77868800  0.22131200  0.31440000  1
  Pr  Pr6  1  0.27868800  0.27868800  0.81440000  1
  Pr  Pr7  1  0.72131200  0.72131200  0.81440000  1
  Pr  Pr8  1  0.77868800  0.22131200  0.68560000  1
  Pr  Pr9  1  0.22131200  0.77868800  0.68560000  1
  Pr  Pr10  1  0.72131200  0.72131200  0.18560000  1
  Pr  Pr11  1  0.27868800  0.27868800  0.18560000  1
  In  In12  1  0.24024200  0.75975800  0.10285200  1
  In  In13  1  0.75975800  0.24024200  0.10285200  1
  In  In14  1  0.25975800  0.25975800  0.60285200  1
  In  In15  1  0.74024200  0.74024200  0.60285200  1
  In  In16  1  0.75975800  0.24024200  0.89714800  1
  In  In17  1  0.24024200  0.75975800  0.89714800  1
  In  In18  1  0.74024200  0.74024200  0.39714800  1
  In  In19  1  0.25975800  0.25975800  0.39714800  1
  O  O20  1  0.29761400  0.29761400  0.50000000  1
  O  O21  1  0.70238600  0.70238600  0.50000000  1
  O  O22  1  0.20238600  0.79761400  0.00000000  1
  O  O23  1  0.79761400  0.20238600  0.00000000  1
  O  O24  1  0.31904700  0.68095300  0.21107300  1
  O  O25  1  0.68095300  0.31904700  0.21107300  1
  O  O26  1  0.18095300  0.18095300  0.71107300  1
  O  O27  1  0.81904700  0.81904700  0.71107300  1
  O  O28  1  0.68095300  0.31904700  0.78892700  1
  O  O29  1  0.31904700  0.68095300  0.78892700  1
  O  O30  1  0.81904700  0.81904700  0.28892700  1
  O  O31  1  0.18095300  0.18095300  0.28892700  1
  O  O32  1  0.00000000  0.50000000  0.38237000  1
  O  O33  1  0.50000000  0.00000000  0.88237000  1
  O  O34  1  0.00000000  0.50000000  0.61763000  1
  O  O35  1  0.50000000  0.00000000  0.11763000  1
  O  O36  1  0.50000000  0.00000000  0.38237000  1
  O  O37  1  0.00000000  0.50000000  0.88237000  1
  O  O38  1  0.50000000  0.00000000  0.61763000  1
  O  O39  1  0.00000000  0.50000000  0.11763000  1
  O  O40  1  0.50000000  0.50000000  0.36322300  1
  O  O41  1  0.00000000  0.00000000  0.86322300  1
  O  O42  1  0.50000000  0.50000000  0.63677700  1
  O  O43  1  0.00000000  0.00000000  0.13677700  1
  O  O44  1  0.50000000  0.50000000  0.09115000  1
  O  O45  1  0.00000000  0.00000000  0.59115000  1
  O  O46  1  0.50000000  0.50000000  0.90885000  1
  O  O47  1  0.00000000  0.00000000  0.40885000  1
