# generated using pymatgen
data_La2Si(IO2)2
_symmetry_space_group_name_H-M   'P 1'
_cell_length_a   8.61479800
_cell_length_b   8.56450900
_cell_length_c   22.67199815
_cell_angle_alpha   87.34438842
_cell_angle_beta   90.00000000
_cell_angle_gamma   90.00000000
_symmetry_Int_Tables_number   1
_chemical_formula_structural   La2Si(IO2)2
_chemical_formula_sum   'La16 Si8 I16 O32'
_cell_volume   1670.97792828
_cell_formula_units_Z   8
loop_
 _symmetry_equiv_pos_site_id
 _symmetry_equiv_pos_as_xyz
  1  'x, y, z'
loop_
 _atom_site_type_symbol
 _atom_site_label
 _atom_site_symmetry_multiplicity
 _atom_site_fract_x
 _atom_site_fract_y
 _atom_site_fract_z
 _atom_site_occupancy
  La  La0  1  0.43699300  0.62441300  0.65456600  1
  La  La1  1  0.93699300  0.37558700  0.84543400  1
  La  La2  1  0.56300700  0.37558700  0.34543400  1
  La  La3  1  0.06300700  0.62441300  0.15456600  1
  La  La4  1  0.29680000  0.12497100  0.65499200  1
  La  La5  1  0.79680000  0.87502900  0.84500800  1
  La  La6  1  0.70320000  0.87502900  0.34500800  1
  La  La7  1  0.20320000  0.12497100  0.15499200  1
  La  La8  1  0.30602800  0.75739400  0.81265600  1
  La  La9  1  0.80602800  0.24260600  0.68734400  1
  La  La10  1  0.69397200  0.24260600  0.18734400  1
  La  La11  1  0.19397200  0.75739400  0.31265600  1
  La  La12  1  0.42685200  0.25857500  0.81226600  1
  La  La13  1  0.92685200  0.74142500  0.68773400  1
  La  La14  1  0.57314800  0.74142500  0.18773400  1
  La  La15  1  0.07314800  0.25857500  0.31226600  1
  Si  Si16  1  0.56321500  0.96261900  0.73745300  1
  Si  Si17  1  0.06321500  0.03738100  0.76254700  1
  Si  Si18  1  0.43678500  0.03738100  0.26254700  1
  Si  Si19  1  0.93678500  0.96261900  0.23745300  1
  Si  Si20  1  0.67095300  0.53621200  0.76279000  1
  Si  Si21  1  0.17095300  0.46378800  0.73721000  1
  Si  Si22  1  0.32904700  0.46378800  0.23721000  1
  Si  Si23  1  0.82904700  0.53621200  0.26279000  1
  I  I24  1  0.54882700  0.33274400  0.57188900  1
  I  I25  1  0.04882700  0.66725600  0.92811100  1
  I  I26  1  0.45117300  0.66725600  0.42811100  1
  I  I27  1  0.95117300  0.33274400  0.07188900  1
  I  I28  1  0.18492700  0.83504000  0.57192700  1
  I  I29  1  0.68492700  0.16496000  0.92807300  1
  I  I30  1  0.81507300  0.16496000  0.42807300  1
  I  I31  1  0.31507300  0.83504000  0.07192700  1
  I  I32  1  0.04417700  0.36391200  0.58047800  1
  I  I33  1  0.54417700  0.63608800  0.91952200  1
  I  I34  1  0.95582300  0.63608800  0.41952200  1
  I  I35  1  0.45582300  0.36391200  0.08047800  1
  I  I36  1  0.69332500  0.86015300  0.57978400  1
  I  I37  1  0.19332500  0.13984700  0.92021600  1
  I  I38  1  0.30667500  0.13984700  0.42021600  1
  I  I39  1  0.80667500  0.86015300  0.07978400  1
  O  O40  1  0.69189400  0.63186800  0.29566700  1
  O  O41  1  0.19189400  0.36813200  0.20433300  1
  O  O42  1  0.30810600  0.36813200  0.70433300  1
  O  O43  1  0.80810600  0.63186800  0.79566700  1
  O  O44  1  0.48980800  0.58615500  0.76950700  1
  O  O45  1  0.98980800  0.41384500  0.73049300  1
  O  O46  1  0.51019200  0.41384500  0.23049300  1
  O  O47  1  0.01019200  0.58615500  0.26950700  1
  O  O48  1  0.74581400  0.91725800  0.73120300  1
  O  O49  1  0.24581400  0.08274200  0.76879700  1
  O  O50  1  0.25418600  0.08274200  0.26879700  1
  O  O51  1  0.75418600  0.91725800  0.23120300  1
  O  O52  1  0.52802000  0.94550000  0.80946700  1
  O  O53  1  0.02802000  0.05450000  0.69053300  1
  O  O54  1  0.47198000  0.05450000  0.19053300  1
  O  O55  1  0.97198000  0.94550000  0.30946700  1
  O  O56  1  0.54168100  0.14737100  0.71526400  1
  O  O57  1  0.04168100  0.85262900  0.78473600  1
  O  O58  1  0.45831900  0.85262900  0.28473600  1
  O  O59  1  0.95831900  0.14737100  0.21526400  1
  O  O60  1  0.56957500  0.13291900  0.29772600  1
  O  O61  1  0.06957500  0.86708100  0.20227400  1
  O  O62  1  0.43042500  0.86708100  0.70227400  1
  O  O63  1  0.93042500  0.13291900  0.79772600  1
  O  O64  1  0.69179800  0.35252800  0.78636600  1
  O  O65  1  0.19179800  0.64747200  0.71363400  1
  O  O66  1  0.30820200  0.64747200  0.21363400  1
  O  O67  1  0.80820200  0.35252800  0.28636600  1
  O  O68  1  0.70442700  0.54847300  0.69052300  1
  O  O69  1  0.20442700  0.45152700  0.80947700  1
  O  O70  1  0.29557300  0.45152700  0.30947700  1
  O  O71  1  0.79557300  0.54847300  0.19052300  1
