# generated using pymatgen
data_ZrH24C8(NF3)2
_symmetry_space_group_name_H-M   'P 1'
_cell_length_a   8.64108723
_cell_length_b   8.64108723
_cell_length_c   8.64108689
_cell_angle_alpha   58.71156414
_cell_angle_beta   58.71156414
_cell_angle_gamma   58.71156430
_symmetry_Int_Tables_number   1
_chemical_formula_structural   ZrH24C8(NF3)2
_chemical_formula_sum   'Zr1 H24 C8 N2 F6'
_cell_volume   442.80557136
_cell_formula_units_Z   1
loop_
 _symmetry_equiv_pos_site_id
 _symmetry_equiv_pos_as_xyz
  1  'x, y, z'
loop_
 _atom_site_type_symbol
 _atom_site_label
 _atom_site_symmetry_multiplicity
 _atom_site_fract_x
 _atom_site_fract_y
 _atom_site_fract_z
 _atom_site_occupancy
  Zr  Zr0  1  0.00000000  0.00000000  0.00000000  1
  H  H1  1  0.29588100  0.23388900  0.98629000  1
  H  H2  1  0.98629000  0.29588100  0.23388900  1
  H  H3  1  0.23388900  0.98629000  0.29588100  1
  H  H4  1  0.70411900  0.76611100  0.01371000  1
  H  H5  1  0.01371000  0.70411900  0.76611100  1
  H  H6  1  0.76611100  0.01371000  0.70411900  1
  H  H7  1  0.50482000  0.20660300  0.01029700  1
  H  H8  1  0.01029700  0.50482000  0.20660300  1
  H  H9  1  0.20660300  0.01029700  0.50482000  1
  H  H10  1  0.49518000  0.79339700  0.98970300  1
  H  H11  1  0.98970300  0.49518000  0.79339700  1
  H  H12  1  0.79339700  0.98970300  0.49518000  1
  H  H13  1  0.32083300  0.44048600  0.96298500  1
  H  H14  1  0.96298500  0.32083300  0.44048600  1
  H  H15  1  0.44048600  0.96298500  0.32083300  1
  H  H16  1  0.67916700  0.55951400  0.03701500  1
  H  H17  1  0.03701500  0.67916700  0.55951400  1
  H  H18  1  0.55951400  0.03701500  0.67916700  1
  H  H19  1  0.47341200  0.24651500  0.27806700  1
  H  H20  1  0.27806700  0.47341200  0.24651500  1
  H  H21  1  0.24651500  0.27806700  0.47341200  1
  H  H22  1  0.52658800  0.75348500  0.72193300  1
  H  H23  1  0.72193300  0.52658800  0.75348500  1
  H  H24  1  0.75348500  0.72193300  0.52658800  1
  C  C25  1  0.35035800  0.28498900  0.03468100  1
  C  C26  1  0.03468100  0.35035800  0.28498900  1
  C  C27  1  0.28498900  0.03468100  0.35035800  1
  C  C28  1  0.64964200  0.71501100  0.96531900  1
  C  C29  1  0.96531900  0.64964200  0.71501100  1
  C  C30  1  0.71501100  0.96531900  0.64964200  1
  C  C31  1  0.31669300  0.31669300  0.31669300  1
  C  C32  1  0.68330700  0.68330700  0.68330700  1
  N  N33  1  0.24659600  0.24659600  0.24659600  1
  N  N34  1  0.75340400  0.75340400  0.75340400  1
  F  F35  1  0.87826700  0.16645600  0.78852900  1
  F  F36  1  0.78852900  0.87826700  0.16645600  1
  F  F37  1  0.16645600  0.78852900  0.87826700  1
  F  F38  1  0.12173300  0.83354400  0.21147100  1
  F  F39  1  0.21147100  0.12173300  0.83354400  1
  F  F40  1  0.83354400  0.21147100  0.12173300  1
