# generated using pymatgen
data_FeH2(CO3)2
_symmetry_space_group_name_H-M   'P 1'
_cell_length_a   7.17333800
_cell_length_b   8.47132400
_cell_length_c   9.33732513
_cell_angle_alpha   84.04825503
_cell_angle_beta   90.00000000
_cell_angle_gamma   90.00000000
_symmetry_Int_Tables_number   1
_chemical_formula_structural   FeH2(CO3)2
_chemical_formula_sum   'Fe4 H8 C8 O24'
_cell_volume   564.34892926
_cell_formula_units_Z   4
loop_
 _symmetry_equiv_pos_site_id
 _symmetry_equiv_pos_as_xyz
  1  'x, y, z'
loop_
 _atom_site_type_symbol
 _atom_site_label
 _atom_site_symmetry_multiplicity
 _atom_site_fract_x
 _atom_site_fract_y
 _atom_site_fract_z
 _atom_site_occupancy
  Fe  Fe0  1  0.50000000  0.50000000  0.50000000  1
  Fe  Fe1  1  0.00000000  0.50000000  0.00000000  1
  Fe  Fe2  1  0.00000000  0.00000000  0.50000000  1
  Fe  Fe3  1  0.50000000  0.00000000  0.00000000  1
  H  H4  1  0.70948800  0.41344200  0.77072700  1
  H  H5  1  0.20948800  0.58655800  0.72927300  1
  H  H6  1  0.29051200  0.58655800  0.22927300  1
  H  H7  1  0.79051200  0.41344200  0.27072700  1
  H  H8  1  0.50396700  0.82705400  0.63332600  1
  H  H9  1  0.00396700  0.17294600  0.86667400  1
  H  H10  1  0.49603300  0.17294600  0.36667400  1
  H  H11  1  0.99603300  0.82705400  0.13332600  1
  C  C12  1  0.76849100  0.52990100  0.73025200  1
  C  C13  1  0.26849100  0.47009900  0.76974800  1
  C  C14  1  0.23150900  0.47009900  0.26974800  1
  C  C15  1  0.73150900  0.52990100  0.23025200  1
  C  C16  1  0.37650100  0.82604000  0.56632400  1
  C  C17  1  0.87650100  0.17396000  0.93367600  1
  C  C18  1  0.62349900  0.17396000  0.43367600  1
  C  C19  1  0.12349900  0.82604000  0.06632400  1
  O  O20  1  0.70946200  0.59592400  0.61016900  1
  O  O21  1  0.20946200  0.40407600  0.88983100  1
  O  O22  1  0.29053800  0.40407600  0.38983100  1
  O  O23  1  0.79053800  0.59592400  0.11016900  1
  O  O24  1  0.89038200  0.59146300  0.80567900  1
  O  O25  1  0.39038200  0.40853700  0.69432100  1
  O  O26  1  0.10961800  0.40853700  0.19432100  1
  O  O27  1  0.60961800  0.59146300  0.30567900  1
  O  O28  1  0.34558000  0.70516700  0.49912500  1
  O  O29  1  0.84558000  0.29483300  0.00087500  1
  O  O30  1  0.65442000  0.29483300  0.50087500  1
  O  O31  1  0.15442000  0.70516700  0.99912500  1
  O  O32  1  0.27271400  0.94624200  0.56700500  1
  O  O33  1  0.77271400  0.05375800  0.93299500  1
  O  O34  1  0.72728600  0.05375800  0.43299500  1
  O  O35  1  0.22728600  0.94624200  0.06700500  1
  O  O36  1  0.00763200  0.81680500  0.40405700  1
  O  O37  1  0.50763200  0.18319500  0.09594300  1
  O  O38  1  0.99236800  0.18319500  0.59594300  1
  O  O39  1  0.49236800  0.81680500  0.90405700  1
  O  O40  1  0.08613500  0.04949100  0.31850600  1
  O  O41  1  0.58613500  0.95050900  0.18149400  1
  O  O42  1  0.91386500  0.95050900  0.68149400  1
  O  O43  1  0.41386500  0.04949100  0.81850600  1
