# generated using pymatgen
data_InSi4H39C14O
_symmetry_space_group_name_H-M   'P 1'
_cell_length_a   9.92723900
_cell_length_b   12.43092945
_cell_length_c   12.87599970
_cell_angle_alpha   76.05338718
_cell_angle_beta   69.63850547
_cell_angle_gamma   66.79786417
_symmetry_Int_Tables_number   1
_chemical_formula_structural   InSi4H39C14O
_chemical_formula_sum   'In2 Si8 H78 C28 O2'
_cell_volume   1359.19497860
_cell_formula_units_Z   2
loop_
 _symmetry_equiv_pos_site_id
 _symmetry_equiv_pos_as_xyz
  1  'x, y, z'
loop_
 _atom_site_type_symbol
 _atom_site_label
 _atom_site_symmetry_multiplicity
 _atom_site_fract_x
 _atom_site_fract_y
 _atom_site_fract_z
 _atom_site_occupancy
  In  In0  1  0.48489500  0.00764100  0.63890100  1
  In  In1  1  0.51510500  0.99235900  0.36109900  1
  Si  Si2  1  0.31682400  0.82604700  0.84257100  1
  Si  Si3  1  0.68317600  0.17395300  0.15742900  1
  Si  Si4  1  0.67758600  0.77294700  0.79462000  1
  Si  Si5  1  0.32241400  0.22705300  0.20538000  1
  Si  Si6  1  0.25480600  0.28783200  0.70724700  1
  Si  Si7  1  0.74519400  0.71216800  0.29275300  1
  Si  Si8  1  0.62083300  0.22763100  0.63003900  1
  Si  Si9  1  0.37916700  0.77236900  0.36996100  1
  H  H10  1  0.26264900  0.00468600  0.55431700  1
  H  H11  1  0.73735100  0.99531400  0.44568300  1
  H  H12  1  0.53106800  0.77745900  0.67586900  1
  H  H13  1  0.46893200  0.22254100  0.32413100  1
  H  H14  1  0.13416800  0.98986400  0.74405000  1
  H  H15  1  0.86583200  0.01013600  0.25595000  1
  H  H16  1  0.17102200  0.84854300  0.70901900  1
  H  H17  1  0.82897800  0.15145700  0.29098100  1
  H  H18  1  0.04689100  0.89225400  0.84042000  1
  H  H19  1  0.95310900  0.10774600  0.15958000  1
  H  H20  1  0.34172100  0.85001500  0.02180200  1
  H  H21  1  0.65827900  0.14998500  0.97819800  1
  H  H22  1  0.26553400  0.99069000  0.95006500  1
  H  H23  1  0.73446600  0.00931000  0.04993500  1
  H  H24  1  0.14786700  0.90333200  0.02195000  1
  H  H25  1  0.85213300  0.09666800  0.97805000  1
  H  H26  1  0.20434700  0.66797200  0.93207100  1
  H  H27  1  0.79565300  0.33202800  0.06792900  1
  H  H28  1  0.37143300  0.61584000  0.82166200  1
  H  H29  1  0.62856700  0.38416000  0.17833800  1
  H  H30  1  0.38698600  0.62420800  0.95239200  1
  H  H31  1  0.61301400  0.37579200  0.04760800  1
  H  H32  1  0.86013200  0.83924200  0.62059200  1
  H  H33  1  0.13986800  0.16075800  0.37940800  1
  H  H34  1  0.95687400  0.72831500  0.71153600  1
  H  H35  1  0.04312600  0.27168500  0.28846400  1
  H  H36  1  0.88009400  0.68989300  0.62551400  1
  H  H37  1  0.11990600  0.31010700  0.37448600  1
  H  H38  1  0.71012600  0.55803800  0.82079000  1
  H  H39  1  0.28987400  0.44196200  0.17921000  1
  H  H40  1  0.80808800  0.58643600  0.89777200  1
  H  H41  1  0.19191200  0.41356400  0.10222800  1
  H  H42  1  0.60792000  0.61805700  0.94915100  1
  H  H43  1  0.39208000  0.38194300  0.05084900  1
  H  H44  1  0.57549900  0.87045500  0.96971900  1
  H  H45  1  0.42450100  0.12954500  0.03028100  1
  H  H46  1  0.77749800  0.82832300  0.91746700  1
  H  H47  1  0.22250200  0.17167700  0.08253300  1
  H  H48  1  0.66021600  0.95863900  0.85601600  1
  H  H49  1  0.33978400  0.04136100  0.14398400  1
  H  H50  1  0.45526600  0.13985900  0.78238800  1
  H  H51  1  0.54473400  0.86014100  0.21761200  1
  H  H52  1  0.09565300  0.40915900  0.58119200  1
  H  H53  1  0.90434700  0.59084100  0.41880800  1
  H  H54  1  0.28803500  0.40192600  0.51570800  1
  H  H55  1  0.71196500  0.59807400  0.48429200  1
  H  H56  1  0.23311900  0.27969400  0.52167700  1
  H  H57  1  0.76688100  0.72030600  0.47832300  1
  H  H58  1  0.09495300  0.15647500  0.75838800  1
  H  H59  1  0.90504700  0.84352500  0.24161200  1
  H  H60  1  0.11665900  0.18439400  0.87971100  1
  H  H61  1  0.88334100  0.81560600  0.12028900  1
  H  H62  1  0.98929700  0.29499300  0.80882000  1
  H  H63  1  0.01070300  0.70500700  0.19118000  1
  H  H64  1  0.24509100  0.38640000  0.86073100  1
  H  H65  1  0.75490900  0.61360000  0.13926900  1
  H  H66  1  0.29315000  0.46972200  0.72901800  1
  H  H67  1  0.70685000  0.53027800  0.27098200  1
  H  H68  1  0.10218100  0.47318100  0.79219700  1
  H  H69  1  0.89781900  0.52681900  0.20780300  1
  H  H70  1  0.61484100  0.25351700  0.43160000  1
  H  H71  1  0.38515900  0.74648300  0.56840000  1
  H  H72  1  0.52991600  0.39092200  0.48587300  1
  H  H73  1  0.47008400  0.60907800  0.51412700  1
  H  H74  1  0.73201200  0.32431100  0.44472100  1
  H  H75  1  0.26798800  0.67568900  0.55527900  1
  H  H76  1  0.90227900  0.14078200  0.58571600  1
  H  H77  1  0.09772100  0.85921800  0.41428400  1
  H  H78  1  0.81897600  0.05696500  0.70485700  1
  H  H79  1  0.18102400  0.94303500  0.29514300  1
  H  H80  1  0.83267900  0.03653000  0.56926700  1
  H  H81  1  0.16732100  0.96347000  0.43073300  1
  H  H82  1  0.52821500  0.41750800  0.71367700  1
  H  H83  1  0.47178500  0.58249200  0.28632300  1
  H  H84  1  0.61224100  0.29491200  0.80246100  1
  H  H85  1  0.38775900  0.70508800  0.19753900  1
  H  H86  1  0.72993400  0.34996800  0.67984000  1
  H  H87  1  0.27006600  0.65003200  0.32016000  1
  C  C88  1  0.50411600  0.83349600  0.74056900  1
  C  C89  1  0.49588400  0.16650400  0.25943100  1
  C  C90  1  0.15345500  0.89648000  0.77683300  1
  C  C91  1  0.84654500  0.10352000  0.22316700  1
  C  C92  1  0.26364700  0.90010100  0.97018200  1
  C  C93  1  0.73635300  0.09989900  0.02981800  1
  C  C94  1  0.32148600  0.66891400  0.89160100  1
  C  C95  1  0.67851400  0.33108600  0.10839900  1
  C  C96  1  0.85982900  0.75714500  0.67647200  1
  C  C97  1  0.14017100  0.24285500  0.32352800  1
  C  C98  1  0.70195800  0.61997600  0.87288100  1
  C  C99  1  0.29804200  0.38002400  0.12711900  1
  C  C100  1  0.67058800  0.86730200  0.89311000  1
  C  C101  1  0.32941200  0.13269800  0.10689000  1
  C  C102  1  0.45271800  0.17379400  0.69484300  1
  C  C103  1  0.54728200  0.82620600  0.30515700  1
  C  C104  1  0.21540100  0.35010100  0.56791000  1
  C  C105  1  0.78459900  0.64989900  0.43209000  1
  C  C106  1  0.10115000  0.22378600  0.79662200  1
  C  C107  1  0.89885000  0.77621400  0.20337800  1
  C  C108  1  0.22251900  0.41565200  0.77881800  1
  C  C109  1  0.77748100  0.58434800  0.22118200  1
  C  C110  1  0.62428000  0.30613700  0.48455700  1
  C  C111  1  0.37572000  0.69386300  0.51544300  1
  C  C112  1  0.80996300  0.10305900  0.62184300  1
  C  C113  1  0.19003700  0.89694100  0.37815700  1
  C  C114  1  0.62131800  0.33247400  0.71477200  1
  C  C115  1  0.37868200  0.66752600  0.28522800  1
  O  O116  1  0.34772900  0.03430000  0.52535200  1
  O  O117  1  0.65227100  0.96570000  0.47464800  1
