# generated using pymatgen
data_Na3FeP8O23
_symmetry_space_group_name_H-M   'P 1'
_cell_length_a   12.13834800
_cell_length_b   12.13834800
_cell_length_c   12.13834800
_cell_angle_alpha   90.00000000
_cell_angle_beta   90.00000000
_cell_angle_gamma   90.00000000
_symmetry_Int_Tables_number   1
_chemical_formula_structural   Na3FeP8O23
_chemical_formula_sum   'Na12 Fe4 P32 O92'
_cell_volume   1788.45803009
_cell_formula_units_Z   4
loop_
 _symmetry_equiv_pos_site_id
 _symmetry_equiv_pos_as_xyz
  1  'x, y, z'
loop_
 _atom_site_type_symbol
 _atom_site_label
 _atom_site_symmetry_multiplicity
 _atom_site_fract_x
 _atom_site_fract_y
 _atom_site_fract_z
 _atom_site_occupancy
  Na  Na0  1  0.95660200  0.79339800  0.37500000  1
  Na  Na1  1  0.54339800  0.20660200  0.87500000  1
  Na  Na2  1  0.04339800  0.29339800  0.12500000  1
  Na  Na3  1  0.45660200  0.70660200  0.62500000  1
  Na  Na4  1  0.79339800  0.37500000  0.95660200  1
  Na  Na5  1  0.20660200  0.87500000  0.54339800  1
  Na  Na6  1  0.29339800  0.12500000  0.04339800  1
  Na  Na7  1  0.70660200  0.62500000  0.45660200  1
  Na  Na8  1  0.37500000  0.95660200  0.79339800  1
  Na  Na9  1  0.87500000  0.54339800  0.20660200  1
  Na  Na10  1  0.12500000  0.04339800  0.29339800  1
  Na  Na11  1  0.62500000  0.45660200  0.70660200  1
  Fe  Fe12  1  0.87500000  0.12500000  0.62500000  1
  Fe  Fe13  1  0.62500000  0.87500000  0.12500000  1
  Fe  Fe14  1  0.12500000  0.62500000  0.87500000  1
  Fe  Fe15  1  0.37500000  0.37500000  0.37500000  1
  P  P16  1  0.68119700  0.89600400  0.39095400  1
  P  P17  1  0.81880300  0.10399600  0.89095400  1
  P  P18  1  0.31880300  0.39600400  0.10904600  1
  P  P19  1  0.18119700  0.60399600  0.60904600  1
  P  P20  1  0.89600400  0.39095400  0.68119700  1
  P  P21  1  0.10399600  0.89095400  0.81880300  1
  P  P22  1  0.39600400  0.10904600  0.31880300  1
  P  P23  1  0.60399600  0.60904600  0.18119700  1
  P  P24  1  0.39095400  0.68119700  0.89600400  1
  P  P25  1  0.89095400  0.81880300  0.10399600  1
  P  P26  1  0.10904600  0.31880300  0.39600400  1
  P  P27  1  0.60904600  0.18119700  0.60399600  1
  P  P28  1  0.06880300  0.35904600  0.85399600  1
  P  P29  1  0.93119700  0.85904600  0.64600400  1
  P  P30  1  0.43119700  0.64095400  0.35399600  1
  P  P31  1  0.56880300  0.14095400  0.14600400  1
  P  P32  1  0.85399600  0.06880300  0.35904600  1
  P  P33  1  0.64600400  0.93119700  0.85904600  1
  P  P34  1  0.35399600  0.43119700  0.64095400  1
  P  P35  1  0.14600400  0.56880300  0.14095400  1
  P  P36  1  0.35904600  0.85399600  0.06880300  1
  P  P37  1  0.85904600  0.64600400  0.93119700  1
  P  P38  1  0.64095400  0.35399600  0.43119700  1
  P  P39  1  0.14095400  0.14600400  0.56880300  1
  P  P40  1  0.23209400  0.76790600  0.26790600  1
  P  P41  1  0.26790600  0.23209400  0.76790600  1
  P  P42  1  0.76790600  0.26790600  0.23209400  1
  P  P43  1  0.73209400  0.73209400  0.73209400  1
  P  P44  1  0.51790600  0.48209400  0.98209400  1
  P  P45  1  0.48209400  0.98209400  0.51790600  1
  P  P46  1  0.98209400  0.51790600  0.48209400  1
  P  P47  1  0.01790600  0.01790600  0.01790600  1
  O  O48  1  0.61370100  0.87085900  0.29031300  1
  O  O49  1  0.88629900  0.12914100  0.79031300  1
  O  O50  1  0.38629900  0.37085900  0.20968700  1
  O  O51  1  0.11370100  0.62914100  0.70968700  1
  O  O52  1  0.87085900  0.29031300  0.61370100  1
  O  O53  1  0.12914100  0.79031300  0.88629900  1
  O  O54  1  0.37085900  0.20968700  0.38629900  1
  O  O55  1  0.62914100  0.70968700  0.11370100  1
  O  O56  1  0.29031300  0.61370100  0.87085900  1
  O  O57  1  0.79031300  0.88629900  0.12914100  1
  O  O58  1  0.20968700  0.38629900  0.37085900  1
  O  O59  1  0.70968700  0.11370100  0.62914100  1
  O  O60  1  0.13629900  0.45968700  0.87914100  1
  O  O61  1  0.86370100  0.95968700  0.62085900  1
  O  O62  1  0.36370100  0.54031300  0.37914100  1
  O  O63  1  0.63629900  0.04031300  0.12085900  1
  O  O64  1  0.87914100  0.13629900  0.45968700  1
  O  O65  1  0.62085900  0.86370100  0.95968700  1
  O  O66  1  0.37914100  0.36370100  0.54031300  1
  O  O67  1  0.12085900  0.63629900  0.04031300  1
  O  O68  1  0.45968700  0.87914100  0.13629900  1
  O  O69  1  0.95968700  0.62085900  0.86370100  1
  O  O70  1  0.54031300  0.37914100  0.36370100  1
  O  O71  1  0.04031300  0.12085900  0.63629900  1
  O  O72  1  0.84543400  0.75861600  0.67418500  1
  O  O73  1  0.65456600  0.24138400  0.17418500  1
  O  O74  1  0.15456600  0.25861600  0.82581500  1
  O  O75  1  0.34543400  0.74138400  0.32581500  1
  O  O76  1  0.75861600  0.67418500  0.84543400  1
  O  O77  1  0.24138400  0.17418500  0.65456600  1
  O  O78  1  0.25861600  0.82581500  0.15456600  1
  O  O79  1  0.74138400  0.32581500  0.34543400  1
  O  O80  1  0.67418500  0.84543400  0.75861600  1
  O  O81  1  0.17418500  0.65456600  0.24138400  1
  O  O82  1  0.82581500  0.15456600  0.25861600  1
  O  O83  1  0.32581500  0.34543400  0.74138400  1
  O  O84  1  0.90456600  0.07581500  0.99138400  1
  O  O85  1  0.09543400  0.57581500  0.50861600  1
  O  O86  1  0.59543400  0.92418500  0.49138400  1
  O  O87  1  0.40456600  0.42418500  0.00861600  1
  O  O88  1  0.99138400  0.90456600  0.07581500  1
  O  O89  1  0.50861600  0.09543400  0.57581500  1
  O  O90  1  0.49138400  0.59543400  0.92418500  1
  O  O91  1  0.00861600  0.40456600  0.42418500  1
  O  O92  1  0.07581500  0.99138400  0.90456600  1
  O  O93  1  0.57581500  0.50861600  0.09543400  1
  O  O94  1  0.92418500  0.49138400  0.59543400  1
  O  O95  1  0.42418500  0.00861600  0.40456600  1
  O  O96  1  0.73338800  0.01661200  0.37500000  1
  O  O97  1  0.76661200  0.98338800  0.87500000  1
  O  O98  1  0.26661200  0.51661200  0.12500000  1
  O  O99  1  0.23338800  0.48338800  0.62500000  1
  O  O100  1  0.01661200  0.37500000  0.73338800  1
  O  O101  1  0.98338800  0.87500000  0.76661200  1
  O  O102  1  0.51661200  0.12500000  0.26661200  1
  O  O103  1  0.48338800  0.62500000  0.23338800  1
  O  O104  1  0.37500000  0.73338800  0.01661200  1
  O  O105  1  0.87500000  0.76661200  0.98338800  1
  O  O106  1  0.12500000  0.26661200  0.51661200  1
  O  O107  1  0.62500000  0.23338800  0.48338800  1
  O  O108  1  0.01185400  0.81800200  0.56358600  1
  O  O109  1  0.48814600  0.18199800  0.06358600  1
  O  O110  1  0.98814600  0.31800200  0.93641400  1
  O  O111  1  0.51185400  0.68199800  0.43641400  1
  O  O112  1  0.81800200  0.56358600  0.01185400  1
  O  O113  1  0.18199800  0.06358600  0.48814600  1
  O  O114  1  0.31800200  0.93641400  0.98814600  1
  O  O115  1  0.68199800  0.43641400  0.51185400  1
  O  O116  1  0.56358600  0.01185400  0.81800200  1
  O  O117  1  0.06358600  0.48814600  0.18199800  1
  O  O118  1  0.93641400  0.98814600  0.31800200  1
  O  O119  1  0.43641400  0.51185400  0.68199800  1
  O  O120  1  0.73814600  0.18641400  0.93199800  1
  O  O121  1  0.26185400  0.68641400  0.56800200  1
  O  O122  1  0.76185400  0.81358600  0.43199800  1
  O  O123  1  0.23814600  0.31358600  0.06800200  1
  O  O124  1  0.93199800  0.73814600  0.18641400  1
  O  O125  1  0.56800200  0.26185400  0.68641400  1
  O  O126  1  0.43199800  0.76185400  0.81358600  1
  O  O127  1  0.06800200  0.23814600  0.31358600  1
  O  O128  1  0.18641400  0.93199800  0.73814600  1
  O  O129  1  0.68641400  0.56800200  0.26185400  1
  O  O130  1  0.81358600  0.43199800  0.76185400  1
  O  O131  1  0.31358600  0.06800200  0.23814600  1
  O  O132  1  0.16161200  0.83838800  0.33838800  1
  O  O133  1  0.33838800  0.16161200  0.83838800  1
  O  O134  1  0.83838800  0.33838800  0.16161200  1
  O  O135  1  0.66161200  0.66161200  0.66161200  1
  O  O136  1  0.58838800  0.41161200  0.91161200  1
  O  O137  1  0.41161200  0.91161200  0.58838800  1
  O  O138  1  0.91161200  0.58838800  0.41161200  1
  O  O139  1  0.08838800  0.08838800  0.08838800  1
