# generated using pymatgen
data_Na4XeO12
_symmetry_space_group_name_H-M   'P 1'
_cell_length_a   7.15282400
_cell_length_b   11.61481700
_cell_length_c   14.47931000
_cell_angle_alpha   90.00000000
_cell_angle_beta   90.00000000
_cell_angle_gamma   90.00000000
_symmetry_Int_Tables_number   1
_chemical_formula_structural   Na4XeO12
_chemical_formula_sum   'Na16 Xe4 O48'
_cell_volume   1202.92285683
_cell_formula_units_Z   4
loop_
 _symmetry_equiv_pos_site_id
 _symmetry_equiv_pos_as_xyz
  1  'x, y, z'
loop_
 _atom_site_type_symbol
 _atom_site_label
 _atom_site_symmetry_multiplicity
 _atom_site_fract_x
 _atom_site_fract_y
 _atom_site_fract_z
 _atom_site_occupancy
  Na  Na0  1  0.87840000  0.81514500  0.47065600  1
  Na  Na1  1  0.12160000  0.68485500  0.97065600  1
  Na  Na2  1  0.62160000  0.31514500  0.52934400  1
  Na  Na3  1  0.37840000  0.18485500  0.02934400  1
  Na  Na4  1  0.12160000  0.18485500  0.52934400  1
  Na  Na5  1  0.87840000  0.31514500  0.02934400  1
  Na  Na6  1  0.37840000  0.68485500  0.47065600  1
  Na  Na7  1  0.62160000  0.81514500  0.97065600  1
  Na  Na8  1  0.94462300  0.89323500  0.78704000  1
  Na  Na9  1  0.05537700  0.60676500  0.28704000  1
  Na  Na10  1  0.55537700  0.39323500  0.21296000  1
  Na  Na11  1  0.44462300  0.10676500  0.71296000  1
  Na  Na12  1  0.05537700  0.10676500  0.21296000  1
  Na  Na13  1  0.94462300  0.39323500  0.71296000  1
  Na  Na14  1  0.44462300  0.60676500  0.78704000  1
  Na  Na15  1  0.55537700  0.89323500  0.28704000  1
  Xe  Xe16  1  0.50000000  0.00000000  0.50000000  1
  Xe  Xe17  1  0.50000000  0.50000000  0.00000000  1
  Xe  Xe18  1  0.00000000  0.50000000  0.50000000  1
  Xe  Xe19  1  0.00000000  0.00000000  0.00000000  1
  O  O20  1  0.77765100  0.01804400  0.68105200  1
  O  O21  1  0.22234900  0.48195600  0.18105200  1
  O  O22  1  0.72234900  0.51804400  0.31894800  1
  O  O23  1  0.27765100  0.98195600  0.81894800  1
  O  O24  1  0.22234900  0.98195600  0.31894800  1
  O  O25  1  0.77765100  0.51804400  0.81894800  1
  O  O26  1  0.27765100  0.48195600  0.68105200  1
  O  O27  1  0.72234900  0.01804400  0.18105200  1
  O  O28  1  0.25126600  0.79040000  0.61870100  1
  O  O29  1  0.74873400  0.70960000  0.11870100  1
  O  O30  1  0.24873400  0.29040000  0.38129900  1
  O  O31  1  0.75126600  0.20960000  0.88129900  1
  O  O32  1  0.74873400  0.20960000  0.38129900  1
  O  O33  1  0.25126600  0.29040000  0.88129900  1
  O  O34  1  0.75126600  0.70960000  0.61870100  1
  O  O35  1  0.24873400  0.79040000  0.11870100  1
  O  O36  1  0.56855700  0.83390300  0.44055400  1
  O  O37  1  0.43144300  0.66609700  0.94055400  1
  O  O38  1  0.93144300  0.33390300  0.55944600  1
  O  O39  1  0.06855700  0.16609700  0.05944600  1
  O  O40  1  0.43144300  0.16609700  0.55944600  1
  O  O41  1  0.56855700  0.33390300  0.05944600  1
  O  O42  1  0.06855700  0.66609700  0.44055400  1
  O  O43  1  0.93144300  0.83390300  0.94055400  1
  O  O44  1  0.66308200  0.74795800  0.68714100  1
  O  O45  1  0.33691800  0.75204200  0.18714100  1
  O  O46  1  0.83691800  0.24795800  0.31285900  1
  O  O47  1  0.16308200  0.25204200  0.81285900  1
  O  O48  1  0.33691800  0.25204200  0.31285900  1
  O  O49  1  0.66308200  0.24795800  0.81285900  1
  O  O50  1  0.16308200  0.75204200  0.68714100  1
  O  O51  1  0.83691800  0.74795800  0.18714100  1
  O  O52  1  0.42265900  0.90965500  0.83705700  1
  O  O53  1  0.57734100  0.59034500  0.33705700  1
  O  O54  1  0.07734100  0.40965500  0.16294300  1
  O  O55  1  0.92265900  0.09034500  0.66294300  1
  O  O56  1  0.57734100  0.09034500  0.16294300  1
  O  O57  1  0.42265900  0.40965500  0.66294300  1
  O  O58  1  0.92265900  0.59034500  0.83705700  1
  O  O59  1  0.07734100  0.90965500  0.33705700  1
  O  O60  1  0.58884200  0.46567100  0.65015200  1
  O  O61  1  0.41115800  0.03432900  0.15015200  1
  O  O62  1  0.91115800  0.96567100  0.34984800  1
  O  O63  1  0.08884200  0.53432900  0.84984800  1
  O  O64  1  0.41115800  0.53432900  0.34984800  1
  O  O65  1  0.58884200  0.96567100  0.84984800  1
  O  O66  1  0.08884200  0.03432900  0.65015200  1
  O  O67  1  0.91115800  0.46567100  0.15015200  1
