# generated using pymatgen
data_ZnS
_symmetry_space_group_name_H-M   'P 1'
_cell_length_a   3.87392555
_cell_length_b   3.87392555
_cell_length_c   56.38981906
_cell_angle_alpha   88.03153097
_cell_angle_beta   88.03153097
_cell_angle_gamma   59.99999813
_symmetry_Int_Tables_number   1
_chemical_formula_structural   ZnS
_chemical_formula_sum   'Zn18 S18'
_cell_volume   732.30497224
_cell_formula_units_Z   18
loop_
 _symmetry_equiv_pos_site_id
 _symmetry_equiv_pos_as_xyz
  1  'x, y, z'
loop_
 _atom_site_type_symbol
 _atom_site_label
 _atom_site_symmetry_multiplicity
 _atom_site_fract_x
 _atom_site_fract_y
 _atom_site_fract_z
 _atom_site_occupancy
  Zn  Zn0  1  0.99999608  0.99999608  0.00001176  1
  Zn  Zn1  1  0.94443659  0.94443659  0.16669023  1
  Zn  Zn2  1  0.87037138  0.87037138  0.38888585  1
  Zn  Zn3  1  0.81480922  0.81480922  0.55557234  1
  Zn  Zn4  1  0.75925739  0.75925739  0.72222783  1
  Zn  Zn5  1  0.72221202  0.72221202  0.83336395  1
  Zn  Zn6  1  0.64815120  0.64815120  0.05554641  1
  Zn  Zn7  1  0.59258597  0.59258597  0.22224208  1
  Zn  Zn8  1  0.55555330  0.55555330  0.33334011  1
  Zn  Zn9  1  0.49999848  0.49999848  0.50000457  1
  Zn  Zn10  1  0.46295263  0.46295263  0.61114210  1
  Zn  Zn11  1  0.40740595  0.40740595  0.77778215  1
  Zn  Zn12  1  0.35185234  0.35185234  0.94444299  1
  Zn  Zn13  1  0.29629729  0.29629729  0.11110814  1
  Zn  Zn14  1  0.24073850  0.24073850  0.27778451  1
  Zn  Zn15  1  0.18518505  0.18518505  0.44444485  1
  Zn  Zn16  1  0.11110703  0.11110703  0.66667891  1
  Zn  Zn17  1  0.03703857  0.03703857  0.88888428  1
  S  S18  1  0.98611742  0.98611742  0.04164774  1
  S  S19  1  0.93056691  0.93056691  0.20829927  1
  S  S20  1  0.85649293  0.85649293  0.43052122  1
  S  S21  1  0.80091955  0.80091955  0.59724135  1
  S  S22  1  0.74540016  0.74540016  0.76379951  1
  S  S23  1  0.70834522  0.70834522  0.87496433  1
  S  S24  1  0.63427073  0.63427073  0.09718782  1
  S  S25  1  0.57872979  0.57872979  0.26381062  1
  S  S26  1  0.54167702  0.54167702  0.37496895  1
  S  S27  1  0.48613931  0.48613931  0.54158208  1
  S  S28  1  0.44908108  0.44908108  0.65275675  1
  S  S29  1  0.39351897  0.39351897  0.81944310  1
  S  S30  1  0.33795840  0.33795840  0.98612480  1
  S  S31  1  0.28242142  0.28242142  0.15273574  1
  S  S32  1  0.22684808  0.22684808  0.31945577  1
  S  S33  1  0.17131456  0.17131456  0.48605631  1
  S  S34  1  0.09723396  0.09723396  0.70829812  1
  S  S35  1  0.02317552  0.02317552  0.93047345  1
