# generated using pymatgen
data_BH10C2N
_symmetry_space_group_name_H-M   'P 1'
_cell_length_a   7.73948700
_cell_length_b   6.26791200
_cell_length_c   13.33278730
_cell_angle_alpha   90.00000000
_cell_angle_beta   103.42772880
_cell_angle_gamma   90.00000000
_symmetry_Int_Tables_number   1
_chemical_formula_structural   BH10C2N
_chemical_formula_sum   'B4 H40 C8 N4'
_cell_volume   629.09854899
_cell_formula_units_Z   4
loop_
 _symmetry_equiv_pos_site_id
 _symmetry_equiv_pos_as_xyz
  1  'x, y, z'
loop_
 _atom_site_type_symbol
 _atom_site_label
 _atom_site_symmetry_multiplicity
 _atom_site_fract_x
 _atom_site_fract_y
 _atom_site_fract_z
 _atom_site_occupancy
  B  B0  1  0.20085900  0.04095200  0.33747800  1
  B  B1  1  0.79914100  0.54095200  0.16252200  1
  B  B2  1  0.79914100  0.95904800  0.66252200  1
  B  B3  1  0.20085900  0.45904800  0.83747800  1
  H  H4  1  0.37279600  0.74035400  0.24473700  1
  H  H5  1  0.62720400  0.24035400  0.25526300  1
  H  H6  1  0.62720400  0.25964600  0.75526300  1
  H  H7  1  0.37279600  0.75964600  0.74473700  1
  H  H8  1  0.48976200  0.75693100  0.37668700  1
  H  H9  1  0.51023800  0.25693100  0.12331300  1
  H  H10  1  0.51023800  0.24306900  0.62331300  1
  H  H11  1  0.48976200  0.74306900  0.87668700  1
  H  H12  1  0.36933400  0.51828100  0.32932000  1
  H  H13  1  0.63066600  0.01828100  0.17068000  1
  H  H14  1  0.63066600  0.48171900  0.67068000  1
  H  H15  1  0.36933400  0.98171900  0.82932000  1
  H  H16  1  0.20154800  0.53906500  0.45941000  1
  H  H17  1  0.79845200  0.03906500  0.04059000  1
  H  H18  1  0.79845200  0.46093500  0.54059000  1
  H  H19  1  0.20154800  0.96093500  0.95941000  1
  H  H20  1  0.07736000  0.77575700  0.47202900  1
  H  H21  1  0.92264000  0.27575700  0.02797100  1
  H  H22  1  0.92264000  0.22424300  0.52797100  1
  H  H23  1  0.07736000  0.72424300  0.97202900  1
  H  H24  1  0.31427200  0.77903800  0.51180500  1
  H  H25  1  0.68572800  0.27903800  0.98819500  1
  H  H26  1  0.68572800  0.22096200  0.48819500  1
  H  H27  1  0.31427200  0.72096200  0.01180500  1
  H  H28  1  0.10238800  0.72433100  0.29950700  1
  H  H29  1  0.89761200  0.22433100  0.20049300  1
  H  H30  1  0.89761200  0.27566900  0.70049300  1
  H  H31  1  0.10238800  0.77566900  0.79950700  1
  H  H32  1  0.06287300  0.09811100  0.35924200  1
  H  H33  1  0.93712700  0.59811100  0.14075800  1
  H  H34  1  0.93712700  0.90188900  0.64075800  1
  H  H35  1  0.06287300  0.40188900  0.85924200  1
  H  H36  1  0.33062800  0.11734500  0.39664900  1
  H  H37  1  0.66937200  0.61734500  0.10335100  1
  H  H38  1  0.66937200  0.88265500  0.60335100  1
  H  H39  1  0.33062800  0.38265500  0.89664900  1
  H  H40  1  0.20185300  0.07825600  0.24758300  1
  H  H41  1  0.79814700  0.57825600  0.25241700  1
  H  H42  1  0.79814700  0.92174400  0.75241700  1
  H  H43  1  0.20185300  0.42174400  0.74758300  1
  C  C44  1  0.37136700  0.69282900  0.32363000  1
  C  C45  1  0.62863300  0.19282900  0.17637000  1
  C  C46  1  0.62863300  0.30717100  0.67637000  1
  C  C47  1  0.37136700  0.80717100  0.82363000  1
  C  C48  1  0.20002200  0.71394000  0.45551100  1
  C  C49  1  0.79997800  0.21394000  0.04448900  1
  C  C50  1  0.79997800  0.28606000  0.54448900  1
  C  C51  1  0.20002200  0.78606000  0.95551100  1
  N  N52  1  0.21135600  0.78522500  0.35079400  1
  N  N53  1  0.78864400  0.28522500  0.14920600  1
  N  N54  1  0.78864400  0.21477500  0.64920600  1
  N  N55  1  0.21135600  0.71477500  0.85079400  1
