# generated using pymatgen
data_MnB4H24(C2N)2
_symmetry_space_group_name_H-M   'P 1'
_cell_length_a   12.73099260
_cell_length_b   12.73099260
_cell_length_c   12.73099260
_cell_angle_alpha   125.72304003
_cell_angle_beta   125.72304003
_cell_angle_gamma   80.34382090
_symmetry_Int_Tables_number   1
_chemical_formula_structural   MnB4H24(C2N)2
_chemical_formula_sum   'Mn4 B16 H96 C16 N8'
_cell_volume   1312.21630346
_cell_formula_units_Z   4
loop_
 _symmetry_equiv_pos_site_id
 _symmetry_equiv_pos_as_xyz
  1  'x, y, z'
loop_
 _atom_site_type_symbol
 _atom_site_label
 _atom_site_symmetry_multiplicity
 _atom_site_fract_x
 _atom_site_fract_y
 _atom_site_fract_z
 _atom_site_occupancy
  Mn  Mn0  1  0.87500000  0.94750000  0.57250000  1
  Mn  Mn1  1  0.37500000  0.30250000  0.42750000  1
  Mn  Mn2  1  0.69750000  0.12500000  0.07250000  1
  Mn  Mn3  1  0.05250000  0.62500000  0.92750000  1
  B  B4  1  0.94530200  0.19090500  0.75446200  1
  B  B5  1  0.80469800  0.05916000  0.74560300  1
  B  B6  1  0.43644200  0.19084000  0.24553700  1
  B  B7  1  0.31355800  0.05909500  0.25439700  1
  B  B8  1  0.80916000  0.05469800  0.24560300  1
  B  B9  1  0.94084000  0.68644200  0.74553800  1
  B  B10  1  0.80909500  0.56355800  0.75439700  1
  B  B11  1  0.94090500  0.19530200  0.25446200  1
  B  B12  1  0.00216900  0.81547600  0.48162800  1
  B  B13  1  0.74783100  0.72946000  0.31330800  1
  B  B14  1  0.33384800  0.52054000  0.51837200  1
  B  B15  1  0.41615200  0.43452400  0.68669200  1
  B  B16  1  0.47946000  0.99783100  0.81330800  1
  B  B17  1  0.27054000  0.58384800  0.01837200  1
  B  B18  1  0.18452400  0.66615200  0.18669200  1
  B  B19  1  0.56547600  0.25216900  0.98162800  1
  H  H20  1  0.03223700  0.12990300  0.78599200  1
  H  H21  1  0.71776300  0.00375500  0.59766600  1
  H  H22  1  0.34391100  0.24624500  0.21400800  1
  H  H23  1  0.40608900  0.12009700  0.40233400  1
  H  H24  1  0.75375500  0.96776300  0.09766600  1
  H  H25  1  0.99624500  0.59391100  0.71400800  1
  H  H26  1  0.87009700  0.65608900  0.90233400  1
  H  H27  1  0.87990300  0.28223700  0.28599200  1
  H  H28  1  0.85710100  0.12463600  0.60358600  1
  H  H29  1  0.89289900  0.99648500  0.76753500  1
  H  H30  1  0.52105000  0.25351500  0.39641400  1
  H  H31  1  0.22895000  0.12536400  0.23246500  1
  H  H32  1  0.74648500  0.14289900  0.26753500  1
  H  H33  1  0.00351500  0.77105000  0.89641400  1
  H  H34  1  0.87536400  0.47895000  0.73246500  1
  H  H35  1  0.87463600  0.10710100  0.10358600  1
  H  H36  1  0.99627700  0.29830700  0.80634300  1
  H  H37  1  0.75372300  0.06006600  0.80203000  1
  H  H38  1  0.49196400  0.18993400  0.19365700  1
  H  H39  1  0.25803600  0.95169300  0.19797000  1
  H  H40  1  0.81006600  0.00372300  0.30203000  1
  H  H41  1  0.93993400  0.74196400  0.69365700  1
  H  H42  1  0.70169300  0.50803600  0.69797000  1
  H  H43  1  0.04830700  0.24627700  0.30634300  1
  H  H44  1  0.01247200  0.83527200  0.59638600  1
  H  H45  1  0.73752800  0.83391400  0.32280000  1
  H  H46  1  0.23888600  0.41608600  0.40361400  1
  H  H47  1  0.51111400  0.41472800  0.67720000  1
  H  H48  1  0.58391400  0.98752800  0.82280000  1
  H  H49  1  0.16608600  0.48888600  0.90361400  1
  H  H50  1  0.16472800  0.76111400  0.17720000  1
  H  H51  1  0.58527200  0.26247200  0.09638600  1
  H  H52  1  0.98210200  0.91556400  0.48336300  1
  H  H53  1  0.76789800  0.75126100  0.43346200  1
  H  H54  1  0.43220100  0.49873900  0.51663700  1
  H  H55  1  0.31779900  0.33443600  0.56653800  1
  H  H56  1  0.50126100  0.01789800  0.93346200  1
  H  H57  1  0.24873900  0.68220100  0.01663700  1
  H  H58  1  0.08443600  0.56779900  0.06653800  1
  H  H59  1  0.66556400  0.23210200  0.98336300  1
  H  H60  1  0.10499700  0.79479500  0.49722400  1
  H  H61  1  0.64500300  0.64222800  0.18979800  1
  H  H62  1  0.29757100  0.60777200  0.50277600  1
  H  H63  1  0.45242900  0.45520500  0.81020200  1
  H  H64  1  0.39222800  0.89500300  0.68979800  1
  H  H65  1  0.35777200  0.54757100  0.00277600  1
  H  H66  1  0.20520500  0.70242900  0.31020200  1
  H  H67  1  0.54479500  0.35499700  0.99722400  1
  H  H68  1  0.82186800  0.38211300  0.85618300  1
  H  H69  1  0.92813200  0.28431500  0.06024500  1
  H  H70  1  0.52593000  0.96568500  0.14381700  1
  H  H71  1  0.22407000  0.86788700  0.93975500  1
  H  H72  1  0.03431500  0.17813200  0.56024500  1
  H  H73  1  0.71568500  0.77593000  0.64381700  1
  H  H74  1  0.61788700  0.47407000  0.43975500  1
  H  H75  1  0.13211300  0.07186800  0.35618300  1
  H  H76  1  0.69573100  0.22936800  0.67121100  1
  H  H77  1  0.05426900  0.22548000  0.03363700  1
  H  H78  1  0.55815700  0.02452000  0.32878900  1
  H  H79  1  0.19184300  0.02063200  0.96636300  1
  H  H80  1  0.97548000  0.30426900  0.53363700  1
  H  H81  1  0.77452000  0.80815700  0.82878900  1
  H  H82  1  0.77063200  0.44184300  0.46636300  1
  H  H83  1  0.97936800  0.94573100  0.17121100  1
  H  H84  1  0.72717100  0.29294800  0.85730300  1
  H  H85  1  0.02282900  0.38013200  0.06577700  1
  H  H86  1  0.43564500  0.86986800  0.14269700  1
  H  H87  1  0.31435500  0.95705200  0.93422300  1
  H  H88  1  0.13013200  0.27282900  0.56577700  1
  H  H89  1  0.61986800  0.68564500  0.64269700  1
  H  H90  1  0.70705200  0.56435500  0.43422300  1
  H  H91  1  0.04294800  0.97717100  0.35730300  1
  H  H92  1  0.93978800  0.64048000  0.17546800  1
  H  H93  1  0.81021200  0.48568000  0.20069200  1
  H  H94  1  0.46501100  0.76432000  0.82453200  1
  H  H95  1  0.28498900  0.60952000  0.79930800  1
  H  H96  1  0.23568000  0.06021200  0.70069200  1
  H  H97  1  0.51432000  0.71501100  0.32453200  1
  H  H98  1  0.35952000  0.53498900  0.29930800  1
  H  H99  1  0.39048000  0.18978800  0.67546800  1
  H  H100  1  0.76214200  0.58049300  0.06208900  1
  H  H101  1  0.98785800  0.54994700  0.31835200  1
  H  H102  1  0.51840400  0.70005300  0.93791100  1
  H  H103  1  0.23159600  0.66950700  0.68164800  1
  H  H104  1  0.29994700  0.23785800  0.81835200  1
  H  H105  1  0.45005300  0.76840400  0.43791100  1
  H  H106  1  0.41950700  0.48159600  0.18164800  1
  H  H107  1  0.33049300  0.01214200  0.56208900  1
  H  H108  1  0.83502200  0.75340000  0.17740300  1
  H  H109  1  0.91497800  0.59238100  0.41837800  1
  H  H110  1  0.57599700  0.65761900  0.82259700  1
  H  H111  1  0.17400300  0.49660000  0.58162200  1
  H  H112  1  0.34238100  0.16497800  0.91837800  1
  H  H113  1  0.40761900  0.82599700  0.32259700  1
  H  H114  1  0.24660000  0.42400300  0.08162200  1
  H  H115  1  0.50340000  0.08502200  0.67740300  1
  C  C116  1  0.77346100  0.28260900  0.80217300  1
  C  C117  1  0.97653900  0.27871100  0.00914800  1
  C  C118  1  0.48043600  0.97128900  0.19782700  1
  C  C119  1  0.26956400  0.96739100  0.99085200  1
  C  C120  1  0.02871100  0.22653900  0.50914800  1
  C  C121  1  0.72128900  0.73043600  0.69782700  1
  C  C122  1  0.71739100  0.51956400  0.49085200  1
  C  C123  1  0.03260900  0.02346100  0.30217300  1
  C  C124  1  0.85209900  0.66462100  0.17377200  1
  C  C125  1  0.89790100  0.57167300  0.31252200  1
  C  C126  1  0.49084900  0.67832700  0.82622800  1
  C  C127  1  0.25915100  0.58537900  0.68747800  1
  C  C128  1  0.32167300  0.14790100  0.81252200  1
  C  C129  1  0.42832700  0.74084900  0.32622800  1
  C  C130  1  0.33537900  0.50915100  0.18747800  1
  C  C131  1  0.41462100  0.10209900  0.67377200  1
  N  N132  1  0.87500000  0.20527100  0.83027100  1
  N  N133  1  0.37500000  0.04472900  0.16972900  1
  N  N134  1  0.95527100  0.12500000  0.33027100  1
  N  N135  1  0.79472900  0.62500000  0.66972900  1
  N  N136  1  0.87500000  0.69253100  0.31753100  1
  N  N137  1  0.37500000  0.55746900  0.68246900  1
  N  N138  1  0.44253100  0.12500000  0.81753100  1
  N  N139  1  0.30746900  0.62500000  0.18246900  1
