# generated using pymatgen
data_MnV2O8
_symmetry_space_group_name_H-M   'P 1'
_cell_length_a   5.60573900
_cell_length_b   10.68341700
_cell_length_c   11.90928300
_cell_angle_alpha   90.00000000
_cell_angle_beta   90.00000000
_cell_angle_gamma   90.00000000
_symmetry_Int_Tables_number   1
_chemical_formula_structural   MnV2O8
_chemical_formula_sum   'Mn4 V8 O32'
_cell_volume   713.22846769
_cell_formula_units_Z   4
loop_
 _symmetry_equiv_pos_site_id
 _symmetry_equiv_pos_as_xyz
  1  'x, y, z'
loop_
 _atom_site_type_symbol
 _atom_site_label
 _atom_site_symmetry_multiplicity
 _atom_site_fract_x
 _atom_site_fract_y
 _atom_site_fract_z
 _atom_site_occupancy
  Mn  Mn0  1  0.47761700  0.25000000  0.03913600  1
  Mn  Mn1  1  0.97761700  0.25000000  0.46086400  1
  Mn  Mn2  1  0.52238300  0.75000000  0.96086400  1
  Mn  Mn3  1  0.02238300  0.75000000  0.53913600  1
  V  V4  1  0.69345100  0.47113200  0.83049600  1
  V  V5  1  0.19345100  0.02886800  0.66950400  1
  V  V6  1  0.30654900  0.97113200  0.16950400  1
  V  V7  1  0.80654900  0.52886800  0.33049600  1
  V  V8  1  0.30654900  0.52886800  0.16950400  1
  V  V9  1  0.80654900  0.97113200  0.33049600  1
  V  V10  1  0.69345100  0.02886800  0.83049600  1
  V  V11  1  0.19345100  0.47113200  0.66950400  1
  O  O12  1  0.66076100  0.62482800  0.86399500  1
  O  O13  1  0.16076100  0.87517200  0.63600500  1
  O  O14  1  0.33923900  0.12482800  0.13600500  1
  O  O15  1  0.83923900  0.37517200  0.36399500  1
  O  O16  1  0.33923900  0.37517200  0.13600500  1
  O  O17  1  0.83923900  0.12482800  0.36399500  1
  O  O18  1  0.66076100  0.87517200  0.86399500  1
  O  O19  1  0.16076100  0.62482800  0.63600500  1
  O  O20  1  0.62307300  0.37985900  0.94057000  1
  O  O21  1  0.12307300  0.12014100  0.55943000  1
  O  O22  1  0.37692700  0.87985900  0.05943000  1
  O  O23  1  0.87692700  0.62014100  0.44057000  1
  O  O24  1  0.37692700  0.62014100  0.05943000  1
  O  O25  1  0.87692700  0.87985900  0.44057000  1
  O  O26  1  0.62307300  0.12014100  0.94057000  1
  O  O27  1  0.12307300  0.37985900  0.55943000  1
  O  O28  1  0.49356200  0.43763200  0.71747300  1
  O  O29  1  0.99356200  0.06236800  0.78252700  1
  O  O30  1  0.50643800  0.93763200  0.28252700  1
  O  O31  1  0.00643800  0.56236800  0.21747300  1
  O  O32  1  0.50643800  0.56236800  0.28252700  1
  O  O33  1  0.00643800  0.93763200  0.21747300  1
  O  O34  1  0.49356200  0.06236800  0.71747300  1
  O  O35  1  0.99356200  0.43763200  0.78252700  1
  O  O36  1  0.23232700  0.25000000  0.95577800  1
  O  O37  1  0.73232700  0.25000000  0.54422200  1
  O  O38  1  0.76767300  0.75000000  0.04422200  1
  O  O39  1  0.26767300  0.75000000  0.45577800  1
  O  O40  1  0.73716600  0.25000000  0.11436000  1
  O  O41  1  0.23716600  0.25000000  0.38564000  1
  O  O42  1  0.26283400  0.75000000  0.88564000  1
  O  O43  1  0.76283400  0.75000000  0.61436000  1
