# generated using pymatgen
data_SmB7ClO18
_symmetry_space_group_name_H-M   'P 1'
_cell_length_a   8.31945700
_cell_length_b   16.74330600
_cell_length_c   12.93679810
_cell_angle_alpha   90.00000000
_cell_angle_beta   129.91990628
_cell_angle_gamma   90.00000000
_symmetry_Int_Tables_number   1
_chemical_formula_structural   SmB7ClO18
_chemical_formula_sum   'Sm4 B28 Cl4 O72'
_cell_volume   1382.05605350
_cell_formula_units_Z   4
loop_
 _symmetry_equiv_pos_site_id
 _symmetry_equiv_pos_as_xyz
  1  'x, y, z'
loop_
 _atom_site_type_symbol
 _atom_site_label
 _atom_site_symmetry_multiplicity
 _atom_site_fract_x
 _atom_site_fract_y
 _atom_site_fract_z
 _atom_site_occupancy
  Sm  Sm0  1  0.02286500  0.70719800  0.28105700  1
  Sm  Sm1  1  0.02286500  0.79280200  0.78105700  1
  Sm  Sm2  1  0.97713500  0.29280200  0.71894300  1
  Sm  Sm3  1  0.97713500  0.20719800  0.21894300  1
  B  B4  1  0.49904400  0.69843400  0.66055600  1
  B  B5  1  0.49904400  0.80156600  0.16055600  1
  B  B6  1  0.50095600  0.30156600  0.33944400  1
  B  B7  1  0.50095600  0.19843400  0.83944400  1
  B  B8  1  0.39682000  0.71056800  0.27985100  1
  B  B9  1  0.39682000  0.78943200  0.77985100  1
  B  B10  1  0.60318000  0.28943200  0.72014900  1
  B  B11  1  0.60318000  0.21056800  0.22014900  1
  B  B12  1  0.76263600  0.71447300  0.92014500  1
  B  B13  1  0.76263600  0.78552700  0.42014500  1
  B  B14  1  0.23736400  0.28552700  0.07985500  1
  B  B15  1  0.23736400  0.21447300  0.57985500  1
  B  B16  1  0.59658100  0.75818000  0.02108000  1
  B  B17  1  0.59658100  0.74182000  0.52108000  1
  B  B18  1  0.40341900  0.24182000  0.97892000  1
  B  B19  1  0.40341900  0.25818000  0.47892000  1
  B  B20  1  0.12570500  0.73562600  0.55159000  1
  B  B21  1  0.12570500  0.76437400  0.05159000  1
  B  B22  1  0.87429500  0.26437400  0.44841000  1
  B  B23  1  0.87429500  0.23562600  0.94841000  1
  B  B24  1  0.28702800  0.56611300  0.23108200  1
  B  B25  1  0.28702800  0.93388700  0.73108200  1
  B  B26  1  0.71297200  0.43388700  0.76891800  1
  B  B27  1  0.71297200  0.06611300  0.26891800  1
  B  B28  1  0.69298300  0.58431700  0.81016100  1
  B  B29  1  0.69298300  0.91568300  0.31016100  1
  B  B30  1  0.30701700  0.41568300  0.18983900  1
  B  B31  1  0.30701700  0.08431700  0.68983900  1
  Cl  Cl32  1  0.16974800  0.91990900  0.31041800  1
  Cl  Cl33  1  0.16974800  0.58009100  0.81041800  1
  Cl  Cl34  1  0.83025200  0.08009100  0.68958200  1
  Cl  Cl35  1  0.83025200  0.41990900  0.18958200  1
  O  O36  1  0.76606400  0.73336200  0.03337000  1
  O  O37  1  0.76606400  0.76663800  0.53337000  1
  O  O38  1  0.23393600  0.26663800  0.96663000  1
  O  O39  1  0.23393600  0.23336200  0.46663000  1
  O  O40  1  0.27420900  0.71044600  0.54301600  1
  O  O41  1  0.27420900  0.78955400  0.04301600  1
  O  O42  1  0.72579100  0.28955400  0.45698400  1
  O  O43  1  0.72579100  0.21044600  0.95698400  1
  O  O44  1  0.41413100  0.71843500  0.39991900  1
  O  O45  1  0.41413100  0.78156500  0.89991900  1
  O  O46  1  0.58586900  0.28156500  0.60008100  1
  O  O47  1  0.58586900  0.21843500  0.10008100  1
  O  O48  1  0.18074800  0.73760700  0.17056900  1
  O  O49  1  0.18074800  0.76239300  0.67056900  1
  O  O50  1  0.81925200  0.26239300  0.82943100  1
  O  O51  1  0.81925200  0.23760700  0.32943100  1
  O  O52  1  0.54717700  0.61526000  0.68353100  1
  O  O53  1  0.54717700  0.88474000  0.18353100  1
  O  O54  1  0.45282300  0.38474000  0.31646900  1
  O  O55  1  0.45282300  0.11526000  0.81646900  1
  O  O56  1  0.92368600  0.73558900  0.43204200  1
  O  O57  1  0.92368600  0.76441100  0.93204200  1
  O  O58  1  0.07631400  0.26441100  0.56795800  1
  O  O59  1  0.07631400  0.23558900  0.06795800  1
  O  O60  1  0.54926200  0.73751400  0.78723500  1
  O  O61  1  0.54926200  0.76248600  0.28723500  1
  O  O62  1  0.45073800  0.26248600  0.21276500  1
  O  O63  1  0.45073800  0.23751400  0.71276500  1
  O  O64  1  0.63211700  0.75871300  0.13976800  1
  O  O65  1  0.63211700  0.74128700  0.63976800  1
  O  O66  1  0.36788300  0.24128700  0.86023200  1
  O  O67  1  0.36788300  0.25871300  0.36023200  1
  O  O68  1  0.16251900  0.58920600  0.26230300  1
  O  O69  1  0.16251900  0.91079400  0.76230300  1
  O  O70  1  0.83748100  0.41079400  0.73769700  1
  O  O71  1  0.83748100  0.08920600  0.23769700  1
  O  O72  1  0.42330700  0.62668500  0.26065900  1
  O  O73  1  0.42330700  0.87331500  0.76065900  1
  O  O74  1  0.57669300  0.37331500  0.73934100  1
  O  O75  1  0.57669300  0.12668500  0.23934100  1
  O  O76  1  0.08567500  0.55402200  0.40523800  1
  O  O77  1  0.08567500  0.94597800  0.90523800  1
  O  O78  1  0.91432500  0.44597800  0.59476200  1
  O  O79  1  0.91432500  0.05402200  0.09476200  1
  O  O80  1  0.05944700  0.85081700  0.31428800  1
  O  O81  1  0.05944700  0.64918300  0.81428800  1
  O  O82  1  0.94055300  0.14918300  0.68571200  1
  O  O83  1  0.94055300  0.35081700  0.18571200  1
  O  O84  1  0.79758000  0.59769600  0.22722100  1
  O  O85  1  0.79758000  0.90230400  0.72722100  1
  O  O86  1  0.20242000  0.40230400  0.77277900  1
  O  O87  1  0.20242000  0.09769600  0.27277900  1
  O  O88  1  0.14275100  0.98772900  0.36850300  1
  O  O89  1  0.14275100  0.51227100  0.86850300  1
  O  O90  1  0.85724900  0.01227100  0.63149700  1
  O  O91  1  0.85724900  0.48772900  0.13149700  1
  O  O92  1  0.38732700  0.90058100  0.38568200  1
  O  O93  1  0.38732700  0.59941900  0.88568200  1
  O  O94  1  0.61267300  0.09941900  0.61431800  1
  O  O95  1  0.61267300  0.40058100  0.11431800  1
  O  O96  1  0.06655900  0.93462400  0.16759700  1
  O  O97  1  0.06655900  0.56537600  0.66759700  1
  O  O98  1  0.93344100  0.06537600  0.83240300  1
  O  O99  1  0.93344100  0.43462400  0.33240300  1
  O  O100  1  0.80329800  0.63144500  0.92264700  1
  O  O101  1  0.80329800  0.86855500  0.42264700  1
  O  O102  1  0.19670200  0.36855500  0.07735300  1
  O  O103  1  0.19670200  0.13144500  0.57735300  1
  O  O104  1  0.27199800  0.49701800  0.17348400  1
  O  O105  1  0.27199800  0.00298200  0.67348400  1
  O  O106  1  0.72800200  0.50298200  0.82651600  1
  O  O107  1  0.72800200  0.99701800  0.32651600  1
