# generated using pymatgen
data_CuP2H18C6Cl
_symmetry_space_group_name_H-M   'P 1'
_cell_length_a   14.08364009
_cell_length_b   14.08364009
_cell_length_c   14.08364009
_cell_angle_alpha   90.00000000
_cell_angle_beta   90.00000000
_cell_angle_gamma   90.00000000
_symmetry_Int_Tables_number   1
_chemical_formula_structural   CuP2H18C6Cl
_chemical_formula_sum   'Cu8 P16 H144 C48 Cl8'
_cell_volume   2793.47477595
_cell_formula_units_Z   8
loop_
 _symmetry_equiv_pos_site_id
 _symmetry_equiv_pos_as_xyz
  1  'x, y, z'
loop_
 _atom_site_type_symbol
 _atom_site_label
 _atom_site_symmetry_multiplicity
 _atom_site_fract_x
 _atom_site_fract_y
 _atom_site_fract_z
 _atom_site_occupancy
  Cu  Cu0  1  0.95637967  0.45637967  0.04362033  1
  Cu  Cu1  1  0.45637967  0.04362033  0.95637967  1
  Cu  Cu2  1  0.04362033  0.95637967  0.45637967  1
  Cu  Cu3  1  0.54362033  0.54362033  0.54362033  1
  Cu  Cu4  1  0.63400595  0.13400595  0.36599405  1
  Cu  Cu5  1  0.13400595  0.36599405  0.63400595  1
  Cu  Cu6  1  0.36599405  0.63400595  0.13400595  1
  Cu  Cu7  1  0.86599405  0.86599405  0.86599405  1
  P  P8  1  0.05024469  0.55024469  0.94975531  1
  P  P9  1  0.55024469  0.94975531  0.05024469  1
  P  P10  1  0.94975531  0.05024469  0.55024469  1
  P  P11  1  0.44975531  0.44975531  0.44975531  1
  P  P12  1  0.02666934  0.43774569  0.18926188  1
  P  P13  1  0.81073812  0.52666934  0.06225431  1
  P  P14  1  0.93774569  0.31073812  0.97333066  1
  P  P15  1  0.52666934  0.06225431  0.81073812  1
  P  P16  1  0.31073812  0.97333066  0.93774569  1
  P  P17  1  0.43774569  0.18926188  0.02666934  1
  P  P18  1  0.97333066  0.93774569  0.31073812  1
  P  P19  1  0.18926188  0.02666934  0.43774569  1
  P  P20  1  0.06225431  0.81073812  0.52666934  1
  P  P21  1  0.47333066  0.56225431  0.68926188  1
  P  P22  1  0.68926188  0.47333066  0.56225431  1
  P  P23  1  0.56225431  0.68926188  0.47333066  1
  H  H24  1  0.06007652  0.62185153  0.79297669  1
  H  H25  1  0.20702331  0.56007652  0.87814847  1
  H  H26  1  0.12185153  0.70702331  0.93992348  1
  H  H27  1  0.56007652  0.87814847  0.20702331  1
  H  H28  1  0.70702331  0.93992348  0.12185153  1
  H  H29  1  0.62185153  0.79297669  0.06007652  1
  H  H30  1  0.93992348  0.12185153  0.70702331  1
  H  H31  1  0.79297669  0.06007652  0.62185153  1
  H  H32  1  0.87814847  0.20702331  0.56007652  1
  H  H33  1  0.43992348  0.37814847  0.29297669  1
  H  H34  1  0.29297669  0.43992348  0.37814847  1
  H  H35  1  0.37814847  0.29297669  0.43992348  1
  H  H36  1  0.93980327  0.61407083  0.83159547  1
  H  H37  1  0.16840453  0.43980327  0.88592917  1
  H  H38  1  0.11407083  0.66840453  0.06019673  1
  H  H39  1  0.43980327  0.88592917  0.16840453  1
  H  H40  1  0.66840453  0.06019673  0.11407083  1
  H  H41  1  0.61407083  0.83159547  0.93980327  1
  H  H42  1  0.06019673  0.11407083  0.66840453  1
  H  H43  1  0.83159547  0.93980327  0.61407083  1
  H  H44  1  0.88592917  0.16840453  0.43980327  1
  H  H45  1  0.56019673  0.38592917  0.33159547  1
  H  H46  1  0.33159547  0.56019673  0.38592917  1
  H  H47  1  0.38592917  0.33159547  0.56019673  1
  H  H48  1  0.00011006  0.51096930  0.78818998  1
  H  H49  1  0.21181002  0.50011006  0.98903070  1
  H  H50  1  0.01096930  0.71181002  0.99988994  1
  H  H51  1  0.50011006  0.98903070  0.21181002  1
  H  H52  1  0.71181002  0.99988994  0.01096930  1
  H  H53  1  0.51096930  0.78818998  0.00011006  1
  H  H54  1  0.99988994  0.01096930  0.71181002  1
  H  H55  1  0.78818998  0.00011006  0.51096930  1
  H  H56  1  0.98903070  0.21181002  0.50011006  1
  H  H57  1  0.49988994  0.48903070  0.28818998  1
  H  H58  1  0.28818998  0.49988994  0.48903070  1
  H  H59  1  0.48903070  0.28818998  0.49988994  1
  H  H60  1  0.97286392  0.27937077  0.23444894  1
  H  H61  1  0.76555106  0.47286392  0.22062923  1
  H  H62  1  0.77937077  0.26555106  0.02713608  1
  H  H63  1  0.47286392  0.22062923  0.76555106  1
  H  H64  1  0.26555106  0.02713608  0.77937077  1
  H  H65  1  0.27937077  0.23444894  0.97286392  1
  H  H66  1  0.02713608  0.77937077  0.26555106  1
  H  H67  1  0.23444894  0.97286392  0.27937077  1
  H  H68  1  0.22062923  0.76555106  0.47286392  1
  H  H69  1  0.52713608  0.72062923  0.73444894  1
  H  H70  1  0.73444894  0.52713608  0.72062923  1
  H  H71  1  0.72062923  0.73444894  0.52713608  1
  H  H72  1  0.90432419  0.36853126  0.29069819  1
  H  H73  1  0.70930181  0.40432419  0.13146874  1
  H  H74  1  0.86853126  0.20930181  0.09567581  1
  H  H75  1  0.40432419  0.13146874  0.70930181  1
  H  H76  1  0.20930181  0.09567581  0.86853126  1
  H  H77  1  0.36853126  0.29069819  0.90432419  1
  H  H78  1  0.09567581  0.86853126  0.20930181  1
  H  H79  1  0.29069819  0.90432419  0.36853126  1
  H  H80  1  0.13146874  0.70930181  0.40432419  1
  H  H81  1  0.59567581  0.63146874  0.79069819  1
  H  H82  1  0.79069819  0.59567581  0.63146874  1
  H  H83  1  0.63146874  0.79069819  0.59567581  1
  H  H84  1  0.02022564  0.34259319  0.33443560  1
  H  H85  1  0.66556440  0.52022564  0.15740681  1
  H  H86  1  0.84259319  0.16556440  0.97977436  1
  H  H87  1  0.52022564  0.15740681  0.66556440  1
  H  H88  1  0.16556440  0.97977436  0.84259319  1
  H  H89  1  0.34259319  0.33443560  0.02022564  1
  H  H90  1  0.97977436  0.84259319  0.16556440  1
  H  H91  1  0.33443560  0.02022564  0.34259319  1
  H  H92  1  0.15740681  0.66556440  0.52022564  1
  H  H93  1  0.47977436  0.65740681  0.83443560  1
  H  H94  1  0.83443560  0.47977436  0.65740681  1
  H  H95  1  0.65740681  0.83443560  0.47977436  1
  H  H96  1  0.06293950  0.60169985  0.23347076  1
  H  H97  1  0.76652924  0.56293950  0.89830015  1
  H  H98  1  0.10169985  0.26652924  0.93706050  1
  H  H99  1  0.56293950  0.89830015  0.76652924  1
  H  H100  1  0.26652924  0.93706050  0.10169985  1
  H  H101  1  0.60169985  0.23347076  0.06293950  1
  H  H102  1  0.93706050  0.10169985  0.26652924  1
  H  H103  1  0.23347076  0.06293950  0.60169985  1
  H  H104  1  0.89830015  0.76652924  0.56293950  1
  H  H105  1  0.43706050  0.39830015  0.73347076  1
  H  H106  1  0.73347076  0.43706050  0.39830015  1
  H  H107  1  0.39830015  0.73347076  0.43706050  1
  H  H108  1  0.07251975  0.52330992  0.33312444  1
  H  H109  1  0.66687556  0.57251975  0.97669008  1
  H  H110  1  0.02330992  0.16687556  0.92748025  1
  H  H111  1  0.57251975  0.97669008  0.66687556  1
  H  H112  1  0.16687556  0.92748025  0.02330992  1
  H  H113  1  0.52330992  0.33312444  0.07251975  1
  H  H114  1  0.92748025  0.02330992  0.16687556  1
  H  H115  1  0.33312444  0.07251975  0.52330992  1
  H  H116  1  0.97669008  0.66687556  0.57251975  1
  H  H117  1  0.42748025  0.47669008  0.83312444  1
  H  H118  1  0.83312444  0.42748025  0.47669008  1
  H  H119  1  0.47669008  0.83312444  0.42748025  1
  H  H120  1  0.95836321  0.55845139  0.29173508  1
  H  H121  1  0.70826492  0.45836321  0.94154861  1
  H  H122  1  0.05845139  0.20826492  0.04163679  1
  H  H123  1  0.45836321  0.94154861  0.70826492  1
  H  H124  1  0.20826492  0.04163679  0.05845139  1
  H  H125  1  0.55845139  0.29173508  0.95836321  1
  H  H126  1  0.04163679  0.05845139  0.20826492  1
  H  H127  1  0.29173508  0.95836321  0.55845139  1
  H  H128  1  0.94154861  0.70826492  0.45836321  1
  H  H129  1  0.54163679  0.44154861  0.79173508  1
  H  H130  1  0.79173508  0.54163679  0.44154861  1
  H  H131  1  0.44154861  0.79173508  0.54163679  1
  H  H132  1  0.19575961  0.45059093  0.14879872  1
  H  H133  1  0.85120128  0.69575961  0.04940907  1
  H  H134  1  0.95059093  0.35120128  0.80424039  1
  H  H135  1  0.69575961  0.04940907  0.85120128  1
  H  H136  1  0.35120128  0.80424039  0.95059093  1
  H  H137  1  0.45059093  0.14879872  0.19575961  1
  H  H138  1  0.80424039  0.95059093  0.35120128  1
  H  H139  1  0.14879872  0.19575961  0.45059093  1
  H  H140  1  0.04940907  0.85120128  0.69575961  1
  H  H141  1  0.30424039  0.54940907  0.64879872  1
  H  H142  1  0.64879872  0.30424039  0.54940907  1
  H  H143  1  0.54940907  0.64879872  0.30424039  1
  H  H144  1  0.15957622  0.32988530  0.16307176  1
  H  H145  1  0.83692824  0.65957622  0.17011470  1
  H  H146  1  0.82988530  0.33692824  0.84042378  1
  H  H147  1  0.65957622  0.17011470  0.83692824  1
  H  H148  1  0.33692824  0.84042378  0.82988530  1
  H  H149  1  0.32988530  0.16307176  0.15957622  1
  H  H150  1  0.84042378  0.82988530  0.33692824  1
  H  H151  1  0.16307176  0.15957622  0.32988530  1
  H  H152  1  0.17011470  0.83692824  0.65957622  1
  H  H153  1  0.34042378  0.67011470  0.66307176  1
  H  H154  1  0.66307176  0.34042378  0.67011470  1
  H  H155  1  0.67011470  0.66307176  0.34042378  1
  H  H156  1  0.17822584  0.40333839  0.26492478  1
  H  H157  1  0.73507522  0.67822584  0.09666161  1
  H  H158  1  0.90333839  0.23507522  0.82177416  1
  H  H159  1  0.67822584  0.09666161  0.73507522  1
  H  H160  1  0.23507522  0.82177416  0.90333839  1
  H  H161  1  0.40333839  0.26492478  0.17822584  1
  H  H162  1  0.82177416  0.90333839  0.23507522  1
  H  H163  1  0.26492478  0.17822584  0.40333839  1
  H  H164  1  0.09666161  0.73507522  0.67822584  1
  H  H165  1  0.32177416  0.59666161  0.76492478  1
  H  H166  1  0.76492478  0.32177416  0.59666161  1
  H  H167  1  0.59666161  0.76492478  0.32177416  1
  C  C168  1  0.00812808  0.57656023  0.82950168  1
  C  C169  1  0.17049832  0.50812808  0.92343977  1
  C  C170  1  0.07656023  0.67049832  0.99187192  1
  C  C171  1  0.50812808  0.92343977  0.17049832  1
  C  C172  1  0.67049832  0.99187192  0.07656023  1
  C  C173  1  0.57656023  0.82950168  0.00812808  1
  C  C174  1  0.99187192  0.07656023  0.67049832  1
  C  C175  1  0.82950168  0.00812808  0.57656023  1
  C  C176  1  0.92343977  0.17049832  0.50812808  1
  C  C177  1  0.49187192  0.42343977  0.32950168  1
  C  C178  1  0.32950168  0.49187192  0.42343977  1
  C  C179  1  0.42343977  0.32950168  0.49187192  1
  C  C180  1  0.97679618  0.34858845  0.26997128  1
  C  C181  1  0.73002872  0.47679618  0.15141155  1
  C  C182  1  0.84858845  0.23002872  0.02320382  1
  C  C183  1  0.47679618  0.15141155  0.73002872  1
  C  C184  1  0.23002872  0.02320382  0.84858845  1
  C  C185  1  0.34858845  0.26997128  0.97679618  1
  C  C186  1  0.02320382  0.84858845  0.23002872  1
  C  C187  1  0.26997128  0.97679618  0.34858845  1
  C  C188  1  0.15141155  0.73002872  0.47679618  1
  C  C189  1  0.52320382  0.65141155  0.76997128  1
  C  C190  1  0.76997128  0.52320382  0.65141155  1
  C  C191  1  0.65141155  0.76997128  0.52320382  1
  C  C192  1  0.03098806  0.54045626  0.26939367  1
  C  C193  1  0.73060633  0.53098806  0.95954374  1
  C  C194  1  0.04045626  0.23060633  0.96901194  1
  C  C195  1  0.53098806  0.95954374  0.73060633  1
  C  C196  1  0.23060633  0.96901194  0.04045626  1
  C  C197  1  0.54045626  0.26939367  0.03098806  1
  C  C198  1  0.96901194  0.04045626  0.23060633  1
  C  C199  1  0.26939367  0.03098806  0.54045626  1
  C  C200  1  0.95954374  0.73060633  0.53098806  1
  C  C201  1  0.46901194  0.45954374  0.76939367  1
  C  C202  1  0.76939367  0.46901194  0.45954374  1
  C  C203  1  0.45954374  0.76939367  0.46901194  1
  C  C204  1  0.15214917  0.40217550  0.19147997  1
  C  C205  1  0.80852003  0.65214917  0.09782450  1
  C  C206  1  0.90217550  0.30852003  0.84785083  1
  C  C207  1  0.65214917  0.09782450  0.80852003  1
  C  C208  1  0.30852003  0.84785083  0.90217550  1
  C  C209  1  0.40217550  0.19147997  0.15214917  1
  C  C210  1  0.84785083  0.90217550  0.30852003  1
  C  C211  1  0.19147997  0.15214917  0.40217550  1
  C  C212  1  0.09782450  0.80852003  0.65214917  1
  C  C213  1  0.34785083  0.59782450  0.69147997  1
  C  C214  1  0.69147997  0.34785083  0.59782450  1
  C  C215  1  0.59782450  0.69147997  0.34785083  1
  Cl  Cl216  1  0.54785740  0.04785740  0.45214260  1
  Cl  Cl217  1  0.04785740  0.45214260  0.54785740  1
  Cl  Cl218  1  0.45214260  0.54785740  0.04785740  1
  Cl  Cl219  1  0.95214260  0.95214260  0.95214260  1
  Cl  Cl220  1  0.72019966  0.22019966  0.27980034  1
  Cl  Cl221  1  0.22019966  0.27980034  0.72019966  1
  Cl  Cl222  1  0.27980034  0.72019966  0.22019966  1
  Cl  Cl223  1  0.77980034  0.77980034  0.77980034  1
