# generated using pymatgen
data_CoH2(CO2)2
_symmetry_space_group_name_H-M   'P 1'
_cell_length_a   9.98683500
_cell_length_b   11.41393000
_cell_length_c   18.41433697
_cell_angle_alpha   53.10229695
_cell_angle_beta   90.00000000
_cell_angle_gamma   90.00000000
_symmetry_Int_Tables_number   1
_chemical_formula_structural   CoH2(CO2)2
_chemical_formula_sum   'Co12 H24 C24 O48'
_cell_volume   1678.61462125
_cell_formula_units_Z   12
loop_
 _symmetry_equiv_pos_site_id
 _symmetry_equiv_pos_as_xyz
  1  'x, y, z'
loop_
 _atom_site_type_symbol
 _atom_site_label
 _atom_site_symmetry_multiplicity
 _atom_site_fract_x
 _atom_site_fract_y
 _atom_site_fract_z
 _atom_site_occupancy
  Co  Co0  1  0.07920200  0.62279700  0.13332800  1
  Co  Co1  1  0.57920200  0.37720300  0.36667200  1
  Co  Co2  1  0.92079800  0.37720300  0.86667200  1
  Co  Co3  1  0.42079800  0.62279700  0.63332800  1
  Co  Co4  1  0.88827000  0.43063600  0.31035400  1
  Co  Co5  1  0.38827000  0.56936400  0.18964600  1
  Co  Co6  1  0.11173000  0.56936400  0.68964600  1
  Co  Co7  1  0.61173000  0.43063600  0.81035400  1
  Co  Co8  1  0.00000000  0.50000000  0.00000000  1
  Co  Co9  1  0.50000000  0.50000000  0.50000000  1
  Co  Co10  1  0.00000000  0.00000000  0.00000000  1
  Co  Co11  1  0.50000000  0.00000000  0.50000000  1
  H  H12  1  0.25501700  0.49142000  0.37159500  1
  H  H13  1  0.75501700  0.50858000  0.12840500  1
  H  H14  1  0.74498300  0.50858000  0.62840500  1
  H  H15  1  0.24498300  0.49142000  0.87159500  1
  H  H16  1  0.96698100  0.20075600  0.27225500  1
  H  H17  1  0.46698100  0.79924400  0.22774500  1
  H  H18  1  0.03301900  0.79924400  0.72774500  1
  H  H19  1  0.53301900  0.20075600  0.77225500  1
  H  H20  1  0.39545800  0.51872500  0.03970100  1
  H  H21  1  0.89545800  0.48127500  0.46029900  1
  H  H22  1  0.60454200  0.48127500  0.96029900  1
  H  H23  1  0.10454200  0.51872500  0.53970100  1
  H  H24  1  0.79577500  0.74760500  0.23672100  1
  H  H25  1  0.29577500  0.25239500  0.26327900  1
  H  H26  1  0.20422500  0.25239500  0.76327900  1
  H  H27  1  0.70422500  0.74760500  0.73672100  1
  H  H28  1  0.83500600  0.76327400  0.92548900  1
  H  H29  1  0.33500600  0.23672600  0.57451100  1
  H  H30  1  0.16499400  0.23672600  0.07451100  1
  H  H31  1  0.66499400  0.76327400  0.42548900  1
  H  H32  1  0.29568200  0.99445600  0.00322900  1
  H  H33  1  0.79568200  0.00554400  0.49677100  1
  H  H34  1  0.70431800  0.00554400  0.99677100  1
  H  H35  1  0.20431800  0.99445600  0.50322900  1
  C  C36  1  0.17112900  0.50031900  0.32942900  1
  C  C37  1  0.67112900  0.49968100  0.17057100  1
  C  C38  1  0.82887100  0.49968100  0.67057100  1
  C  C39  1  0.32887100  0.50031900  0.82942900  1
  C  C40  1  0.98907600  0.31024400  0.20879900  1
  C  C41  1  0.48907600  0.68975600  0.29120100  1
  C  C42  1  0.01092400  0.68975600  0.79120100  1
  C  C43  1  0.51092400  0.31024400  0.70879900  1
  C  C44  1  0.28688300  0.52864900  0.04729400  1
  C  C45  1  0.78688300  0.47135100  0.45270600  1
  C  C46  1  0.71311700  0.47135100  0.95270600  1
  C  C47  1  0.21311700  0.52864900  0.54729400  1
  C  C48  1  0.86886600  0.76977200  0.18446300  1
  C  C49  1  0.36886600  0.23022800  0.31553700  1
  C  C50  1  0.13113400  0.23022800  0.81553700  1
  C  C51  1  0.63113400  0.76977200  0.68446300  1
  C  C52  1  0.89648500  0.77269000  0.97150500  1
  C  C53  1  0.39648500  0.22731000  0.52849500  1
  C  C54  1  0.10351500  0.22731000  0.02849500  1
  C  C55  1  0.60351500  0.77269000  0.47150500  1
  C  C56  1  0.27782500  0.87531100  0.05151900  1
  C  C57  1  0.77782500  0.12468900  0.44848100  1
  C  C58  1  0.72217500  0.12468900  0.94848100  1
  C  C59  1  0.22217500  0.87531100  0.55151900  1
  O  O60  1  0.19828000  0.56299300  0.24518900  1
  O  O61  1  0.69828000  0.43700700  0.25481100  1
  O  O62  1  0.80172000  0.43700700  0.75481100  1
  O  O63  1  0.30172000  0.56299300  0.74518900  1
  O  O64  1  0.05922000  0.45001300  0.36722500  1
  O  O65  1  0.55922000  0.54998700  0.13277500  1
  O  O66  1  0.94078000  0.54998700  0.63277500  1
  O  O67  1  0.44078000  0.45001300  0.86722500  1
  O  O68  1  0.99438600  0.41487100  0.21648100  1
  O  O69  1  0.49438600  0.58512900  0.28351900  1
  O  O70  1  0.00561400  0.58512900  0.78351900  1
  O  O71  1  0.50561400  0.41487100  0.71648100  1
  O  O72  1  0.00647200  0.32247900  0.13727100  1
  O  O73  1  0.50647200  0.67752100  0.36272900  1
  O  O74  1  0.99352800  0.67752100  0.86272900  1
  O  O75  1  0.49352800  0.32247900  0.63727100  1
  O  O76  1  0.25491300  0.54530100  0.10823600  1
  O  O77  1  0.75491300  0.45469900  0.39176400  1
  O  O78  1  0.74508700  0.45469900  0.89176400  1
  O  O79  1  0.24508700  0.54530100  0.60823600  1
  O  O80  1  0.20768600  0.52186600  0.99696600  1
  O  O81  1  0.70768600  0.47813400  0.50303400  1
  O  O82  1  0.79231400  0.47813400  0.00303400  1
  O  O83  1  0.29231400  0.52186600  0.49696600  1
  O  O84  1  0.91621800  0.65618900  0.19452700  1
  O  O85  1  0.41621800  0.34381100  0.30547300  1
  O  O86  1  0.08378200  0.34381100  0.80547300  1
  O  O87  1  0.58378200  0.65618900  0.69452700  1
  O  O88  1  0.89632800  0.90098400  0.12227800  1
  O  O89  1  0.39632800  0.09901600  0.37772200  1
  O  O90  1  0.10367200  0.09901600  0.87772200  1
  O  O91  1  0.60367200  0.90098400  0.62227800  1
  O  O92  1  0.97362200  0.66194300  0.02537200  1
  O  O93  1  0.47362200  0.33805700  0.47462800  1
  O  O94  1  0.02637800  0.33805700  0.97462800  1
  O  O95  1  0.52637800  0.66194300  0.52537200  1
  O  O96  1  0.88536800  0.88481000  0.96811000  1
  O  O97  1  0.38536800  0.11519000  0.53189000  1
  O  O98  1  0.11463200  0.11519000  0.03189000  1
  O  O99  1  0.61463200  0.88481000  0.46811000  1
  O  O100  1  0.15439700  0.83462800  0.06082800  1
  O  O101  1  0.65439700  0.16537200  0.43917200  1
  O  O102  1  0.84560300  0.16537200  0.93917200  1
  O  O103  1  0.34560300  0.83462800  0.56082800  1
  O  O104  1  0.37687900  0.79349500  0.09206000  1
  O  O105  1  0.87687900  0.20650500  0.40794000  1
  O  O106  1  0.62312100  0.20650500  0.90794000  1
  O  O107  1  0.12312100  0.79349500  0.59206000  1
