# generated using pymatgen
data_Pb8Cl4O7
_symmetry_space_group_name_H-M   'P 1'
_cell_length_a   13.67008339
_cell_length_b   13.67008339
_cell_length_c   22.09755231
_cell_angle_alpha   78.37084668
_cell_angle_beta   78.37084668
_cell_angle_gamma   24.60536962
_symmetry_Int_Tables_number   1
_chemical_formula_structural   Pb8Cl4O7
_chemical_formula_sum   'Pb32 Cl16 O28'
_cell_volume   1682.34972929
_cell_formula_units_Z   4
loop_
 _symmetry_equiv_pos_site_id
 _symmetry_equiv_pos_as_xyz
  1  'x, y, z'
loop_
 _atom_site_type_symbol
 _atom_site_label
 _atom_site_symmetry_multiplicity
 _atom_site_fract_x
 _atom_site_fract_y
 _atom_site_fract_z
 _atom_site_occupancy
  Pb  Pb0  1  0.79033900  0.85687700  0.17384800  1
  Pb  Pb1  1  0.14312300  0.20966100  0.32615200  1
  Pb  Pb2  1  0.20966100  0.14312300  0.82615200  1
  Pb  Pb3  1  0.85687700  0.79033900  0.67384800  1
  Pb  Pb4  1  0.45701300  0.39416800  0.14702800  1
  Pb  Pb5  1  0.60583200  0.54298700  0.35297200  1
  Pb  Pb6  1  0.54298700  0.60583200  0.85297200  1
  Pb  Pb7  1  0.39416800  0.45701300  0.64702800  1
  Pb  Pb8  1  0.34782300  0.29792100  0.03919500  1
  Pb  Pb9  1  0.70207900  0.65217700  0.46080500  1
  Pb  Pb10  1  0.65217700  0.70207900  0.96080500  1
  Pb  Pb11  1  0.29792100  0.34782300  0.53919500  1
  Pb  Pb12  1  0.89087200  0.96076200  0.01402200  1
  Pb  Pb13  1  0.03923800  0.10912800  0.48597800  1
  Pb  Pb14  1  0.10912800  0.03923800  0.98597800  1
  Pb  Pb15  1  0.96076200  0.89087200  0.51402200  1
  Pb  Pb16  1  0.67778600  0.67023100  0.20422900  1
  Pb  Pb17  1  0.32976900  0.32221400  0.29577100  1
  Pb  Pb18  1  0.32221400  0.32976900  0.79577100  1
  Pb  Pb19  1  0.67023100  0.67778600  0.70422900  1
  Pb  Pb20  1  0.05737200  0.09069800  0.22625500  1
  Pb  Pb21  1  0.90930200  0.94262800  0.27374500  1
  Pb  Pb22  1  0.94262800  0.90930200  0.77374500  1
  Pb  Pb23  1  0.09069800  0.05737200  0.72625500  1
  Pb  Pb24  1  0.17095600  0.17474800  0.08090600  1
  Pb  Pb25  1  0.82525200  0.82904400  0.41909400  1
  Pb  Pb26  1  0.82904400  0.82525200  0.91909400  1
  Pb  Pb27  1  0.17474800  0.17095600  0.58090600  1
  Pb  Pb28  1  0.55463700  0.59226900  0.11209600  1
  Pb  Pb29  1  0.40773100  0.44536300  0.38790400  1
  Pb  Pb30  1  0.44536300  0.40773100  0.88790400  1
  Pb  Pb31  1  0.59226900  0.55463700  0.61209600  1
  Cl  Cl32  1  0.50000000  0.50000000  0.00000000  1
  Cl  Cl33  1  0.50000000  0.50000000  0.50000000  1
  Cl  Cl34  1  0.49960800  0.50039200  0.25000000  1
  Cl  Cl35  1  0.50039200  0.49960800  0.75000000  1
  Cl  Cl36  1  0.23987400  0.24373800  0.18919000  1
  Cl  Cl37  1  0.75626200  0.76012600  0.31081000  1
  Cl  Cl38  1  0.76012600  0.75626200  0.81081000  1
  Cl  Cl39  1  0.24373800  0.23987400  0.68919000  1
  Cl  Cl40  1  0.26485900  0.25182300  0.93466800  1
  Cl  Cl41  1  0.74817700  0.73514100  0.56533200  1
  Cl  Cl42  1  0.73514100  0.74817700  0.06533200  1
  Cl  Cl43  1  0.25182300  0.26485900  0.43466800  1
  Cl  Cl44  1  0.00408600  0.00584300  0.12131700  1
  Cl  Cl45  1  0.99415700  0.99591400  0.37868300  1
  Cl  Cl46  1  0.99591400  0.99415700  0.87868300  1
  Cl  Cl47  1  0.00584300  0.00408600  0.62131700  1
  O  O48  1  0.62044100  0.12984000  0.09360600  1
  O  O49  1  0.87016000  0.37955900  0.40639400  1
  O  O50  1  0.37955900  0.87016000  0.90639400  1
  O  O51  1  0.12984000  0.62044100  0.59360600  1
  O  O52  1  0.62884600  0.12311500  0.22357200  1
  O  O53  1  0.87688500  0.37115400  0.27642800  1
  O  O54  1  0.37115400  0.87688500  0.77642800  1
  O  O55  1  0.12311500  0.62884600  0.72357200  1
  O  O56  1  0.61500400  0.13697200  0.96330400  1
  O  O57  1  0.86302800  0.38499600  0.53669600  1
  O  O58  1  0.38499600  0.86302800  0.03669600  1
  O  O59  1  0.13697200  0.61500400  0.46330400  1
  O  O60  1  0.37105500  0.87595300  0.16580100  1
  O  O61  1  0.12404700  0.62894500  0.33419900  1
  O  O62  1  0.62894500  0.12404700  0.83419900  1
  O  O63  1  0.87595300  0.37105500  0.66580100  1
  O  O64  1  0.87037800  0.37683100  0.14762000  1
  O  O65  1  0.62316900  0.12962200  0.35238000  1
  O  O66  1  0.12962200  0.62316900  0.85238000  1
  O  O67  1  0.37683100  0.87037800  0.64762000  1
  O  O68  1  0.09030900  0.64644400  0.99926000  1
  O  O69  1  0.35355600  0.90969100  0.50074000  1
  O  O70  1  0.90969100  0.35355600  0.00074000  1
  O  O71  1  0.64644400  0.09030900  0.49926000  1
  O  O72  1  0.13262900  0.61079500  0.18628100  1
  O  O73  1  0.38920500  0.86737100  0.31371900  1
  O  O74  1  0.86737100  0.38920500  0.81371900  1
  O  O75  1  0.61079500  0.13262900  0.68628100  1
