# generated using pymatgen
data_NaSnPHO4F
_symmetry_space_group_name_H-M   'P 1'
_cell_length_a   4.97134100
_cell_length_b   5.31939600
_cell_length_c   19.36443800
_cell_angle_alpha   90.00000000
_cell_angle_beta   90.00000000
_cell_angle_gamma   90.00000000
_symmetry_Int_Tables_number   1
_chemical_formula_structural   NaSnPHO4F
_chemical_formula_sum   'Na4 Sn4 P4 H4 O16 F4'
_cell_volume   512.08348932
_cell_formula_units_Z   4
loop_
 _symmetry_equiv_pos_site_id
 _symmetry_equiv_pos_as_xyz
  1  'x, y, z'
loop_
 _atom_site_type_symbol
 _atom_site_label
 _atom_site_symmetry_multiplicity
 _atom_site_fract_x
 _atom_site_fract_y
 _atom_site_fract_z
 _atom_site_occupancy
  Na  Na0  1  0.25314900  0.25000000  0.50861700  1
  Na  Na1  1  0.75314900  0.25000000  0.99138300  1
  Na  Na2  1  0.74685100  0.75000000  0.49138300  1
  Na  Na3  1  0.24685100  0.75000000  0.00861700  1
  Sn  Sn4  1  0.70494100  0.25000000  0.36155600  1
  Sn  Sn5  1  0.20494100  0.25000000  0.13844400  1
  Sn  Sn6  1  0.29505900  0.75000000  0.63844400  1
  Sn  Sn7  1  0.79505900  0.75000000  0.86155600  1
  P  P8  1  0.27602700  0.75000000  0.37284000  1
  P  P9  1  0.77602700  0.75000000  0.12716000  1
  P  P10  1  0.72397300  0.25000000  0.62716000  1
  P  P11  1  0.22397300  0.25000000  0.87284000  1
  H  H12  1  0.20527000  0.75000000  0.26085100  1
  H  H13  1  0.70527000  0.75000000  0.23914900  1
  H  H14  1  0.79473000  0.25000000  0.73914900  1
  H  H15  1  0.29473000  0.25000000  0.76085100  1
  O  O16  1  0.40770400  0.98704800  0.40476700  1
  O  O17  1  0.90770400  0.51295200  0.09523300  1
  O  O18  1  0.59229600  0.48704800  0.59523300  1
  O  O19  1  0.09229600  0.01295200  0.90476700  1
  O  O20  1  0.59229600  0.01295200  0.59523300  1
  O  O21  1  0.09229600  0.48704800  0.90476700  1
  O  O22  1  0.40770400  0.51295200  0.40476700  1
  O  O23  1  0.90770400  0.98704800  0.09523300  1
  O  O24  1  0.97113500  0.75000000  0.37695600  1
  O  O25  1  0.47113500  0.75000000  0.12304400  1
  O  O26  1  0.02886500  0.25000000  0.62304400  1
  O  O27  1  0.52886500  0.25000000  0.87695600  1
  O  O28  1  0.36499200  0.75000000  0.29135400  1
  O  O29  1  0.86499200  0.75000000  0.20864600  1
  O  O30  1  0.63500800  0.25000000  0.70864600  1
  O  O31  1  0.13500800  0.25000000  0.79135400  1
  F  F32  1  0.83001200  0.25000000  0.46356600  1
  F  F33  1  0.33001200  0.25000000  0.03643400  1
  F  F34  1  0.16998800  0.75000000  0.53643400  1
  F  F35  1  0.66998800  0.75000000  0.96356600  1
