# generated using pymatgen
data_ZrSO9
_symmetry_space_group_name_H-M   'P 1'
_cell_length_a   5.79369986
_cell_length_b   7.39097492
_cell_length_c   16.50391300
_cell_angle_alpha   90.00000000
_cell_angle_beta   90.00000000
_cell_angle_gamma   115.32367715
_symmetry_Int_Tables_number   1
_chemical_formula_structural   ZrSO9
_chemical_formula_sum   'Zr4 S4 O36'
_cell_volume   638.80433287
_cell_formula_units_Z   4
loop_
 _symmetry_equiv_pos_site_id
 _symmetry_equiv_pos_as_xyz
  1  'x, y, z'
loop_
 _atom_site_type_symbol
 _atom_site_label
 _atom_site_symmetry_multiplicity
 _atom_site_fract_x
 _atom_site_fract_y
 _atom_site_fract_z
 _atom_site_occupancy
  Zr  Zr0  1  0.92256900  0.80442300  0.37224200  1
  Zr  Zr1  1  0.57743100  0.19557700  0.87224200  1
  Zr  Zr2  1  0.07743100  0.19557700  0.62775800  1
  Zr  Zr3  1  0.42256900  0.80442300  0.12775800  1
  S  S4  1  0.36304500  0.69657600  0.48078400  1
  S  S5  1  0.13695500  0.30342400  0.98078400  1
  S  S6  1  0.63695500  0.30342400  0.51921600  1
  S  S7  1  0.86304500  0.69657600  0.01921600  1
  O  O8  1  0.22694500  0.80277900  0.43336800  1
  O  O9  1  0.27305500  0.19722100  0.93336800  1
  O  O10  1  0.77305500  0.19722100  0.56663200  1
  O  O11  1  0.72694500  0.80277900  0.06663200  1
  O  O12  1  0.63492500  0.79797700  0.44569900  1
  O  O13  1  0.86507500  0.20202300  0.94569900  1
  O  O14  1  0.36507500  0.20202300  0.55430100  1
  O  O15  1  0.13492500  0.79797700  0.05430100  1
  O  O16  1  0.24758900  0.48603200  0.46169300  1
  O  O17  1  0.25241100  0.51396800  0.96169300  1
  O  O18  1  0.75241100  0.51396800  0.53830700  1
  O  O19  1  0.74758900  0.48603200  0.03830700  1
  O  O20  1  0.37199400  0.75051400  0.56558500  1
  O  O21  1  0.12800600  0.24948600  0.06558500  1
  O  O22  1  0.62800600  0.24948600  0.43441500  1
  O  O23  1  0.87199400  0.75051400  0.93441500  1
  O  O24  1  0.15234500  0.98373800  0.21138200  1
  O  O25  1  0.34765500  0.01626200  0.71138200  1
  O  O26  1  0.84765500  0.01626200  0.78861800  1
  O  O27  1  0.65234500  0.98373800  0.28861800  1
  O  O28  1  0.12140400  0.80760800  0.23374900  1
  O  O29  1  0.37859600  0.19239200  0.73374900  1
  O  O30  1  0.87859600  0.19239200  0.76625100  1
  O  O31  1  0.62140400  0.80760800  0.26625100  1
  O  O32  1  0.79438400  0.52048500  0.31829000  1
  O  O33  1  0.70561600  0.47951500  0.81829000  1
  O  O34  1  0.20561600  0.47951500  0.68171000  1
  O  O35  1  0.29438400  0.52048500  0.18171000  1
  O  O36  1  0.91595400  0.91221200  0.65649900  1
  O  O37  1  0.58404600  0.08778800  0.15649900  1
  O  O38  1  0.08404600  0.08778800  0.34350100  1
  O  O39  1  0.41595400  0.91221200  0.84350100  1
  O  O40  1  0.96411700  0.34696500  0.24578400  1
  O  O41  1  0.53588300  0.65303500  0.74578400  1
  O  O42  1  0.03588300  0.65303500  0.75421600  1
  O  O43  1  0.46411700  0.34696500  0.25421600  1
