# generated using pymatgen
data_Na2Np(CO4)2
_symmetry_space_group_name_H-M   'P 1'
_cell_length_a   6.05538700
_cell_length_b   18.38867200
_cell_length_c   6.90914874
_cell_angle_alpha   90.00000000
_cell_angle_beta   91.64913139
_cell_angle_gamma   90.00000000
_symmetry_Int_Tables_number   1
_chemical_formula_structural   Na2Np(CO4)2
_chemical_formula_sum   'Na8 Np4 C8 O32'
_cell_volume   769.01868585
_cell_formula_units_Z   4
loop_
 _symmetry_equiv_pos_site_id
 _symmetry_equiv_pos_as_xyz
  1  'x, y, z'
loop_
 _atom_site_type_symbol
 _atom_site_label
 _atom_site_symmetry_multiplicity
 _atom_site_fract_x
 _atom_site_fract_y
 _atom_site_fract_z
 _atom_site_occupancy
  Na  Na0  1  0.88256000  0.31911700  0.45826100  1
  Na  Na1  1  0.11744000  0.81911700  0.04173900  1
  Na  Na2  1  0.11744000  0.68088300  0.54173900  1
  Na  Na3  1  0.88256000  0.18088300  0.95826100  1
  Na  Na4  1  0.33691000  0.41382500  0.52207700  1
  Na  Na5  1  0.66309000  0.91382500  0.97792300  1
  Na  Na6  1  0.66309000  0.58617500  0.47792300  1
  Na  Na7  1  0.33691000  0.08617500  0.02207700  1
  Np  Np8  1  0.06056300  0.40760900  0.97891100  1
  Np  Np9  1  0.93943700  0.90760900  0.52108900  1
  Np  Np10  1  0.93943700  0.59239100  0.02108900  1
  Np  Np11  1  0.06056300  0.09239100  0.47891100  1
  C  C12  1  0.55017100  0.32804400  0.95983400  1
  C  C13  1  0.44982900  0.82804400  0.54016600  1
  C  C14  1  0.44982900  0.67195600  0.04016600  1
  C  C15  1  0.55017100  0.17195600  0.45983400  1
  C  C16  1  0.40156500  0.25985800  0.97490700  1
  C  C17  1  0.59843500  0.75985800  0.52509300  1
  C  C18  1  0.59843500  0.74014200  0.02509300  1
  C  C19  1  0.40156500  0.24014200  0.47490700  1
  O  O20  1  0.02069000  0.40152300  0.71462100  1
  O  O21  1  0.97931000  0.90152300  0.78537900  1
  O  O22  1  0.97931000  0.59847700  0.28537900  1
  O  O23  1  0.02069000  0.09847700  0.21462100  1
  O  O24  1  0.11262000  0.39486100  0.23984200  1
  O  O25  1  0.88738000  0.89486100  0.26015800  1
  O  O26  1  0.88738000  0.60513900  0.76015800  1
  O  O27  1  0.11262000  0.10513900  0.73984200  1
  O  O28  1  0.45136900  0.38669400  0.91794400  1
  O  O29  1  0.54863100  0.88669400  0.58205600  1
  O  O30  1  0.54863100  0.61330600  0.08205600  1
  O  O31  1  0.45136900  0.11330600  0.41794400  1
  O  O32  1  0.75684000  0.31889900  0.98903700  1
  O  O33  1  0.24316000  0.81889900  0.51096300  1
  O  O34  1  0.24316000  0.68110100  0.01096300  1
  O  O35  1  0.75684000  0.18110100  0.48903700  1
  O  O36  1  0.19397600  0.27280500  0.96989600  1
  O  O37  1  0.80602400  0.77280500  0.53010400  1
  O  O38  1  0.80602400  0.72719500  0.03010400  1
  O  O39  1  0.19397600  0.22719500  0.46989600  1
  O  O40  1  0.49439900  0.19914900  0.98875500  1
  O  O41  1  0.50560100  0.69914900  0.51124500  1
  O  O42  1  0.50560100  0.80085100  0.01124500  1
  O  O43  1  0.49439900  0.30085100  0.48875500  1
  O  O44  1  0.18558400  0.51986400  0.97595900  1
  O  O45  1  0.81441600  0.01986400  0.52404100  1
  O  O46  1  0.81441600  0.48013600  0.02404100  1
  O  O47  1  0.18558400  0.98013600  0.47596000  1
  O  O48  1  0.66982100  0.46331400  0.44789400  1
  O  O49  1  0.33017900  0.96331400  0.05210600  1
  O  O50  1  0.33017900  0.53668600  0.55210600  1
  O  O51  1  0.66982100  0.03668600  0.94789400  1
