# generated using pymatgen
data_NaCeS2O9
_symmetry_space_group_name_H-M   'P 1'
_cell_length_a   6.99037700
_cell_length_b   6.99037719
_cell_length_c   13.06725300
_cell_angle_alpha   90.00000000
_cell_angle_beta   90.00000000
_cell_angle_gamma   120.00000381
_symmetry_Int_Tables_number   1
_chemical_formula_structural   NaCeS2O9
_chemical_formula_sum   'Na3 Ce3 S6 O27'
_cell_volume   552.98853046
_cell_formula_units_Z   3
loop_
 _symmetry_equiv_pos_site_id
 _symmetry_equiv_pos_as_xyz
  1  'x, y, z'
loop_
 _atom_site_type_symbol
 _atom_site_label
 _atom_site_symmetry_multiplicity
 _atom_site_fract_x
 _atom_site_fract_y
 _atom_site_fract_z
 _atom_site_occupancy
  Na  Na0  1  0.47043800  0.00000000  0.83333300  1
  Na  Na1  1  0.52956200  0.52956200  0.50000000  1
  Na  Na2  1  0.00000000  0.47043800  0.16666700  1
  Ce  Ce3  1  0.57503200  0.57503200  0.00000000  1
  Ce  Ce4  1  0.00000000  0.42496800  0.66666700  1
  Ce  Ce5  1  0.42496800  0.00000000  0.33333300  1
  S  S6  1  0.01634100  0.45688200  0.90908100  1
  S  S7  1  0.44054000  0.98365900  0.57574800  1
  S  S8  1  0.54311800  0.55946000  0.24241500  1
  S  S9  1  0.98365900  0.44054000  0.42425200  1
  S  S10  1  0.45688200  0.01634100  0.09091900  1
  S  S11  1  0.55946000  0.54311800  0.75758500  1
  O  O12  1  0.17287200  0.42110700  0.97102500  1
  O  O13  1  0.24823500  0.82712800  0.63769100  1
  O  O14  1  0.57889300  0.75176500  0.30435800  1
  O  O15  1  0.82712800  0.24823500  0.36230900  1
  O  O16  1  0.42110700  0.17287200  0.02897500  1
  O  O17  1  0.75176500  0.57889300  0.69564200  1
  O  O18  1  0.88116700  0.50520800  0.98275000  1
  O  O19  1  0.62404100  0.11883300  0.64941700  1
  O  O20  1  0.49479200  0.37595900  0.31608300  1
  O  O21  1  0.11883300  0.62404100  0.35058300  1
  O  O22  1  0.50520800  0.88116700  0.01725000  1
  O  O23  1  0.37595900  0.49479200  0.68391700  1
  O  O24  1  0.13478200  0.64196900  0.83487000  1
  O  O25  1  0.50718700  0.86521800  0.50153600  1
  O  O26  1  0.35803100  0.49281300  0.16820300  1
  O  O27  1  0.86521800  0.50718700  0.49846400  1
  O  O28  1  0.64196900  0.13478200  0.16513000  1
  O  O29  1  0.49281300  0.35803100  0.83179700  1
  O  O30  1  0.87011600  0.26121600  0.84550500  1
  O  O31  1  0.39110100  0.12988400  0.51217200  1
  O  O32  1  0.73878400  0.60889900  0.17883900  1
  O  O33  1  0.12988400  0.39110100  0.48782800  1
  O  O34  1  0.26121600  0.87011600  0.15449500  1
  O  O35  1  0.60889900  0.73878400  0.82116100  1
  O  O36  1  0.87196500  0.87196500  0.00000000  1
  O  O37  1  0.00000000  0.12803500  0.66666700  1
  O  O38  1  0.12803500  0.00000000  0.33333300  1
