# generated using pymatgen
data_Ba3U2(PO5)4
_symmetry_space_group_name_H-M   'P 1'
_cell_length_a   8.90392900
_cell_length_b   9.63509000
_cell_length_c   10.73029840
_cell_angle_alpha   82.56618521
_cell_angle_beta   90.00000000
_cell_angle_gamma   90.00000000
_symmetry_Int_Tables_number   1
_chemical_formula_structural   Ba3U2(PO5)4
_chemical_formula_sum   'Ba6 U4 P8 O40'
_cell_volume   912.81671026
_cell_formula_units_Z   2
loop_
 _symmetry_equiv_pos_site_id
 _symmetry_equiv_pos_as_xyz
  1  'x, y, z'
loop_
 _atom_site_type_symbol
 _atom_site_label
 _atom_site_symmetry_multiplicity
 _atom_site_fract_x
 _atom_site_fract_y
 _atom_site_fract_z
 _atom_site_occupancy
  Ba  Ba0  1  0.00000000  0.50000000  0.00000000  1
  Ba  Ba1  1  0.50000000  0.50000000  0.50000000  1
  Ba  Ba2  1  0.17070400  0.19286500  0.41625400  1
  Ba  Ba3  1  0.67070400  0.80713500  0.08374600  1
  Ba  Ba4  1  0.82929600  0.80713500  0.58374600  1
  Ba  Ba5  1  0.32929600  0.19286500  0.91625400  1
  U  U6  1  0.21677800  0.83953700  0.18733200  1
  U  U7  1  0.71677800  0.16046300  0.31266800  1
  U  U8  1  0.78322200  0.16046300  0.81266800  1
  U  U9  1  0.28322200  0.83953700  0.68733200  1
  P  P10  1  0.96543700  0.13031600  0.11659200  1
  P  P11  1  0.46543700  0.86968400  0.38340800  1
  P  P12  1  0.03456300  0.86968400  0.88340800  1
  P  P13  1  0.53456300  0.13031600  0.61659200  1
  P  P14  1  0.33493200  0.47825900  0.16431000  1
  P  P15  1  0.83493200  0.52174100  0.33569000  1
  P  P16  1  0.66506800  0.52174100  0.83569000  1
  P  P17  1  0.16506800  0.47825900  0.66431000  1
  O  O18  1  0.33692000  0.97295300  0.33926700  1
  O  O19  1  0.83692000  0.02704700  0.16073300  1
  O  O20  1  0.66308000  0.02704700  0.66073300  1
  O  O21  1  0.16308000  0.97295300  0.83926700  1
  O  O22  1  0.43734100  0.74216000  0.31052900  1
  O  O23  1  0.93734100  0.25784000  0.18947100  1
  O  O24  1  0.56265900  0.25784000  0.68947100  1
  O  O25  1  0.06265900  0.74216000  0.81052900  1
  O  O26  1  0.03557700  0.82107400  0.02705200  1
  O  O27  1  0.53557700  0.17892600  0.47294800  1
  O  O28  1  0.96442300  0.17892600  0.97294800  1
  O  O29  1  0.46442300  0.82107400  0.52705200  1
  O  O30  1  0.12343600  0.06797800  0.15140700  1
  O  O31  1  0.62343600  0.93202200  0.34859300  1
  O  O32  1  0.87656400  0.93202200  0.84859300  1
  O  O33  1  0.37656400  0.06797800  0.65140700  1
  O  O34  1  0.23082400  0.61005400  0.14797900  1
  O  O35  1  0.73082400  0.38994600  0.35202100  1
  O  O36  1  0.76917600  0.38994600  0.85202100  1
  O  O37  1  0.26917600  0.61005400  0.64797900  1
  O  O38  1  0.49882100  0.52526200  0.13063000  1
  O  O39  1  0.99882200  0.47473800  0.36937000  1
  O  O40  1  0.50117900  0.47473800  0.86937000  1
  O  O41  1  0.00117900  0.52526200  0.63063000  1
  O  O42  1  0.27029100  0.37326100  0.08308000  1
  O  O43  1  0.77029100  0.62673900  0.41692000  1
  O  O44  1  0.72970900  0.62673900  0.91692000  1
  O  O45  1  0.22970900  0.37326100  0.58308000  1
  O  O46  1  0.34427700  0.41601900  0.30391100  1
  O  O47  1  0.84427700  0.58398100  0.19608900  1
  O  O48  1  0.65572300  0.58398100  0.69608900  1
  O  O49  1  0.15572300  0.41601900  0.80391100  1
  O  O50  1  0.36441800  0.90024000  0.07106600  1
  O  O51  1  0.86441800  0.09976000  0.42893400  1
  O  O52  1  0.63558200  0.09976000  0.92893400  1
  O  O53  1  0.13558200  0.90024000  0.57106600  1
  O  O54  1  0.07632100  0.79147800  0.30714600  1
  O  O55  1  0.57632100  0.20852200  0.19285400  1
  O  O56  1  0.92367900  0.20852200  0.69285400  1
  O  O57  1  0.42367900  0.79147800  0.80714600  1
