# generated using pymatgen
data_SnH8C2Br3N
_symmetry_space_group_name_H-M   'P 1'
_cell_length_a   12.85621600
_cell_length_b   12.99106000
_cell_length_c   13.10447700
_cell_angle_alpha   90.00000000
_cell_angle_beta   90.00000000
_cell_angle_gamma   90.00000000
_symmetry_Int_Tables_number   1
_chemical_formula_structural   SnH8C2Br3N
_chemical_formula_sum   'Sn8 H64 C16 Br24 N8'
_cell_volume   2188.65567198
_cell_formula_units_Z   8
loop_
 _symmetry_equiv_pos_site_id
 _symmetry_equiv_pos_as_xyz
  1  'x, y, z'
loop_
 _atom_site_type_symbol
 _atom_site_label
 _atom_site_symmetry_multiplicity
 _atom_site_fract_x
 _atom_site_fract_y
 _atom_site_fract_z
 _atom_site_occupancy
  Sn  Sn0  1  0.25438700  0.49062400  0.69599700  1
  Sn  Sn1  1  0.24561300  0.50937600  0.19599700  1
  Sn  Sn2  1  0.75438700  0.00937600  0.30400300  1
  Sn  Sn3  1  0.74561300  0.99062400  0.80400300  1
  Sn  Sn4  1  0.74561300  0.50937600  0.30400300  1
  Sn  Sn5  1  0.75438700  0.49062400  0.80400300  1
  Sn  Sn6  1  0.24561300  0.99062400  0.69599700  1
  Sn  Sn7  1  0.25438700  0.00937600  0.19599700  1
  H  H8  1  0.95775200  0.13952000  0.45659800  1
  H  H9  1  0.54224800  0.86048000  0.95659800  1
  H  H10  1  0.45775200  0.36048000  0.54340200  1
  H  H11  1  0.04224800  0.63952000  0.04340200  1
  H  H12  1  0.04224800  0.86048000  0.54340200  1
  H  H13  1  0.45775200  0.13952000  0.04340200  1
  H  H14  1  0.54224800  0.63952000  0.45659800  1
  H  H15  1  0.95775200  0.36048000  0.95659800  1
  H  H16  1  0.05835800  0.15412800  0.53304600  1
  H  H17  1  0.44164200  0.84587200  0.03304600  1
  H  H18  1  0.55835800  0.34587200  0.46695400  1
  H  H19  1  0.94164200  0.65412800  0.96695400  1
  H  H20  1  0.94164200  0.84587200  0.46695400  1
  H  H21  1  0.55835800  0.15412800  0.96695400  1
  H  H22  1  0.44164200  0.65412800  0.53304600  1
  H  H23  1  0.05835800  0.34587200  0.03304600  1
  H  H24  1  0.08968300  0.23660500  0.37275300  1
  H  H25  1  0.41031700  0.76339500  0.87275300  1
  H  H26  1  0.58968300  0.26339500  0.62724700  1
  H  H27  1  0.91031700  0.73660500  0.12724700  1
  H  H28  1  0.91031700  0.76339500  0.62724700  1
  H  H29  1  0.58968300  0.23660500  0.12724700  1
  H  H30  1  0.41031700  0.73660500  0.37275300  1
  H  H31  1  0.08968300  0.26339500  0.87275300  1
  H  H32  1  0.97467000  0.31247400  0.39188600  1
  H  H33  1  0.52533000  0.68752600  0.89188600  1
  H  H34  1  0.47467000  0.18752600  0.60811400  1
  H  H35  1  0.02533000  0.81247400  0.10811400  1
  H  H36  1  0.02533000  0.68752600  0.60811400  1
  H  H37  1  0.47467000  0.31247400  0.10811400  1
  H  H38  1  0.52533000  0.81247400  0.39188600  1
  H  H39  1  0.97467000  0.18752600  0.89188600  1
  H  H40  1  0.08517100  0.32896800  0.47499000  1
  H  H41  1  0.41482900  0.67103200  0.97499000  1
  H  H42  1  0.58517100  0.17103200  0.52501000  1
  H  H43  1  0.91482900  0.82896800  0.02501000  1
  H  H44  1  0.91482900  0.67103200  0.52501000  1
  H  H45  1  0.58517100  0.32896800  0.02501000  1
  H  H46  1  0.41482900  0.82896800  0.47499000  1
  H  H47  1  0.08517100  0.17103200  0.97499000  1
  H  H48  1  0.86103500  0.27406000  0.54267700  1
  H  H49  1  0.63896500  0.72594000  0.04267700  1
  H  H50  1  0.36103500  0.22594000  0.45732300  1
  H  H51  1  0.13896500  0.77406000  0.95732300  1
  H  H52  1  0.13896500  0.72594000  0.45732300  1
  H  H53  1  0.36103500  0.27406000  0.95732300  1
  H  H54  1  0.63896500  0.77406000  0.54267700  1
  H  H55  1  0.86103500  0.22594000  0.04267700  1
  H  H56  1  0.90072000  0.17390700  0.62928600  1
  H  H57  1  0.59928000  0.82609300  0.12928600  1
  H  H58  1  0.40072000  0.32609300  0.37071400  1
  H  H59  1  0.09928000  0.67390700  0.87071400  1
  H  H60  1  0.09928000  0.82609300  0.37071400  1
  H  H61  1  0.40072000  0.17390700  0.87071400  1
  H  H62  1  0.59928000  0.67390700  0.62928600  1
  H  H63  1  0.90072000  0.32609300  0.12928600  1
  H  H64  1  0.97105000  0.29333300  0.62523400  1
  H  H65  1  0.52895000  0.70666700  0.12523400  1
  H  H66  1  0.47105000  0.20666700  0.37476600  1
  H  H67  1  0.02895000  0.79333300  0.87476600  1
  H  H68  1  0.02895000  0.70666700  0.37476600  1
  H  H69  1  0.47105000  0.29333300  0.87476600  1
  H  H70  1  0.52895000  0.79333300  0.62523400  1
  H  H71  1  0.97105000  0.20666700  0.12523400  1
  C  C72  1  0.03993700  0.27413300  0.42965700  1
  C  C73  1  0.46006300  0.72586700  0.92965700  1
  C  C74  1  0.53993700  0.22586700  0.57034300  1
  C  C75  1  0.96006300  0.77413300  0.07034300  1
  C  C76  1  0.96006300  0.72586700  0.57034300  1
  C  C77  1  0.53993700  0.27413300  0.07034300  1
  C  C78  1  0.46006300  0.77413300  0.42965700  1
  C  C79  1  0.03993700  0.22586700  0.92965700  1
  C  C80  1  0.92722100  0.23701800  0.58029200  1
  C  C81  1  0.57277900  0.76298200  0.08029200  1
  C  C82  1  0.42722100  0.26298200  0.41970800  1
  C  C83  1  0.07277900  0.73701800  0.91970800  1
  C  C84  1  0.07277900  0.76298200  0.41970800  1
  C  C85  1  0.42722100  0.23701800  0.91970800  1
  C  C86  1  0.57277900  0.73701800  0.58029200  1
  C  C87  1  0.92722100  0.26298200  0.08029200  1
  Br  Br88  1  0.23413300  0.28502700  0.67450300  1
  Br  Br89  1  0.26586700  0.71497300  0.17450300  1
  Br  Br90  1  0.73413300  0.21497300  0.32549700  1
  Br  Br91  1  0.76586700  0.78502700  0.82549700  1
  Br  Br92  1  0.76586700  0.71497300  0.32549700  1
  Br  Br93  1  0.73413300  0.28502700  0.82549700  1
  Br  Br94  1  0.26586700  0.78502700  0.67450300  1
  Br  Br95  1  0.23413300  0.21497300  0.17450300  1
  Br  Br96  1  0.46355200  0.48281400  0.71121800  1
  Br  Br97  1  0.03644800  0.51718600  0.21121800  1
  Br  Br98  1  0.96355200  0.01718600  0.28878200  1
  Br  Br99  1  0.53644800  0.98281400  0.78878200  1
  Br  Br100  1  0.53644800  0.51718600  0.28878200  1
  Br  Br101  1  0.96355200  0.48281400  0.78878200  1
  Br  Br102  1  0.03644800  0.98281400  0.71121800  1
  Br  Br103  1  0.46355200  0.01718600  0.21121800  1
  Br  Br104  1  0.27561400  0.52387300  0.49379600  1
  Br  Br105  1  0.22438600  0.47612700  0.99379600  1
  Br  Br106  1  0.77561400  0.97612700  0.50620400  1
  Br  Br107  1  0.72438600  0.02387300  0.00620400  1
  Br  Br108  1  0.72438600  0.47612700  0.50620400  1
  Br  Br109  1  0.77561400  0.52387300  0.00620400  1
  Br  Br110  1  0.22438600  0.02387300  0.49379600  1
  Br  Br111  1  0.27561400  0.97612700  0.99379600  1
  N  N112  1  0.99726800  0.19380300  0.49980400  1
  N  N113  1  0.50273200  0.80619700  0.99980400  1
  N  N114  1  0.49726800  0.30619700  0.50019600  1
  N  N115  1  0.00273200  0.69380300  0.00019600  1
  N  N116  1  0.00273200  0.80619700  0.50019600  1
  N  N117  1  0.49726800  0.19380300  0.00019600  1
  N  N118  1  0.50273200  0.69380300  0.49980400  1
  N  N119  1  0.99726800  0.30619700  0.99980400  1
