# generated using pymatgen
data_UI4O15
_symmetry_space_group_name_H-M   'P 1'
_cell_length_a   8.20527000
_cell_length_b   7.87608600
_cell_length_c   21.14043300
_cell_angle_alpha   90.00000000
_cell_angle_beta   90.00000000
_cell_angle_gamma   90.00000000
_symmetry_Int_Tables_number   1
_chemical_formula_structural   UI4O15
_chemical_formula_sum   'U4 I16 O60'
_cell_volume   1366.20919615
_cell_formula_units_Z   4
loop_
 _symmetry_equiv_pos_site_id
 _symmetry_equiv_pos_as_xyz
  1  'x, y, z'
loop_
 _atom_site_type_symbol
 _atom_site_label
 _atom_site_symmetry_multiplicity
 _atom_site_fract_x
 _atom_site_fract_y
 _atom_site_fract_z
 _atom_site_occupancy
  U  U0  1  0.50000000  0.47825600  0.25000000  1
  U  U1  1  0.00000000  0.02174400  0.75000000  1
  U  U2  1  0.50000000  0.52174400  0.75000000  1
  U  U3  1  0.00000000  0.97825600  0.25000000  1
  I  I4  1  0.16968500  0.95185600  0.44213400  1
  I  I5  1  0.33031500  0.54814400  0.94213400  1
  I  I6  1  0.66968500  0.54814400  0.55786600  1
  I  I7  1  0.83031500  0.95185600  0.05786600  1
  I  I8  1  0.83031500  0.04814400  0.55786600  1
  I  I9  1  0.66968500  0.45185600  0.05786600  1
  I  I10  1  0.33031500  0.45185600  0.44213400  1
  I  I11  1  0.16968500  0.04814400  0.94213400  1
  I  I12  1  0.81180800  0.66787400  0.37731600  1
  I  I13  1  0.68819200  0.83212600  0.87731600  1
  I  I14  1  0.31180800  0.83212600  0.62268400  1
  I  I15  1  0.18819200  0.66787400  0.12268400  1
  I  I16  1  0.18819200  0.33212600  0.62268400  1
  I  I17  1  0.31180800  0.16787400  0.12268400  1
  I  I18  1  0.68819200  0.16787400  0.37731600  1
  I  I19  1  0.81180800  0.33212600  0.87731600  1
  O  O20  1  0.50000000  0.78399900  0.25000000  1
  O  O21  1  0.00000000  0.71600100  0.75000000  1
  O  O22  1  0.50000000  0.21600100  0.75000000  1
  O  O23  1  0.00000000  0.28399900  0.25000000  1
  O  O24  1  0.89825400  0.45001400  0.37396700  1
  O  O25  1  0.60174600  0.04998600  0.87396700  1
  O  O26  1  0.39825400  0.04998600  0.62603300  1
  O  O27  1  0.10174600  0.45001400  0.12603300  1
  O  O28  1  0.10174600  0.54998600  0.62603300  1
  O  O29  1  0.39825400  0.95001400  0.12603300  1
  O  O30  1  0.60174600  0.95001400  0.37396700  1
  O  O31  1  0.89825400  0.54998600  0.87396700  1
  O  O32  1  0.14669900  0.96313400  0.52930300  1
  O  O33  1  0.35330100  0.53686600  0.02930300  1
  O  O34  1  0.64669900  0.53686600  0.47069700  1
  O  O35  1  0.85330100  0.96313400  0.97069700  1
  O  O36  1  0.85330100  0.03686600  0.47069700  1
  O  O37  1  0.64669900  0.46313400  0.97069700  1
  O  O38  1  0.35330100  0.46313400  0.52930300  1
  O  O39  1  0.14669900  0.03686600  0.02930300  1
  O  O40  1  0.89201900  0.74514600  0.30160700  1
  O  O41  1  0.60798100  0.75485400  0.80160700  1
  O  O42  1  0.39201900  0.75485400  0.69839300  1
  O  O43  1  0.10798100  0.74514600  0.19839300  1
  O  O44  1  0.10798100  0.25485400  0.69839300  1
  O  O45  1  0.39201900  0.24514600  0.19839300  1
  O  O46  1  0.60798100  0.24514600  0.30160700  1
  O  O47  1  0.89201900  0.25485400  0.80160700  1
  O  O48  1  0.31890900  0.48555800  0.30027900  1
  O  O49  1  0.18109100  0.01444200  0.80027900  1
  O  O50  1  0.81890900  0.01444200  0.69972100  1
  O  O51  1  0.68109100  0.48555800  0.19972100  1
  O  O52  1  0.68109100  0.51444200  0.69972100  1
  O  O53  1  0.81890900  0.98555800  0.19972100  1
  O  O54  1  0.18109100  0.98555800  0.30027900  1
  O  O55  1  0.31890900  0.51444200  0.80027900  1
  O  O56  1  0.61591300  0.59229500  0.34098500  1
  O  O57  1  0.88408700  0.90770500  0.84098500  1
  O  O58  1  0.11591300  0.90770500  0.65901500  1
  O  O59  1  0.38408700  0.59229500  0.15901500  1
  O  O60  1  0.38408700  0.40770500  0.65901500  1
  O  O61  1  0.11591300  0.09229500  0.15901500  1
  O  O62  1  0.88408700  0.09229500  0.34098500  1
  O  O63  1  0.61591300  0.40770500  0.84098500  1
  O  O64  1  0.07363700  0.74465400  0.42515900  1
  O  O65  1  0.42636300  0.75534600  0.92515900  1
  O  O66  1  0.57363700  0.75534600  0.57484100  1
  O  O67  1  0.92636300  0.74465400  0.07484100  1
  O  O68  1  0.92636300  0.25534600  0.57484100  1
  O  O69  1  0.57363700  0.24465400  0.07484100  1
  O  O70  1  0.42636300  0.24465400  0.42515900  1
  O  O71  1  0.07363700  0.25534600  0.92515900  1
  O  O72  1  0.37785500  0.86226400  0.44397700  1
  O  O73  1  0.12214500  0.63773600  0.94397700  1
  O  O74  1  0.87785500  0.63773600  0.55602300  1
  O  O75  1  0.62214500  0.86226400  0.05602300  1
  O  O76  1  0.62214500  0.13773600  0.55602300  1
  O  O77  1  0.87785500  0.36226400  0.05602300  1
  O  O78  1  0.12214500  0.36226400  0.44397700  1
  O  O79  1  0.37785500  0.13773600  0.94397700  1
