# generated using pymatgen
data_MnSnH16C6S3O11
_symmetry_space_group_name_H-M   'P 1'
_cell_length_a   10.05243700
_cell_length_b   10.83691000
_cell_length_c   16.18667109
_cell_angle_alpha   90.00000000
_cell_angle_beta   96.34628264
_cell_angle_gamma   90.00000000
_symmetry_Int_Tables_number   1
_chemical_formula_structural   MnSnH16C6S3O11
_chemical_formula_sum   'Mn4 Sn4 H64 C24 S12 O44'
_cell_volume   1752.52741168
_cell_formula_units_Z   4
loop_
 _symmetry_equiv_pos_site_id
 _symmetry_equiv_pos_as_xyz
  1  'x, y, z'
loop_
 _atom_site_type_symbol
 _atom_site_label
 _atom_site_symmetry_multiplicity
 _atom_site_fract_x
 _atom_site_fract_y
 _atom_site_fract_z
 _atom_site_occupancy
  Mn  Mn0  1  0.89931100  0.72793800  0.80163700  1
  Mn  Mn1  1  0.10068900  0.22793800  0.69836300  1
  Mn  Mn2  1  0.10068900  0.27206200  0.19836300  1
  Mn  Mn3  1  0.89931100  0.77206200  0.30163700  1
  Sn  Sn4  1  0.31424800  0.74845300  0.58233400  1
  Sn  Sn5  1  0.68575200  0.24845300  0.91766600  1
  Sn  Sn6  1  0.68575200  0.25154700  0.41766600  1
  Sn  Sn7  1  0.31424800  0.75154700  0.08233400  1
  H  H8  1  0.80762600  0.97444900  0.82264100  1
  H  H9  1  0.19237400  0.47444900  0.67735900  1
  H  H10  1  0.19237400  0.02555100  0.17735900  1
  H  H11  1  0.80762600  0.52555100  0.32264100  1
  H  H12  1  0.96451800  0.96325200  0.85060600  1
  H  H13  1  0.03548200  0.46325200  0.64939400  1
  H  H14  1  0.03548200  0.03674800  0.14939400  1
  H  H15  1  0.96451800  0.53674800  0.35060600  1
  H  H16  1  0.00973400  0.77209500  0.96236900  1
  H  H17  1  0.99026600  0.27209500  0.53763100  1
  H  H18  1  0.99026600  0.22790500  0.03763100  1
  H  H19  1  0.00973400  0.72790500  0.46236900  1
  H  H20  1  0.90177300  0.66687600  0.97696100  1
  H  H21  1  0.09822700  0.16687600  0.52303900  1
  H  H22  1  0.09822700  0.33312400  0.02303900  1
  H  H23  1  0.90177300  0.83312400  0.47696100  1
  H  H24  1  0.64542200  0.66892300  0.86106400  1
  H  H25  1  0.35457800  0.16892300  0.63893600  1
  H  H26  1  0.35457800  0.33107700  0.13893600  1
  H  H27  1  0.64542200  0.83107700  0.36106400  1
  H  H28  1  0.61195000  0.72939500  0.77260100  1
  H  H29  1  0.38805000  0.22939500  0.72739900  1
  H  H30  1  0.38805000  0.27060500  0.22739900  1
  H  H31  1  0.61195000  0.77060500  0.27260100  1
  H  H32  1  0.01686300  0.49460800  0.78090300  1
  H  H33  1  0.98313700  0.99460800  0.71909700  1
  H  H34  1  0.98313700  0.50539200  0.21909700  1
  H  H35  1  0.01686300  0.00539200  0.28090300  1
  H  H36  1  0.94464900  0.48764600  0.86378800  1
  H  H37  1  0.05535100  0.98764600  0.63621200  1
  H  H38  1  0.05535100  0.51235400  0.13621200  1
  H  H39  1  0.94464900  0.01235400  0.36378800  1
  H  H40  1  0.85618300  0.65609100  0.63291900  1
  H  H41  1  0.14381700  0.15609100  0.86708100  1
  H  H42  1  0.14381700  0.34390900  0.36708100  1
  H  H43  1  0.85618300  0.84390900  0.13291900  1
  H  H44  1  0.82998400  0.80085000  0.62980300  1
  H  H45  1  0.17001600  0.30085000  0.87019700  1
  H  H46  1  0.17001600  0.19915000  0.37019700  1
  H  H47  1  0.82998400  0.69915000  0.12980300  1
  H  H48  1  0.38993800  0.00544500  0.40591200  1
  H  H49  1  0.61006200  0.50544500  0.09408800  1
  H  H50  1  0.61006200  0.99455500  0.59408800  1
  H  H51  1  0.38993800  0.49455500  0.90591200  1
  H  H52  1  0.28350300  0.94807400  0.77681400  1
  H  H53  1  0.71649700  0.44807400  0.72318600  1
  H  H54  1  0.71649700  0.05192600  0.22318600  1
  H  H55  1  0.28350300  0.55192600  0.27681400  1
  H  H56  1  0.35419100  0.81726200  0.83108100  1
  H  H57  1  0.64580900  0.31726200  0.66891900  1
  H  H58  1  0.64580900  0.18273800  0.16891900  1
  H  H59  1  0.35419100  0.68273800  0.33108100  1
  H  H60  1  0.26763700  0.37603900  0.52047300  1
  H  H61  1  0.73236300  0.87603900  0.97952700  1
  H  H62  1  0.73236300  0.62396100  0.47952700  1
  H  H63  1  0.26763700  0.12396100  0.02047300  1
  H  H64  1  0.37332400  0.47019100  0.46564700  1
  H  H65  1  0.62667600  0.97019100  0.03435300  1
  H  H66  1  0.62667600  0.52980900  0.53435300  1
  H  H67  1  0.37332400  0.02980900  0.96564700  1
  H  H68  1  0.27443500  0.88945600  0.36630900  1
  H  H69  1  0.72556500  0.38945600  0.13369100  1
  H  H70  1  0.72556500  0.11054400  0.63369100  1
  H  H71  1  0.27443500  0.61054400  0.86630900  1
  C  C72  1  0.31485500  0.85184200  0.76931100  1
  C  C73  1  0.68514500  0.35184200  0.73068900  1
  C  C74  1  0.68514500  0.14815800  0.23068900  1
  C  C75  1  0.31485500  0.64815800  0.26931100  1
  C  C76  1  0.18697500  0.78129700  0.74102500  1
  C  C77  1  0.81302500  0.28129700  0.75897500  1
  C  C78  1  0.81302500  0.21870300  0.25897500  1
  C  C79  1  0.18697500  0.71870300  0.24102500  1
  C  C80  1  0.29936600  0.47147900  0.51112500  1
  C  C81  1  0.70063400  0.97147900  0.98887500  1
  C  C82  1  0.70063400  0.52852100  0.48887500  1
  C  C83  1  0.29936600  0.02852100  0.01112500  1
  C  C84  1  0.17701500  0.54181400  0.47200100  1
  C  C85  1  0.82298500  0.04181400  0.02799900  1
  C  C86  1  0.82298500  0.45818600  0.52799900  1
  C  C87  1  0.17701500  0.95818600  0.97200100  1
  C  C88  1  0.33082200  0.92622600  0.42312800  1
  C  C89  1  0.66917800  0.42622600  0.07687200  1
  C  C90  1  0.66917800  0.07377400  0.57687200  1
  C  C91  1  0.33082200  0.57377400  0.92312800  1
  C  C92  1  0.22587000  0.97448400  0.47602100  1
  C  C93  1  0.77413000  0.47448400  0.02397900  1
  C  C94  1  0.77413000  0.02551600  0.52397900  1
  C  C95  1  0.22587000  0.52551600  0.97602100  1
  S  S96  1  0.44799500  0.84873000  0.70191700  1
  S  S97  1  0.55200500  0.34873000  0.79808300  1
  S  S98  1  0.55200500  0.15127000  0.29808300  1
  S  S99  1  0.44799500  0.65127000  0.20191700  1
  S  S100  1  0.37798700  0.52952500  0.61016400  1
  S  S101  1  0.62201300  0.02952500  0.88983600  1
  S  S102  1  0.62201300  0.47047500  0.38983600  1
  S  S103  1  0.37798700  0.97047500  0.11016400  1
  S  S104  1  0.44755100  0.80997800  0.46843700  1
  S  S105  1  0.55244900  0.30997800  0.03156300  1
  S  S106  1  0.55244900  0.19002200  0.53156300  1
  S  S107  1  0.44755100  0.69002200  0.96843700  1
  O  O108  1  0.16057200  0.74243600  0.66582200  1
  O  O109  1  0.83942800  0.24243600  0.83417800  1
  O  O110  1  0.83942800  0.25756400  0.33417800  1
  O  O111  1  0.16057200  0.75756400  0.16582200  1
  O  O112  1  0.10818700  0.76546200  0.79538700  1
  O  O113  1  0.89181300  0.26546200  0.70461300  1
  O  O114  1  0.89181300  0.23453800  0.20461300  1
  O  O115  1  0.10818700  0.73453800  0.29538700  1
  O  O116  1  0.15587200  0.65304600  0.49666200  1
  O  O117  1  0.84412800  0.15304600  0.00333800  1
  O  O118  1  0.84412800  0.34695400  0.50333800  1
  O  O119  1  0.15587200  0.84695400  0.99666200  1
  O  O120  1  0.10221700  0.48812700  0.41577100  1
  O  O121  1  0.89778300  0.98812700  0.08422900  1
  O  O122  1  0.89778300  0.51187300  0.58422900  1
  O  O123  1  0.10221700  0.01187300  0.91577100  1
  O  O124  1  0.19878900  0.91443500  0.54111700  1
  O  O125  1  0.80121100  0.41443500  0.95888300  1
  O  O126  1  0.80121100  0.08556500  0.45888300  1
  O  O127  1  0.19878900  0.58556500  0.04111700  1
  O  O128  1  0.16536700  0.07229600  0.45239100  1
  O  O129  1  0.83463300  0.57229600  0.04760900  1
  O  O130  1  0.83463300  0.92770400  0.54760900  1
  O  O131  1  0.16536700  0.42770400  0.95239100  1
  O  O132  1  0.89147100  0.93731300  0.80653900  1
  O  O133  1  0.10852900  0.43731300  0.69346100  1
  O  O134  1  0.10852900  0.06268700  0.19346100  1
  O  O135  1  0.89147100  0.56268700  0.30653900  1
  O  O136  1  0.92506400  0.73265400  0.93795100  1
  O  O137  1  0.07493600  0.23265400  0.56204900  1
  O  O138  1  0.07493600  0.26734600  0.06204900  1
  O  O139  1  0.92506400  0.76734600  0.43795100  1
  O  O140  1  0.68475200  0.69171800  0.81077200  1
  O  O141  1  0.31524800  0.19171800  0.68922800  1
  O  O142  1  0.31524800  0.30828200  0.18922800  1
  O  O143  1  0.68475200  0.80828200  0.31077200  1
  O  O144  1  0.94290100  0.52798900  0.80959700  1
  O  O145  1  0.05709900  0.02798900  0.69040300  1
  O  O146  1  0.05709900  0.47201100  0.19040300  1
  O  O147  1  0.94290100  0.97201100  0.30959700  1
  O  O148  1  0.83152900  0.72788100  0.66631500  1
  O  O149  1  0.16847100  0.22788100  0.83368500  1
  O  O150  1  0.16847100  0.27211900  0.33368500  1
  O  O151  1  0.83152900  0.77211900  0.16631500  1
