# generated using pymatgen
data_CoP3H33C11I
_symmetry_space_group_name_H-M   'P 1'
_cell_length_a   9.42183135
_cell_length_b   14.55573047
_cell_length_c   16.83083137
_cell_angle_alpha   90.00000000
_cell_angle_beta   90.00000000
_cell_angle_gamma   89.24444071
_symmetry_Int_Tables_number   1
_chemical_formula_structural   CoP3H33C11I
_chemical_formula_sum   'Co4 P12 H132 C44 I4'
_cell_volume   2308.00708562
_cell_formula_units_Z   4
loop_
 _symmetry_equiv_pos_site_id
 _symmetry_equiv_pos_as_xyz
  1  'x, y, z'
loop_
 _atom_site_type_symbol
 _atom_site_label
 _atom_site_symmetry_multiplicity
 _atom_site_fract_x
 _atom_site_fract_y
 _atom_site_fract_z
 _atom_site_occupancy
  Co  Co0  1  0.73551313  0.79406138  0.55088264  1
  Co  Co1  1  0.26448687  0.70593862  0.05088264  1
  Co  Co2  1  0.26448687  0.20593862  0.44911736  1
  Co  Co3  1  0.73551313  0.29406138  0.94911736  1
  P  P4  1  0.70639280  0.90376679  0.64799109  1
  P  P5  1  0.29360720  0.59623321  0.14799109  1
  P  P6  1  0.29360720  0.09623321  0.35200891  1
  P  P7  1  0.70639280  0.40376679  0.85200891  1
  P  P8  1  0.96887490  0.75363088  0.58635932  1
  P  P9  1  0.03112510  0.74636912  0.08635932  1
  P  P10  1  0.03112510  0.24636912  0.41364068  1
  P  P11  1  0.96887490  0.25363088  0.91364068  1
  P  P12  1  0.70290750  0.68032535  0.46042751  1
  P  P13  1  0.29709250  0.81967465  0.96042751  1
  P  P14  1  0.29709250  0.31967465  0.53957249  1
  P  P15  1  0.70290750  0.18032535  0.03957249  1
  H  H16  1  0.85898922  0.94237424  0.50187497  1
  H  H17  1  0.14101078  0.55762576  0.00187497  1
  H  H18  1  0.14101078  0.05762576  0.49812503  1
  H  H19  1  0.85898922  0.44237424  0.99812503  1
  H  H20  1  0.90762872  0.84884912  0.43867670  1
  H  H21  1  0.09237128  0.65115088  0.93867670  1
  H  H22  1  0.09237128  0.15115088  0.56132330  1
  H  H23  1  0.90762872  0.34884912  0.06132330  1
  H  H24  1  0.73945277  0.90348933  0.42826122  1
  H  H25  1  0.26054723  0.59651067  0.92826122  1
  H  H26  1  0.26054723  0.09651067  0.57173878  1
  H  H27  1  0.73945277  0.40348933  0.07173878  1
  H  H28  1  0.54669207  0.83804628  0.44116180  1
  H  H29  1  0.45330793  0.66195372  0.94116180  1
  H  H30  1  0.45330793  0.16195372  0.55883820  1
  H  H31  1  0.54669207  0.33804628  0.05883820  1
  H  H32  1  0.45913640  0.80897563  0.53196666  1
  H  H33  1  0.54086360  0.69102437  0.03196666  1
  H  H34  1  0.54086360  0.19102437  0.46803334  1
  H  H35  1  0.45913640  0.30897563  0.96803334  1
  H  H36  1  0.53985825  0.91850145  0.51831730  1
  H  H37  1  0.46014175  0.58149855  0.01831730  1
  H  H38  1  0.46014175  0.08149855  0.48168270  1
  H  H39  1  0.53985825  0.41850145  0.98168270  1
  H  H40  1  0.74220669  0.06535049  0.67956367  1
  H  H41  1  0.25779331  0.43464951  0.17956367  1
  H  H42  1  0.25779331  0.93464951  0.32043633  1
  H  H43  1  0.74220669  0.56535049  0.82043633  1
  H  H44  1  0.88802700  0.02067013  0.62303943  1
  H  H45  1  0.11197300  0.47932987  0.12303943  1
  H  H46  1  0.11197300  0.97932987  0.37696057  1
  H  H47  1  0.88802700  0.52067013  0.87696057  1
  H  H48  1  0.72429674  0.04891825  0.57503651  1
  H  H49  1  0.27570326  0.45108175  0.07503651  1
  H  H50  1  0.27570326  0.95108175  0.42496349  1
  H  H51  1  0.72429674  0.54891825  0.92496349  1
  H  H52  1  0.71276844  0.83517484  0.77983216  1
  H  H53  1  0.28723156  0.66482516  0.27983216  1
  H  H54  1  0.28723156  0.16482516  0.22016784  1
  H  H55  1  0.71276844  0.33517484  0.72016784  1
  H  H56  1  0.88796579  0.85961829  0.74763209  1
  H  H57  1  0.11203421  0.64038171  0.24763209  1
  H  H58  1  0.11203421  0.14038171  0.25236791  1
  H  H59  1  0.88796579  0.35961829  0.75236791  1
  H  H60  1  0.77459276  0.95088201  0.78140637  1
  H  H61  1  0.22540724  0.54911799  0.28140637  1
  H  H62  1  0.22540724  0.04911799  0.21859363  1
  H  H63  1  0.77459276  0.45088201  0.71859363  1
  H  H64  1  0.46679378  0.97030834  0.63080796  1
  H  H65  1  0.53320622  0.52969166  0.13080796  1
  H  H66  1  0.53320622  0.02969166  0.36919204  1
  H  H67  1  0.46679378  0.47030834  0.86919204  1
  H  H68  1  0.46672259  0.87143406  0.69390521  1
  H  H69  1  0.53327741  0.62856594  0.19390521  1
  H  H70  1  0.53327741  0.12856594  0.30609479  1
  H  H71  1  0.46672259  0.37143406  0.80609479  1
  H  H72  1  0.52907051  0.97964883  0.73032560  1
  H  H73  1  0.47092949  0.52035117  0.23032560  1
  H  H74  1  0.47092949  0.02035117  0.26967440  1
  H  H75  1  0.52907051  0.47964883  0.76967440  1
  H  H76  1  0.94057217  0.67855621  0.71537150  1
  H  H77  1  0.05942783  0.82144379  0.21537150  1
  H  H78  1  0.05942783  0.32144379  0.28462850  1
  H  H79  1  0.94057217  0.17855621  0.78462850  1
  H  H80  1  0.97693390  0.59697873  0.63999146  1
  H  H81  1  0.02306610  0.90302127  0.13999146  1
  H  H82  1  0.02306610  0.40302127  0.36000854  1
  H  H83  1  0.97693390  0.09697873  0.86000854  1
  H  H84  1  0.11848375  0.66429367  0.67881329  1
  H  H85  1  0.88151625  0.83570633  0.17881329  1
  H  H86  1  0.88151625  0.33570633  0.32118671  1
  H  H87  1  0.11848375  0.16429367  0.82118671  1
  H  H88  1  0.19954229  0.81628825  0.62507405  1
  H  H89  1  0.80045771  0.68371175  0.12507405  1
  H  H90  1  0.80045771  0.18371175  0.37492595  1
  H  H91  1  0.19954229  0.31628825  0.87492595  1
  H  H92  1  0.08727517  0.90360205  0.58423706  1
  H  H93  1  0.91272483  0.59639795  0.08423706  1
  H  H94  1  0.91272483  0.09639795  0.41576294  1
  H  H95  1  0.08727517  0.40360205  0.91576294  1
  H  H96  1  0.06178973  0.86530661  0.68365693  1
  H  H97  1  0.93821027  0.63469339  0.18365693  1
  H  H98  1  0.93821027  0.13469339  0.31634307  1
  H  H99  1  0.06178973  0.36530661  0.81634307  1
  H  H100  1  0.04923586  0.65231496  0.47597517  1
  H  H101  1  0.95076414  0.84768504  0.97597517  1
  H  H102  1  0.95076414  0.34768504  0.52402483  1
  H  H103  1  0.04923586  0.15231496  0.02402483  1
  H  H104  1  0.10633548  0.76739719  0.46358173  1
  H  H105  1  0.89366452  0.73260281  0.96358173  1
  H  H106  1  0.89366452  0.23260281  0.53641827  1
  H  H107  1  0.10633548  0.26739719  0.03641827  1
  H  H108  1  0.19419477  0.69405742  0.53272298  1
  H  H109  1  0.80580523  0.80594258  0.03272298  1
  H  H110  1  0.80580523  0.30594258  0.46727702  1
  H  H111  1  0.19419477  0.19405742  0.96727702  1
  H  H112  1  0.52425773  0.58869460  0.39281514  1
  H  H113  1  0.47574227  0.91130540  0.89281514  1
  H  H114  1  0.47574227  0.41130540  0.60718486  1
  H  H115  1  0.52425773  0.08869460  0.10718486  1
  H  H116  1  0.46787319  0.62048946  0.49048273  1
  H  H117  1  0.53212681  0.87951054  0.99048273  1
  H  H118  1  0.53212681  0.37951054  0.50951727  1
  H  H119  1  0.46787319  0.12048946  0.00951727  1
  H  H120  1  0.45900807  0.70218903  0.41138130  1
  H  H121  1  0.54099193  0.79781097  0.91138130  1
  H  H122  1  0.54099193  0.29781097  0.58861870  1
  H  H123  1  0.45900807  0.20218903  0.08861870  1
  H  H124  1  0.71063528  0.75545853  0.33004830  1
  H  H125  1  0.28936472  0.74454147  0.83004830  1
  H  H126  1  0.28936472  0.24454147  0.66995170  1
  H  H127  1  0.71063528  0.25545853  0.16995170  1
  H  H128  1  0.88130281  0.71186192  0.35755509  1
  H  H129  1  0.11869719  0.78813808  0.85755509  1
  H  H130  1  0.11869719  0.28813808  0.64244491  1
  H  H131  1  0.88130281  0.21186192  0.14244491  1
  H  H132  1  0.74784484  0.63556885  0.32273189  1
  H  H133  1  0.25215516  0.86443115  0.82273189  1
  H  H134  1  0.25215516  0.36443115  0.67726811  1
  H  H135  1  0.74784484  0.13556885  0.17726811  1
  H  H136  1  0.89203692  0.56797769  0.49085118  1
  H  H137  1  0.10796308  0.93202231  0.99085118  1
  H  H138  1  0.10796308  0.43202231  0.50914882  1
  H  H139  1  0.89203692  0.06797769  0.00914882  1
  H  H140  1  0.72571773  0.53573470  0.53186773  1
  H  H141  1  0.27428227  0.96426530  0.03186773  1
  H  H142  1  0.27428227  0.46426530  0.46813227  1
  H  H143  1  0.72571773  0.03573470  0.96813227  1
  H  H144  1  0.75930904  0.52056279  0.42787101  1
  H  H145  1  0.24069096  0.97943721  0.92787101  1
  H  H146  1  0.24069096  0.47943721  0.57212899  1
  H  H147  1  0.75930904  0.02056279  0.07212899  1
  C  C148  1  0.81986268  0.88075932  0.47183650  1
  C  C149  1  0.18013732  0.61924068  0.97183650  1
  C  C150  1  0.18013732  0.11924068  0.52816350  1
  C  C151  1  0.81986268  0.38075932  0.02816350  1
  C  C152  1  0.55030506  0.84460654  0.50627164  1
  C  C153  1  0.44969494  0.65539346  0.00627164  1
  C  C154  1  0.44969494  0.15539346  0.49372836  1
  C  C155  1  0.55030506  0.34460654  0.99372836  1
  C  C156  1  0.77201518  0.02070999  0.62931887  1
  C  C157  1  0.22798482  0.47929001  0.12931887  1
  C  C158  1  0.22798482  0.97929001  0.37068113  1
  C  C159  1  0.77201518  0.52070999  0.87068113  1
  C  C160  1  0.77830953  0.88532621  0.74886565  1
  C  C161  1  0.22169047  0.61467379  0.24886565  1
  C  C162  1  0.22169047  0.11467379  0.25113435  1
  C  C163  1  0.77830953  0.38532621  0.75113435  1
  C  C164  1  0.52372092  0.93409769  0.67830242  1
  C  C165  1  0.47627908  0.56590231  0.17830242  1
  C  C166  1  0.47627908  0.06590231  0.32169758  1
  C  C167  1  0.52372092  0.43409769  0.82169758  1
  C  C168  1  0.00541952  0.66495301  0.66241290  1
  C  C169  1  0.99458048  0.83504699  0.16241290  1
  C  C170  1  0.99458048  0.33504699  0.33758710  1
  C  C171  1  0.00541952  0.16495301  0.83758710  1
  C  C172  1  0.08988438  0.84352829  0.62336961  1
  C  C173  1  0.91011562  0.65647171  0.12336961  1
  C  C174  1  0.91011562  0.15647171  0.37663039  1
  C  C175  1  0.08988438  0.34352829  0.87663039  1
  C  C176  1  0.09023697  0.71240536  0.50702014  1
  C  C177  1  0.90976303  0.78759464  0.00702014  1
  C  C178  1  0.90976303  0.28759464  0.49297986  1
  C  C179  1  0.09023697  0.21240536  0.99297986  1
  C  C180  1  0.52049316  0.64483173  0.43647039  1
  C  C181  1  0.47950684  0.85516827  0.93647039  1
  C  C182  1  0.47950684  0.35516827  0.56352961  1
  C  C183  1  0.52049316  0.14483173  0.06352961  1
  C  C184  1  0.76716897  0.69761975  0.35802563  1
  C  C185  1  0.23283103  0.80238025  0.85802563  1
  C  C186  1  0.23283103  0.30238025  0.64197437  1
  C  C187  1  0.76716897  0.19761975  0.14197437  1
  C  C188  1  0.77770045  0.56489266  0.47961365  1
  C  C189  1  0.22229955  0.93510734  0.97961365  1
  C  C190  1  0.22229955  0.43510734  0.52038635  1
  C  C191  1  0.77770045  0.06489266  0.02038635  1
  I  I192  1  0.60091586  0.67936107  0.65489481  1
  I  I193  1  0.39908414  0.82063893  0.15489481  1
  I  I194  1  0.39908414  0.32063893  0.34510519  1
  I  I195  1  0.60091586  0.17936107  0.84510519  1
