# generated using pymatgen
data_Na8H10S8O17
_symmetry_space_group_name_H-M   'P 1'
_cell_length_a   11.39022822
_cell_length_b   11.61177905
_cell_length_c   17.56582645
_cell_angle_alpha   94.92825065
_cell_angle_beta   90.00000000
_cell_angle_gamma   90.00000000
_symmetry_Int_Tables_number   1
_chemical_formula_structural   Na8H10S8O17
_chemical_formula_sum   'Na32 H40 S32 O68'
_cell_volume   2314.68149945
_cell_formula_units_Z   4
loop_
 _symmetry_equiv_pos_site_id
 _symmetry_equiv_pos_as_xyz
  1  'x, y, z'
loop_
 _atom_site_type_symbol
 _atom_site_label
 _atom_site_symmetry_multiplicity
 _atom_site_fract_x
 _atom_site_fract_y
 _atom_site_fract_z
 _atom_site_occupancy
  Na  Na0  1  0.35760370  0.51410340  0.89860483  1
  Na  Na1  1  0.85760370  0.48589660  0.60139517  1
  Na  Na2  1  0.64239630  0.48589660  0.10139517  1
  Na  Na3  1  0.14239630  0.51410340  0.39860483  1
  Na  Na4  1  0.11440237  0.51015131  0.75238002  1
  Na  Na5  1  0.61440237  0.48984869  0.74761998  1
  Na  Na6  1  0.88559763  0.48984869  0.24761998  1
  Na  Na7  1  0.38559763  0.51015131  0.25238002  1
  Na  Na8  1  0.13171679  0.16885798  0.75410964  1
  Na  Na9  1  0.63171679  0.83114202  0.74589036  1
  Na  Na10  1  0.86828321  0.83114202  0.24589036  1
  Na  Na11  1  0.36828321  0.16885798  0.25410964  1
  Na  Na12  1  0.12741833  0.66216734  0.59348922  1
  Na  Na13  1  0.62741833  0.33783266  0.90651078  1
  Na  Na14  1  0.87258167  0.33783266  0.40651078  1
  Na  Na15  1  0.37258167  0.66216734  0.09348922  1
  Na  Na16  1  0.12737051  0.34284745  0.91043460  1
  Na  Na17  1  0.62737051  0.65715255  0.58956540  1
  Na  Na18  1  0.87262949  0.65715255  0.08956540  1
  Na  Na19  1  0.37262949  0.34284745  0.41043460  1
  Na  Na20  1  0.85823988  0.51105727  0.89406607  1
  Na  Na21  1  0.35823988  0.48894273  0.60593393  1
  Na  Na22  1  0.14176012  0.48894273  0.10593393  1
  Na  Na23  1  0.64176012  0.51105727  0.39406607  1
  Na  Na24  1  0.89975058  0.81522846  0.90385753  1
  Na  Na25  1  0.39975058  0.18477154  0.59614247  1
  Na  Na26  1  0.10024942  0.18477154  0.09614247  1
  Na  Na27  1  0.60024942  0.81522846  0.40385753  1
  Na  Na28  1  0.39894563  0.82447390  0.91010583  1
  Na  Na29  1  0.89894563  0.17552610  0.58989417  1
  Na  Na30  1  0.60105437  0.17552610  0.08989417  1
  Na  Na31  1  0.10105437  0.82447390  0.41010583  1
  H  H32  1  0.88791297  0.06347223  0.88268802  1
  H  H33  1  0.38791297  0.93652777  0.61731198  1
  H  H34  1  0.11208703  0.93652777  0.11731198  1
  H  H35  1  0.61208703  0.06347223  0.38268802  1
  H  H36  1  0.89983655  0.07426378  0.97287903  1
  H  H37  1  0.39983655  0.92573622  0.52712097  1
  H  H38  1  0.10016345  0.92573622  0.02712097  1
  H  H39  1  0.60016345  0.07426378  0.47287903  1
  H  H40  1  0.06253881  0.92718929  0.72293078  1
  H  H41  1  0.56253881  0.07281071  0.77706922  1
  H  H42  1  0.93746119  0.07281071  0.27706922  1
  H  H43  1  0.43746119  0.92718929  0.22293078  1
  H  H44  1  0.20100848  0.93047490  0.72222565  1
  H  H45  1  0.70100848  0.06952510  0.77777435  1
  H  H46  1  0.79899152  0.06952510  0.27777435  1
  H  H47  1  0.29899152  0.93047490  0.22222565  1
  H  H48  1  0.06797597  0.08838547  0.90338228  1
  H  H49  1  0.56797597  0.91161453  0.59661772  1
  H  H50  1  0.93202403  0.91161453  0.09661772  1
  H  H51  1  0.43202403  0.08838547  0.40338228  1
  H  H52  1  0.20697466  0.09547933  0.90546556  1
  H  H53  1  0.70697466  0.90452067  0.59453444  1
  H  H54  1  0.79302534  0.90452067  0.09453444  1
  H  H55  1  0.29302534  0.09547933  0.40546556  1
  H  H56  1  0.38319472  0.07206705  0.88019317  1
  H  H57  1  0.88319472  0.92793295  0.61980683  1
  H  H58  1  0.61680528  0.92793295  0.11980683  1
  H  H59  1  0.11680528  0.07206705  0.38019317  1
  H  H60  1  0.37431846  0.07880236  0.97037463  1
  H  H61  1  0.87431846  0.92119764  0.52962537  1
  H  H62  1  0.62568154  0.92119764  0.02962537  1
  H  H63  1  0.12568154  0.07880236  0.47037463  1
  H  H64  1  0.21771306  0.86183865  0.53697705  1
  H  H65  1  0.71771306  0.13816135  0.96302295  1
  H  H66  1  0.78228694  0.13816135  0.46302295  1
  H  H67  1  0.28228694  0.86183865  0.03697705  1
  H  H68  1  0.13093809  0.90909903  0.60205941  1
  H  H69  1  0.63093809  0.09090097  0.89794059  1
  H  H70  1  0.86906191  0.09090097  0.39794059  1
  H  H71  1  0.36906191  0.90909903  0.10205941  1
  S  S72  1  0.88483828  0.85683919  0.73823005  1
  S  S73  1  0.38483828  0.14316081  0.76176995  1
  S  S74  1  0.11516172  0.14316081  0.26176995  1
  S  S75  1  0.61516172  0.85683919  0.23823005  1
  S  S76  1  0.37953802  0.85887930  0.73648880  1
  S  S77  1  0.87953802  0.14112070  0.76351120  1
  S  S78  1  0.62046198  0.14112070  0.26351120  1
  S  S79  1  0.12046198  0.85887930  0.23648880  1
  S  S80  1  0.35386884  0.19706654  0.08509901  1
  S  S81  1  0.85386884  0.80293346  0.41490099  1
  S  S82  1  0.64613116  0.80293346  0.91490099  1
  S  S83  1  0.14613116  0.19706654  0.58509901  1
  S  S84  1  0.85245642  0.19353419  0.07842160  1
  S  S85  1  0.35245642  0.80646581  0.42157840  1
  S  S86  1  0.14754358  0.80646581  0.92157840  1
  S  S87  1  0.64754358  0.19353419  0.57842160  1
  S  S88  1  0.87874244  0.68198391  0.73246093  1
  S  S89  1  0.37874244  0.31801609  0.76753907  1
  S  S90  1  0.12125756  0.31801609  0.26753907  1
  S  S91  1  0.62125756  0.68198391  0.23246093  1
  S  S92  1  0.37652168  0.68401518  0.73536496  1
  S  S93  1  0.87652168  0.31598482  0.76463504  1
  S  S94  1  0.62347832  0.31598482  0.26463504  1
  S  S95  1  0.12347832  0.68401518  0.23536496  1
  S  S96  1  0.38373755  0.35601584  0.04812291  1
  S  S97  1  0.88373755  0.64398416  0.45187709  1
  S  S98  1  0.61626245  0.64398416  0.95187709  1
  S  S99  1  0.11626245  0.35601584  0.54812291  1
  S  S100  1  0.88693217  0.35201131  0.04417635  1
  S  S101  1  0.38693217  0.64798869  0.45582365  1
  S  S102  1  0.11306783  0.64798869  0.95582365  1
  S  S103  1  0.61306783  0.35201131  0.54417635  1
  O  O104  1  0.75959049  0.64438665  0.70440694  1
  O  O105  1  0.25959049  0.35561335  0.79559306  1
  O  O106  1  0.24040951  0.35561335  0.29559306  1
  O  O107  1  0.74040951  0.64438665  0.20440694  1
  O  O108  1  0.89978668  0.64775763  0.81052989  1
  O  O109  1  0.39978668  0.35224237  0.68947011  1
  O  O110  1  0.10021332  0.35224237  0.18947011  1
  O  O111  1  0.60021332  0.64775763  0.31052989  1
  O  O112  1  0.97035808  0.63003258  0.67956207  1
  O  O113  1  0.47035808  0.36996742  0.82043793  1
  O  O114  1  0.02964192  0.36996742  0.32043793  1
  O  O115  1  0.52964192  0.63003258  0.17956207  1
  O  O116  1  0.38716164  0.65585586  0.81560126  1
  O  O117  1  0.88716164  0.34414414  0.68439874  1
  O  O118  1  0.61283836  0.34414414  0.18439874  1
  O  O119  1  0.11283836  0.65585586  0.31560126  1
  O  O120  1  0.26647954  0.63598886  0.69997228  1
  O  O121  1  0.76647954  0.36401114  0.80002772  1
  O  O122  1  0.73352046  0.36401114  0.30002772  1
  O  O123  1  0.23352046  0.63598886  0.19997228  1
  O  O124  1  0.48029861  0.63676027  0.69030248  1
  O  O125  1  0.98029861  0.36323973  0.80969752  1
  O  O126  1  0.51970139  0.36323973  0.30969752  1
  O  O127  1  0.01970139  0.63676027  0.19030248  1
  O  O128  1  0.30448366  0.37110923  0.98262905  1
  O  O129  1  0.80448366  0.62889077  0.51737095  1
  O  O130  1  0.69551634  0.62889077  0.01737095  1
  O  O131  1  0.19551634  0.37110923  0.48262905  1
  O  O132  1  0.50895662  0.36216367  0.02469098  1
  O  O133  1  0.00895662  0.63783633  0.47530902  1
  O  O134  1  0.49104338  0.63783633  0.97530902  1
  O  O135  1  0.99104338  0.36216367  0.52469098  1
  O  O136  1  0.35755075  0.44641157  0.11136307  1
  O  O137  1  0.85755075  0.55358843  0.38863693  1
  O  O138  1  0.64244925  0.55358843  0.88863693  1
  O  O139  1  0.14244925  0.44641157  0.61136307  1
  O  O140  1  0.85934319  0.44298760  0.10702664  1
  O  O141  1  0.35934319  0.55701240  0.39297336  1
  O  O142  1  0.14065681  0.55701240  0.89297336  1
  O  O143  1  0.64065681  0.44298760  0.60702664  1
  O  O144  1  0.01456140  0.35651174  0.02468049  1
  O  O145  1  0.51456140  0.64348826  0.47531951  1
  O  O146  1  0.98543860  0.64348826  0.97531951  1
  O  O147  1  0.48543860  0.35651174  0.52468049  1
  O  O148  1  0.81282790  0.36979489  0.97676080  1
  O  O149  1  0.31282790  0.63020511  0.52323920  1
  O  O150  1  0.18717210  0.63020511  0.02323920  1
  O  O151  1  0.68717210  0.36979489  0.47676080  1
  O  O152  1  0.91832096  0.02302684  0.92599903  1
  O  O153  1  0.41832096  0.97697316  0.57400097  1
  O  O154  1  0.08167904  0.97697316  0.07400097  1
  O  O155  1  0.58167904  0.02302684  0.42599903  1
  O  O156  1  0.13042279  0.96965125  0.70356215  1
  O  O157  1  0.63042279  0.03034875  0.79643785  1
  O  O158  1  0.86957721  0.03034875  0.29643785  1
  O  O159  1  0.36957721  0.96965125  0.20356215  1
  O  O160  1  0.13521978  0.13756371  0.89176169  1
  O  O161  1  0.63521978  0.86243629  0.60823831  1
  O  O162  1  0.86478022  0.86243629  0.10823831  1
  O  O163  1  0.36478022  0.13756371  0.39176169  1
  O  O164  1  0.35250746  0.03096816  0.92305172  1
  O  O165  1  0.85250746  0.96903184  0.57694828  1
  O  O166  1  0.64749254  0.96903184  0.07694828  1
  O  O167  1  0.14749254  0.03096816  0.42305172  1
  O  O168  1  0.13709798  0.85486226  0.55523030  1
  O  O169  1  0.63709798  0.14513774  0.94476970  1
  O  O170  1  0.86290202  0.14513774  0.44476970  1
  O  O171  1  0.36290202  0.85486226  0.05523030  1
