# generated using pymatgen
data_ZnH8C2S2(IN2)2
_symmetry_space_group_name_H-M   'P 1'
_cell_length_a   11.09914200
_cell_length_b   8.10397100
_cell_length_c   15.14526422
_cell_angle_alpha   90.00000000
_cell_angle_beta   90.22056180
_cell_angle_gamma   90.00000000
_symmetry_Int_Tables_number   1
_chemical_formula_structural   ZnH8C2S2(IN2)2
_chemical_formula_sum   'Zn4 H32 C8 S8 I8 N16'
_cell_volume   1362.26287847
_cell_formula_units_Z   4
loop_
 _symmetry_equiv_pos_site_id
 _symmetry_equiv_pos_as_xyz
  1  'x, y, z'
loop_
 _atom_site_type_symbol
 _atom_site_label
 _atom_site_symmetry_multiplicity
 _atom_site_fract_x
 _atom_site_fract_y
 _atom_site_fract_z
 _atom_site_occupancy
  Zn  Zn0  1  0.26497800  0.51847000  0.88527700  1
  Zn  Zn1  1  0.73502200  0.01847000  0.61472300  1
  Zn  Zn2  1  0.73502200  0.48153000  0.11472300  1
  Zn  Zn3  1  0.26497800  0.98153000  0.38527700  1
  H  H4  1  0.24162800  0.68683600  0.61108600  1
  H  H5  1  0.75837200  0.18683600  0.88891400  1
  H  H6  1  0.75837200  0.31316400  0.38891400  1
  H  H7  1  0.24162800  0.81316400  0.11108600  1
  H  H8  1  0.20705400  0.64579200  0.72175700  1
  H  H9  1  0.79294600  0.14579200  0.77824300  1
  H  H10  1  0.79294600  0.35420800  0.27824300  1
  H  H11  1  0.20705400  0.85420800  0.22175700  1
  H  H12  1  0.42735500  0.62614800  0.55583800  1
  H  H13  1  0.57264500  0.12614800  0.94416200  1
  H  H14  1  0.57264500  0.37385200  0.44416200  1
  H  H15  1  0.42735500  0.87385200  0.05583800  1
  H  H16  1  0.53417200  0.52126300  0.62151700  1
  H  H17  1  0.46582800  0.02126300  0.87848300  1
  H  H18  1  0.46582800  0.47873700  0.37848300  1
  H  H19  1  0.53417200  0.97873700  0.12151700  1
  H  H20  1  0.06940500  0.25752300  0.10240900  1
  H  H21  1  0.93059500  0.75752300  0.39759100  1
  H  H22  1  0.93059500  0.74247700  0.89759100  1
  H  H23  1  0.06940500  0.24247700  0.60240900  1
  H  H24  1  0.11841500  0.26414800  0.99281200  1
  H  H25  1  0.88158500  0.76414800  0.50718800  1
  H  H26  1  0.88158500  0.73585200  0.00718800  1
  H  H27  1  0.11841500  0.23585200  0.49281200  1
  H  H28  1  0.20428000  0.33394800  0.21628000  1
  H  H29  1  0.79572000  0.83394800  0.28372000  1
  H  H30  1  0.79572000  0.66605200  0.78372000  1
  H  H31  1  0.20428000  0.16605200  0.71628000  1
  H  H32  1  0.34200600  0.42575400  0.18576000  1
  H  H33  1  0.65799400  0.92575400  0.31424000  1
  H  H34  1  0.65799400  0.57424600  0.81424000  1
  H  H35  1  0.34200600  0.07424600  0.68576000  1
  C  C36  1  0.37644600  0.57790300  0.68343500  1
  C  C37  1  0.62355400  0.07790300  0.81656500  1
  C  C38  1  0.62355400  0.42209700  0.31656500  1
  C  C39  1  0.37644600  0.92209700  0.18343500  1
  C  C40  1  0.24048900  0.34775600  0.08293900  1
  C  C41  1  0.75951100  0.84775600  0.41706100  1
  C  C42  1  0.75951100  0.65224400  0.91706100  1
  C  C43  1  0.24048900  0.15224400  0.58293900  1
  S  S44  1  0.42388600  0.49029000  0.78077200  1
  S  S45  1  0.57611400  0.99029000  0.71922800  1
  S  S46  1  0.57611400  0.50971000  0.21922800  1
  S  S47  1  0.42388600  0.00971000  0.28077200  1
  S  S48  1  0.35422200  0.39501000  0.00953900  1
  S  S49  1  0.64577800  0.89501000  0.49046100  1
  S  S50  1  0.64577800  0.60499000  0.99046100  1
  S  S51  1  0.35422200  0.10499000  0.50953900  1
  I  I52  1  0.22961900  0.83557300  0.91884800  1
  I  I53  1  0.77038100  0.33557300  0.58115200  1
  I  I54  1  0.77038100  0.16442700  0.08115200  1
  I  I55  1  0.22961900  0.66442700  0.41884800  1
  I  I56  1  0.06889500  0.37430900  0.82305900  1
  I  I57  1  0.93110500  0.87430900  0.67694100  1
  I  I58  1  0.93110500  0.62569100  0.17694100  1
  I  I59  1  0.06889500  0.12569100  0.32305900  1
  N  N60  1  0.26842600  0.64824000  0.67239000  1
  N  N61  1  0.73157400  0.14824000  0.82761000  1
  N  N62  1  0.73157400  0.35176000  0.32761000  1
  N  N63  1  0.26842600  0.85176000  0.17239000  1
  N  N64  1  0.45224600  0.57609000  0.61500300  1
  N  N65  1  0.54775400  0.07609000  0.88499700  1
  N  N66  1  0.54775400  0.42391000  0.38499700  1
  N  N67  1  0.45224600  0.92391000  0.11500300  1
  N  N68  1  0.13666400  0.27827900  0.05836500  1
  N  N69  1  0.86333600  0.77827900  0.44163500  1
  N  N70  1  0.86333600  0.72172100  0.94163500  1
  N  N71  1  0.13666400  0.22172100  0.55836500  1
  N  N72  1  0.26048400  0.37807600  0.16837100  1
  N  N73  1  0.73951600  0.87807600  0.33162900  1
  N  N74  1  0.73951600  0.62192400  0.83162900  1
  N  N75  1  0.26048400  0.12192400  0.66837100  1
