# generated using pymatgen
data_KUH3SO8
_symmetry_space_group_name_H-M   'P 1'
_cell_length_a   8.27984400
_cell_length_b   8.13324000
_cell_length_c   11.75077762
_cell_angle_alpha   90.00000000
_cell_angle_beta   109.63361630
_cell_angle_gamma   90.00000000
_symmetry_Int_Tables_number   1
_chemical_formula_structural   KUH3SO8
_chemical_formula_sum   'K4 U4 H12 S4 O32'
_cell_volume   745.31338756
_cell_formula_units_Z   4
loop_
 _symmetry_equiv_pos_site_id
 _symmetry_equiv_pos_as_xyz
  1  'x, y, z'
loop_
 _atom_site_type_symbol
 _atom_site_label
 _atom_site_symmetry_multiplicity
 _atom_site_fract_x
 _atom_site_fract_y
 _atom_site_fract_z
 _atom_site_occupancy
  K  K0  1  0.06868900  0.46386500  0.29689700  1
  K  K1  1  0.93131100  0.96386500  0.20310300  1
  K  K2  1  0.93131100  0.53613500  0.70310300  1
  K  K3  1  0.06868900  0.03613500  0.79689700  1
  U  U4  1  0.57465700  0.60078300  0.29650200  1
  U  U5  1  0.42534300  0.10078300  0.20349800  1
  U  U6  1  0.42534300  0.39921700  0.70349800  1
  U  U7  1  0.57465700  0.89921700  0.79650200  1
  H  H8  1  0.34964900  0.84027000  0.34493700  1
  H  H9  1  0.65035100  0.34027000  0.15506300  1
  H  H10  1  0.65035100  0.15973000  0.65506300  1
  H  H11  1  0.34964900  0.65973000  0.84493700  1
  H  H12  1  0.13770200  0.29534200  0.99024800  1
  H  H13  1  0.86229800  0.79534200  0.50975200  1
  H  H14  1  0.86229800  0.70465800  0.00975200  1
  H  H15  1  0.13770200  0.20465800  0.49024800  1
  H  H16  1  0.32757100  0.35931700  0.01185300  1
  H  H17  1  0.67242900  0.85931700  0.48814700  1
  H  H18  1  0.67242900  0.64068300  0.98814700  1
  H  H19  1  0.32757100  0.14068300  0.51185300  1
  S  S20  1  0.20362200  0.73751000  0.03875600  1
  S  S21  1  0.79637800  0.23751000  0.46124400  1
  S  S22  1  0.79637800  0.26249000  0.96124400  1
  S  S23  1  0.20362200  0.76249000  0.53875600  1
  O  O24  1  0.22462100  0.92058400  0.06245200  1
  O  O25  1  0.77537900  0.42058400  0.43754800  1
  O  O26  1  0.77537900  0.07941600  0.93754800  1
  O  O27  1  0.22462100  0.57941600  0.56245200  1
  O  O28  1  0.44008100  0.85587500  0.30863500  1
  O  O29  1  0.55991900  0.35587500  0.19136500  1
  O  O30  1  0.55991900  0.14412500  0.69136500  1
  O  O31  1  0.44008100  0.64412500  0.80863500  1
  O  O32  1  0.15502300  0.79113500  0.40764400  1
  O  O33  1  0.84497700  0.29113500  0.09235600  1
  O  O34  1  0.84497700  0.20886500  0.59235600  1
  O  O35  1  0.15502300  0.70886500  0.90764400  1
  O  O36  1  0.74914600  0.66725200  0.24509500  1
  O  O37  1  0.25085400  0.16725200  0.25490500  1
  O  O38  1  0.25085400  0.33274800  0.75490500  1
  O  O39  1  0.74914600  0.83274800  0.74509500  1
  O  O40  1  0.40693900  0.52187600  0.34766000  1
  O  O41  1  0.59306100  0.02187600  0.15234000  1
  O  O42  1  0.59306100  0.47812400  0.65234000  1
  O  O43  1  0.40693900  0.97812400  0.84766000  1
  O  O44  1  0.37204800  0.65300900  0.10050000  1
  O  O45  1  0.62795200  0.15300900  0.39950000  1
  O  O46  1  0.62795200  0.34699100  0.89950000  1
  O  O47  1  0.37204800  0.84699100  0.60050000  1
  O  O48  1  0.07313900  0.67600100  0.08921500  1
  O  O49  1  0.92686100  0.17600100  0.41078500  1
  O  O50  1  0.92686100  0.32399900  0.91078500  1
  O  O51  1  0.07313900  0.82399900  0.58921500  1
  O  O52  1  0.26127300  0.26188000  0.01650200  1
  O  O53  1  0.73872700  0.76188000  0.48349800  1
  O  O54  1  0.73872700  0.73812000  0.98349800  1
  O  O55  1  0.26127300  0.23812000  0.51650200  1
