# generated using pymatgen
data_Si6C8N2O19
_symmetry_space_group_name_H-M   'P 1'
_cell_length_a   15.59603396
_cell_length_b   15.59603396
_cell_length_c   15.59603396
_cell_angle_alpha   149.77069319
_cell_angle_beta   139.12949840
_cell_angle_gamma   51.66868544
_symmetry_Int_Tables_number   1
_chemical_formula_structural   Si6C8N2O19
_chemical_formula_sum   'Si12 C16 N4 O38'
_cell_volume   1243.39726979
_cell_formula_units_Z   2
loop_
 _symmetry_equiv_pos_site_id
 _symmetry_equiv_pos_as_xyz
  1  'x, y, z'
loop_
 _atom_site_type_symbol
 _atom_site_label
 _atom_site_symmetry_multiplicity
 _atom_site_fract_x
 _atom_site_fract_y
 _atom_site_fract_z
 _atom_site_occupancy
  Si  Si0  1  0.95969000  0.64643800  0.98341800  1
  Si  Si1  1  0.33698000  0.35356200  0.31325200  1
  Si  Si2  1  0.83698000  0.02372800  0.48341800  1
  Si  Si3  1  0.45969000  0.97627200  0.81325200  1
  Si  Si4  1  0.03279400  0.28042100  0.76130400  1
  Si  Si5  1  0.48088300  0.71957900  0.75237300  1
  Si  Si6  1  0.98088300  0.72851100  0.26130400  1
  Si  Si7  1  0.53279400  0.27148900  0.25237300  1
  Si  Si8  1  0.55483300  0.01322400  0.19055300  1
  Si  Si9  1  0.17733000  0.98677600  0.54161000  1
  Si  Si10  1  0.67733000  0.63572000  0.69055300  1
  Si  Si11  1  0.05483300  0.36428000  0.04161000  1
  C  C12  1  0.43185600  0.40152600  0.95607900  1
  C  C13  1  0.55455300  0.59847400  0.03033000  1
  C  C14  1  0.05455300  0.52422300  0.45607900  1
  C  C15  1  0.93185600  0.47577700  0.53033000  1
  C  C16  1  0.41278800  0.48169400  0.18407100  1
  C  C17  1  0.70237700  0.51830600  0.93109400  1
  C  C18  1  0.20237700  0.77128200  0.68407100  1
  C  C19  1  0.91278800  0.22871800  0.43109400  1
  C  C20  1  0.53411700  0.92516800  0.58973000  1
  C  C21  1  0.66456100  0.07483200  0.60894900  1
  C  C22  1  0.16456100  0.05561200  0.08973000  1
  C  C23  1  0.03411700  0.94438800  0.10894900  1
  C  C24  1  0.40220600  0.46193300  0.06215400  1
  C  C25  1  0.60022200  0.53806700  0.94027300  1
  C  C26  1  0.10022200  0.65994800  0.56215400  1
  C  C27  1  0.90220600  0.34005200  0.44027300  1
  N  N28  1  0.31662000  0.53677100  0.11800100  1
  N  N29  1  0.58123000  0.46322900  0.77984900  1
  N  N30  1  0.08123000  0.80138100  0.61800100  1
  N  N31  1  0.81662000  0.19861900  0.27984900  1
  O  O32  1  0.83779600  0.67512200  0.85096500  1
  O  O33  1  0.17584400  0.32487800  0.16267500  1
  O  O34  1  0.67584400  0.01316900  0.35096500  1
  O  O35  1  0.33779600  0.98683100  0.66267500  1
  O  O36  1  0.91166600  0.67915300  0.07356300  1
  O  O37  1  0.39441000  0.32084700  0.23251300  1
  O  O38  1  0.89441000  0.16189700  0.57356300  1
  O  O39  1  0.41166600  0.83810300  0.73251300  1
  O  O40  1  0.10390100  0.76407600  0.17376000  1
  O  O41  1  0.40968500  0.23592400  0.33982500  1
  O  O42  1  0.90968500  0.06986000  0.67376000  1
  O  O43  1  0.60390100  0.93014000  0.83982500  1
  O  O44  1  0.00211500  0.45349600  0.83729600  1
  O  O45  1  0.38380000  0.54650400  0.54861900  1
  O  O46  1  0.88380000  0.83518100  0.33729600  1
  O  O47  1  0.50211500  0.16481900  0.04861900  1
  O  O48  1  0.51946800  0.82171600  0.95885900  1
  O  O49  1  0.13714200  0.17828400  0.69775200  1
  O  O50  1  0.63714200  0.43939000  0.45885900  1
  O  O51  1  0.01946800  0.56061000  0.19775200  1
  O  O52  1  0.40797800  0.05293500  0.15481600  1
  O  O53  1  0.10188100  0.94706500  0.35504300  1
  O  O54  1  0.60188100  0.74683800  0.65481600  1
  O  O55  1  0.90797800  0.25316200  0.85504300  1
  O  O56  1  0.60088300  0.15163000  0.27023600  1
  O  O57  1  0.11860600  0.84837000  0.44925200  1
  O  O58  1  0.61860600  0.66935300  0.77023600  1
  O  O59  1  0.10088300  0.33064700  0.94925200  1
  O  O60  1  0.54156700  0.80508100  0.45100300  1
  O  O61  1  0.64592100  0.19491900  0.73648600  1
  O  O62  1  0.14592100  0.90943500  0.95100300  1
  O  O63  1  0.04156700  0.09056500  0.23648600  1
  O  O64  1  0.37590100  0.96607500  0.27397300  1
  O  O65  1  0.30789800  0.03392500  0.40982600  1
  O  O66  1  0.80789800  0.89807200  0.77397300  1
  O  O67  1  0.87590100  0.10192800  0.90982600  1
  O  O68  1  0.90169800  0.00000000  0.90169800  1
  O  O69  1  0.40169800  0.00000000  0.40169800  1
