# generated using pymatgen
data_U2Fe15Ge2
_symmetry_space_group_name_H-M   'P 1'
_cell_length_a   8.53994600
_cell_length_b   8.35209130
_cell_length_c   8.35209130
_cell_angle_alpha   120.16038370
_cell_angle_beta   90.00000000
_cell_angle_gamma   90.00000000
_symmetry_Int_Tables_number   1
_chemical_formula_structural   U2Fe15Ge2
_chemical_formula_sum   'U4 Fe30 Ge4'
_cell_volume   515.07690132
_cell_formula_units_Z   2
loop_
 _symmetry_equiv_pos_site_id
 _symmetry_equiv_pos_as_xyz
  1  'x, y, z'
loop_
 _atom_site_type_symbol
 _atom_site_label
 _atom_site_symmetry_multiplicity
 _atom_site_fract_x
 _atom_site_fract_y
 _atom_site_fract_z
 _atom_site_occupancy
  U  U0  1  0.75000000  0.99990800  0.00009200  1
  U  U1  1  0.25000000  0.00009200  0.99990800  1
  U  U2  1  0.25000000  0.66672800  0.33327200  1
  U  U3  1  0.75000000  0.33327200  0.66672800  1
  Fe  Fe4  1  0.50000000  0.50000000  0.00000000  1
  Fe  Fe5  1  0.50000000  0.50000000  0.50000000  1
  Fe  Fe6  1  0.50000000  0.00000000  0.50000000  1
  Fe  Fe7  1  0.00000000  0.50000000  0.00000000  1
  Fe  Fe8  1  0.00000000  0.50000000  0.50000000  1
  Fe  Fe9  1  0.00000000  0.00000000  0.50000000  1
  Fe  Fe10  1  0.75000000  0.66805100  0.02162700  1
  Fe  Fe11  1  0.75000000  0.35326000  0.33187800  1
  Fe  Fe12  1  0.75000000  0.97886600  0.64671900  1
  Fe  Fe13  1  0.75000000  0.35328100  0.02113400  1
  Fe  Fe14  1  0.75000000  0.97837300  0.33194900  1
  Fe  Fe15  1  0.75000000  0.66812200  0.64674000  1
  Fe  Fe16  1  0.25000000  0.33194900  0.97837300  1
  Fe  Fe17  1  0.25000000  0.64674000  0.66812200  1
  Fe  Fe18  1  0.25000000  0.02113400  0.35328100  1
  Fe  Fe19  1  0.25000000  0.64671900  0.97886600  1
  Fe  Fe20  1  0.25000000  0.02162700  0.66805100  1
  Fe  Fe21  1  0.25000000  0.33187800  0.35326000  1
  Fe  Fe22  1  0.49012700  0.83596200  0.67172700  1
  Fe  Fe23  1  0.49009300  0.83575100  0.16424900  1
  Fe  Fe24  1  0.49012700  0.32827300  0.16403800  1
  Fe  Fe25  1  0.50987300  0.16403800  0.32827300  1
  Fe  Fe26  1  0.50990700  0.16424900  0.83575100  1
  Fe  Fe27  1  0.50987300  0.67172700  0.83596200  1
  Fe  Fe28  1  0.99012700  0.16403800  0.32827300  1
  Fe  Fe29  1  0.99009300  0.16424900  0.83575100  1
  Fe  Fe30  1  0.99012700  0.67172700  0.83596200  1
  Fe  Fe31  1  0.00987300  0.83596200  0.67172700  1
  Fe  Fe32  1  0.00990700  0.83575100  0.16424900  1
  Fe  Fe33  1  0.00987300  0.32827300  0.16403800  1
  Ge  Ge34  1  0.59981100  0.66669200  0.33330800  1
  Ge  Ge35  1  0.40018900  0.33330800  0.66669200  1
  Ge  Ge36  1  0.09981100  0.33330800  0.66669200  1
  Ge  Ge37  1  0.90018900  0.66669200  0.33330800  1
