# generated using pymatgen
data_Cu3Ag5(PO4)4
_symmetry_space_group_name_H-M   'P 1'
_cell_length_a   9.30114089
_cell_length_b   9.30114089
_cell_length_c   17.00470059
_cell_angle_alpha   66.12363157
_cell_angle_beta   66.12363157
_cell_angle_gamma   32.23739826
_symmetry_Int_Tables_number   1
_chemical_formula_structural   Cu3Ag5(PO4)4
_chemical_formula_sum   'Cu6 Ag10 P8 O32'
_cell_volume   711.67409625
_cell_formula_units_Z   2
loop_
 _symmetry_equiv_pos_site_id
 _symmetry_equiv_pos_as_xyz
  1  'x, y, z'
loop_
 _atom_site_type_symbol
 _atom_site_label
 _atom_site_symmetry_multiplicity
 _atom_site_fract_x
 _atom_site_fract_y
 _atom_site_fract_z
 _atom_site_occupancy
  Cu  Cu0  1  0.50000000  0.00000000  0.50000000  1
  Cu  Cu1  1  0.00000000  0.50000000  0.00000000  1
  Cu  Cu2  1  0.82516700  0.37823500  0.52454100  1
  Cu  Cu3  1  0.62176500  0.17483300  0.97545900  1
  Cu  Cu4  1  0.17483300  0.62176500  0.47545900  1
  Cu  Cu5  1  0.37823500  0.82516700  0.02454100  1
  Ag  Ag6  1  0.72729100  0.27270900  0.75000000  1
  Ag  Ag7  1  0.27270900  0.72729100  0.25000000  1
  Ag  Ag8  1  0.58541200  0.14470900  0.62212400  1
  Ag  Ag9  1  0.85529100  0.41458800  0.87787600  1
  Ag  Ag10  1  0.41458800  0.85529100  0.37787600  1
  Ag  Ag11  1  0.14470900  0.58541200  0.12212400  1
  Ag  Ag12  1  0.43122100  0.92149900  0.75044200  1
  Ag  Ag13  1  0.07850100  0.56877900  0.74955800  1
  Ag  Ag14  1  0.56877900  0.07850100  0.24955800  1
  Ag  Ag15  1  0.92149900  0.43122100  0.25044200  1
  P  P16  1  0.51637500  0.04917700  0.87913700  1
  P  P17  1  0.95082300  0.48362500  0.62086300  1
  P  P18  1  0.48362500  0.95082300  0.12086300  1
  P  P19  1  0.04917700  0.51637500  0.37913700  1
  P  P20  1  0.19628300  0.81945800  0.89774100  1
  P  P21  1  0.18054200  0.80371700  0.60225900  1
  P  P22  1  0.80371700  0.18054200  0.10225900  1
  P  P23  1  0.81945800  0.19628300  0.39774100  1
  O  O24  1  0.63857800  0.79982400  0.95004100  1
  O  O25  1  0.20017600  0.36142200  0.54995900  1
  O  O26  1  0.36142200  0.20017600  0.04995900  1
  O  O27  1  0.79982400  0.63857800  0.45004100  1
  O  O28  1  0.64021300  0.09943200  0.87695400  1
  O  O29  1  0.90056800  0.35978700  0.62304600  1
  O  O30  1  0.35978700  0.90056800  0.12304600  1
  O  O31  1  0.09943200  0.64021300  0.37695400  1
  O  O32  1  0.19948600  0.30226600  0.90192600  1
  O  O33  1  0.69773400  0.80051400  0.59807400  1
  O  O34  1  0.80051400  0.69773400  0.09807400  1
  O  O35  1  0.30226600  0.19948600  0.40192600  1
  O  O36  1  0.58691100  0.98830600  0.78827500  1
  O  O37  1  0.01169400  0.41308900  0.71172500  1
  O  O38  1  0.41308900  0.01169400  0.21172500  1
  O  O39  1  0.98830600  0.58691100  0.28827500  1
  O  O40  1  0.88568800  0.12298600  0.90495800  1
  O  O41  1  0.87701400  0.11431200  0.59504200  1
  O  O42  1  0.11431200  0.87701400  0.09504200  1
  O  O43  1  0.12298600  0.88568800  0.40495800  1
  O  O44  1  0.35950400  0.80083700  0.92280900  1
  O  O45  1  0.19916300  0.64049600  0.57719100  1
  O  O46  1  0.64049600  0.19916300  0.07719100  1
  O  O47  1  0.80083700  0.35950400  0.42280900  1
  O  O48  1  0.21933300  0.62663500  0.95602100  1
  O  O49  1  0.37336500  0.78066700  0.54397900  1
  O  O50  1  0.78066700  0.37336500  0.04397900  1
  O  O51  1  0.62663500  0.21933300  0.45602100  1
  O  O52  1  0.30678100  0.77183800  0.80165700  1
  O  O53  1  0.22816200  0.69321900  0.69834300  1
  O  O54  1  0.69321900  0.22816200  0.19834300  1
  O  O55  1  0.77183800  0.30678100  0.30165700  1
