# generated using pymatgen
data_P4H4PtIO10
_symmetry_space_group_name_H-M   'P 1'
_cell_length_a   10.62303970
_cell_length_b   10.62303970
_cell_length_c   10.62303970
_cell_angle_alpha   125.47934476
_cell_angle_beta   125.47934476
_cell_angle_gamma   80.74557129
_symmetry_Int_Tables_number   1
_chemical_formula_structural   P4H4PtIO10
_chemical_formula_sum   'P8 H8 Pt2 I2 O20'
_cell_volume   766.42446542
_cell_formula_units_Z   2
loop_
 _symmetry_equiv_pos_site_id
 _symmetry_equiv_pos_as_xyz
  1  'x, y, z'
loop_
 _atom_site_type_symbol
 _atom_site_label
 _atom_site_symmetry_multiplicity
 _atom_site_fract_x
 _atom_site_fract_y
 _atom_site_fract_z
 _atom_site_occupancy
  P  P0  1  0.34292700  0.07685400  0.23677900  1
  P  P1  1  0.84007500  0.10614800  0.76322100  1
  P  P2  1  0.07685400  0.84007500  0.73392800  1
  P  P3  1  0.10614800  0.34292700  0.26607200  1
  P  P4  1  0.65707300  0.92314600  0.76322100  1
  P  P5  1  0.15992500  0.89385200  0.23677900  1
  P  P6  1  0.92314600  0.15992500  0.26607200  1
  P  P7  1  0.89385200  0.65707300  0.73392800  1
  H  H8  1  0.37392100  0.91638300  0.01346400  1
  H  H9  1  0.90291800  0.36045600  0.98653600  1
  H  H10  1  0.91638300  0.90291800  0.54246200  1
  H  H11  1  0.36045600  0.37392100  0.45753800  1
  H  H12  1  0.62607900  0.08361700  0.98653600  1
  H  H13  1  0.09708200  0.63954400  0.01346400  1
  H  H14  1  0.08361700  0.09708200  0.45753800  1
  H  H15  1  0.63954400  0.62607900  0.54246200  1
  Pt  Pt16  1  0.08838200  0.08838200  0.00000000  1
  Pt  Pt17  1  0.91161800  0.91161800  0.00000000  1
  I  I18  1  0.25248900  0.25248900  0.00000000  1
  I  I19  1  0.74751100  0.74751100  0.00000000  1
  O  O20  1  0.30081400  0.93751600  0.23833000  1
  O  O21  1  0.69918600  0.06248400  0.76167000  1
  O  O22  1  0.93751600  0.69918600  0.63670100  1
  O  O23  1  0.06248400  0.30081400  0.36329900  1
  O  O24  1  0.44551900  0.00907400  0.16173800  1
  O  O25  1  0.84733600  0.28378100  0.83826200  1
  O  O26  1  0.00907400  0.84733600  0.56355500  1
  O  O27  1  0.28378100  0.44551900  0.43644500  1
  O  O28  1  0.55448100  0.99092600  0.83826200  1
  O  O29  1  0.15266400  0.71621900  0.16173800  1
  O  O30  1  0.99092600  0.15266400  0.43644500  1
  O  O31  1  0.71621900  0.55448100  0.56355500  1
  O  O32  1  0.43137300  0.23586700  0.43469600  1
  O  O33  1  0.80117100  0.99667700  0.56530400  1
  O  O34  1  0.23586700  0.80117100  0.80449400  1
  O  O35  1  0.99667700  0.43137300  0.19550600  1
  O  O36  1  0.56862700  0.76413300  0.56530400  1
  O  O37  1  0.19882900  0.00332300  0.43469600  1
  O  O38  1  0.76413300  0.19882900  0.19550600  1
  O  O39  1  0.00332300  0.56862700  0.80449400  1
