# generated using pymatgen
data_Cs(Bi2Te3)2
_symmetry_space_group_name_H-M   'P 1'
_cell_length_a   26.31008548
_cell_length_b   26.31008548
_cell_length_c   14.70789903
_cell_angle_alpha   79.05359785
_cell_angle_beta   79.05359785
_cell_angle_gamma   9.72916969
_symmetry_Int_Tables_number   1
_chemical_formula_structural   Cs(Bi2Te3)2
_chemical_formula_sum   'Cs4 Bi16 Te24'
_cell_volume   1688.98470635
_cell_formula_units_Z   4
loop_
 _symmetry_equiv_pos_site_id
 _symmetry_equiv_pos_as_xyz
  1  'x, y, z'
loop_
 _atom_site_type_symbol
 _atom_site_label
 _atom_site_symmetry_multiplicity
 _atom_site_fract_x
 _atom_site_fract_y
 _atom_site_fract_z
 _atom_site_occupancy
  Cs  Cs0  1  0.68612700  0.68612700  0.48426100  1
  Cs  Cs1  1  0.05361400  0.05361400  0.48936800  1
  Cs  Cs2  1  0.94495700  0.94495700  0.50906800  1
  Cs  Cs3  1  0.31159600  0.31159600  0.51683700  1
  Bi  Bi4  1  0.16246100  0.16246100  0.90991600  1
  Bi  Bi5  1  0.71178700  0.71178700  0.08684800  1
  Bi  Bi6  1  0.40964200  0.40964200  0.94020200  1
  Bi  Bi7  1  0.95853600  0.95853600  0.13679200  1
  Bi  Bi8  1  0.86221200  0.86221200  0.75223500  1
  Bi  Bi9  1  0.58807000  0.58807000  0.06130300  1
  Bi  Bi10  1  0.01385400  0.01385400  0.20902900  1
  Bi  Bi11  1  0.83558500  0.83558500  0.09075300  1
  Bi  Bi12  1  0.13535400  0.13535400  0.24822200  1
  Bi  Bi13  1  0.26363900  0.26363900  0.25751900  1
  Bi  Bi14  1  0.03903700  0.03903700  0.86465200  1
  Bi  Bi15  1  0.98377900  0.98377900  0.79245600  1
  Bi  Bi16  1  0.73406100  0.73406100  0.74269200  1
  Bi  Bi17  1  0.61360900  0.61360900  0.72521700  1
  Bi  Bi18  1  0.38385000  0.38385000  0.27672000  1
  Bi  Bi19  1  0.28629100  0.28629100  0.91289700  1
  Te  Te20  1  0.32324100  0.32324100  0.23940000  1
  Te  Te21  1  0.53205500  0.53205500  0.03755500  1
  Te  Te22  1  0.23810800  0.23810800  0.60208500  1
  Te  Te23  1  0.89387800  0.89387800  0.10101300  1
  Te  Te24  1  0.07963700  0.07963700  0.21133000  1
  Te  Te25  1  0.87547400  0.87547400  0.41820700  1
  Te  Te26  1  0.20200200  0.20200200  0.23822600  1
  Te  Te27  1  0.67451000  0.67451000  0.76112200  1
  Te  Te28  1  0.75958200  0.75958200  0.39812400  1
  Te  Te29  1  0.10410200  0.10410200  0.90091300  1
  Te  Te30  1  0.55652000  0.55652000  0.72309800  1
  Te  Te31  1  0.34473900  0.34473900  0.92878700  1
  Te  Te32  1  0.91786700  0.91786700  0.79016400  1
  Te  Te33  1  0.44097000  0.44097000  0.27827400  1
  Te  Te34  1  0.37560600  0.37560600  0.61310400  1
  Te  Te35  1  0.77417600  0.77417600  0.07588100  1
  Te  Te36  1  0.65324900  0.65324900  0.07183900  1
  Te  Te37  1  0.62220900  0.62220900  0.38759000  1
  Te  Te38  1  0.46563300  0.46563300  0.96440900  1
  Te  Te39  1  0.50626500  0.50626500  0.35322800  1
  Te  Te40  1  0.12218500  0.12218500  0.58377400  1
  Te  Te41  1  0.22399800  0.22399800  0.92368100  1
  Te  Te42  1  0.79587900  0.79587900  0.76136700  1
  Te  Te43  1  0.49182100  0.49182100  0.64841400  1
