# generated using pymatgen
data_B4N2O11
_symmetry_space_group_name_H-M   'P 1'
_cell_length_a   5.74879930
_cell_length_b   7.88269881
_cell_length_c   11.62248500
_cell_angle_alpha   90.00000000
_cell_angle_beta   90.00000000
_cell_angle_gamma   97.12389004
_symmetry_Int_Tables_number   1
_chemical_formula_structural   B4N2O11
_chemical_formula_sum   'B8 N4 O22'
_cell_volume   522.61930710
_cell_formula_units_Z   2
loop_
 _symmetry_equiv_pos_site_id
 _symmetry_equiv_pos_as_xyz
  1  'x, y, z'
loop_
 _atom_site_type_symbol
 _atom_site_label
 _atom_site_symmetry_multiplicity
 _atom_site_fract_x
 _atom_site_fract_y
 _atom_site_fract_z
 _atom_site_occupancy
  B  B0  1  0.94819500  0.11215700  0.80453700  1
  B  B1  1  0.05180500  0.88784300  0.30453700  1
  B  B2  1  0.57111800  0.39831900  0.68905500  1
  B  B3  1  0.42888200  0.60168100  0.18905500  1
  B  B4  1  0.91818400  0.41408400  0.83808200  1
  B  B5  1  0.08181600  0.58591600  0.33808200  1
  B  B6  1  0.49993900  0.10150300  0.76300700  1
  B  B7  1  0.50006100  0.89849700  0.26300700  1
  N  N8  1  0.14113600  0.30121600  0.41805100  1
  N  N9  1  0.85886400  0.69878400  0.91805100  1
  N  N10  1  0.57043600  0.61418400  0.54376200  1
  N  N11  1  0.42956400  0.38581600  0.04376200  1
  O  O12  1  0.08806700  0.98752600  0.77296200  1
  O  O13  1  0.91193300  0.01247400  0.27296200  1
  O  O14  1  0.62257400  0.46572700  0.55498900  1
  O  O15  1  0.37742600  0.53427300  0.05498900  1
  O  O16  1  0.95726500  0.52562300  0.93058200  1
  O  O17  1  0.04273500  0.47437700  0.43058200  1
  O  O18  1  0.32288900  0.99926300  0.82223800  1
  O  O19  1  0.67711100  0.00073700  0.32223800  1
  O  O20  1  0.08737900  0.21699600  0.49882200  1
  O  O21  1  0.91262100  0.78300400  0.99882200  1
  O  O22  1  0.03061100  0.26879900  0.84833300  1
  O  O23  1  0.96938900  0.73120100  0.34833300  1
  O  O24  1  0.71530200  0.05528100  0.78944900  1
  O  O25  1  0.28469800  0.94471900  0.28944900  1
  O  O26  1  0.78437400  0.44346800  0.74548400  1
  O  O27  1  0.21562600  0.55653100  0.24548400  1
  O  O28  1  0.45857700  0.23025100  0.69038700  1
  O  O29  1  0.54142300  0.76974900  0.19038700  1
  O  O30  1  0.39599000  0.52327500  0.71200000  1
  O  O31  1  0.60401000  0.47672500  0.21200000  1
  O  O32  1  0.44958200  0.66067400  0.63295900  1
  O  O33  1  0.55041800  0.33932600  0.13295900  1
