# generated using pymatgen
data_Na6Zn3B9P6H3O38
_symmetry_space_group_name_H-M   'P 1'
_cell_length_a   11.84200821
_cell_length_b   11.84200821
_cell_length_c   12.25974400
_cell_angle_alpha   90.00000000
_cell_angle_beta   90.00000000
_cell_angle_gamma   120.00000116
_symmetry_Int_Tables_number   1
_chemical_formula_structural   Na6Zn3B9P6H3O38
_chemical_formula_sum   'Na12 Zn6 B18 P12 H6 O76'
_cell_volume   1488.89044822
_cell_formula_units_Z   2
loop_
 _symmetry_equiv_pos_site_id
 _symmetry_equiv_pos_as_xyz
  1  'x, y, z'
loop_
 _atom_site_type_symbol
 _atom_site_label
 _atom_site_symmetry_multiplicity
 _atom_site_fract_x
 _atom_site_fract_y
 _atom_site_fract_z
 _atom_site_occupancy
  Na  Na0  1  0.28802800  0.27081500  0.70751200  1
  Na  Na1  1  0.72918500  0.01721300  0.70751200  1
  Na  Na2  1  0.98278700  0.71197200  0.70751200  1
  Na  Na3  1  0.71197200  0.72918500  0.20751200  1
  Na  Na4  1  0.27081500  0.98278700  0.20751200  1
  Na  Na5  1  0.01721300  0.28802800  0.20751200  1
  Na  Na6  1  0.33333300  0.66666700  0.36320200  1
  Na  Na7  1  0.66666700  0.33333300  0.86320200  1
  Na  Na8  1  0.66666700  0.33333300  0.35108000  1
  Na  Na9  1  0.33333300  0.66666700  0.85108000  1
  Na  Na10  1  0.00000000  0.00000000  0.95015300  1
  Na  Na11  1  0.00000000  0.00000000  0.45015300  1
  Zn  Zn12  1  0.99497400  0.49383000  0.45289100  1
  Zn  Zn13  1  0.50617000  0.50114400  0.45289100  1
  Zn  Zn14  1  0.49885600  0.00502600  0.45289100  1
  Zn  Zn15  1  0.00502600  0.50617000  0.95289100  1
  Zn  Zn16  1  0.49383000  0.49885600  0.95289100  1
  Zn  Zn17  1  0.50114400  0.99497400  0.95289100  1
  B  B18  1  0.95549400  0.70367800  0.30360200  1
  B  B19  1  0.29632200  0.25181600  0.30360200  1
  B  B20  1  0.74818400  0.04450600  0.30360200  1
  B  B21  1  0.04450600  0.29632200  0.80360200  1
  B  B22  1  0.70367800  0.74818400  0.80360200  1
  B  B23  1  0.25181600  0.95549400  0.80360200  1
  B  B24  1  0.90982300  0.50585300  0.19871300  1
  B  B25  1  0.49414700  0.40397000  0.19871300  1
  B  B26  1  0.59603000  0.09017700  0.19871300  1
  B  B27  1  0.09017700  0.49414700  0.69871300  1
  B  B28  1  0.50585300  0.59603000  0.69871300  1
  B  B29  1  0.40397000  0.90982300  0.69871300  1
  B  B30  1  0.03912200  0.28890800  0.60231200  1
  B  B31  1  0.71109200  0.75021300  0.60231200  1
  B  B32  1  0.24978700  0.96087800  0.60231200  1
  B  B33  1  0.96087800  0.71109200  0.10231200  1
  B  B34  1  0.28890800  0.24978700  0.10231200  1
  B  B35  1  0.75021300  0.03912200  0.10231200  1
  P  P36  1  0.18796000  0.37971200  0.41820600  1
  P  P37  1  0.62028800  0.80824800  0.41820600  1
  P  P38  1  0.19175200  0.81204000  0.41820600  1
  P  P39  1  0.81204000  0.62028800  0.91820600  1
  P  P40  1  0.37971200  0.19175200  0.91820600  1
  P  P41  1  0.80824800  0.18796000  0.91820600  1
  P  P42  1  0.80344100  0.18469500  0.49245000  1
  P  P43  1  0.81530500  0.61874600  0.49245000  1
  P  P44  1  0.38125400  0.19655900  0.49245000  1
  P  P45  1  0.19655900  0.81530500  0.99245000  1
  P  P46  1  0.18469500  0.38125400  0.99245000  1
  P  P47  1  0.61874600  0.80344100  0.99245000  1
  H  H48  1  0.83258300  0.34096000  0.11767500  1
  H  H49  1  0.65904000  0.49162300  0.11767500  1
  H  H50  1  0.50837700  0.16741700  0.11767500  1
  H  H51  1  0.16741700  0.65904000  0.61767500  1
  H  H52  1  0.34096000  0.50837700  0.61767500  1
  H  H53  1  0.49162300  0.83258300  0.61767500  1
  O  O54  1  0.11353300  0.27474200  0.50987200  1
  O  O55  1  0.72525800  0.83879000  0.50987200  1
  O  O56  1  0.16121000  0.88646700  0.50987200  1
  O  O57  1  0.88646700  0.72525800  0.00987200  1
  O  O58  1  0.27474200  0.16121000  0.00987200  1
  O  O59  1  0.83879000  0.11353300  0.00987200  1
  O  O60  1  0.10372200  0.43166600  0.36811100  1
  O  O61  1  0.56833400  0.67205600  0.36811100  1
  O  O62  1  0.32794400  0.89627800  0.36811100  1
  O  O63  1  0.89627800  0.56833400  0.86811100  1
  O  O64  1  0.43166600  0.32794400  0.86811100  1
  O  O65  1  0.67205600  0.10372200  0.86811100  1
  O  O66  1  0.93202600  0.56524700  0.29960000  1
  O  O67  1  0.43475300  0.36677900  0.29960000  1
  O  O68  1  0.63322100  0.06797400  0.29960000  1
  O  O69  1  0.06797400  0.43475300  0.79960000  1
  O  O70  1  0.56524700  0.63322100  0.79960000  1
  O  O71  1  0.36677900  0.93202600  0.79960000  1
  O  O72  1  0.06043800  0.42481700  0.60269800  1
  O  O73  1  0.57518300  0.63562000  0.60269800  1
  O  O74  1  0.36438000  0.93956200  0.60269800  1
  O  O75  1  0.93956200  0.57518300  0.10269800  1
  O  O76  1  0.42481700  0.36438000  0.10269800  1
  O  O77  1  0.63562000  0.06043800  0.10269800  1
  O  O78  1  0.90752600  0.57590900  0.53959300  1
  O  O79  1  0.42409100  0.33161700  0.53959300  1
  O  O80  1  0.66838300  0.09247400  0.53959300  1
  O  O81  1  0.09247400  0.42409100  0.03959300  1
  O  O82  1  0.57590900  0.66838300  0.03959300  1
  O  O83  1  0.33161700  0.90752600  0.03959300  1
  O  O84  1  0.20429000  0.30185500  0.32209500  1
  O  O85  1  0.69814500  0.90243500  0.32209500  1
  O  O86  1  0.09756500  0.79571000  0.32209500  1
  O  O87  1  0.79571000  0.69814500  0.82209500  1
  O  O88  1  0.30185500  0.09756500  0.82209500  1
  O  O89  1  0.90243500  0.20429000  0.82209500  1
  O  O90  1  0.89898500  0.19343600  0.58525100  1
  O  O91  1  0.80656400  0.70554800  0.58525100  1
  O  O92  1  0.29445200  0.10101500  0.58525100  1
  O  O93  1  0.10101500  0.80656400  0.08525100  1
  O  O94  1  0.19343600  0.29445200  0.08525100  1
  O  O95  1  0.70554800  0.89898500  0.08525100  1
  O  O96  1  0.08361500  0.26290700  0.70330000  1
  O  O97  1  0.73709300  0.82070800  0.70330000  1
  O  O98  1  0.17929200  0.91638500  0.70330000  1
  O  O99  1  0.91638500  0.73709300  0.20330000  1
  O  O100  1  0.26290700  0.17929200  0.20330000  1
  O  O101  1  0.82070800  0.08361500  0.20330000  1
  O  O102  1  0.82589900  0.31738100  0.45607800  1
  O  O103  1  0.68261900  0.50851800  0.45607800  1
  O  O104  1  0.49148200  0.17410100  0.45607800  1
  O  O105  1  0.17410100  0.68261900  0.95607800  1
  O  O106  1  0.31738100  0.49148200  0.95607800  1
  O  O107  1  0.50851800  0.82589900  0.95607800  1
  O  O108  1  0.85285000  0.37143600  0.19417800  1
  O  O109  1  0.62856400  0.48141400  0.19417800  1
  O  O110  1  0.51858600  0.14715000  0.19417800  1
  O  O111  1  0.14715000  0.62856400  0.69417800  1
  O  O112  1  0.37143600  0.51858600  0.69417800  1
  O  O113  1  0.48141400  0.85285000  0.69417800  1
  O  O114  1  0.17014900  0.68123500  0.46156500  1
  O  O115  1  0.31876500  0.48891400  0.46156500  1
  O  O116  1  0.51108600  0.82985100  0.46156500  1
  O  O117  1  0.82985100  0.31876500  0.96156500  1
  O  O118  1  0.68123500  0.51108600  0.96156500  1
  O  O119  1  0.48891400  0.17014900  0.96156500  1
  O  O120  1  0.83608200  0.11848800  0.39424900  1
  O  O121  1  0.88151200  0.71759400  0.39424900  1
  O  O122  1  0.28240600  0.16391800  0.39424900  1
  O  O123  1  0.16391800  0.88151200  0.89424900  1
  O  O124  1  0.11848800  0.28240600  0.89424900  1
  O  O125  1  0.71759400  0.83608200  0.89424900  1
  O  O126  1  0.00000000  0.00000000  0.75037500  1
  O  O127  1  0.00000000  0.00000000  0.25037500  1
  O  O128  1  0.33333300  0.66666700  0.16362700  1
  O  O129  1  0.66666700  0.33333300  0.66362700  1
