# generated using pymatgen
data_C2S2N(O2F3)2
_symmetry_space_group_name_H-M   'P 1'
_cell_length_a   5.66225100
_cell_length_b   9.93264700
_cell_length_c   16.72071300
_cell_angle_alpha   90.00000000
_cell_angle_beta   90.00000000
_cell_angle_gamma   90.00000000
_symmetry_Int_Tables_number   1
_chemical_formula_structural   C2S2N(O2F3)2
_chemical_formula_sum   'C8 S8 N4 O16 F24'
_cell_volume   940.39196756
_cell_formula_units_Z   4
loop_
 _symmetry_equiv_pos_site_id
 _symmetry_equiv_pos_as_xyz
  1  'x, y, z'
loop_
 _atom_site_type_symbol
 _atom_site_label
 _atom_site_symmetry_multiplicity
 _atom_site_fract_x
 _atom_site_fract_y
 _atom_site_fract_z
 _atom_site_occupancy
  C  C0  1  0.22450600  0.41482100  0.09108300  1
  C  C1  1  0.27549400  0.41482100  0.40891700  1
  C  C2  1  0.77549400  0.08517900  0.59108300  1
  C  C3  1  0.72450600  0.08517900  0.90891700  1
  C  C4  1  0.77549400  0.58517900  0.90891700  1
  C  C5  1  0.72450600  0.58517900  0.59108300  1
  C  C6  1  0.22450600  0.91482100  0.40891700  1
  C  C7  1  0.27549400  0.91482100  0.09108300  1
  S  S8  1  0.42668900  0.42112400  0.18165000  1
  S  S9  1  0.07331100  0.42112400  0.31835000  1
  S  S10  1  0.57331100  0.07887600  0.68165000  1
  S  S11  1  0.92668900  0.07887600  0.81835000  1
  S  S12  1  0.57331100  0.57887600  0.81835000  1
  S  S13  1  0.92668900  0.57887600  0.68165000  1
  S  S14  1  0.42668900  0.92112400  0.31835000  1
  S  S15  1  0.07331100  0.92112400  0.18165000  1
  N  N16  1  0.25000000  0.50829600  0.25000000  1
  N  N17  1  0.75000000  0.99170400  0.75000000  1
  N  N18  1  0.75000000  0.49170400  0.75000000  1
  N  N19  1  0.25000000  0.00829600  0.25000000  1
  O  O20  1  0.60820800  0.51748400  0.16364400  1
  O  O21  1  0.89179200  0.51748400  0.33635600  1
  O  O22  1  0.39179200  0.98251600  0.66364400  1
  O  O23  1  0.10820800  0.98251600  0.83635600  1
  O  O24  1  0.39179200  0.48251600  0.83635600  1
  O  O25  1  0.10820800  0.48251600  0.66364400  1
  O  O26  1  0.60820800  0.01748400  0.33635600  1
  O  O27  1  0.89179200  0.01748400  0.16364400  1
  O  O28  1  0.48010400  0.28493900  0.20413000  1
  O  O29  1  0.01989600  0.28493900  0.29587000  1
  O  O30  1  0.51989600  0.21506100  0.70413000  1
  O  O31  1  0.98010400  0.21506100  0.79587000  1
  O  O32  1  0.51989600  0.71506100  0.79587000  1
  O  O33  1  0.98010400  0.71506100  0.70413000  1
  O  O34  1  0.48010400  0.78493900  0.29587000  1
  O  O35  1  0.01989600  0.78493900  0.20413000  1
  F  F36  1  0.35646300  0.36391600  0.03105000  1
  F  F37  1  0.14353700  0.36391600  0.46895000  1
  F  F38  1  0.64353700  0.13608400  0.53105000  1
  F  F39  1  0.85646300  0.13608400  0.96895000  1
  F  F40  1  0.64353700  0.63608400  0.96895000  1
  F  F41  1  0.85646300  0.63608400  0.53105000  1
  F  F42  1  0.35646300  0.86391600  0.46895000  1
  F  F43  1  0.14353700  0.86391600  0.03105000  1
  F  F44  1  0.15061200  0.53925000  0.07177900  1
  F  F45  1  0.34938800  0.53925000  0.42822100  1
  F  F46  1  0.84938800  0.96075000  0.57177900  1
  F  F47  1  0.65061200  0.96075000  0.92822100  1
  F  F48  1  0.84938800  0.46075000  0.92822100  1
  F  F49  1  0.65061200  0.46075000  0.57177900  1
  F  F50  1  0.15061200  0.03925000  0.42822100  1
  F  F51  1  0.34938800  0.03925000  0.07177900  1
  F  F52  1  0.03999500  0.33367600  0.10516400  1
  F  F53  1  0.46000500  0.33367600  0.39483600  1
  F  F54  1  0.96000500  0.16632400  0.60516400  1
  F  F55  1  0.53999500  0.16632400  0.89483600  1
  F  F56  1  0.96000500  0.66632400  0.89483600  1
  F  F57  1  0.53999500  0.66632400  0.60516400  1
  F  F58  1  0.03999500  0.83367600  0.39483600  1
  F  F59  1  0.46000500  0.83367600  0.10516400  1
