# generated using pymatgen
data_HXeNO3F2
_symmetry_space_group_name_H-M   'P 1'
_cell_length_a   17.86737500
_cell_length_b   6.15766400
_cell_length_c   5.04198700
_cell_angle_alpha   90.00000000
_cell_angle_beta   90.00000000
_cell_angle_gamma   90.00000000
_symmetry_Int_Tables_number   1
_chemical_formula_structural   HXeNO3F2
_chemical_formula_sum   'H4 Xe4 N4 O12 F8'
_cell_volume   554.72592304
_cell_formula_units_Z   4
loop_
 _symmetry_equiv_pos_site_id
 _symmetry_equiv_pos_as_xyz
  1  'x, y, z'
loop_
 _atom_site_type_symbol
 _atom_site_label
 _atom_site_symmetry_multiplicity
 _atom_site_fract_x
 _atom_site_fract_y
 _atom_site_fract_z
 _atom_site_occupancy
  H  H0  1  0.24058000  0.75000000  0.52951800  1
  H  H1  1  0.74058000  0.75000000  0.97048200  1
  H  H2  1  0.75942000  0.25000000  0.47048200  1
  H  H3  1  0.25942000  0.25000000  0.02951800  1
  Xe  Xe4  1  0.41326400  0.75000000  0.79675300  1
  Xe  Xe5  1  0.91326400  0.75000000  0.70324700  1
  Xe  Xe6  1  0.58673600  0.25000000  0.20324700  1
  Xe  Xe7  1  0.08673600  0.25000000  0.29675300  1
  N  N8  1  0.17411900  0.75000000  0.82956500  1
  N  N9  1  0.67411900  0.75000000  0.67043500  1
  N  N10  1  0.82588100  0.25000000  0.17043500  1
  N  N11  1  0.32588100  0.25000000  0.32956500  1
  O  O12  1  0.10878800  0.75000000  0.89812800  1
  O  O13  1  0.60878800  0.75000000  0.60187200  1
  O  O14  1  0.89121200  0.25000000  0.10187200  1
  O  O15  1  0.39121200  0.25000000  0.39812800  1
  O  O16  1  0.18471900  0.75000000  0.55475200  1
  O  O17  1  0.68471900  0.75000000  0.94524800  1
  O  O18  1  0.81528100  0.25000000  0.44524800  1
  O  O19  1  0.31528100  0.25000000  0.05475200  1
  O  O20  1  0.23049300  0.75000000  0.96983000  1
  O  O21  1  0.73049300  0.75000000  0.53017000  1
  O  O22  1  0.76950700  0.25000000  0.03017000  1
  O  O23  1  0.26950700  0.25000000  0.46983000  1
  F  F24  1  0.33435800  0.75000000  0.48148500  1
  F  F25  1  0.83435800  0.75000000  0.01851500  1
  F  F26  1  0.66564200  0.25000000  0.51851500  1
  F  F27  1  0.16564200  0.25000000  0.98148500  1
  F  F28  1  0.48809400  0.75000000  0.10584300  1
  F  F29  1  0.98809400  0.75000000  0.39415700  1
  F  F30  1  0.51190600  0.25000000  0.89415700  1
  F  F31  1  0.01190600  0.25000000  0.60584300  1
