# generated using pymatgen
data_Mo12PO40
_symmetry_space_group_name_H-M   'P 1'
_cell_length_a   16.93259677
_cell_length_b   16.93259677
_cell_length_c   16.93259677
_cell_angle_alpha   60.00000000
_cell_angle_beta   60.00000000
_cell_angle_gamma   60.00000000
_symmetry_Int_Tables_number   1
_chemical_formula_structural   Mo12PO40
_chemical_formula_sum   'Mo24 P2 O80'
_cell_volume   3432.85690826
_cell_formula_units_Z   2
loop_
 _symmetry_equiv_pos_site_id
 _symmetry_equiv_pos_as_xyz
  1  'x, y, z'
loop_
 _atom_site_type_symbol
 _atom_site_label
 _atom_site_symmetry_multiplicity
 _atom_site_fract_x
 _atom_site_fract_y
 _atom_site_fract_z
 _atom_site_occupancy
  Mo  Mo0  1  0.24612600  0.03918400  0.46856300  1
  Mo  Mo1  1  0.24612600  0.24612600  0.46856300  1
  Mo  Mo2  1  0.03918400  0.24612600  0.46856300  1
  Mo  Mo3  1  0.24612600  0.46856300  0.03918400  1
  Mo  Mo4  1  0.03918400  0.46856300  0.24612600  1
  Mo  Mo5  1  0.24612600  0.46856300  0.24612600  1
  Mo  Mo6  1  0.46856300  0.24612600  0.24612600  1
  Mo  Mo7  1  0.46856300  0.03918400  0.24612600  1
  Mo  Mo8  1  0.46856300  0.24612600  0.03918400  1
  Mo  Mo9  1  0.03918400  0.24612600  0.24612600  1
  Mo  Mo10  1  0.24612600  0.24612600  0.03918400  1
  Mo  Mo11  1  0.24612600  0.03918400  0.24612600  1
  Mo  Mo12  1  0.00387400  0.21081600  0.78143700  1
  Mo  Mo13  1  0.00387400  0.00387400  0.78143700  1
  Mo  Mo14  1  0.21081600  0.00387400  0.78143700  1
  Mo  Mo15  1  0.00387400  0.78143700  0.21081600  1
  Mo  Mo16  1  0.21081600  0.78143700  0.00387400  1
  Mo  Mo17  1  0.00387400  0.78143700  0.00387400  1
  Mo  Mo18  1  0.78143700  0.00387400  0.00387400  1
  Mo  Mo19  1  0.78143700  0.21081600  0.00387400  1
  Mo  Mo20  1  0.78143700  0.00387400  0.21081600  1
  Mo  Mo21  1  0.21081600  0.00387400  0.00387400  1
  Mo  Mo22  1  0.00387400  0.00387400  0.21081600  1
  Mo  Mo23  1  0.00387400  0.21081600  0.00387400  1
  P  P24  1  0.25000000  0.25000000  0.25000000  1
  P  P25  1  0.00000000  0.00000000  0.00000000  1
  O  O26  1  0.21279800  0.21279800  0.36160700  1
  O  O27  1  0.21279800  0.36160700  0.21279800  1
  O  O28  1  0.36160700  0.21279800  0.21279800  1
  O  O29  1  0.21279800  0.21279800  0.21279800  1
  O  O30  1  0.03720200  0.03720200  0.88839300  1
  O  O31  1  0.03720200  0.88839300  0.03720200  1
  O  O32  1  0.88839300  0.03720200  0.03720200  1
  O  O33  1  0.03720200  0.03720200  0.03720200  1
  O  O34  1  0.37657300  0.02474800  0.22210700  1
  O  O35  1  0.37657300  0.37657300  0.22210700  1
  O  O36  1  0.02474800  0.37657300  0.22210700  1
  O  O37  1  0.37657300  0.22210700  0.02474800  1
  O  O38  1  0.02474800  0.22210700  0.37657300  1
  O  O39  1  0.37657300  0.22210700  0.37657300  1
  O  O40  1  0.22210700  0.37657300  0.37657300  1
  O  O41  1  0.22210700  0.02474800  0.37657300  1
  O  O42  1  0.22210700  0.37657300  0.02474800  1
  O  O43  1  0.02474800  0.37657300  0.37657300  1
  O  O44  1  0.37657300  0.37657300  0.02474800  1
  O  O45  1  0.37657300  0.02474800  0.37657300  1
  O  O46  1  0.87342700  0.22525200  0.02789300  1
  O  O47  1  0.87342700  0.87342700  0.02789300  1
  O  O48  1  0.22525200  0.87342700  0.02789300  1
  O  O49  1  0.87342700  0.02789300  0.22525200  1
  O  O50  1  0.22525200  0.02789300  0.87342700  1
  O  O51  1  0.87342700  0.02789300  0.87342700  1
  O  O52  1  0.02789300  0.87342700  0.87342700  1
  O  O53  1  0.02789300  0.22525200  0.87342700  1
  O  O54  1  0.02789300  0.87342700  0.22525200  1
  O  O55  1  0.22525200  0.87342700  0.87342700  1
  O  O56  1  0.87342700  0.87342700  0.22525200  1
  O  O57  1  0.87342700  0.22525200  0.87342700  1
  O  O58  1  0.10820200  0.26640000  0.51719600  1
  O  O59  1  0.10820200  0.10820200  0.51719600  1
  O  O60  1  0.26640000  0.10820200  0.51719600  1
  O  O61  1  0.10820200  0.51719600  0.26640000  1
  O  O62  1  0.26640000  0.51719600  0.10820200  1
  O  O63  1  0.10820200  0.51719600  0.10820200  1
  O  O64  1  0.51719600  0.10820200  0.10820200  1
  O  O65  1  0.51719600  0.26640000  0.10820200  1
  O  O66  1  0.51719600  0.10820200  0.26640000  1
  O  O67  1  0.26640000  0.10820200  0.10820200  1
  O  O68  1  0.10820200  0.10820200  0.26640000  1
  O  O69  1  0.10820200  0.26640000  0.10820200  1
  O  O70  1  0.14179800  0.98360000  0.73280400  1
  O  O71  1  0.14179800  0.14179800  0.73280400  1
  O  O72  1  0.98360000  0.14179800  0.73280400  1
  O  O73  1  0.14179800  0.73280400  0.98360000  1
  O  O74  1  0.98360000  0.73280400  0.14179800  1
  O  O75  1  0.14179800  0.73280400  0.14179800  1
  O  O76  1  0.73280400  0.14179800  0.14179800  1
  O  O77  1  0.73280400  0.98360000  0.14179800  1
  O  O78  1  0.73280400  0.14179800  0.98360000  1
  O  O79  1  0.98360000  0.14179800  0.14179800  1
  O  O80  1  0.14179800  0.14179800  0.98360000  1
  O  O81  1  0.14179800  0.98360000  0.14179800  1
  O  O82  1  0.25826800  0.92815900  0.55530500  1
  O  O83  1  0.25826800  0.25826800  0.55530500  1
  O  O84  1  0.92815900  0.25826800  0.55530500  1
  O  O85  1  0.25826800  0.55530500  0.92815900  1
  O  O86  1  0.92815900  0.55530500  0.25826800  1
  O  O87  1  0.25826800  0.55530500  0.25826800  1
  O  O88  1  0.55530500  0.25826800  0.25826800  1
  O  O89  1  0.55530500  0.92815900  0.25826800  1
  O  O90  1  0.55530500  0.25826800  0.92815900  1
  O  O91  1  0.92815900  0.25826800  0.25826800  1
  O  O92  1  0.25826800  0.25826800  0.92815900  1
  O  O93  1  0.25826800  0.92815900  0.25826800  1
  O  O94  1  0.99173200  0.32184100  0.69469500  1
  O  O95  1  0.99173200  0.99173200  0.69469500  1
  O  O96  1  0.32184100  0.99173200  0.69469500  1
  O  O97  1  0.99173200  0.69469500  0.32184100  1
  O  O98  1  0.32184100  0.69469500  0.99173200  1
  O  O99  1  0.99173200  0.69469500  0.99173200  1
  O  O100  1  0.69469500  0.99173200  0.99173200  1
  O  O101  1  0.69469500  0.32184100  0.99173200  1
  O  O102  1  0.69469500  0.99173200  0.32184100  1
  O  O103  1  0.32184100  0.99173200  0.99173200  1
  O  O104  1  0.99173200  0.99173200  0.32184100  1
  O  O105  1  0.99173200  0.32184100  0.99173200  1
