# generated using pymatgen
data_Cs2Th(Si2O5)3
_symmetry_space_group_name_H-M   'P 1'
_cell_length_a   7.32197500
_cell_length_b   13.85941900
_cell_length_c   16.55504300
_cell_angle_alpha   90.00000000
_cell_angle_beta   90.00000000
_cell_angle_gamma   90.00000000
_symmetry_Int_Tables_number   1
_chemical_formula_structural   Cs2Th(Si2O5)3
_chemical_formula_sum   'Cs8 Th4 Si24 O60'
_cell_volume   1679.97794177
_cell_formula_units_Z   4
loop_
 _symmetry_equiv_pos_site_id
 _symmetry_equiv_pos_as_xyz
  1  'x, y, z'
loop_
 _atom_site_type_symbol
 _atom_site_label
 _atom_site_symmetry_multiplicity
 _atom_site_fract_x
 _atom_site_fract_y
 _atom_site_fract_z
 _atom_site_occupancy
  Cs  Cs0  1  0.24442000  0.99980400  0.53196400  1
  Cs  Cs1  1  0.75558000  0.49980400  0.46803600  1
  Cs  Cs2  1  0.24442000  0.49980400  0.96803600  1
  Cs  Cs3  1  0.75558000  0.99980400  0.03196400  1
  Cs  Cs4  1  0.22475000  0.30999200  0.64385000  1
  Cs  Cs5  1  0.77525000  0.80999200  0.35615000  1
  Cs  Cs6  1  0.22475000  0.80999200  0.85615000  1
  Cs  Cs7  1  0.77525000  0.30999200  0.14385000  1
  Th  Th8  1  0.71281900  0.14984000  0.61989500  1
  Th  Th9  1  0.28718100  0.64984000  0.38010500  1
  Th  Th10  1  0.71281900  0.64984000  0.88010500  1
  Th  Th11  1  0.28718100  0.14984000  0.11989500  1
  Si  Si12  1  0.54815900  0.22102800  0.42315300  1
  Si  Si13  1  0.45184100  0.72102800  0.57684700  1
  Si  Si14  1  0.54815900  0.72102800  0.07684700  1
  Si  Si15  1  0.45184100  0.22102800  0.92315300  1
  Si  Si16  1  0.96376400  0.22858000  0.44383800  1
  Si  Si17  1  0.03623600  0.72858000  0.55616200  1
  Si  Si18  1  0.96376400  0.72858000  0.05616200  1
  Si  Si19  1  0.03623600  0.22858000  0.94383800  1
  Si  Si20  1  0.98530500  0.07523400  0.80747100  1
  Si  Si21  1  0.01469500  0.57523400  0.19252900  1
  Si  Si22  1  0.98530500  0.57523400  0.69252900  1
  Si  Si23  1  0.01469500  0.07523400  0.30747100  1
  Si  Si24  1  0.41884900  0.07134800  0.78267200  1
  Si  Si25  1  0.58115100  0.57134800  0.21732800  1
  Si  Si26  1  0.41884900  0.57134800  0.71732800  1
  Si  Si27  1  0.58115100  0.07134800  0.28267200  1
  Si  Si28  1  0.75066600  0.88226400  0.60938300  1
  Si  Si29  1  0.24933400  0.38226400  0.39061700  1
  Si  Si30  1  0.75066600  0.38226400  0.89061700  1
  Si  Si31  1  0.24933400  0.88226400  0.10938300  1
  Si  Si32  1  0.71957800  0.40607700  0.70399300  1
  Si  Si33  1  0.28042200  0.90607700  0.29600700  1
  Si  Si34  1  0.71957800  0.90607700  0.79600700  1
  Si  Si35  1  0.28042200  0.40607700  0.20399300  1
  O  O36  1  0.51551500  0.17755800  0.51232700  1
  O  O37  1  0.48448500  0.67755800  0.48767300  1
  O  O38  1  0.51551500  0.67755800  0.98767300  1
  O  O39  1  0.48448500  0.17755800  0.01232700  1
  O  O40  1  0.43523900  0.32089000  0.40853900  1
  O  O41  1  0.56476100  0.82089000  0.59146100  1
  O  O42  1  0.43523900  0.82089000  0.09146100  1
  O  O43  1  0.56476100  0.32089000  0.90853900  1
  O  O44  1  0.49789100  0.14202900  0.35304700  1
  O  O45  1  0.50210900  0.64202900  0.64695300  1
  O  O46  1  0.49789100  0.64202900  0.14695300  1
  O  O47  1  0.50210900  0.14202900  0.85304700  1
  O  O48  1  0.76066700  0.25717600  0.40945000  1
  O  O49  1  0.23933300  0.75717600  0.59055000  1
  O  O50  1  0.76066700  0.75717600  0.09055000  1
  O  O51  1  0.23933300  0.25717600  0.90945000  1
  O  O52  1  0.95726400  0.18790400  0.53506500  1
  O  O53  1  0.04273600  0.68790400  0.46493500  1
  O  O54  1  0.95726400  0.68790400  0.96493500  1
  O  O55  1  0.04273600  0.18790400  0.03506500  1
  O  O56  1  0.05422600  0.14960700  0.38244500  1
  O  O57  1  0.94577400  0.64960700  0.61755500  1
  O  O58  1  0.05422600  0.64960700  0.11755500  1
  O  O59  1  0.94577400  0.14960700  0.88244500  1
  O  O60  1  0.91326400  0.11612100  0.72247800  1
  O  O61  1  0.08673600  0.61612100  0.27752200  1
  O  O62  1  0.91326400  0.61612100  0.77752200  1
  O  O63  1  0.08673600  0.11612100  0.22247800  1
  O  O64  1  0.20433200  0.04669500  0.80503500  1
  O  O65  1  0.79566800  0.54669500  0.19496500  1
  O  O66  1  0.20433200  0.54669500  0.69496500  1
  O  O67  1  0.79566800  0.04669500  0.30503500  1
  O  O68  1  0.87965000  0.97525400  0.83635700  1
  O  O69  1  0.12035000  0.47525400  0.16364300  1
  O  O70  1  0.87965000  0.47525400  0.66364300  1
  O  O71  1  0.12035000  0.97525400  0.33635700  1
  O  O72  1  0.44667400  0.11733600  0.69413500  1
  O  O73  1  0.55332600  0.61733600  0.30586500  1
  O  O74  1  0.44667400  0.61733600  0.80586500  1
  O  O75  1  0.55332600  0.11733600  0.19413500  1
  O  O76  1  0.72748700  0.99148200  0.57894400  1
  O  O77  1  0.27251300  0.49148200  0.42105600  1
  O  O78  1  0.72748700  0.49148200  0.92105600  1
  O  O79  1  0.27251300  0.99148200  0.07894400  1
  O  O80  1  0.91917500  0.82991100  0.55954600  1
  O  O81  1  0.08082500  0.32991100  0.44045400  1
  O  O82  1  0.91917500  0.32991100  0.94045400  1
  O  O83  1  0.08082500  0.82991100  0.05954600  1
  O  O84  1  0.68908800  0.31275500  0.64843100  1
  O  O85  1  0.31091200  0.81275500  0.35156900  1
  O  O86  1  0.68908800  0.81275500  0.85156900  1
  O  O87  1  0.31091200  0.31275500  0.14843100  1
  O  O88  1  0.79572400  0.37632000  0.79376600  1
  O  O89  1  0.20427600  0.87632000  0.20623400  1
  O  O90  1  0.79572400  0.87632000  0.70623400  1
  O  O91  1  0.20427600  0.37632000  0.29376600  1
  O  O92  1  0.52568600  0.46657700  0.71038400  1
  O  O93  1  0.47431400  0.96657700  0.28961600  1
  O  O94  1  0.52568600  0.96657700  0.78961600  1
  O  O95  1  0.47431400  0.46657700  0.21038400  1
