# generated using pymatgen
data_CaZrSi6O17
_symmetry_space_group_name_H-M   'P 1'
_cell_length_a   10.05610963
_cell_length_b   10.05610963
_cell_length_c   7.94942127
_cell_angle_alpha   76.32049273
_cell_angle_beta   76.32049273
_cell_angle_gamma   89.71615338
_symmetry_Int_Tables_number   1
_chemical_formula_structural   CaZrSi6O17
_chemical_formula_sum   'Ca2 Zr2 Si12 O34'
_cell_volume   757.82117415
_cell_formula_units_Z   2
loop_
 _symmetry_equiv_pos_site_id
 _symmetry_equiv_pos_as_xyz
  1  'x, y, z'
loop_
 _atom_site_type_symbol
 _atom_site_label
 _atom_site_symmetry_multiplicity
 _atom_site_fract_x
 _atom_site_fract_y
 _atom_site_fract_z
 _atom_site_occupancy
  Ca  Ca0  1  0.98923000  0.49579200  0.95842600  1
  Ca  Ca1  1  0.50420800  0.01077000  0.04157400  1
  Zr  Zr2  1  0.24913200  0.25352100  0.99488400  1
  Zr  Zr3  1  0.74647900  0.75086800  0.00511600  1
  Si  Si4  1  0.05171600  0.32949500  0.65555200  1
  Si  Si5  1  0.67050500  0.94828400  0.34444800  1
  Si  Si6  1  0.81998900  0.55739300  0.65966300  1
  Si  Si7  1  0.44260800  0.18001100  0.34033700  1
  Si  Si8  1  0.97784300  0.70888700  0.27038700  1
  Si  Si9  1  0.29111300  0.02215700  0.72961300  1
  Si  Si10  1  0.20194400  0.49172800  0.26984100  1
  Si  Si11  1  0.50827200  0.79805600  0.73015900  1
  Si  Si12  1  0.98894500  0.02253400  0.69487700  1
  Si  Si13  1  0.97746600  0.01105500  0.30512300  1
  Si  Si14  1  0.51134000  0.49471700  0.69900800  1
  Si  Si15  1  0.50528300  0.48866000  0.30099200  1
  O  O16  1  0.01004700  0.98995300  0.50000000  1
  O  O17  1  0.48704300  0.51295700  0.50000000  1
  O  O18  1  0.15175100  0.37484800  0.45637800  1
  O  O19  1  0.62515200  0.84824900  0.54362200  1
  O  O20  1  0.86211300  0.65481400  0.45893300  1
  O  O21  1  0.34518600  0.13788700  0.54106700  1
  O  O22  1  0.13064600  0.32874400  0.81191700  1
  O  O23  1  0.67125600  0.86935400  0.18808300  1
  O  O24  1  0.91890100  0.67823700  0.10735000  1
  O  O25  1  0.32176300  0.08109900  0.89265000  1
  O  O26  1  0.82425500  0.63878200  0.81263400  1
  O  O27  1  0.36121800  0.17574500  0.18736600  1
  O  O28  1  0.17175600  0.42863600  0.10848500  1
  O  O29  1  0.57136400  0.82824400  0.89151500  1
  O  O30  1  0.93696400  0.44437700  0.68966100  1
  O  O31  1  0.55562300  0.06303600  0.31033900  1
  O  O32  1  0.11601500  0.62671500  0.28628800  1
  O  O33  1  0.37328500  0.88398500  0.71371200  1
  O  O34  1  0.96998600  0.18621500  0.67975000  1
  O  O35  1  0.81378500  0.03001400  0.32025000  1
  O  O36  1  0.01571300  0.87100600  0.23700900  1
  O  O37  1  0.12899400  0.98428700  0.76299100  1
  O  O38  1  0.67453000  0.47380700  0.69290600  1
  O  O39  1  0.52619300  0.32547000  0.30709400  1
  O  O40  1  0.36376800  0.52969400  0.23786000  1
  O  O41  1  0.47030600  0.63623200  0.76214000  1
  O  O42  1  0.41813000  0.36828800  0.83902800  1
  O  O43  1  0.63171200  0.58187000  0.16097200  1
  O  O44  1  0.85819900  0.93373800  0.83885600  1
  O  O45  1  0.06626200  0.14180100  0.16114400  1
  O  O46  1  0.92010200  0.30652500  0.22113600  1
  O  O47  1  0.69347500  0.07989800  0.77886400  1
  O  O48  1  0.18935400  0.64291800  0.89802700  1
  O  O49  1  0.35708200  0.81064600  0.10197300  1
