# generated using pymatgen
data_Ba2V2Te2O11
_symmetry_space_group_name_H-M   'P 1'
_cell_length_a   7.78678000
_cell_length_b   7.69656000
_cell_length_c   9.71009238
_cell_angle_alpha   86.36318771
_cell_angle_beta   90.00000000
_cell_angle_gamma   90.00000000
_symmetry_Int_Tables_number   1
_chemical_formula_structural   Ba2V2Te2O11
_chemical_formula_sum   'Ba4 V4 Te4 O22'
_cell_volume   580.76769783
_cell_formula_units_Z   2
loop_
 _symmetry_equiv_pos_site_id
 _symmetry_equiv_pos_as_xyz
  1  'x, y, z'
loop_
 _atom_site_type_symbol
 _atom_site_label
 _atom_site_symmetry_multiplicity
 _atom_site_fract_x
 _atom_site_fract_y
 _atom_site_fract_z
 _atom_site_occupancy
  Ba  Ba0  1  0.75000000  0.36566100  0.57173800  1
  Ba  Ba1  1  0.25000000  0.63433900  0.42826200  1
  Ba  Ba2  1  0.75000000  0.63139900  0.14180500  1
  Ba  Ba3  1  0.25000000  0.36860100  0.85819500  1
  V  V4  1  0.25000000  0.81570800  0.01239000  1
  V  V5  1  0.75000000  0.18429200  0.98761000  1
  V  V6  1  0.75000000  0.88996700  0.42298400  1
  V  V7  1  0.25000000  0.11003300  0.57701600  1
  Te  Te8  1  0.53624900  0.78683800  0.76002000  1
  Te  Te9  1  0.03624900  0.21316200  0.23998000  1
  Te  Te10  1  0.46375100  0.21316200  0.23998000  1
  Te  Te11  1  0.96375100  0.78683800  0.76002000  1
  O  O12  1  0.75000000  0.69333900  0.85233400  1
  O  O13  1  0.25000000  0.30666100  0.14766600  1
  O  O14  1  0.48043500  0.58128600  0.67944900  1
  O  O15  1  0.98043500  0.41871400  0.32055100  1
  O  O16  1  0.51956500  0.41871400  0.32055100  1
  O  O17  1  0.01956500  0.58128600  0.67944900  1
  O  O18  1  0.75000000  0.83824300  0.61020200  1
  O  O19  1  0.25000000  0.16175700  0.38979800  1
  O  O20  1  0.43333400  0.69629100  0.94783400  1
  O  O21  1  0.93333400  0.30370900  0.05216600  1
  O  O22  1  0.56666600  0.30370900  0.05216600  1
  O  O23  1  0.06666600  0.69629100  0.94783400  1
  O  O24  1  0.25000000  0.01716600  0.93609200  1
  O  O25  1  0.75000000  0.98283400  0.06390800  1
  O  O26  1  0.25000000  0.82032900  0.18468500  1
  O  O27  1  0.75000000  0.17967100  0.81531500  1
  O  O28  1  0.57485300  0.79550900  0.35556900  1
  O  O29  1  0.07485300  0.20449100  0.64443100  1
  O  O30  1  0.42514700  0.20449100  0.64443100  1
  O  O31  1  0.92514700  0.79550900  0.35556900  1
  O  O32  1  0.75000000  0.11569100  0.38044500  1
  O  O33  1  0.25000000  0.88430900  0.61955500  1
