# generated using pymatgen
data_Rb2USi2O9
_symmetry_space_group_name_H-M   'P 1'
_cell_length_a   7.78114800
_cell_length_b   20.50617600
_cell_length_c   13.77572926
_cell_angle_alpha   90.00000000
_cell_angle_beta   117.47211867
_cell_angle_gamma   90.00000000
_symmetry_Int_Tables_number   1
_chemical_formula_structural   Rb2USi2O9
_chemical_formula_sum   'Rb16 U8 Si16 O72'
_cell_volume   1950.21201940
_cell_formula_units_Z   8
loop_
 _symmetry_equiv_pos_site_id
 _symmetry_equiv_pos_as_xyz
  1  'x, y, z'
loop_
 _atom_site_type_symbol
 _atom_site_label
 _atom_site_symmetry_multiplicity
 _atom_site_fract_x
 _atom_site_fract_y
 _atom_site_fract_z
 _atom_site_occupancy
  Rb  Rb0  1  0.17617400  0.25064700  0.17916300  1
  Rb  Rb1  1  0.17617400  0.24935300  0.67916300  1
  Rb  Rb2  1  0.82382600  0.74935300  0.82083700  1
  Rb  Rb3  1  0.82382600  0.75064700  0.32083700  1
  Rb  Rb4  1  0.34747400  0.43570800  0.85126700  1
  Rb  Rb5  1  0.34747400  0.06429200  0.35126700  1
  Rb  Rb6  1  0.65252600  0.56429200  0.14873300  1
  Rb  Rb7  1  0.65252600  0.93570800  0.64873300  1
  Rb  Rb8  1  0.83034600  0.31602000  0.86289600  1
  Rb  Rb9  1  0.83034600  0.18398000  0.36289600  1
  Rb  Rb10  1  0.16965400  0.68398000  0.13710400  1
  Rb  Rb11  1  0.16965400  0.81602000  0.63710400  1
  Rb  Rb12  1  0.29774300  0.50299300  0.33468300  1
  Rb  Rb13  1  0.29774300  0.99700700  0.83468300  1
  Rb  Rb14  1  0.70225700  0.49700700  0.66531700  1
  Rb  Rb15  1  0.70225700  0.00299300  0.16531700  1
  U  U16  1  0.47799700  0.25244700  0.01118000  1
  U  U17  1  0.47799700  0.24755300  0.51118000  1
  U  U18  1  0.52200300  0.74755300  0.98882000  1
  U  U19  1  0.52200300  0.75244700  0.48882000  1
  U  U20  1  0.00000000  0.50000000  0.50000000  1
  U  U21  1  0.00000000  0.00000000  0.00000000  1
  U  U22  1  0.00000000  0.50000000  0.00000000  1
  U  U23  1  0.00000000  0.00000000  0.50000000  1
  Si  Si24  1  0.82100500  0.37915800  0.13563800  1
  Si  Si25  1  0.82100500  0.12084200  0.63563800  1
  Si  Si26  1  0.17899500  0.62084200  0.86436200  1
  Si  Si27  1  0.17899500  0.87915800  0.36436200  1
  Si  Si28  1  0.66471400  0.37063700  0.38605700  1
  Si  Si29  1  0.66471400  0.12936300  0.88605700  1
  Si  Si30  1  0.33528600  0.62936300  0.61394300  1
  Si  Si31  1  0.33528600  0.87063700  0.11394300  1
  Si  Si32  1  0.43326000  0.39724800  0.14022300  1
  Si  Si33  1  0.43326000  0.10275200  0.64022300  1
  Si  Si34  1  0.56674000  0.60275200  0.85977700  1
  Si  Si35  1  0.56674000  0.89724800  0.35977700  1
  Si  Si36  1  0.05118900  0.35435400  0.38099900  1
  Si  Si37  1  0.05118900  0.14564600  0.88099900  1
  Si  Si38  1  0.94881100  0.64564600  0.61900100  1
  Si  Si39  1  0.94881100  0.85435400  0.11900100  1
  O  O40  1  0.84172500  0.16803400  0.87507800  1
  O  O41  1  0.84172500  0.33196600  0.37507800  1
  O  O42  1  0.15827500  0.83196600  0.12492200  1
  O  O43  1  0.15827500  0.66803400  0.62492200  1
  O  O44  1  0.50698500  0.20981300  0.13984900  1
  O  O45  1  0.50698500  0.29018700  0.63984900  1
  O  O46  1  0.49301500  0.79018700  0.86015100  1
  O  O47  1  0.49301500  0.70981300  0.36015100  1
  O  O48  1  0.98956700  0.45104100  0.88313800  1
  O  O49  1  0.98956700  0.04895900  0.38313800  1
  O  O50  1  0.01043300  0.54895900  0.11686200  1
  O  O51  1  0.01043300  0.95104100  0.61686200  1
  O  O52  1  0.61112500  0.16995400  0.96955700  1
  O  O53  1  0.61112500  0.33004600  0.46955700  1
  O  O54  1  0.38887500  0.83004600  0.03044300  1
  O  O55  1  0.38887500  0.66995400  0.53044300  1
  O  O56  1  0.47454600  0.37123000  0.26334700  1
  O  O57  1  0.47454600  0.12877000  0.76334700  1
  O  O58  1  0.52545400  0.62877000  0.73665300  1
  O  O59  1  0.52545400  0.87123000  0.23665300  1
  O  O60  1  0.87280500  0.41507200  0.04740600  1
  O  O61  1  0.87280500  0.08492800  0.54740600  1
  O  O62  1  0.12719500  0.58492800  0.95259400  1
  O  O63  1  0.12719500  0.91507200  0.45259400  1
  O  O64  1  0.01205900  0.38043900  0.25821500  1
  O  O65  1  0.01205900  0.11956100  0.75821500  1
  O  O66  1  0.98794100  0.61956100  0.74178500  1
  O  O67  1  0.98794100  0.88043900  0.24178500  1
  O  O68  1  0.14291400  0.41527000  0.46532900  1
  O  O69  1  0.14291400  0.08473000  0.96532900  1
  O  O70  1  0.85708600  0.58473000  0.53467100  1
  O  O71  1  0.85708600  0.91527000  0.03467100  1
  O  O72  1  0.72377800  0.44591200  0.42518500  1
  O  O73  1  0.72377800  0.05408800  0.92518500  1
  O  O74  1  0.27622200  0.55408800  0.57481500  1
  O  O75  1  0.27622200  0.94591200  0.07481500  1
  O  O76  1  0.18285400  0.21115900  0.91237500  1
  O  O77  1  0.18285400  0.28884100  0.41237500  1
  O  O78  1  0.81714600  0.78884100  0.08762500  1
  O  O79  1  0.81714600  0.71115900  0.58762500  1
  O  O80  1  0.04641400  0.46427200  0.63654400  1
  O  O81  1  0.04641400  0.03572800  0.13654400  1
  O  O82  1  0.95358600  0.53572800  0.36345600  1
  O  O83  1  0.95358600  0.96427200  0.86345600  1
  O  O84  1  0.30081900  0.46264200  0.11011500  1
  O  O85  1  0.30081900  0.03735800  0.61011500  1
  O  O86  1  0.69918100  0.53735800  0.88988500  1
  O  O87  1  0.69918100  0.96264200  0.38988500  1
  O  O88  1  0.33998700  0.33721000  0.05412800  1
  O  O89  1  0.33998700  0.16279000  0.55412800  1
  O  O90  1  0.66001300  0.66279000  0.94587200  1
  O  O91  1  0.66001300  0.83721000  0.44587200  1
  O  O92  1  0.44980100  0.29737500  0.88613500  1
  O  O93  1  0.44980100  0.20262500  0.38613500  1
  O  O94  1  0.55019900  0.70262500  0.11386500  1
  O  O95  1  0.55019900  0.79737500  0.61386500  1
  O  O96  1  0.64205600  0.41926700  0.14334500  1
  O  O97  1  0.64205600  0.08073300  0.64334500  1
  O  O98  1  0.35794400  0.58073300  0.85665500  1
  O  O99  1  0.35794400  0.91926700  0.35665500  1
  O  O100  1  0.76063500  0.30309900  0.10280100  1
  O  O101  1  0.76063500  0.19690100  0.60280100  1
  O  O102  1  0.23936500  0.69690100  0.89719900  1
  O  O103  1  0.23936500  0.80309900  0.39719900  1
  O  O104  1  0.44318200  0.39059100  0.67081600  1
  O  O105  1  0.44318200  0.10940900  0.17081600  1
  O  O106  1  0.55681800  0.60940900  0.32918400  1
  O  O107  1  0.55681800  0.89059100  0.82918400  1
  O  O108  1  0.91551700  0.13384100  0.16533000  1
  O  O109  1  0.91551700  0.36615900  0.66533000  1
  O  O110  1  0.08448300  0.86615900  0.83467000  1
  O  O111  1  0.08448300  0.63384100  0.33467000  1
