# generated using pymatgen
data_Sr4Ga2O7
_symmetry_space_group_name_H-M   'P 1'
_cell_length_a   13.18094328
_cell_length_b   15.92953238
_cell_length_c   16.00032353
_cell_angle_alpha   90.00000000
_cell_angle_beta   90.72714109
_cell_angle_gamma   90.00000000
_symmetry_Int_Tables_number   1
_chemical_formula_structural   Sr4Ga2O7
_chemical_formula_sum   'Sr64 Ga32 O112'
_cell_volume   3359.25759468
_cell_formula_units_Z   16
loop_
 _symmetry_equiv_pos_site_id
 _symmetry_equiv_pos_as_xyz
  1  'x, y, z'
loop_
 _atom_site_type_symbol
 _atom_site_label
 _atom_site_symmetry_multiplicity
 _atom_site_fract_x
 _atom_site_fract_y
 _atom_site_fract_z
 _atom_site_occupancy
  Sr  Sr0  1  0.43060564  0.12893391  0.32941591  1
  Sr  Sr1  1  0.43060564  0.87106609  0.82941591  1
  Sr  Sr2  1  0.44674058  0.12688795  0.08369536  1
  Sr  Sr3  1  0.44674058  0.87311205  0.58369536  1
  Sr  Sr4  1  0.59971891  0.98808746  0.21824486  1
  Sr  Sr5  1  0.59971891  0.01191254  0.71824486  1
  Sr  Sr6  1  0.74933129  0.11527025  0.08269419  1
  Sr  Sr7  1  0.74933129  0.88472975  0.58269419  1
  Sr  Sr8  1  0.75818862  0.35749498  0.05411191  1
  Sr  Sr9  1  0.75818862  0.64250502  0.55411191  1
  Sr  Sr10  1  0.14166754  0.10908737  0.08114509  1
  Sr  Sr11  1  0.14166754  0.89091263  0.58114509  1
  Sr  Sr12  1  0.44318644  0.37044792  0.33290425  1
  Sr  Sr13  1  0.44318644  0.62955208  0.83290425  1
  Sr  Sr14  1  0.10235481  0.12292849  0.33209994  1
  Sr  Sr15  1  0.10235481  0.87707151  0.83209994  1
  Sr  Sr16  1  0.43211109  0.38436767  0.81985255  1
  Sr  Sr17  1  0.43211109  0.61563233  0.31985255  1
  Sr  Sr18  1  0.59264574  0.47904836  0.20260267  1
  Sr  Sr19  1  0.59264574  0.52095164  0.70260267  1
  Sr  Sr20  1  0.08443808  0.34882054  0.32473651  1
  Sr  Sr21  1  0.08443808  0.65117946  0.82473651  1
  Sr  Sr22  1  0.77092621  0.62096255  0.08592309  1
  Sr  Sr23  1  0.77092621  0.37903745  0.58592309  1
  Sr  Sr24  1  0.77793155  0.33667773  0.33354770  1
  Sr  Sr25  1  0.77793155  0.66332227  0.83354770  1
  Sr  Sr26  1  0.93781949  0.49739042  0.95459719  1
  Sr  Sr27  1  0.93781949  0.50260958  0.45459719  1
  Sr  Sr28  1  0.75540839  0.40214147  0.82178762  1
  Sr  Sr29  1  0.75540839  0.59785853  0.32178762  1
  Sr  Sr30  1  0.25858963  0.25224889  0.94288239  1
  Sr  Sr31  1  0.25858963  0.74775111  0.44288239  1
  Sr  Sr32  1  0.74992338  0.17250456  0.85835182  1
  Sr  Sr33  1  0.74992338  0.82749544  0.35835182  1
  Sr  Sr34  1  0.13199283  0.37099095  0.09677318  1
  Sr  Sr35  1  0.13199283  0.62900905  0.59677318  1
  Sr  Sr36  1  0.94265070  0.23397221  0.15302544  1
  Sr  Sr37  1  0.94265070  0.76602779  0.65302544  1
  Sr  Sr38  1  0.94717286  0.25692717  0.72663551  1
  Sr  Sr39  1  0.94717286  0.74307283  0.22663551  1
  Sr  Sr40  1  0.45333963  0.86955338  0.07330947  1
  Sr  Sr41  1  0.45333963  0.13044662  0.57330947  1
  Sr  Sr42  1  0.46104117  0.62559069  0.07540051  1
  Sr  Sr43  1  0.46104117  0.37440931  0.57540051  1
  Sr  Sr44  1  0.08934006  0.36678876  0.56954298  1
  Sr  Sr45  1  0.08934006  0.63321124  0.06954298  1
  Sr  Sr46  1  0.28671273  0.25275063  0.46203910  1
  Sr  Sr47  1  0.28671273  0.74724937  0.96203910  1
  Sr  Sr48  1  0.77324010  0.88086865  0.05995919  1
  Sr  Sr49  1  0.77324010  0.11913135  0.55995919  1
  Sr  Sr50  1  0.11449640  0.10365067  0.78558882  1
  Sr  Sr51  1  0.11449640  0.89634933  0.28558882  1
  Sr  Sr52  1  0.09763012  0.43205241  0.80753062  1
  Sr  Sr53  1  0.09763012  0.56794759  0.30753062  1
  Sr  Sr54  1  0.08820619  0.87968347  0.06354790  1
  Sr  Sr55  1  0.08820619  0.12031653  0.56354790  1
  Sr  Sr56  1  0.42945127  0.12534907  0.83581847  1
  Sr  Sr57  1  0.42945127  0.87465093  0.33581847  1
  Sr  Sr58  1  0.80827787  0.88876058  0.82722484  1
  Sr  Sr59  1  0.80827787  0.11123942  0.32722484  1
  Sr  Sr60  1  0.41846904  0.38354425  0.05877248  1
  Sr  Sr61  1  0.41846904  0.61645575  0.55877248  1
  Sr  Sr62  1  0.94381513  0.03773190  0.94350020  1
  Sr  Sr63  1  0.94381513  0.96226810  0.44350020  1
  Ga  Ga64  1  0.62084569  0.24581228  0.19405185  1
  Ga  Ga65  1  0.62084569  0.75418772  0.69405185  1
  Ga  Ga66  1  0.61743242  0.01790075  0.95138872  1
  Ga  Ga67  1  0.61743242  0.98209925  0.45138872  1
  Ga  Ga68  1  0.57549550  0.25410886  0.96760308  1
  Ga  Ga69  1  0.57549550  0.74589114  0.46760308  1
  Ga  Ga70  1  0.25385382  0.26512613  0.69828949  1
  Ga  Ga71  1  0.25385382  0.73487387  0.19828949  1
  Ga  Ga72  1  0.26114203  0.00009996  0.44141256  1
  Ga  Ga73  1  0.26114203  -0.00009996  0.94141256  1
  Ga  Ga74  1  0.96329748  0.25541392  0.94079013  1
  Ga  Ga75  1  0.96329748  0.74458608  0.44079013  1
  Ga  Ga76  1  0.25019835  0.51241652  0.96296434  1
  Ga  Ga77  1  0.25019835  0.48758348  0.46296434  1
  Ga  Ga78  1  0.27480340  0.50670699  0.19234944  1
  Ga  Ga79  1  0.27480340  0.49329301  0.69234944  1
  Ga  Ga80  1  0.91212651  0.47962616  0.19389141  1
  Ga  Ga81  1  0.91212651  0.52037384  0.69389141  1
  Ga  Ga82  1  0.91978951  0.99590371  0.18905178  1
  Ga  Ga83  1  0.91978951  0.00409629  0.68905178  1
  Ga  Ga84  1  0.61136982  0.25166345  0.46673388  1
  Ga  Ga85  1  0.61136982  0.74833655  0.96673388  1
  Ga  Ga86  1  0.26163419  0.23482981  0.20473824  1
  Ga  Ga87  1  0.26163419  0.76517019  0.70473824  1
  Ga  Ga88  1  0.62782170  0.74372650  0.19873151  1
  Ga  Ga89  1  0.62782170  0.25627350  0.69873151  1
  Ga  Ga90  1  0.29173020  0.00671242  0.20760196  1
  Ga  Ga91  1  0.29173020  0.99328758  0.70760196  1
  Ga  Ga92  1  0.95260764  0.76342541  0.94051800  1
  Ga  Ga93  1  0.95260764  0.23657459  0.44051800  1
  Ga  Ga94  1  0.62103613  0.51455196  0.95566968  1
  Ga  Ga95  1  0.62103613  0.48544804  0.45566968  1
  O  O96  1  0.76300868  0.23351841  0.18970770  1
  O  O97  1  0.76300868  0.76648159  0.68970770  1
  O  O98  1  0.60209348  0.33575763  0.26308937  1
  O  O99  1  0.60209348  0.66424237  0.76308937  1
  O  O100  1  0.55949736  0.14263180  0.20840798  1
  O  O101  1  0.55949736  0.85736820  0.70840798  1
  O  O102  1  0.57706024  0.28426401  0.08354073  1
  O  O103  1  0.57706024  0.71573599  0.58354073  1
  O  O104  1  0.75998214  0.48830247  0.96108389  1
  O  O105  1  0.75998214  0.51169753  0.46108389  1
  O  O106  1  0.11856442  0.23021804  0.20829380  1
  O  O107  1  0.11856442  0.76978196  0.70829380  1
  O  O108  1  0.12055302  0.00262142  0.95738936  1
  O  O109  1  0.12055302  0.99737858  0.45738936  1
  O  O110  1  0.59784625  0.13721214  0.97203548  1
  O  O111  1  0.59784625  0.86278786  0.47203548  1
  O  O112  1  0.60071746  0.97813472  0.05916828  1
  O  O113  1  0.60071746  0.02186528  0.55916828  1
  O  O114  1  0.27045307  0.20530673  0.79707483  1
  O  O115  1  0.27045307  0.79469327  0.29707483  1
  O  O116  1  0.53399436  0.99236520  0.86420638  1
  O  O117  1  0.53399436  0.00763480  0.36420638  1
  O  O118  1  0.10027613  0.75783508  0.95058133  1
  O  O119  1  0.10027613  0.24216492  0.45058133  1
  O  O120  1  0.08279696  0.24664970  0.00533928  1
  O  O121  1  0.08279696  0.75335030  0.50533928  1
  O  O122  1  0.44535280  0.27293248  0.93127745  1
  O  O123  1  0.44535280  0.72706752  0.43127745  1
  O  O124  1  0.17043473  0.44446115  0.23684015  1
  O  O125  1  0.17043473  0.55553885  0.73684015  1
  O  O126  1  0.95173549  0.07549463  0.10420807  1
  O  O127  1  0.95173549  0.92450537  0.60420807  1
  O  O128  1  0.97475601  0.02409517  0.29449095  1
  O  O129  1  0.97475601  0.97590483  0.79449095  1
  O  O130  1  0.26433430  0.00256017  0.32267473  1
  O  O131  1  0.26433430  0.99743983  0.82267473  1
  O  O132  1  0.30500201  0.12235861  0.18464602  1
  O  O133  1  0.30500201  0.87764139  0.68464602  1
  O  O134  1  0.94664065  0.35775222  0.88102766  1
  O  O135  1  0.94664065  0.64224778  0.38102766  1
  O  O136  1  0.41722290  0.96486164  0.18857965  1
  O  O137  1  0.41722290  0.03513836  0.68857965  1
  O  O138  1  0.95905723  0.17196260  0.85583470  1
  O  O139  1  0.95905723  0.82803740  0.35583470  1
  O  O140  1  0.11915577  0.24385502  0.66312448  1
  O  O141  1  0.11915577  0.75614498  0.16312448  1
  O  O142  1  0.31131635  0.25887539  0.30888540  1
  O  O143  1  0.31131635  0.74112461  0.80888540  1
  O  O144  1  0.76759937  0.72153559  0.21910454  1
  O  O145  1  0.76759937  0.27846441  0.71910454  1
  O  O146  1  0.93259464  0.75963577  0.82318717  1
  O  O147  1  0.93259464  0.24036423  0.32318717  1
  O  O148  1  0.77783022  0.01066988  0.19670664  1
  O  O149  1  0.77783022  0.98933012  0.69670664  1
  O  O150  1  0.97106275  0.58640614  0.17386996  1
  O  O151  1  0.97106275  0.41359386  0.67386996  1
  O  O152  1  0.11448375  0.53803503  0.93643954  1
  O  O153  1  0.11448375  0.46196497  0.43643954  1
  O  O154  1  0.92662210  0.87520422  0.96716224  1
  O  O155  1  0.92662210  0.12479578  0.46716224  1
  O  O156  1  0.40713969  0.47635570  0.20926944  1
  O  O157  1  0.40713969  0.52364430  0.70926944  1
  O  O158  1  0.85266480  0.22541373  0.00878863  1
  O  O159  1  0.85266480  0.77458627  0.50878863  1
  O  O160  1  0.72298636  0.20580340  0.42017311  1
  O  O161  1  0.72298636  0.79419660  0.92017311  1
  O  O162  1  0.68057476  0.30448617  0.91508439  1
  O  O163  1  0.68057476  0.69551383  0.41508439  1
  O  O164  1  0.93626767  0.45028256  0.30658537  1
  O  O165  1  0.93626767  0.54971744  0.80658537  1
  O  O166  1  0.77079879  0.49717969  0.18499334  1
  O  O167  1  0.77079879  0.50282031  0.68499334  1
  O  O168  1  0.56511988  0.63969321  0.20659477  1
  O  O169  1  0.56511988  0.36030679  0.70659477  1
  O  O170  1  0.47725007  0.23418865  0.44044275  1
  O  O171  1  0.47725007  0.76581135  0.94044275  1
  O  O172  1  0.34618574  0.25535358  0.61270016  1
  O  O173  1  0.34618574  0.74464642  0.11270016  1
  O  O174  1  0.94432627  0.39848273  0.11154707  1
  O  O175  1  0.94432627  0.60151727  0.61154707  1
  O  O176  1  0.94344080  0.88425445  0.16082423  1
  O  O177  1  0.94344080  0.11574555  0.66082423  1
  O  O178  1  0.31273504  0.89814914  0.47794096  1
  O  O179  1  0.31273504  0.10185086  0.97794096  1
  O  O180  1  0.29556455  0.28254804  0.10354775  1
  O  O181  1  0.29556455  0.71745196  0.60354775  1
  O  O182  1  0.62427913  0.77779434  0.08370167  1
  O  O183  1  0.62427913  0.22220566  0.58370167  1
  O  O184  1  0.25551943  0.38205957  0.73103233  1
  O  O185  1  0.25551943  0.61794043  0.23103233  1
  O  O186  1  0.56480130  0.48918582  0.85393507  1
  O  O187  1  0.56480130  0.51081418  0.35393507  1
  O  O188  1  0.59195691  0.83606187  0.26121401  1
  O  O189  1  0.59195691  0.16393813  0.76121401  1
  O  O190  1  0.34197719  0.59804684  0.95455522  1
  O  O191  1  0.34197719  0.40195316  0.45455522  1
  O  O192  1  0.28396651  0.40565463  0.92831999  1
  O  O193  1  0.28396651  0.59434537  0.42831999  1
  O  O194  1  0.55565791  0.48474625  0.05234429  1
  O  O195  1  0.55565791  0.51525375  0.55234429  1
  O  O196  1  0.23670094  0.49984137  0.08007476  1
  O  O197  1  0.23670094  0.50015863  0.58007476  1
  O  O198  1  0.17042411  0.97523267  0.16088040  1
  O  O199  1  0.17042411  0.02476733  0.66088040  1
  O  O200  1  0.63045522  0.63229861  0.97323087  1
  O  O201  1  0.63045522  0.36770139  0.47323087  1
  O  O202  1  0.75870830  0.01957054  0.93325097  1
  O  O203  1  0.75870830  0.98042946  0.43325097  1
  O  O204  1  0.91189639  0.66482301  0.99408377  1
  O  O205  1  0.91189639  0.33517699  0.49408377  1
  O  O206  1  0.31424971  0.10222543  0.47035913  1
  O  O207  1  0.31424971  0.89777457  0.97035913  1
