# generated using pymatgen
data_Lu2(SO5)3
_symmetry_space_group_name_H-M   'P 1'
_cell_length_a   11.57513353
_cell_length_b   11.57513353
_cell_length_c   9.39390900
_cell_angle_alpha   90.00000000
_cell_angle_beta   90.00000000
_cell_angle_gamma   106.92456451
_symmetry_Int_Tables_number   1
_chemical_formula_structural   Lu2(SO5)3
_chemical_formula_sum   'Lu8 S12 O60'
_cell_volume   1204.11810596
_cell_formula_units_Z   4
loop_
 _symmetry_equiv_pos_site_id
 _symmetry_equiv_pos_as_xyz
  1  'x, y, z'
loop_
 _atom_site_type_symbol
 _atom_site_label
 _atom_site_symmetry_multiplicity
 _atom_site_fract_x
 _atom_site_fract_y
 _atom_site_fract_z
 _atom_site_occupancy
  Lu  Lu0  1  0.36897100  0.63102900  0.49945900  1
  Lu  Lu1  1  0.63102900  0.36897100  0.99945900  1
  Lu  Lu2  1  0.89885300  0.10114700  0.50832200  1
  Lu  Lu3  1  0.10114700  0.89885300  0.00832200  1
  Lu  Lu4  1  0.47706200  0.15242400  0.55114400  1
  Lu  Lu5  1  0.84757600  0.52293800  0.55114400  1
  Lu  Lu6  1  0.52293800  0.84757600  0.05114400  1
  Lu  Lu7  1  0.15242400  0.47706200  0.05114400  1
  S  S8  1  0.59209800  0.91184000  0.42378700  1
  S  S9  1  0.08816000  0.40790200  0.42378700  1
  S  S10  1  0.40790200  0.08816000  0.92378700  1
  S  S11  1  0.91184000  0.59209800  0.92378700  1
  S  S12  1  0.24371800  0.75628200  0.23290400  1
  S  S13  1  0.75628200  0.24371800  0.73290400  1
  S  S14  1  0.99877500  0.00122500  0.26261200  1
  S  S15  1  0.00122500  0.99877500  0.76261200  1
  S  S16  1  0.71364700  0.28635300  0.32493500  1
  S  S17  1  0.28635300  0.71364700  0.82493600  1
  S  S18  1  0.46028400  0.53971600  0.16145300  1
  S  S19  1  0.53971600  0.46028400  0.66145300  1
  O  O20  1  0.51659400  0.98994200  0.47043100  1
  O  O21  1  0.01005800  0.48340600  0.47043100  1
  O  O22  1  0.48340600  0.01005800  0.97043100  1
  O  O23  1  0.98994200  0.51659400  0.97043100  1
  O  O24  1  0.53420800  0.78764900  0.47787000  1
  O  O25  1  0.21235100  0.46579200  0.47787000  1
  O  O26  1  0.46579200  0.21235100  0.97787000  1
  O  O27  1  0.78764900  0.53420800  0.97787000  1
  O  O28  1  0.71575300  0.95914200  0.48057000  1
  O  O29  1  0.04085800  0.28424700  0.48057000  1
  O  O30  1  0.28424700  0.04085800  0.98057000  1
  O  O31  1  0.95914200  0.71575300  0.98057000  1
  O  O32  1  0.59728300  0.90953000  0.26567200  1
  O  O33  1  0.09047000  0.40271700  0.26567200  1
  O  O34  1  0.40271700  0.09047000  0.76567200  1
  O  O35  1  0.90953000  0.59728300  0.76567200  1
  O  O36  1  0.26350300  0.73649700  0.38490800  1
  O  O37  1  0.73649700  0.26350300  0.88490800  1
  O  O38  1  0.16557700  0.83442300  0.21197900  1
  O  O39  1  0.83442300  0.16557700  0.71197900  1
  O  O40  1  0.18710200  0.63825300  0.16509400  1
  O  O41  1  0.36174700  0.81289800  0.16509400  1
  O  O42  1  0.81289800  0.36174700  0.66509400  1
  O  O43  1  0.63825300  0.18710200  0.66509400  1
  O  O44  1  0.91857000  0.08143000  0.25801800  1
  O  O45  1  0.08143000  0.91857000  0.75801800  1
  O  O46  1  0.01424400  0.98575600  0.41869100  1
  O  O47  1  0.98575600  0.01424400  0.91869100  1
  O  O48  1  0.11608700  0.05457100  0.18889600  1
  O  O49  1  0.94542900  0.88391300  0.18889600  1
  O  O50  1  0.88391300  0.94542900  0.68889600  1
  O  O51  1  0.05457100  0.11608700  0.68889600  1
  O  O52  1  0.78632300  0.21367700  0.38499100  1
  O  O53  1  0.21367700  0.78632300  0.88499100  1
  O  O54  1  0.71386800  0.28613200  0.16745000  1
  O  O55  1  0.28613200  0.71386800  0.66745000  1
  O  O56  1  0.58566100  0.23992400  0.37251200  1
  O  O57  1  0.76007600  0.41433900  0.37251200  1
  O  O58  1  0.41433900  0.76007600  0.87251200  1
  O  O59  1  0.23992400  0.58566100  0.87251200  1
  O  O60  1  0.44072400  0.55927600  0.31470100  1
  O  O61  1  0.55927600  0.44072400  0.81470100  1
  O  O62  1  0.53968200  0.46031900  0.14653300  1
  O  O63  1  0.46031800  0.53968200  0.64653300  1
  O  O64  1  0.52031600  0.65791900  0.09368300  1
  O  O65  1  0.34208100  0.47968400  0.09368300  1
  O  O66  1  0.47968400  0.34208100  0.59368300  1
  O  O67  1  0.65791900  0.52031600  0.59368300  1
  O  O68  1  0.24613200  0.02206600  0.53540500  1
  O  O69  1  0.97793400  0.75386800  0.53540500  1
  O  O70  1  0.75386800  0.97793400  0.03540500  1
  O  O71  1  0.02206600  0.24613200  0.03540500  1
  O  O72  1  0.37260200  0.11182700  0.33950200  1
  O  O73  1  0.88817300  0.62739800  0.33950200  1
  O  O74  1  0.62739800  0.88817300  0.83950200  1
  O  O75  1  0.11182700  0.37260200  0.83950200  1
  O  O76  1  0.23715300  0.12447100  0.55100500  1
  O  O77  1  0.87552900  0.76284700  0.55100500  1
  O  O78  1  0.76284700  0.87552900  0.05100500  1
  O  O79  1  0.12447100  0.23715300  0.05100500  1
