# generated using pymatgen
data_Sr4Fe4O13
_symmetry_space_group_name_H-M   'P 1'
_cell_length_a   5.04135600
_cell_length_b   10.32968900
_cell_length_c   12.48201265
_cell_angle_alpha   114.44269631
_cell_angle_beta   101.65071085
_cell_angle_gamma   90.00000000
_symmetry_Int_Tables_number   1
_chemical_formula_structural   Sr4Fe4O13
_chemical_formula_sum   'Sr8 Fe8 O26'
_cell_volume   577.00938738
_cell_formula_units_Z   2
loop_
 _symmetry_equiv_pos_site_id
 _symmetry_equiv_pos_as_xyz
  1  'x, y, z'
loop_
 _atom_site_type_symbol
 _atom_site_label
 _atom_site_symmetry_multiplicity
 _atom_site_fract_x
 _atom_site_fract_y
 _atom_site_fract_z
 _atom_site_occupancy
  Sr  Sr0  1  0.14365500  0.02255500  0.30025400  1
  Sr  Sr1  1  0.84340100  0.97744500  0.69974600  1
  Sr  Sr2  1  0.64365500  0.27770000  0.30025400  1
  Sr  Sr3  1  0.34340100  0.72230000  0.69974600  1
  Sr  Sr4  1  0.32412800  0.21207900  0.67636600  1
  Sr  Sr5  1  0.64776200  0.78792100  0.32363400  1
  Sr  Sr6  1  0.82412800  0.46428800  0.67636600  1
  Sr  Sr7  1  0.14776200  0.53571200  0.32363400  1
  Fe  Fe8  1  0.52176100  0.09765100  0.92914300  1
  Fe  Fe9  1  0.59261800  0.90234900  0.07085700  1
  Fe  Fe10  1  0.02176100  0.83149200  0.92914300  1
  Fe  Fe11  1  0.09261800  0.16850800  0.07085700  1
  Fe  Fe12  1  0.06930700  0.65088300  0.09685500  1
  Fe  Fe13  1  0.97245200  0.34911700  0.90314500  1
  Fe  Fe14  1  0.56930700  0.44597200  0.09685500  1
  Fe  Fe15  1  0.47245200  0.55402900  0.90314500  1
  O  O16  1  0.37337600  0.00555700  0.76332800  1
  O  O17  1  0.61004800  0.99444300  0.23667200  1
  O  O18  1  0.87337600  0.75777100  0.76332800  1
  O  O19  1  0.11004800  0.24222900  0.23667200  1
  O  O20  1  0.12375200  0.74848000  0.26568400  1
  O  O21  1  0.85806800  0.25152000  0.73431600  1
  O  O22  1  0.62375200  0.51720400  0.26568400  1
  O  O23  1  0.35806800  0.48279600  0.73431600  1
  O  O24  1  0.51944600  0.69927000  0.51037400  1
  O  O25  1  0.00907100  0.30073000  0.48962600  1
  O  O26  1  0.01944600  0.81110500  0.51037400  1
  O  O27  1  0.50907100  0.18889500  0.48962600  1
  O  O28  1  0.51147000  0.05459700  0.49042200  1
  O  O29  1  0.02104800  0.94540300  0.50957800  1
  O  O30  1  0.01147000  0.43582500  0.49042200  1
  O  O31  1  0.52104800  0.56417500  0.50957800  1
  O  O32  1  0.88452100  0.17777200  0.92184500  1
  O  O33  1  0.96267600  0.82222800  0.07815500  1
  O  O34  1  0.38452100  0.74407300  0.92184500  1
  O  O35  1  0.46267600  0.25592700  0.07815500  1
  O  O36  1  0.37598800  0.37050200  0.91246800  1
  O  O37  1  0.46352000  0.62949800  0.08753200  1
  O  O38  1  0.87598800  0.54196600  0.91246800  1
  O  O39  1  0.96352000  0.45803400  0.08753200  1
  O  O40  1  0.78773200  0.00000000  0.00000000  1
  O  O41  1  0.28773200  0.00000000  0.00000000  1
