# generated using pymatgen
data_Th(N4O9)2
_symmetry_space_group_name_H-M   'P 1'
_cell_length_a   6.83538300
_cell_length_b   8.30773500
_cell_length_c   15.29455579
_cell_angle_alpha   58.80409044
_cell_angle_beta   90.00000000
_cell_angle_gamma   90.00000000
_symmetry_Int_Tables_number   1
_chemical_formula_structural   Th(N4O9)2
_chemical_formula_sum   'Th2 N16 O36'
_cell_volume   742.93741918
_cell_formula_units_Z   2
loop_
 _symmetry_equiv_pos_site_id
 _symmetry_equiv_pos_as_xyz
  1  'x, y, z'
loop_
 _atom_site_type_symbol
 _atom_site_label
 _atom_site_symmetry_multiplicity
 _atom_site_fract_x
 _atom_site_fract_y
 _atom_site_fract_z
 _atom_site_occupancy
  Th  Th0  1  0.50000000  0.00000000  0.50000000  1
  Th  Th1  1  0.00000000  0.00000000  0.00000000  1
  N  N2  1  0.72985900  0.37430600  0.16099200  1
  N  N3  1  0.77014100  0.37430600  0.66099200  1
  N  N4  1  0.27014100  0.62569400  0.83900800  1
  N  N5  1  0.22985900  0.62569400  0.33900800  1
  N  N6  1  0.23430100  0.22485700  0.31565600  1
  N  N7  1  0.26569900  0.22485700  0.81565600  1
  N  N8  1  0.76569900  0.77514300  0.68434400  1
  N  N9  1  0.73430100  0.77514300  0.18434400  1
  N  N10  1  0.75152500  0.34011900  0.44816000  1
  N  N11  1  0.74847500  0.34011900  0.94816000  1
  N  N12  1  0.24847500  0.65988100  0.55184000  1
  N  N13  1  0.25152500  0.65988100  0.05184000  1
  N  N14  1  0.78141900  0.89440600  0.38393200  1
  N  N15  1  0.71858100  0.89440600  0.88393200  1
  N  N16  1  0.21858100  0.10559400  0.61606800  1
  N  N17  1  0.28141900  0.10559400  0.11606800  1
  O  O18  1  0.21298000  0.04760200  0.37799800  1
  O  O19  1  0.28702000  0.04760200  0.87799800  1
  O  O20  1  0.78702000  0.95239800  0.62200200  1
  O  O21  1  0.71298000  0.95239800  0.12200200  1
  O  O22  1  0.11534600  0.31945800  0.24773900  1
  O  O23  1  0.38465400  0.31945800  0.74773900  1
  O  O24  1  0.88465400  0.68054200  0.75226100  1
  O  O25  1  0.61534600  0.68054200  0.25226100  1
  O  O26  1  0.38826200  0.29774500  0.32929100  1
  O  O27  1  0.11173800  0.29774500  0.82929100  1
  O  O28  1  0.61173800  0.70225500  0.67070900  1
  O  O29  1  0.88826200  0.70225500  0.17070900  1
  O  O30  1  0.86376100  0.46427300  0.43806100  1
  O  O31  1  0.63623900  0.46427300  0.93806100  1
  O  O32  1  0.13623900  0.53572700  0.56193900  1
  O  O33  1  0.36376100  0.53572700  0.06193900  1
  O  O34  1  0.59395200  0.30144700  0.50100400  1
  O  O35  1  0.90604800  0.30144700  0.00100400  1
  O  O36  1  0.40604800  0.69855300  0.49899600  1
  O  O37  1  0.09395200  0.69855300  0.99899600  1
  O  O38  1  0.78457800  0.24099200  0.40782700  1
  O  O39  1  0.71542200  0.24099200  0.90782700  1
  O  O40  1  0.21542200  0.75900800  0.59217300  1
  O  O41  1  0.28457800  0.75900800  0.09217300  1
  O  O42  1  0.79880700  0.82831600  0.48017000  1
  O  O43  1  0.70119300  0.82831600  0.98017000  1
  O  O44  1  0.20119300  0.17168400  0.51983000  1
  O  O45  1  0.29880700  0.17168400  0.01983000  1
  O  O46  1  0.89687200  0.85686300  0.33580900  1
  O  O47  1  0.60312800  0.85686300  0.83580900  1
  O  O48  1  0.10312800  0.14313700  0.66419100  1
  O  O49  1  0.39687200  0.14313700  0.16419100  1
  O  O50  1  0.63470600  0.00442500  0.34070100  1
  O  O51  1  0.86529400  0.00442500  0.84070100  1
  O  O52  1  0.36529400  0.99557500  0.65929900  1
  O  O53  1  0.13470600  0.99557500  0.15929900  1
