# generated using pymatgen
data_Ni3P4(NO8)2
_symmetry_space_group_name_H-M   'P 1'
_cell_length_a   7.89129500
_cell_length_b   9.00665200
_cell_length_c   9.49863953
_cell_angle_alpha   85.12912311
_cell_angle_beta   90.00000000
_cell_angle_gamma   90.00000000
_symmetry_Int_Tables_number   1
_chemical_formula_structural   Ni3P4(NO8)2
_chemical_formula_sum   'Ni6 P8 N4 O32'
_cell_volume   672.66961659
_cell_formula_units_Z   2
loop_
 _symmetry_equiv_pos_site_id
 _symmetry_equiv_pos_as_xyz
  1  'x, y, z'
loop_
 _atom_site_type_symbol
 _atom_site_label
 _atom_site_symmetry_multiplicity
 _atom_site_fract_x
 _atom_site_fract_y
 _atom_site_fract_z
 _atom_site_occupancy
  Ni  Ni0  1  0.50000000  0.00000000  0.50000000  1
  Ni  Ni1  1  0.00000000  0.50000000  0.50000000  1
  Ni  Ni2  1  0.37059600  0.49737500  0.63076900  1
  Ni  Ni3  1  0.87059600  0.00262500  0.36923100  1
  Ni  Ni4  1  0.62940400  0.50262500  0.36923100  1
  Ni  Ni5  1  0.12940400  0.99737500  0.63076900  1
  P  P6  1  0.28632100  0.27830400  0.39806800  1
  P  P7  1  0.78632100  0.22169600  0.60193200  1
  P  P8  1  0.71367900  0.72169600  0.60193200  1
  P  P9  1  0.21367900  0.77830400  0.39806800  1
  P  P10  1  0.43937600  0.77943800  0.78375000  1
  P  P11  1  0.93937600  0.72056200  0.21625000  1
  P  P12  1  0.56062400  0.22056200  0.21625000  1
  P  P13  1  0.06062400  0.27943800  0.78375000  1
  N  N14  1  0.47702400  0.02596300  0.05477900  1
  N  N15  1  0.97702400  0.47403700  0.94522100  1
  N  N16  1  0.52297600  0.97403700  0.94522100  1
  N  N17  1  0.02297600  0.52596300  0.05477900  1
  O  O18  1  0.37091100  0.90012200  0.67545500  1
  O  O19  1  0.87091100  0.59987800  0.32454500  1
  O  O20  1  0.62908900  0.09987800  0.32454500  1
  O  O21  1  0.12908900  0.40012200  0.67545500  1
  O  O22  1  0.38698900  0.84739500  0.37147600  1
  O  O23  1  0.88698900  0.65260500  0.62852400  1
  O  O24  1  0.61301100  0.15260500  0.62852400  1
  O  O25  1  0.11301100  0.34739500  0.37147600  1
  O  O26  1  0.41532600  0.38978300  0.45076000  1
  O  O27  1  0.91532600  0.11021700  0.54924000  1
  O  O28  1  0.58467400  0.61021700  0.54924000  1
  O  O29  1  0.08467400  0.88978300  0.45076000  1
  O  O30  1  0.28714800  0.13171000  0.49278500  1
  O  O31  1  0.78714800  0.36829000  0.50721500  1
  O  O32  1  0.71285200  0.86829000  0.50721500  1
  O  O33  1  0.21285200  0.63171000  0.49278500  1
  O  O34  1  0.36132500  0.23699700  0.24586600  1
  O  O35  1  0.86132500  0.26300300  0.75413400  1
  O  O36  1  0.63867500  0.76300300  0.75413400  1
  O  O37  1  0.13867500  0.73699700  0.24586600  1
  O  O38  1  0.43425700  0.83553100  0.94179800  1
  O  O39  1  0.93425700  0.66446900  0.05820200  1
  O  O40  1  0.56574300  0.16446900  0.05820200  1
  O  O41  1  0.06574300  0.33553100  0.94179800  1
  O  O42  1  0.48468300  0.35187500  0.75256000  1
  O  O43  1  0.98468300  0.14812500  0.24744000  1
  O  O44  1  0.51531700  0.64812500  0.24744000  1
  O  O45  1  0.01531700  0.85187500  0.75256000  1
  O  O46  1  0.35064000  0.63196900  0.79516100  1
  O  O47  1  0.85064000  0.86803100  0.20483900  1
  O  O48  1  0.64936000  0.36803100  0.20483900  1
  O  O49  1  0.14936000  0.13196900  0.79516100  1
