# generated using pymatgen
data_MnZn(Br2O3)2
_symmetry_space_group_name_H-M   'P 1'
_cell_length_a   5.45066600
_cell_length_b   14.10904300
_cell_length_c   13.96386400
_cell_angle_alpha   90.00000000
_cell_angle_beta   90.00000000
_cell_angle_gamma   90.00000000
_symmetry_Int_Tables_number   1
_chemical_formula_structural   MnZn(Br2O3)2
_chemical_formula_sum   'Mn4 Zn4 Br16 O24'
_cell_volume   1073.87254220
_cell_formula_units_Z   4
loop_
 _symmetry_equiv_pos_site_id
 _symmetry_equiv_pos_as_xyz
  1  'x, y, z'
loop_
 _atom_site_type_symbol
 _atom_site_label
 _atom_site_symmetry_multiplicity
 _atom_site_fract_x
 _atom_site_fract_y
 _atom_site_fract_z
 _atom_site_occupancy
  Mn  Mn0  1  0.50000000  0.00000000  0.00000000  1
  Mn  Mn1  1  0.50000000  0.50000000  0.50000000  1
  Mn  Mn2  1  0.50000000  0.50000000  0.00000000  1
  Mn  Mn3  1  0.50000000  0.00000000  0.50000000  1
  Zn  Zn4  1  0.00000000  0.70004000  0.19475600  1
  Zn  Zn5  1  0.00000000  0.29996000  0.80524400  1
  Zn  Zn6  1  0.00000000  0.20004000  0.30524400  1
  Zn  Zn7  1  0.00000000  0.79996000  0.69475600  1
  Br  Br8  1  0.00000000  0.92887000  0.11615100  1
  Br  Br9  1  0.00000000  0.07113000  0.88384900  1
  Br  Br10  1  0.00000000  0.42887000  0.38384900  1
  Br  Br11  1  0.00000000  0.57113000  0.61615100  1
  Br  Br12  1  0.00000000  0.64395600  0.04318400  1
  Br  Br13  1  0.00000000  0.35604400  0.95681600  1
  Br  Br14  1  0.00000000  0.14395600  0.45681600  1
  Br  Br15  1  0.00000000  0.85604400  0.54318400  1
  Br  Br16  1  0.25734000  0.75809500  0.31813700  1
  Br  Br17  1  0.25734000  0.24190500  0.68186300  1
  Br  Br18  1  0.74266000  0.25809500  0.18186300  1
  Br  Br19  1  0.74266000  0.74190500  0.81813700  1
  Br  Br20  1  0.74266000  0.24190500  0.68186300  1
  Br  Br21  1  0.74266000  0.75809500  0.31813700  1
  Br  Br22  1  0.25734000  0.74190500  0.81813700  1
  Br  Br23  1  0.25734000  0.25809500  0.18186300  1
  O  O24  1  0.50000000  0.94548100  0.89159600  1
  O  O25  1  0.50000000  0.05451900  0.10840400  1
  O  O26  1  0.50000000  0.44548100  0.60840400  1
  O  O27  1  0.50000000  0.55451900  0.39159600  1
  O  O28  1  0.24974000  0.90502600  0.04102600  1
  O  O29  1  0.24974000  0.09497400  0.95897400  1
  O  O30  1  0.75026000  0.40502600  0.45897400  1
  O  O31  1  0.75026000  0.59497400  0.54102600  1
  O  O32  1  0.75026000  0.09497400  0.95897400  1
  O  O33  1  0.75026000  0.90502600  0.04102600  1
  O  O34  1  0.24974000  0.59497400  0.54102600  1
  O  O35  1  0.24974000  0.40502600  0.45897400  1
  O  O36  1  0.50000000  0.37385800  0.95302900  1
  O  O37  1  0.50000000  0.62614200  0.04697100  1
  O  O38  1  0.50000000  0.87385800  0.54697100  1
  O  O39  1  0.50000000  0.12614200  0.45302900  1
  O  O40  1  0.30838400  0.51380900  0.88834400  1
  O  O41  1  0.30838400  0.48619100  0.11165600  1
  O  O42  1  0.69161600  0.01380900  0.61165600  1
  O  O43  1  0.69161600  0.98619100  0.38834400  1
  O  O44  1  0.69161600  0.48619100  0.11165600  1
  O  O45  1  0.69161600  0.51380900  0.88834400  1
  O  O46  1  0.30838400  0.98619100  0.38834400  1
  O  O47  1  0.30838400  0.01380900  0.61165600  1
