# generated using pymatgen
data_Ca6Si6O19
_symmetry_space_group_name_H-M   'P 1'
_cell_length_a   8.01824099
_cell_length_b   8.01824099
_cell_length_c   16.63296093
_cell_angle_alpha   88.79951247
_cell_angle_beta   88.79951247
_cell_angle_gamma   55.17972576
_symmetry_Int_Tables_number   1
_chemical_formula_structural   Ca6Si6O19
_chemical_formula_sum   'Ca12 Si12 O38'
_cell_volume   877.65055419
_cell_formula_units_Z   2
loop_
 _symmetry_equiv_pos_site_id
 _symmetry_equiv_pos_as_xyz
  1  'x, y, z'
loop_
 _atom_site_type_symbol
 _atom_site_label
 _atom_site_symmetry_multiplicity
 _atom_site_fract_x
 _atom_site_fract_y
 _atom_site_fract_z
 _atom_site_occupancy
  Ca  Ca0  1  0.87959000  0.62587400  0.75047600  1
  Ca  Ca1  1  0.62587400  0.87959000  0.25047600  1
  Ca  Ca2  1  0.12041000  0.37412600  0.24952400  1
  Ca  Ca3  1  0.37412600  0.12041000  0.74952400  1
  Ca  Ca4  1  0.53625500  0.79078800  0.57351000  1
  Ca  Ca5  1  0.79078800  0.53625500  0.07351000  1
  Ca  Ca6  1  0.46374500  0.20921200  0.42649000  1
  Ca  Ca7  1  0.20921200  0.46374400  0.92649000  1
  Ca  Ca8  1  0.04246300  0.28382000  0.57498400  1
  Ca  Ca9  1  0.28382000  0.04246300  0.07498400  1
  Ca  Ca10  1  0.95753700  0.71618000  0.42501600  1
  Ca  Ca11  1  0.71618000  0.95753700  0.92501600  1
  Si  Si12  1  0.21947400  0.54350600  0.60307500  1
  Si  Si13  1  0.54350600  0.21947400  0.10307500  1
  Si  Si14  1  0.78052600  0.45649400  0.39692500  1
  Si  Si15  1  0.45649400  0.78052600  0.89692500  1
  Si  Si16  1  0.79336100  0.96874500  0.60503300  1
  Si  Si17  1  0.96874500  0.79336100  0.10503300  1
  Si  Si18  1  0.20663900  0.03125500  0.39496700  1
  Si  Si19  1  0.03125500  0.20663900  0.89496700  1
  Si  Si20  1  0.64278300  0.39377100  0.67779300  1
  Si  Si21  1  0.39377100  0.64278300  0.17779300  1
  Si  Si22  1  0.35721700  0.60622900  0.32220700  1
  Si  Si23  1  0.60622900  0.35721700  0.82220700  1
  O  O24  1  0.11622200  0.88377800  0.75000000  1
  O  O25  1  0.88377800  0.11622200  0.25000000  1
  O  O26  1  0.03997400  0.78966100  0.60539900  1
  O  O27  1  0.78966100  0.03997400  0.10539900  1
  O  O28  1  0.96002600  0.21033900  0.39460100  1
  O  O29  1  0.21033900  0.96002600  0.89460100  1
  O  O30  1  0.67240900  0.92250300  0.67113900  1
  O  O31  1  0.92250300  0.67240900  0.17113900  1
  O  O32  1  0.32759100  0.07749700  0.32886100  1
  O  O33  1  0.07749700  0.32759100  0.82886100  1
  O  O34  1  0.17500500  0.41824100  0.66795700  1
  O  O35  1  0.41824100  0.17500500  0.16795700  1
  O  O36  1  0.82499500  0.58175900  0.33204300  1
  O  O37  1  0.58175900  0.82499500  0.83204300  1
  O  O38  1  0.42663400  0.53098800  0.62669800  1
  O  O39  1  0.53098800  0.42663400  0.12669800  1
  O  O40  1  0.57336600  0.46901200  0.37330200  1
  O  O41  1  0.46901200  0.57336600  0.87330200  1
  O  O42  1  0.78047600  0.17667400  0.62733700  1
  O  O43  1  0.17667400  0.78047600  0.12733700  1
  O  O44  1  0.21952400  0.82332600  0.37266300  1
  O  O45  1  0.82332600  0.21952400  0.87266300  1
  O  O46  1  0.70793400  0.97014200  0.51688100  1
  O  O47  1  0.97014200  0.70793400  0.01688100  1
  O  O48  1  0.29206600  0.02985800  0.48311900  1
  O  O49  1  0.02985800  0.29206600  0.98311900  1
  O  O50  1  0.22055900  0.46312200  0.51384700  1
  O  O51  1  0.46312200  0.22055900  0.01384700  1
  O  O52  1  0.77944100  0.53687800  0.48615300  1
  O  O53  1  0.53687800  0.77944100  0.98615300  1
  O  O54  1  0.75617300  0.50556800  0.66145700  1
  O  O55  1  0.50556800  0.75617300  0.16145700  1
  O  O56  1  0.24382700  0.49443200  0.33854300  1
  O  O57  1  0.49443200  0.24382700  0.83854300  1
  O  O58  1  0.25367000  0.00114600  0.65954700  1
  O  O59  1  0.00114600  0.25367000  0.15954700  1
  O  O60  1  0.74633000  0.99885400  0.34045300  1
  O  O61  1  0.99885400  0.74633000  0.84045300  1
