# generated using pymatgen
data_RuN3(Cl2O)2
_symmetry_space_group_name_H-M   'P 1'
_cell_length_a   6.54654500
_cell_length_b   11.06511700
_cell_length_c   15.67961954
_cell_angle_alpha   77.43341984
_cell_angle_beta   90.00000000
_cell_angle_gamma   90.00000000
_symmetry_Int_Tables_number   1
_chemical_formula_structural   RuN3(Cl2O)2
_chemical_formula_sum   'Ru4 N12 Cl16 O8'
_cell_volume   1108.59524487
_cell_formula_units_Z   4
loop_
 _symmetry_equiv_pos_site_id
 _symmetry_equiv_pos_as_xyz
  1  'x, y, z'
loop_
 _atom_site_type_symbol
 _atom_site_label
 _atom_site_symmetry_multiplicity
 _atom_site_fract_x
 _atom_site_fract_y
 _atom_site_fract_z
 _atom_site_occupancy
  Ru  Ru0  1  0.16161600  0.73230300  0.08725400  1
  Ru  Ru1  1  0.66161600  0.26769700  0.41274600  1
  Ru  Ru2  1  0.83838400  0.26769700  0.91274600  1
  Ru  Ru3  1  0.33838400  0.73230300  0.58725400  1
  N  N4  1  0.99424200  0.58852400  0.14609500  1
  N  N5  1  0.49424200  0.41147600  0.35390500  1
  N  N6  1  0.00575800  0.41147600  0.85390500  1
  N  N7  1  0.50575800  0.58852400  0.64609500  1
  N  N8  1  0.40031200  0.95015500  0.35665800  1
  N  N9  1  0.90031200  0.04984500  0.14334200  1
  N  N10  1  0.59968800  0.04984500  0.64334200  1
  N  N11  1  0.09968800  0.95015500  0.85665800  1
  N  N12  1  0.83688300  0.69190300  0.43461500  1
  N  N13  1  0.33688300  0.30809700  0.06538500  1
  N  N14  1  0.16311700  0.30809700  0.56538500  1
  N  N15  1  0.66311700  0.69190300  0.93461500  1
  Cl  Cl16  1  0.43746200  0.59104800  0.12240300  1
  Cl  Cl17  1  0.93746200  0.40895200  0.37759700  1
  Cl  Cl18  1  0.56253800  0.40895200  0.87759700  1
  Cl  Cl19  1  0.06253800  0.59104800  0.62240300  1
  Cl  Cl20  1  0.18180800  0.77104300  0.22854600  1
  Cl  Cl21  1  0.68180800  0.22895700  0.27145400  1
  Cl  Cl22  1  0.81819200  0.22895700  0.77145400  1
  Cl  Cl23  1  0.31819200  0.77104300  0.72854600  1
  Cl  Cl24  1  0.11633000  0.66208900  0.95828700  1
  Cl  Cl25  1  0.61633000  0.33791100  0.54171300  1
  Cl  Cl26  1  0.88367000  0.33791100  0.04171300  1
  Cl  Cl27  1  0.38367000  0.66208900  0.45828700  1
  Cl  Cl28  1  0.85625600  0.84049900  0.06233000  1
  Cl  Cl29  1  0.35625600  0.15950100  0.43767000  1
  Cl  Cl30  1  0.14374400  0.15950100  0.93767000  1
  Cl  Cl31  1  0.64374400  0.84049900  0.56233000  1
  O  O32  1  0.31278400  0.85491600  0.03750400  1
  O  O33  1  0.81278400  0.14508400  0.46249600  1
  O  O34  1  0.68721600  0.14508400  0.96249600  1
  O  O35  1  0.18721600  0.85491600  0.53750400  1
  O  O36  1  0.90207000  0.50467400  0.18189100  1
  O  O37  1  0.40207000  0.49532600  0.31810900  1
  O  O38  1  0.09793000  0.49532600  0.81810900  1
  O  O39  1  0.59793000  0.50467400  0.68189100  1
