# generated using pymatgen
data_K4HfC8O21
_symmetry_space_group_name_H-M   'P 1'
_cell_length_a   10.92327710
_cell_length_b   12.34993394
_cell_length_c   16.02999507
_cell_angle_alpha   90.00000000
_cell_angle_beta   91.54229423
_cell_angle_gamma   90.00000000
_symmetry_Int_Tables_number   1
_chemical_formula_structural   K4HfC8O21
_chemical_formula_sum   'K16 Hf4 C32 O84'
_cell_volume   2161.69099691
_cell_formula_units_Z   4
loop_
 _symmetry_equiv_pos_site_id
 _symmetry_equiv_pos_as_xyz
  1  'x, y, z'
loop_
 _atom_site_type_symbol
 _atom_site_label
 _atom_site_symmetry_multiplicity
 _atom_site_fract_x
 _atom_site_fract_y
 _atom_site_fract_z
 _atom_site_occupancy
  K  K0  1  0.10573766  0.14865625  0.75061797  1
  K  K1  1  0.89426234  0.64865625  0.74938203  1
  K  K2  1  0.89426234  0.85134375  0.24938203  1
  K  K3  1  0.10573766  0.35134375  0.25061797  1
  K  K4  1  0.99399023  0.27490640  0.00332635  1
  K  K5  1  0.00600977  0.77490640  0.49667365  1
  K  K6  1  0.00600977  0.72509360  0.99667365  1
  K  K7  1  0.99399023  0.22509360  0.50332635  1
  K  K8  1  0.53368761  0.45384459  0.81519190  1
  K  K9  1  0.46631239  0.95384459  0.68480810  1
  K  K10  1  0.46631239  0.54615541  0.18480810  1
  K  K11  1  0.53368761  0.04615541  0.31519190  1
  K  K12  1  0.40056804  0.15429718  0.91749765  1
  K  K13  1  0.59943196  0.65429718  0.58250235  1
  K  K14  1  0.59943196  0.84570282  0.08250235  1
  K  K15  1  0.40056804  0.34570282  0.41749765  1
  Hf  Hf16  1  0.75883107  0.15140861  0.67685177  1
  Hf  Hf17  1  0.24116893  0.65140861  0.82314823  1
  Hf  Hf18  1  0.24116893  0.84859139  0.32314823  1
  Hf  Hf19  1  0.75883107  0.34859139  0.17685177  1
  C  C20  1  0.68211811  0.09219825  0.85480644  1
  C  C21  1  0.31788189  0.59219825  0.64519356  1
  C  C22  1  0.31788189  0.90780175  0.14519356  1
  C  C23  1  0.68211811  0.40780175  0.35480644  1
  C  C24  1  0.82104187  0.11832828  0.86227379  1
  C  C25  1  0.17895813  0.61832828  0.63772621  1
  C  C26  1  0.17895813  0.88167172  0.13772621  1
  C  C27  1  0.82104187  0.38167172  0.36227379  1
  C  C28  1  0.54278964  0.14761319  0.54680919  1
  C  C29  1  0.45721036  0.64761319  0.95319081  1
  C  C30  1  0.45721036  0.85238681  0.45319081  1
  C  C31  1  0.54278964  0.35238681  0.04680919  1
  C  C32  1  0.65793277  0.17609658  0.49473314  1
  C  C33  1  0.34206723  0.67609658  0.00526686  1
  C  C34  1  0.34206723  0.82390342  0.50526686  1
  C  C35  1  0.65793277  0.32390342  0.99473314  1
  C  C36  1  0.94229712  0.97607047  0.62362351  1
  C  C37  1  0.05770288  0.47607047  0.87637649  1
  C  C38  1  0.05770288  0.02392953  0.37637649  1
  C  C39  1  0.94229712  0.52392953  0.12362351  1
  C  C40  1  0.82242876  0.91174522  0.63986650  1
  C  C41  1  0.17757124  0.41174522  0.86013350  1
  C  C42  1  0.17757124  0.08825478  0.36013350  1
  C  C43  1  0.82242876  0.58825478  0.13986650  1
  C  C44  1  0.88396008  0.37663874  0.68092497  1
  C  C45  1  0.11603992  0.87663874  0.81907503  1
  C  C46  1  0.11603992  0.62336126  0.31907503  1
  C  C47  1  0.88396008  0.12336126  0.18092497  1
  C  C48  1  0.74553400  0.39956805  0.68920306  1
  C  C49  1  0.25446600  0.89956805  0.81079694  1
  C  C50  1  0.25446600  0.60043195  0.31079694  1
  C  C51  1  0.74553400  0.10043195  0.18920306  1
  O  O52  1  0.63742778  0.10772844  0.77969457  1
  O  O53  1  0.36257222  0.60772844  0.72030543  1
  O  O54  1  0.36257222  0.89227156  0.22030543  1
  O  O55  1  0.63742778  0.39227156  0.27969457  1
  O  O56  1  0.86521090  0.14670642  0.79060114  1
  O  O57  1  0.13478910  0.64670642  0.70939886  1
  O  O58  1  0.13478910  0.85329358  0.20939886  1
  O  O59  1  0.86521090  0.35329358  0.29060114  1
  O  O60  1  0.87954517  0.11317227  0.92889174  1
  O  O61  1  0.12045483  0.61317227  0.57110826  1
  O  O62  1  0.12045483  0.88682773  0.07110826  1
  O  O63  1  0.87954517  0.38682773  0.42889174  1
  O  O64  1  0.62306791  0.06065914  0.91534797  1
  O  O65  1  0.37693209  0.56065914  0.58465203  1
  O  O66  1  0.37693209  0.93934086  0.08465203  1
  O  O67  1  0.62306791  0.43934086  0.41534797  1
  O  O68  1  0.56688267  0.13175573  0.62429284  1
  O  O69  1  0.43311733  0.63175573  0.87570716  1
  O  O70  1  0.43311733  0.86824427  0.37570716  1
  O  O71  1  0.56688267  0.36824427  0.12429284  1
  O  O72  1  0.75549615  0.18233605  0.54118566  1
  O  O73  1  0.24450385  0.68233605  0.95881434  1
  O  O74  1  0.24450385  0.81766395  0.45881434  1
  O  O75  1  0.75549615  0.31766395  0.04118566  1
  O  O76  1  0.64786190  0.18940869  0.41824008  1
  O  O77  1  0.35213810  0.68940869  0.08175992  1
  O  O78  1  0.35213810  0.81059131  0.58175992  1
  O  O79  1  0.64786190  0.31059131  0.91824008  1
  O  O80  1  0.44025003  0.14270848  0.51015555  1
  O  O81  1  0.55974997  0.64270848  0.98984445  1
  O  O82  1  0.55974997  0.85729152  0.48984445  1
  O  O83  1  0.44025003  0.35729152  0.01015555  1
  O  O84  1  0.92913797  0.07940121  0.63444804  1
  O  O85  1  0.07086203  0.57940121  0.86555196  1
  O  O86  1  0.07086203  0.92059879  0.36555196  1
  O  O87  1  0.92913797  0.42059879  0.13444804  1
  O  O88  1  0.73396870  0.97411055  0.66239774  1
  O  O89  1  0.26603130  0.47411055  0.83760226  1
  O  O90  1  0.26603130  0.02588945  0.33760226  1
  O  O91  1  0.73396870  0.52588945  0.16239774  1
  O  O92  1  0.81779569  0.81143064  0.63145960  1
  O  O93  1  0.18220431  0.31143064  0.86854040  1
  O  O94  1  0.18220431  0.18856936  0.36854040  1
  O  O95  1  0.81779569  0.68856936  0.13145960  1
  O  O96  1  0.03798803  0.93139188  0.60272669  1
  O  O97  1  0.96201197  0.43139188  0.89727331  1
  O  O98  1  0.96201197  0.06860812  0.39727331  1
  O  O99  1  0.03798803  0.56860812  0.10272669  1
  O  O100  1  0.90595661  0.27608785  0.66350689  1
  O  O101  1  0.09404339  0.77608785  0.83649311  1
  O  O102  1  0.09404339  0.72391215  0.33649311  1
  O  O103  1  0.90595661  0.22391215  0.16350689  1
  O  O104  1  0.67996916  0.31275761  0.69556695  1
  O  O105  1  0.32003084  0.81275761  0.80443305  1
  O  O106  1  0.32003084  0.68724239  0.30443305  1
  O  O107  1  0.67996916  0.18724239  0.19556695  1
  O  O108  1  0.70515993  0.49436100  0.69190705  1
  O  O109  1  0.29484007  0.99436100  0.80809295  1
  O  O110  1  0.29484007  0.50563900  0.30809295  1
  O  O111  1  0.70515993  0.00563900  0.19190705  1
  O  O112  1  0.96053822  0.44922643  0.69191927  1
  O  O113  1  0.03946178  0.94922643  0.80808073  1
  O  O114  1  0.03946178  0.55077357  0.30808073  1
  O  O115  1  0.96053822  0.05077357  0.19191927  1
  O  O116  1  0.18950651  0.10131243  0.01987116  1
  O  O117  1  0.81049349  0.60131243  0.48012884  1
  O  O118  1  0.81049349  0.89868757  0.98012884  1
  O  O119  1  0.18950651  0.39868757  0.51987116  1
  O  O120  1  0.16800107  0.36964022  0.59191911  1
  O  O121  1  0.83199893  0.86964022  0.90808089  1
  O  O122  1  0.83199893  0.63035978  0.40808089  1
  O  O123  1  0.16800107  0.13035978  0.09191911  1
  O  O124  1  0.25387107  0.10777945  0.58645035  1
  O  O125  1  0.74612893  0.60777945  0.91354965  1
  O  O126  1  0.74612893  0.89222055  0.41354965  1
  O  O127  1  0.25387107  0.39222055  0.08645035  1
  O  O128  1  0.37263427  0.28487341  0.71461736  1
  O  O129  1  0.62736573  0.78487341  0.78538264  1
  O  O130  1  0.62736573  0.71512659  0.28538264  1
  O  O131  1  0.37263427  0.21512659  0.21461736  1
  O  O132  1  0.41584624  0.33461894  0.65529291  1
  O  O133  1  0.58415376  0.83461894  0.84470709  1
  O  O134  1  0.58415376  0.66538106  0.34470709  1
  O  O135  1  0.41584624  0.16538106  0.15529291  1
