# generated using pymatgen
data_Hf7Tl18Pb2S25
_symmetry_space_group_name_H-M   'P 1'
_cell_length_a   17.71495090
_cell_length_b   17.71495090
_cell_length_c   17.71495090
_cell_angle_alpha   90.00000000
_cell_angle_beta   90.00000000
_cell_angle_gamma   90.00000000
_symmetry_Int_Tables_number   1
_chemical_formula_structural   Hf7Tl18Pb2S25
_chemical_formula_sum   'Hf28 Tl72 Pb8 S100'
_cell_volume   5559.29677514
_cell_formula_units_Z   4
loop_
 _symmetry_equiv_pos_site_id
 _symmetry_equiv_pos_as_xyz
  1  'x, y, z'
loop_
 _atom_site_type_symbol
 _atom_site_label
 _atom_site_symmetry_multiplicity
 _atom_site_fract_x
 _atom_site_fract_y
 _atom_site_fract_z
 _atom_site_occupancy
  Hf  Hf0  1  0.14997471  0.51207489  0.15934379  1
  Hf  Hf1  1  0.85002529  0.01207489  0.34065621  1
  Hf  Hf2  1  0.35002529  0.48792511  0.65934379  1
  Hf  Hf3  1  0.64997471  0.98792511  0.84065621  1
  Hf  Hf4  1  0.15934379  0.14997471  0.51207489  1
  Hf  Hf5  1  0.34065621  0.85002529  0.01207489  1
  Hf  Hf6  1  0.65934379  0.35002529  0.48792511  1
  Hf  Hf7  1  0.84065621  0.64997471  0.98792511  1
  Hf  Hf8  1  0.51207489  0.15934379  0.14997471  1
  Hf  Hf9  1  0.01207489  0.34065621  0.85002529  1
  Hf  Hf10  1  0.48792511  0.65934379  0.35002529  1
  Hf  Hf11  1  0.98792511  0.84065621  0.64997471  1
  Hf  Hf12  1  0.85002529  0.48792511  0.84065621  1
  Hf  Hf13  1  0.14997471  0.98792511  0.65934379  1
  Hf  Hf14  1  0.64997471  0.51207489  0.34065621  1
  Hf  Hf15  1  0.35002529  0.01207489  0.15934379  1
  Hf  Hf16  1  0.84065621  0.85002529  0.48792511  1
  Hf  Hf17  1  0.65934379  0.14997471  0.98792511  1
  Hf  Hf18  1  0.34065621  0.64997471  0.51207489  1
  Hf  Hf19  1  0.15934379  0.35002529  0.01207489  1
  Hf  Hf20  1  0.48792511  0.84065621  0.85002529  1
  Hf  Hf21  1  0.98792511  0.65934379  0.14997471  1
  Hf  Hf22  1  0.51207489  0.34065621  0.64997471  1
  Hf  Hf23  1  0.01207489  0.15934379  0.35002529  1
  Hf  Hf24  1  -0.00000000  0.00000000  0.50000000  1
  Hf  Hf25  1  -0.00000000  0.50000000  -0.00000000  1
  Hf  Hf26  1  0.50000000  0.00000000  -0.00000000  1
  Hf  Hf27  1  0.50000000  0.50000000  0.50000000  1
  Tl  Tl28  1  0.17627523  0.81538098  0.48495340  1
  Tl  Tl29  1  0.82372477  0.31538098  0.01504660  1
  Tl  Tl30  1  0.32372477  0.18461902  0.98495340  1
  Tl  Tl31  1  0.67627523  0.68461902  0.51504660  1
  Tl  Tl32  1  0.48495340  0.17627523  0.81538098  1
  Tl  Tl33  1  0.01504660  0.82372477  0.31538098  1
  Tl  Tl34  1  0.98495340  0.32372477  0.18461902  1
  Tl  Tl35  1  0.51504660  0.67627523  0.68461902  1
  Tl  Tl36  1  0.81538098  0.48495340  0.17627523  1
  Tl  Tl37  1  0.31538098  0.01504660  0.82372477  1
  Tl  Tl38  1  0.18461902  0.98495340  0.32372477  1
  Tl  Tl39  1  0.68461902  0.51504660  0.67627523  1
  Tl  Tl40  1  0.82372477  0.18461902  0.51504660  1
  Tl  Tl41  1  0.17627523  0.68461902  0.98495340  1
  Tl  Tl42  1  0.67627523  0.81538098  0.01504660  1
  Tl  Tl43  1  0.32372477  0.31538098  0.48495340  1
  Tl  Tl44  1  0.51504660  0.82372477  0.18461902  1
  Tl  Tl45  1  0.98495340  0.17627523  0.68461902  1
  Tl  Tl46  1  0.01504660  0.67627523  0.81538098  1
  Tl  Tl47  1  0.48495340  0.32372477  0.31538098  1
  Tl  Tl48  1  0.18461902  0.51504660  0.82372477  1
  Tl  Tl49  1  0.68461902  0.98495340  0.17627523  1
  Tl  Tl50  1  0.81538098  0.01504660  0.67627523  1
  Tl  Tl51  1  0.31538098  0.48495340  0.32372477  1
  Tl  Tl52  1  0.15547979  0.66744564  0.32367282  1
  Tl  Tl53  1  0.84452021  0.16744564  0.17632718  1
  Tl  Tl54  1  0.34452021  0.33255436  0.82367282  1
  Tl  Tl55  1  0.65547979  0.83255436  0.67632718  1
  Tl  Tl56  1  0.32367282  0.15547979  0.66744564  1
  Tl  Tl57  1  0.17632718  0.84452021  0.16744564  1
  Tl  Tl58  1  0.82367282  0.34452021  0.33255436  1
  Tl  Tl59  1  0.67632718  0.65547979  0.83255436  1
  Tl  Tl60  1  0.66744564  0.32367282  0.15547979  1
  Tl  Tl61  1  0.16744564  0.17632718  0.84452021  1
  Tl  Tl62  1  0.33255436  0.82367282  0.34452021  1
  Tl  Tl63  1  0.83255436  0.67632718  0.65547979  1
  Tl  Tl64  1  0.84452021  0.33255436  0.67632718  1
  Tl  Tl65  1  0.15547979  0.83255436  0.82367282  1
  Tl  Tl66  1  0.65547979  0.66744564  0.17632718  1
  Tl  Tl67  1  0.34452021  0.16744564  0.32367282  1
  Tl  Tl68  1  0.67632718  0.84452021  0.33255436  1
  Tl  Tl69  1  0.82367282  0.15547979  0.83255436  1
  Tl  Tl70  1  0.17632718  0.65547979  0.66744564  1
  Tl  Tl71  1  0.32367282  0.34452021  0.16744564  1
  Tl  Tl72  1  0.33255436  0.67632718  0.84452021  1
  Tl  Tl73  1  0.83255436  0.82367282  0.15547979  1
  Tl  Tl74  1  0.66744564  0.17632718  0.65547979  1
  Tl  Tl75  1  0.16744564  0.32367282  0.34452021  1
  Tl  Tl76  1  0.01372077  0.66617198  0.48079135  1
  Tl  Tl77  1  0.98627923  0.16617198  0.01920865  1
  Tl  Tl78  1  0.48627923  0.33382802  0.98079135  1
  Tl  Tl79  1  0.51372077  0.83382802  0.51920865  1
  Tl  Tl80  1  0.48079135  0.01372077  0.66617198  1
  Tl  Tl81  1  0.01920865  0.98627923  0.16617198  1
  Tl  Tl82  1  0.98079135  0.48627923  0.33382802  1
  Tl  Tl83  1  0.51920865  0.51372077  0.83382802  1
  Tl  Tl84  1  0.66617198  0.48079135  0.01372077  1
  Tl  Tl85  1  0.16617198  0.01920865  0.98627923  1
  Tl  Tl86  1  0.33382802  0.98079135  0.48627923  1
  Tl  Tl87  1  0.83382802  0.51920865  0.51372077  1
  Tl  Tl88  1  0.98627923  0.33382802  0.51920865  1
  Tl  Tl89  1  0.01372077  0.83382802  0.98079135  1
  Tl  Tl90  1  0.51372077  0.66617198  0.01920865  1
  Tl  Tl91  1  0.48627923  0.16617198  0.48079135  1
  Tl  Tl92  1  0.51920865  0.98627923  0.33382802  1
  Tl  Tl93  1  0.98079135  0.01372077  0.83382802  1
  Tl  Tl94  1  0.01920865  0.51372077  0.66617198  1
  Tl  Tl95  1  0.48079135  0.48627923  0.16617198  1
  Tl  Tl96  1  0.33382802  0.51920865  0.98627923  1
  Tl  Tl97  1  0.83382802  0.98079135  0.01372077  1
  Tl  Tl98  1  0.66617198  0.01920865  0.51372077  1
  Tl  Tl99  1  0.16617198  0.48079135  0.48627923  1
  Pb  Pb100  1  0.32336438  0.67663562  0.17663562  1
  Pb  Pb101  1  0.67663562  0.17663562  0.32336438  1
  Pb  Pb102  1  0.17663562  0.32336438  0.67663562  1
  Pb  Pb103  1  0.82336438  0.82336438  0.82336438  1
  Pb  Pb104  1  0.67663562  0.32336438  0.82336438  1
  Pb  Pb105  1  0.32336438  0.82336438  0.67663562  1
  Pb  Pb106  1  0.82336438  0.67663562  0.32336438  1
  Pb  Pb107  1  0.17663562  0.17663562  0.17663562  1
  S  S108  1  0.14596628  0.50911783  0.29839992  1
  S  S109  1  0.85403372  0.00911783  0.20160008  1
  S  S110  1  0.35403372  0.49088217  0.79839992  1
  S  S111  1  0.64596628  0.99088217  0.70160008  1
  S  S112  1  0.29839992  0.14596628  0.50911783  1
  S  S113  1  0.20160008  0.85403372  0.00911783  1
  S  S114  1  0.79839992  0.35403372  0.49088217  1
  S  S115  1  0.70160008  0.64596628  0.99088217  1
  S  S116  1  0.50911783  0.29839992  0.14596628  1
  S  S117  1  0.00911783  0.20160008  0.85403372  1
  S  S118  1  0.49088217  0.79839992  0.35403372  1
  S  S119  1  0.99088217  0.70160008  0.64596628  1
  S  S120  1  0.85403372  0.49088217  0.70160008  1
  S  S121  1  0.14596628  0.99088217  0.79839992  1
  S  S122  1  0.64596628  0.50911783  0.20160008  1
  S  S123  1  0.35403372  0.00911783  0.29839992  1
  S  S124  1  0.70160008  0.85403372  0.49088217  1
  S  S125  1  0.79839992  0.14596628  0.99088217  1
  S  S126  1  0.20160008  0.64596628  0.50911783  1
  S  S127  1  0.29839992  0.35403372  0.00911783  1
  S  S128  1  0.49088217  0.70160008  0.85403372  1
  S  S129  1  0.99088217  0.79839992  0.14596628  1
  S  S130  1  0.50911783  0.20160008  0.64596628  1
  S  S131  1  0.00911783  0.29839992  0.35403372  1
  S  S132  1  0.00175609  0.50951425  0.14425316  1
  S  S133  1  0.99824391  0.00951425  0.35574684  1
  S  S134  1  0.49824391  0.49048575  0.64425316  1
  S  S135  1  0.50175609  0.99048575  0.85574684  1
  S  S136  1  0.14425316  0.00175609  0.50951425  1
  S  S137  1  0.35574684  0.99824391  0.00951425  1
  S  S138  1  0.64425316  0.49824391  0.49048575  1
  S  S139  1  0.85574684  0.50175609  0.99048575  1
  S  S140  1  0.50951425  0.14425316  0.00175609  1
  S  S141  1  0.00951425  0.35574684  0.99824391  1
  S  S142  1  0.49048575  0.64425316  0.49824391  1
  S  S143  1  0.99048575  0.85574684  0.50175609  1
  S  S144  1  0.99824391  0.49048575  0.85574684  1
  S  S145  1  0.00175609  0.99048575  0.64425316  1
  S  S146  1  0.50175609  0.50951425  0.35574684  1
  S  S147  1  0.49824391  0.00951425  0.14425316  1
  S  S148  1  0.85574684  0.99824391  0.49048575  1
  S  S149  1  0.64425316  0.00175609  0.99048575  1
  S  S150  1  0.35574684  0.50175609  0.50951425  1
  S  S151  1  0.14425316  0.49824391  0.00951425  1
  S  S152  1  0.49048575  0.85574684  0.99824391  1
  S  S153  1  0.99048575  0.64425316  0.00175609  1
  S  S154  1  0.50951425  0.35574684  0.50175609  1
  S  S155  1  0.00951425  0.14425316  0.49824391  1
  S  S156  1  0.29126577  0.52520602  0.15596260  1
  S  S157  1  0.70873423  0.02520602  0.34403740  1
  S  S158  1  0.20873423  0.47479398  0.65596260  1
  S  S159  1  0.79126577  0.97479398  0.84403740  1
  S  S160  1  0.15596260  0.29126577  0.52520602  1
  S  S161  1  0.34403740  0.70873423  0.02520602  1
  S  S162  1  0.65596260  0.20873423  0.47479398  1
  S  S163  1  0.84403740  0.79126577  0.97479398  1
  S  S164  1  0.52520602  0.15596260  0.29126577  1
  S  S165  1  0.02520602  0.34403740  0.70873423  1
  S  S166  1  0.47479398  0.65596260  0.20873423  1
  S  S167  1  0.97479398  0.84403740  0.79126577  1
  S  S168  1  0.70873423  0.47479398  0.84403740  1
  S  S169  1  0.29126577  0.97479398  0.65596260  1
  S  S170  1  0.79126577  0.52520602  0.34403740  1
  S  S171  1  0.20873423  0.02520602  0.15596260  1
  S  S172  1  0.84403740  0.70873423  0.47479398  1
  S  S173  1  0.65596260  0.29126577  0.97479398  1
  S  S174  1  0.34403740  0.79126577  0.52520602  1
  S  S175  1  0.15596260  0.20873423  0.02520602  1
  S  S176  1  0.47479398  0.84403740  0.70873423  1
  S  S177  1  0.97479398  0.65596260  0.29126577  1
  S  S178  1  0.52520602  0.34403740  0.79126577  1
  S  S179  1  0.02520602  0.15596260  0.20873423  1
  S  S180  1  0.34479366  0.64863038  0.36508776  1
  S  S181  1  0.65520634  0.14863038  0.13491224  1
  S  S182  1  0.15520634  0.35136962  0.86508776  1
  S  S183  1  0.84479366  0.85136962  0.63491224  1
  S  S184  1  0.36508776  0.34479366  0.64863038  1
  S  S185  1  0.13491224  0.65520634  0.14863038  1
  S  S186  1  0.86508776  0.15520634  0.35136962  1
  S  S187  1  0.63491224  0.84479366  0.85136962  1
  S  S188  1  0.64863038  0.36508776  0.34479366  1
  S  S189  1  0.14863038  0.13491224  0.65520634  1
  S  S190  1  0.35136962  0.86508776  0.15520634  1
  S  S191  1  0.85136962  0.63491224  0.84479366  1
  S  S192  1  0.65520634  0.35136962  0.63491224  1
  S  S193  1  0.34479366  0.85136962  0.86508776  1
  S  S194  1  0.84479366  0.64863038  0.13491224  1
  S  S195  1  0.15520634  0.14863038  0.36508776  1
  S  S196  1  0.63491224  0.65520634  0.35136962  1
  S  S197  1  0.86508776  0.34479366  0.85136962  1
  S  S198  1  0.13491224  0.84479366  0.64863038  1
  S  S199  1  0.36508776  0.15520634  0.14863038  1
  S  S200  1  0.35136962  0.63491224  0.65520634  1
  S  S201  1  0.85136962  0.86508776  0.34479366  1
  S  S202  1  0.64863038  0.13491224  0.84479366  1
  S  S203  1  0.14863038  0.36508776  0.15520634  1
  S  S204  1  0.50000000  0.50000000  -0.00000000  1
  S  S205  1  0.50000000  -0.00000000  0.50000000  1
  S  S206  1  -0.00000000  0.50000000  0.50000000  1
  S  S207  1  -0.00000000  0.00000000  -0.00000000  1
