# generated using pymatgen
data_C7I3N4
_symmetry_space_group_name_H-M   'P 1'
_cell_length_a   14.46057700
_cell_length_b   7.25513400
_cell_length_c   14.59015210
_cell_angle_alpha   80.73559454
_cell_angle_beta   90.00000000
_cell_angle_gamma   90.00000000
_symmetry_Int_Tables_number   1
_chemical_formula_structural   C7I3N4
_chemical_formula_sum   'C28 I12 N16'
_cell_volume   1510.73620259
_cell_formula_units_Z   4
loop_
 _symmetry_equiv_pos_site_id
 _symmetry_equiv_pos_as_xyz
  1  'x, y, z'
loop_
 _atom_site_type_symbol
 _atom_site_label
 _atom_site_symmetry_multiplicity
 _atom_site_fract_x
 _atom_site_fract_y
 _atom_site_fract_z
 _atom_site_occupancy
  C  C0  1  0.17329000  0.78487600  0.22230900  1
  C  C1  1  0.67329000  0.71512400  0.77769100  1
  C  C2  1  0.82671000  0.21512400  0.77769100  1
  C  C3  1  0.32671000  0.28487600  0.22230900  1
  C  C4  1  0.10977500  0.51920800  0.12089300  1
  C  C5  1  0.60977500  0.98079200  0.87910700  1
  C  C6  1  0.89022500  0.48079200  0.87910700  1
  C  C7  1  0.39022500  0.01920800  0.12089300  1
  C  C8  1  0.08650000  0.39260400  0.06437600  1
  C  C9  1  0.58650000  0.10739600  0.93562400  1
  C  C10  1  0.91350000  0.60739600  0.93562400  1
  C  C11  1  0.41350000  0.89260400  0.06437600  1
  C  C12  1  0.17701200  0.60026200  0.26145200  1
  C  C13  1  0.67701200  0.89973800  0.73854800  1
  C  C14  1  0.82298800  0.39973800  0.73854800  1
  C  C15  1  0.32298800  0.10026200  0.26145200  1
  C  C16  1  0.16854600  0.30686200  0.37803100  1
  C  C17  1  0.66854600  0.19313800  0.62196900  1
  C  C18  1  0.83145400  0.69313800  0.62196900  1
  C  C19  1  0.33145400  0.80686200  0.37803100  1
  C  C20  1  0.94899700  0.40158100  0.18639900  1
  C  C21  1  0.44899700  0.09841900  0.81360100  1
  C  C22  1  0.05100300  0.59841900  0.81360100  1
  C  C23  1  0.55100300  0.90158100  0.18639900  1
  C  C24  1  0.89159800  0.59724800  0.30475600  1
  C  C25  1  0.39159800  0.90275200  0.69524400  1
  C  C26  1  0.10840200  0.40275200  0.69524400  1
  C  C27  1  0.60840200  0.09724800  0.30475600  1
  I  I28  1  0.00000000  0.00000000  0.00000000  1
  I  I29  1  0.50000000  0.50000000  0.00000000  1
  I  I30  1  0.13764200  0.82317500  0.83240100  1
  I  I31  1  0.63764200  0.67682500  0.16759900  1
  I  I32  1  0.86235800  0.17682500  0.16759900  1
  I  I33  1  0.36235800  0.32317500  0.83240100  1
  I  I34  1  0.00000000  0.00000000  0.50000000  1
  I  I35  1  0.50000000  0.50000000  0.50000000  1
  I  I36  1  0.16625000  0.78055200  0.52893600  1
  I  I37  1  0.66625000  0.71944800  0.47106400  1
  I  I38  1  0.83375000  0.21944800  0.47106400  1
  I  I39  1  0.33375000  0.28055200  0.52893600  1
  N  N40  1  0.92374300  0.50768800  0.25076700  1
  N  N41  1  0.42374300  0.99231200  0.74923300  1
  N  N42  1  0.07625700  0.49231200  0.74923300  1
  N  N43  1  0.57625700  0.00768800  0.25076700  1
  N  N44  1  0.16932900  0.61501100  0.16551300  1
  N  N45  1  0.66932900  0.88498900  0.83448700  1
  N  N46  1  0.83067100  0.38498900  0.83448700  1
  N  N47  1  0.33067100  0.11501100  0.16551300  1
  N  N48  1  0.02428700  0.43223900  0.13891300  1
  N  N49  1  0.52428700  0.06776100  0.86108700  1
  N  N50  1  0.97571300  0.56776100  0.86108700  1
  N  N51  1  0.47571300  0.93223900  0.13891300  1
  N  N52  1  0.17274700  0.45531800  0.32865900  1
  N  N53  1  0.67274700  0.04468200  0.67134100  1
  N  N54  1  0.82725300  0.54468200  0.67134100  1
  N  N55  1  0.32725300  0.95531800  0.32865900  1
