# generated using pymatgen
data_CoB10H31C18O
_symmetry_space_group_name_H-M   'P 1'
_cell_length_a   9.19023430
_cell_length_b   10.85336206
_cell_length_c   24.99028927
_cell_angle_alpha   90.00000000
_cell_angle_beta   90.00000000
_cell_angle_gamma   103.49527693
_symmetry_Int_Tables_number   1
_chemical_formula_structural   CoB10H31C18O
_chemical_formula_sum   'Co4 B40 H124 C72 O4'
_cell_volume   2423.83061702
_cell_formula_units_Z   4
loop_
 _symmetry_equiv_pos_site_id
 _symmetry_equiv_pos_as_xyz
  1  'x, y, z'
loop_
 _atom_site_type_symbol
 _atom_site_label
 _atom_site_symmetry_multiplicity
 _atom_site_fract_x
 _atom_site_fract_y
 _atom_site_fract_z
 _atom_site_occupancy
  Co  Co0  1  0.75412661  0.46261905  0.38615795  1
  Co  Co1  1  0.25412661  0.96261905  0.11384205  1
  Co  Co2  1  0.24587339  0.53738095  0.61384205  1
  Co  Co3  1  0.74587339  0.03738095  0.88615795  1
  B  B4  1  0.95084861  0.56638754  0.34279852  1
  B  B5  1  0.45084861  0.06638754  0.15720148  1
  B  B6  1  0.04915139  0.43361246  0.65720148  1
  B  B7  1  0.54915139  0.93361246  0.84279852  1
  B  B8  1  0.99704517  0.46788500  0.28994416  1
  B  B9  1  0.49704517  0.96788500  0.21005584  1
  B  B10  1  0.00295483  0.53211500  0.71005584  1
  B  B11  1  0.50295483  0.03211500  0.78994416  1
  B  B12  1  0.76166868  0.26799607  0.35672095  1
  B  B13  1  0.26166868  0.76799607  0.14327905  1
  B  B14  1  0.23833132  0.73200393  0.64327905  1
  B  B15  1  0.73833132  0.23200393  0.85672095  1
  B  B16  1  0.98789022  0.49171624  0.40473712  1
  B  B17  1  0.48789022  0.99171624  0.09526288  1
  B  B18  1  0.01210978  0.50828376  0.59526288  1
  B  B19  1  0.51210978  0.00828376  0.90473712  1
  B  B20  1  0.10808162  0.50319786  0.34828257  1
  B  B21  1  0.60808162  0.00319786  0.15171743  1
  B  B22  1  0.89191838  0.49680214  0.65171743  1
  B  B23  1  0.39191838  0.99680214  0.84828257  1
  B  B24  1  0.88581003  0.29471659  0.29745686  1
  B  B25  1  0.38581003  0.79471659  0.20254314  1
  B  B26  1  0.11418997  0.70528341  0.70254314  1
  B  B27  1  0.61418997  0.20528341  0.79745686  1
  B  B28  1  0.88713496  0.33258797  0.41191725  1
  B  B29  1  0.38713496  0.83258797  0.08808275  1
  B  B30  1  0.11286504  0.66741203  0.58808275  1
  B  B31  1  0.61286504  0.16741203  0.91191725  1
  B  B32  1  0.07015604  0.34935269  0.31903900  1
  B  B33  1  0.57015604  0.84935269  0.18096100  1
  B  B34  1  0.92984396  0.65064731  0.68096100  1
  B  B35  1  0.42984396  0.15064731  0.81903900  1
  B  B36  1  0.94235972  0.24129920  0.35984911  1
  B  B37  1  0.44235972  0.74129920  0.14015089  1
  B  B38  1  0.05764028  0.75870080  0.64015089  1
  B  B39  1  0.55764028  0.25870080  0.85984911  1
  B  B40  1  0.07477242  0.36700667  0.38962516  1
  B  B41  1  0.57477242  0.86700667  0.11037484  1
  B  B42  1  0.92522758  0.63299333  0.61037484  1
  B  B43  1  0.42522758  0.13299333  0.88962516  1
  H  H44  1  0.48868686  0.28974367  0.30096614  1
  H  H45  1  0.98868686  0.78974367  0.19903386  1
  H  H46  1  0.51131314  0.71025633  0.69903386  1
  H  H47  1  0.01131314  0.21025633  0.80096614  1
  H  H48  1  0.60351923  0.27713836  0.24592318  1
  H  H49  1  0.10351923  0.77713836  0.25407682  1
  H  H50  1  0.39648077  0.72286164  0.75407682  1
  H  H51  1  0.89648077  0.22286164  0.74592318  1
  H  H52  1  0.96908894  0.67906023  0.33858970  1
  H  H53  1  0.46908894  0.17906023  0.16141030  1
  H  H54  1  0.03091106  0.32093977  0.66141030  1
  H  H55  1  0.53091106  0.82093977  0.83858970  1
  H  H56  1  0.49872457  0.50946606  0.28289661  1
  H  H57  1  0.99872457  0.00946606  0.21710339  1
  H  H58  1  0.50127543  0.49053394  0.71710339  1
  H  H59  1  0.00127543  0.99053394  0.78289661  1
  H  H60  1  0.53754996  0.46784979  0.21697770  1
  H  H61  1  0.03754996  0.96784979  0.28302230  1
  H  H62  1  0.46245004  0.53215021  0.78302230  1
  H  H63  1  0.96245004  0.03215021  0.71697770  1
  H  H64  1  0.79880494  0.56115989  0.22573057  1
  H  H65  1  0.29880494  0.06115989  0.27426943  1
  H  H66  1  0.20119506  0.43884011  0.77426943  1
  H  H67  1  0.70119506  0.93884011  0.72573057  1
  H  H68  1  0.73959526  0.65447951  0.27507322  1
  H  H69  1  0.23959526  0.15447951  0.22492678  1
  H  H70  1  0.26040474  0.34552049  0.72492678  1
  H  H71  1  0.76040474  0.84552049  0.77507322  1
  H  H72  1  0.03532506  0.50923151  0.24652466  1
  H  H73  1  0.53532506  0.00923151  0.25347534  1
  H  H74  1  0.96467494  0.49076849  0.75347534  1
  H  H75  1  0.46467494  0.99076849  0.74652466  1
  H  H76  1  0.66088979  0.17641046  0.36234386  1
  H  H77  1  0.16088979  0.67641046  0.13765614  1
  H  H78  1  0.33911021  0.82358954  0.63765614  1
  H  H79  1  0.83911021  0.32358954  0.86234386  1
  H  H80  1  0.02741685  0.55890926  0.44257721  1
  H  H81  1  0.52741685  0.05890926  0.05742279  1
  H  H82  1  0.97258315  0.44109074  0.55742279  1
  H  H83  1  0.47258315  0.94109074  0.94257721  1
  H  H84  1  0.22797079  0.57598935  0.34732457  1
  H  H85  1  0.72797079  0.07598935  0.15267543  1
  H  H86  1  0.77202921  0.42401065  0.65267543  1
  H  H87  1  0.27202921  0.92401065  0.84732457  1
  H  H88  1  0.85486229  0.23376448  0.25746123  1
  H  H89  1  0.35486229  0.73376448  0.24253877  1
  H  H90  1  0.14513771  0.76623552  0.74253877  1
  H  H91  1  0.64513771  0.26623552  0.75746123  1
  H  H92  1  0.85392804  0.28399205  0.45459396  1
  H  H93  1  0.35392804  0.78399205  0.04540604  1
  H  H94  1  0.14607196  0.71600795  0.54540604  1
  H  H95  1  0.64607196  0.21600795  0.95459396  1
  H  H96  1  0.16307400  0.31468914  0.29312298  1
  H  H97  1  0.66307400  0.81468914  0.20687702  1
  H  H98  1  0.83692600  0.68531086  0.70687702  1
  H  H99  1  0.33692600  0.18531086  0.79312298  1
  H  H100  1  0.94851618  0.13331606  0.36664784  1
  H  H101  1  0.44851618  0.63331606  0.13335216  1
  H  H102  1  0.05148382  0.86668394  0.63335216  1
  H  H103  1  0.55148382  0.36668394  0.86664784  1
  H  H104  1  0.17291712  0.34450090  0.41671266  1
  H  H105  1  0.67291712  0.84450090  0.08328734  1
  H  H106  1  0.82708288  0.65549910  0.58328734  1
  H  H107  1  0.32708288  0.15549910  0.91671266  1
  H  H108  1  0.76579213  0.47165826  0.49962082  1
  H  H109  1  0.26579213  0.97165826  0.00037918  1
  H  H110  1  0.23420787  0.52834174  0.50037918  1
  H  H111  1  0.73420787  0.02834174  0.99962082  1
  H  H112  1  0.53011423  0.31240448  0.45167743  1
  H  H113  1  0.03011423  0.81240448  0.04832257  1
  H  H114  1  0.46988577  0.68759552  0.54832257  1
  H  H115  1  0.96988577  0.18759552  0.95167743  1
  H  H116  1  0.43706796  0.43739135  0.37048051  1
  H  H117  1  0.93706796  0.93739135  0.12951949  1
  H  H118  1  0.56293204  0.56260865  0.62951949  1
  H  H119  1  0.06293204  0.06260865  0.87048051  1
  H  H120  1  0.52961445  0.70592226  0.33381107  1
  H  H121  1  0.02961445  0.20592226  0.16618893  1
  H  H122  1  0.47038555  0.29407774  0.66618893  1
  H  H123  1  0.97038555  0.79407774  0.83381107  1
  H  H124  1  0.71501243  0.90879406  0.35203374  1
  H  H125  1  0.21501243  0.40879406  0.14796626  1
  H  H126  1  0.28498757  0.09120594  0.64796626  1
  H  H127  1  0.78498757  0.59120594  0.85203374  1
  H  H128  1  0.89802536  0.92719320  0.42529413  1
  H  H129  1  0.39802536  0.42719320  0.07470587  1
  H  H130  1  0.10197464  0.07280680  0.57470587  1
  H  H131  1  0.60197464  0.57280680  0.92529413  1
  H  H132  1  0.90623022  0.74265825  0.48408754  1
  H  H133  1  0.40623022  0.24265825  0.01591246  1
  H  H134  1  0.09376978  0.25734175  0.51591246  1
  H  H135  1  0.59376978  0.75734175  0.98408754  1
  H  H136  1  0.37957491  0.13594827  0.37562860  1
  H  H137  1  0.87957491  0.63594827  0.12437140  1
  H  H138  1  0.62042509  0.86405173  0.62437140  1
  H  H139  1  0.12042509  0.36405173  0.87562860  1
  H  H140  1  0.19021004  0.07692827  0.39669465  1
  H  H141  1  0.69021004  0.57692827  0.10330535  1
  H  H142  1  0.80978996  0.92307173  0.60330535  1
  H  H143  1  0.30978996  0.42307173  0.89669465  1
  H  H144  1  0.17870537  0.94905435  0.48910175  1
  H  H145  1  0.67870537  0.44905435  0.01089825  1
  H  H146  1  0.82129463  0.05094565  0.51089825  1
  H  H147  1  0.32129463  0.55094565  0.98910175  1
  H  H148  1  0.36123187  0.95727144  0.51640155  1
  H  H149  1  0.86123187  0.45727144  0.98359845  1
  H  H150  1  0.63876813  0.04272856  0.48359845  1
  H  H151  1  0.13876813  0.54272856  0.01640155  1
  H  H152  1  0.23167645  0.77143630  0.44181816  1
  H  H153  1  0.73167645  0.27143630  0.05818184  1
  H  H154  1  0.76832355  0.22856370  0.55818184  1
  H  H155  1  0.26832355  0.72856370  0.94181816  1
  H  H156  1  0.42775953  0.83671565  0.44342107  1
  H  H157  1  0.92775953  0.33671565  0.05657893  1
  H  H158  1  0.57224047  0.16328435  0.55657893  1
  H  H159  1  0.07224047  0.66328435  0.94342107  1
  H  H160  1  0.41012884  0.92560747  0.35939699  1
  H  H161  1  0.91012884  0.42560747  0.14060301  1
  H  H162  1  0.58987116  0.07439253  0.64060301  1
  H  H163  1  0.08987116  0.57439253  0.85939699  1
  H  H164  1  0.21189207  0.87971840  0.36059204  1
  H  H165  1  0.71189207  0.37971840  0.13940796  1
  H  H166  1  0.78810793  0.12028160  0.63940796  1
  H  H167  1  0.28810793  0.62028160  0.86059204  1
  C  C168  1  0.81489148  0.49139616  0.30489041  1
  C  C169  1  0.31489148  0.99139616  0.19510959  1
  C  C170  1  0.18510852  0.50860384  0.69510959  1
  C  C171  1  0.68510852  0.00860384  0.80489041  1
  C  C172  1  0.72670468  0.36459329  0.31394010  1
  C  C173  1  0.22670468  0.86459329  0.18605990  1
  C  C174  1  0.27329532  0.63540671  0.68605990  1
  C  C175  1  0.77329532  0.13540671  0.81394010  1
  C  C176  1  0.58815462  0.34010373  0.27895113  1
  C  C177  1  0.08815462  0.84010373  0.22104887  1
  C  C178  1  0.41184538  0.65989627  0.72104887  1
  C  C179  1  0.91184538  0.15989627  0.77895113  1
  C  C180  1  0.57763205  0.47178717  0.25841621  1
  C  C181  1  0.07763205  0.97178717  0.24158379  1
  C  C182  1  0.42236795  0.52821283  0.74158379  1
  C  C183  1  0.92236795  0.02821283  0.75841621  1
  C  C184  1  0.73698110  0.55643382  0.26366462  1
  C  C185  1  0.23698110  0.05643382  0.23633538  1
  C  C186  1  0.26301890  0.44356618  0.73633538  1
  C  C187  1  0.76301890  0.94356618  0.76366462  1
  C  C188  1  0.72802800  0.61544648  0.43946686  1
  C  C189  1  0.22802800  0.11544648  0.06053314  1
  C  C190  1  0.27197200  0.38455352  0.56053314  1
  C  C191  1  0.77197200  0.88455352  0.93946686  1
  C  C192  1  0.70480859  0.49292869  0.46487826  1
  C  C193  1  0.20480859  0.99292869  0.03512174  1
  C  C194  1  0.29519141  0.50707131  0.53512174  1
  C  C195  1  0.79519141  0.00707131  0.96487826  1
  C  C196  1  0.57938260  0.40989367  0.43995664  1
  C  C197  1  0.07938260  0.90989367  0.06004336  1
  C  C198  1  0.42061740  0.59010633  0.56004336  1
  C  C199  1  0.92061740  0.09010633  0.93995664  1
  C  C200  1  0.53092969  0.47589826  0.39670871  1
  C  C201  1  0.03092969  0.97589826  0.10329129  1
  C  C202  1  0.46907031  0.52410174  0.60329129  1
  C  C203  1  0.96907031  0.02410174  0.89670871  1
  C  C204  1  0.61910701  0.60443364  0.39657442  1
  C  C205  1  0.11910701  0.10443364  0.10342558  1
  C  C206  1  0.38089299  0.39556636  0.60342558  1
  C  C207  1  0.88089299  0.89556636  0.89657442  1
  C  C208  1  0.61490846  0.71213269  0.36478519  1
  C  C209  1  0.11490846  0.21213269  0.13521481  1
  C  C210  1  0.38509154  0.28786731  0.63521481  1
  C  C211  1  0.88509154  0.78786731  0.86478519  1
  C  C212  1  0.71623695  0.82429886  0.37563214  1
  C  C213  1  0.21623695  0.32429886  0.12436786  1
  C  C214  1  0.28376305  0.17570114  0.62436786  1
  C  C215  1  0.78376305  0.67570114  0.87563214  1
  C  C216  1  0.82245225  0.83493749  0.41820080  1
  C  C217  1  0.32245225  0.33493749  0.08179920  1
  C  C218  1  0.17754775  0.16506251  0.58179920  1
  C  C219  1  0.67754775  0.66506251  0.91820080  1
  C  C220  1  0.82900051  0.73349812  0.45026486  1
  C  C221  1  0.32900051  0.23349812  0.04973514  1
  C  C222  1  0.17099949  0.26650188  0.54973514  1
  C  C223  1  0.67099949  0.76650188  0.95026486  1
  C  C224  1  0.30523495  0.06249871  0.39948804  1
  C  C225  1  0.80523495  0.56249871  0.10051196  1
  C  C226  1  0.69476505  0.93750129  0.60051196  1
  C  C227  1  0.19476505  0.43750129  0.89948804  1
  C  C228  1  0.29852004  0.95917205  0.47924565  1
  C  C229  1  0.79852004  0.45917205  0.02075435  1
  C  C230  1  0.70147996  0.04082795  0.52075435  1
  C  C231  1  0.20147996  0.54082795  0.97924565  1
  C  C232  1  0.31837654  0.85959188  0.43814830  1
  C  C233  1  0.81837654  0.35959188  0.06185170  1
  C  C234  1  0.68162346  0.14040812  0.56185170  1
  C  C235  1  0.18162346  0.64040812  0.93814830  1
  C  C236  1  0.31095494  0.92633197  0.38376693  1
  C  C237  1  0.81095494  0.42633197  0.11623307  1
  C  C238  1  0.68904506  0.07366803  0.61623307  1
  C  C239  1  0.18904506  0.57366803  0.88376693  1
  O  O240  1  0.35686035  0.07939349  0.45387065  1
  O  O241  1  0.85686035  0.57939349  0.04612935  1
  O  O242  1  0.64313965  0.92060651  0.54612935  1
  O  O243  1  0.14313965  0.42060651  0.95387065  1
