# generated using pymatgen
data_La(Ga5Mo)8
_symmetry_space_group_name_H-M   'P 1'
_cell_length_a   9.67622909
_cell_length_b   9.67622909
_cell_length_c   9.67622948
_cell_angle_alpha   94.29959699
_cell_angle_beta   94.29959699
_cell_angle_gamma   94.29959454
_symmetry_Int_Tables_number   1
_chemical_formula_structural   La(Ga5Mo)8
_chemical_formula_sum   'La1 Ga40 Mo8'
_cell_volume   897.92362132
_cell_formula_units_Z   1
loop_
 _symmetry_equiv_pos_site_id
 _symmetry_equiv_pos_as_xyz
  1  'x, y, z'
loop_
 _atom_site_type_symbol
 _atom_site_label
 _atom_site_symmetry_multiplicity
 _atom_site_fract_x
 _atom_site_fract_y
 _atom_site_fract_z
 _atom_site_occupancy
  La  La0  1  0.00000000  0.00000000  0.00000000  1
  Ga  Ga1  1  0.50000000  0.50000000  0.50000000  1
  Ga  Ga2  1  0.00000000  0.50000000  0.50000000  1
  Ga  Ga3  1  0.50000000  0.00000000  0.50000000  1
  Ga  Ga4  1  0.50000000  0.50000000  0.00000000  1
  Ga  Ga5  1  0.26894700  0.63732300  0.61132000  1
  Ga  Ga6  1  0.61132000  0.26894700  0.63732300  1
  Ga  Ga7  1  0.63732300  0.61132000  0.26894700  1
  Ga  Ga8  1  0.73105300  0.36267700  0.38868000  1
  Ga  Ga9  1  0.38868000  0.73105300  0.36267700  1
  Ga  Ga10  1  0.36267700  0.38868000  0.73105300  1
  Ga  Ga11  1  0.67421200  0.77699300  0.53230600  1
  Ga  Ga12  1  0.53230600  0.67421200  0.77699300  1
  Ga  Ga13  1  0.77699300  0.53230600  0.67421200  1
  Ga  Ga14  1  0.32578800  0.22300700  0.46769400  1
  Ga  Ga15  1  0.46769400  0.32578800  0.22300700  1
  Ga  Ga16  1  0.22300700  0.46769400  0.32578800  1
  Ga  Ga17  1  0.77859200  0.07316800  0.44357600  1
  Ga  Ga18  1  0.44357600  0.77859200  0.07316800  1
  Ga  Ga19  1  0.07316800  0.44357600  0.77859200  1
  Ga  Ga20  1  0.22140800  0.92683200  0.55642400  1
  Ga  Ga21  1  0.55642400  0.22140800  0.92683200  1
  Ga  Ga22  1  0.92683200  0.55642400  0.22140800  1
  Ga  Ga23  1  0.96615800  0.78620400  0.59692800  1
  Ga  Ga24  1  0.59692800  0.96615800  0.78620400  1
  Ga  Ga25  1  0.78620400  0.59692800  0.96615800  1
  Ga  Ga26  1  0.03384200  0.21379600  0.40307200  1
  Ga  Ga27  1  0.40307200  0.03384200  0.21379600  1
  Ga  Ga28  1  0.21379600  0.40307200  0.03384200  1
  Ga  Ga29  1  0.04334200  0.71177000  0.85877800  1
  Ga  Ga30  1  0.85877800  0.04334200  0.71177000  1
  Ga  Ga31  1  0.71177000  0.85877800  0.04334200  1
  Ga  Ga32  1  0.95665800  0.28823000  0.14122200  1
  Ga  Ga33  1  0.14122200  0.95665800  0.28823000  1
  Ga  Ga34  1  0.28823000  0.14122200  0.95665800  1
  Ga  Ga35  1  0.12191500  0.17230900  0.68741700  1
  Ga  Ga36  1  0.68741700  0.12191500  0.17230900  1
  Ga  Ga37  1  0.17230900  0.68741700  0.12191500  1
  Ga  Ga38  1  0.87808500  0.82769100  0.31258300  1
  Ga  Ga39  1  0.31258300  0.87808500  0.82769100  1
  Ga  Ga40  1  0.82769100  0.31258300  0.87808500  1
  Mo  Mo41  1  0.78941000  0.78941000  0.78941000  1
  Mo  Mo42  1  0.21059000  0.21059000  0.21059000  1
  Mo  Mo43  1  0.29133300  0.61044200  0.88641400  1
  Mo  Mo44  1  0.88641400  0.29133300  0.61044200  1
  Mo  Mo45  1  0.61044200  0.88641400  0.29133300  1
  Mo  Mo46  1  0.70866700  0.38955800  0.11358600  1
  Mo  Mo47  1  0.11358600  0.70866700  0.38955800  1
  Mo  Mo48  1  0.38955800  0.11358600  0.70866700  1
