# generated using pymatgen
data_Co2H26N12O13
_symmetry_space_group_name_H-M   'P 1'
_cell_length_a   7.87654000
_cell_length_b   24.04642800
_cell_length_c   13.71975188
_cell_angle_alpha   90.00000000
_cell_angle_beta   124.55550095
_cell_angle_gamma   90.00000000
_symmetry_Int_Tables_number   1
_chemical_formula_structural   Co2H26N12O13
_chemical_formula_sum   'Co8 H104 N48 O52'
_cell_volume   2140.11246126
_cell_formula_units_Z   4
loop_
 _symmetry_equiv_pos_site_id
 _symmetry_equiv_pos_as_xyz
  1  'x, y, z'
loop_
 _atom_site_type_symbol
 _atom_site_label
 _atom_site_symmetry_multiplicity
 _atom_site_fract_x
 _atom_site_fract_y
 _atom_site_fract_z
 _atom_site_occupancy
  Co  Co0  1  0.68287300  0.39582300  0.26277100  1
  Co  Co1  1  0.68287300  0.10417700  0.76277100  1
  Co  Co2  1  0.31712700  0.60417700  0.73722900  1
  Co  Co3  1  0.31712700  0.89582300  0.23722900  1
  Co  Co4  1  0.85264500  0.40411800  0.76753600  1
  Co  Co5  1  0.85264500  0.09588200  0.26753600  1
  Co  Co6  1  0.14735500  0.59588200  0.23246400  1
  Co  Co7  1  0.14735500  0.90411800  0.73246400  1
  H  H8  1  0.60948100  0.29124700  0.29792000  1
  H  H9  1  0.60948100  0.20875300  0.79792000  1
  H  H10  1  0.39051900  0.70875300  0.70208000  1
  H  H11  1  0.39051900  0.79124700  0.20208000  1
  H  H12  1  0.79746800  0.29285600  0.27752900  1
  H  H13  1  0.79746800  0.20714400  0.77752900  1
  H  H14  1  0.20253200  0.70714400  0.72247100  1
  H  H15  1  0.20253200  0.79285600  0.22247100  1
  H  H16  1  0.55087500  0.29582600  0.16384500  1
  H  H17  1  0.55087500  0.20417400  0.66384500  1
  H  H18  1  0.44912500  0.70417400  0.83615500  1
  H  H19  1  0.44912500  0.79582600  0.33615500  1
  H  H20  1  0.79964600  0.37824900  0.11450400  1
  H  H21  1  0.79964600  0.12175100  0.61450400  1
  H  H22  1  0.20035400  0.62175100  0.88549600  1
  H  H23  1  0.20035400  0.87824900  0.38549600  1
  H  H24  1  0.99610800  0.37149900  0.25300500  1
  H  H25  1  0.99610800  0.12850100  0.75300500  1
  H  H26  1  0.00389200  0.62850100  0.74699500  1
  H  H27  1  0.00389200  0.87149900  0.24699500  1
  H  H28  1  0.92417600  0.43444300  0.19508400  1
  H  H29  1  0.92417600  0.06555700  0.69508400  1
  H  H30  1  0.07582400  0.56555700  0.80491600  1
  H  H31  1  0.07582400  0.93444300  0.30491600  1
  H  H32  1  0.04888600  0.42702100  0.45325800  1
  H  H33  1  0.04888600  0.07297900  0.95325800  1
  H  H34  1  0.95111400  0.57297900  0.54674200  1
  H  H35  1  0.95111400  0.92702100  0.04674200  1
  H  H36  1  0.00232300  0.36211400  0.47144100  1
  H  H37  1  0.00232300  0.13788600  0.97144100  1
  H  H38  1  0.99767700  0.63788600  0.52855900  1
  H  H39  1  0.99767700  0.86211400  0.02855900  1
  H  H40  1  0.89453600  0.41358900  0.49682300  1
  H  H41  1  0.89453600  0.08641100  0.99682300  1
  H  H42  1  0.10546400  0.58641100  0.50317700  1
  H  H43  1  0.10546400  0.91358900  0.00317700  1
  H  H44  1  0.37407000  0.43443400  0.28552900  1
  H  H45  1  0.37407000  0.06556600  0.78552900  1
  H  H46  1  0.62593000  0.56556600  0.71447100  1
  H  H47  1  0.62593000  0.93443400  0.21447100  1
  H  H48  1  0.53202400  0.39560600  0.39920200  1
  H  H49  1  0.53202400  0.10439400  0.89920200  1
  H  H50  1  0.46797600  0.60439400  0.60079800  1
  H  H51  1  0.46797600  0.89560600  0.10079800  1
  H  H52  1  0.36474400  0.36617400  0.27195200  1
  H  H53  1  0.36474400  0.13382600  0.77195200  1
  H  H54  1  0.63525600  0.63382600  0.72804800  1
  H  H55  1  0.63525600  0.86617400  0.22804800  1
  H  H56  1  0.44738800  0.42280500  0.61793400  1
  H  H57  1  0.44738800  0.07719500  0.11793400  1
  H  H58  1  0.55261200  0.57719500  0.38206600  1
  H  H59  1  0.55261200  0.92280500  0.88206600  1
  H  H60  1  0.50476700  0.43548100  0.75057300  1
  H  H61  1  0.50476700  0.06451900  0.25057300  1
  H  H62  1  0.49523300  0.56451900  0.24942700  1
  H  H63  1  0.49523300  0.93548100  0.74942700  1
  H  H64  1  0.47012400  0.37088400  0.70245600  1
  H  H65  1  0.47012400  0.12911600  0.20245600  1
  H  H66  1  0.52987600  0.62911600  0.29754400  1
  H  H67  1  0.52987600  0.87088400  0.79754400  1
  H  H68  1  0.17583100  0.37174300  0.76459900  1
  H  H69  1  0.17583100  0.12825700  0.26459900  1
  H  H70  1  0.82416900  0.62825700  0.23540100  1
  H  H71  1  0.82416900  0.87174300  0.73540100  1
  H  H72  1  0.26439200  0.39590700  0.89736300  1
  H  H73  1  0.26439200  0.10409300  0.39736300  1
  H  H74  1  0.73560800  0.60409300  0.10263700  1
  H  H75  1  0.73560800  0.89590700  0.60263700  1
  H  H76  1  0.20703100  0.43936700  0.79129700  1
  H  H77  1  0.20703100  0.06063300  0.29129700  1
  H  H78  1  0.79296900  0.56063300  0.20870300  1
  H  H79  1  0.79296900  0.93936700  0.70870300  1
  H  H80  1  0.10588200  0.41137600  0.00335900  1
  H  H81  1  0.10588200  0.08862400  0.50335900  1
  H  H82  1  0.89411800  0.58862400  0.99664100  1
  H  H83  1  0.89411800  0.91137600  0.49664100  1
  H  H84  1  0.89846600  0.37431500  0.96739400  1
  H  H85  1  0.89846600  0.12568500  0.46739400  1
  H  H86  1  0.10153400  0.62568500  0.03260600  1
  H  H87  1  0.10153400  0.87431500  0.53260600  1
  H  H88  1  0.88707700  0.44243800  0.96167700  1
  H  H89  1  0.88707700  0.05756200  0.46167700  1
  H  H90  1  0.11292300  0.55756200  0.03832300  1
  H  H91  1  0.11292300  0.94243800  0.53832300  1
  H  H92  1  0.77331200  0.30294800  0.67082400  1
  H  H93  1  0.77331200  0.19705200  0.17082400  1
  H  H94  1  0.22668800  0.69705200  0.32917600  1
  H  H95  1  0.22668800  0.80294800  0.82917600  1
  H  H96  1  0.74942400  0.30270600  0.78268800  1
  H  H97  1  0.74942400  0.19729400  0.28268800  1
  H  H98  1  0.25057600  0.69729400  0.21731200  1
  H  H99  1  0.25057600  0.80270600  0.71731200  1
  H  H100  1  0.98180500  0.29798100  0.80900200  1
  H  H101  1  0.98180500  0.20201900  0.30900200  1
  H  H102  1  0.01819500  0.70201900  0.19099800  1
  H  H103  1  0.01819500  0.79798100  0.69099800  1
  H  H104  1  0.80956500  0.28355700  0.01253200  1
  H  H105  1  0.80956500  0.21644300  0.51253200  1
  H  H106  1  0.19043500  0.71644300  0.98746800  1
  H  H107  1  0.19043500  0.78355700  0.48746800  1
  H  H108  1  0.57814000  0.30199000  0.94380600  1
  H  H109  1  0.57814000  0.19801000  0.44380600  1
  H  H110  1  0.42186000  0.69801000  0.05619400  1
  H  H111  1  0.42186000  0.80199000  0.55619400  1
  N  N112  1  0.65569400  0.30893300  0.24883200  1
  N  N113  1  0.65569400  0.19106700  0.74883200  1
  N  N114  1  0.34430600  0.69106700  0.75116800  1
  N  N115  1  0.34430600  0.80893300  0.25116800  1
  N  N116  1  0.87022000  0.39603900  0.19706300  1
  N  N117  1  0.87022000  0.10396100  0.69706300  1
  N  N118  1  0.12978000  0.60396100  0.80293700  1
  N  N119  1  0.12978000  0.89603900  0.30293700  1
  N  N120  1  0.93698400  0.40075500  0.44236800  1
  N  N121  1  0.93698400  0.09924500  0.94236800  1
  N  N122  1  0.06301600  0.59924500  0.55763200  1
  N  N123  1  0.06301600  0.90075500  0.05763200  1
  N  N124  1  0.46315700  0.39935400  0.30991500  1
  N  N125  1  0.46315700  0.10064600  0.80991500  1
  N  N126  1  0.53684300  0.60064600  0.69008500  1
  N  N127  1  0.53684300  0.89935400  0.19008500  1
  N  N128  1  0.53237600  0.40852800  0.70316200  1
  N  N129  1  0.53237600  0.09147200  0.20316200  1
  N  N130  1  0.46762400  0.59147200  0.29683800  1
  N  N131  1  0.46762400  0.90852800  0.79683800  1
  N  N132  1  0.15973000  0.40334800  0.80898200  1
  N  N133  1  0.15973000  0.09665200  0.30898200  1
  N  N134  1  0.84027000  0.59665200  0.19101800  1
  N  N135  1  0.84027000  0.90334800  0.69101800  1
  N  N136  1  0.94874900  0.40884900  0.94635100  1
  N  N137  1  0.94874900  0.09115100  0.44635100  1
  N  N138  1  0.05125100  0.59115100  0.05364900  1
  N  N139  1  0.05125100  0.90884900  0.55364900  1
  N  N140  1  0.83939200  0.31663700  0.75584600  1
  N  N141  1  0.83939200  0.18336300  0.25584600  1
  N  N142  1  0.16060800  0.68336300  0.24415400  1
  N  N143  1  0.16060800  0.81663700  0.74415400  1
  N  N144  1  0.45444100  0.47717700  0.10788800  1
  N  N145  1  0.45444100  0.02282300  0.60788800  1
  N  N146  1  0.54555900  0.52282300  0.89211200  1
  N  N147  1  0.54555900  0.97717700  0.39211200  1
  N  N148  1  0.77376100  0.48398700  0.61318100  1
  N  N149  1  0.77376100  0.01601300  0.11318100  1
  N  N150  1  0.22623900  0.51601300  0.38681900  1
  N  N151  1  0.22623900  0.98398700  0.88681900  1
  N  N152  1  0.29915400  0.27552200  0.42250200  1
  N  N153  1  0.29915400  0.22447800  0.92250200  1
  N  N154  1  0.70084600  0.72447800  0.57749800  1
  N  N155  1  0.70084600  0.77552200  0.07749800  1
  N  N156  1  0.16506600  0.23940700  0.13459300  1
  N  N157  1  0.16506600  0.26059300  0.63459300  1
  N  N158  1  0.83493400  0.76059300  0.86540700  1
  N  N159  1  0.83493400  0.73940700  0.36540700  1
  O  O160  1  0.61481100  0.49008100  0.20983300  1
  O  O161  1  0.61481100  0.00991900  0.70983300  1
  O  O162  1  0.38518900  0.50991900  0.79016700  1
  O  O163  1  0.38518900  0.99008100  0.29016700  1
  O  O164  1  0.41586800  0.42492300  0.08643900  1
  O  O165  1  0.41586800  0.07507700  0.58643900  1
  O  O166  1  0.58413200  0.57507700  0.91356100  1
  O  O167  1  0.58413200  0.92492300  0.41356100  1
  O  O168  1  0.34020700  0.51301200  0.03421500  1
  O  O169  1  0.34020700  0.98698800  0.53421500  1
  O  O170  1  0.65979300  0.48698800  0.96578500  1
  O  O171  1  0.65979300  0.01301200  0.46578500  1
  O  O172  1  0.83333800  0.49571900  0.71943400  1
  O  O173  1  0.83333800  0.00428100  0.21943400  1
  O  O174  1  0.16666200  0.50428100  0.28056600  1
  O  O175  1  0.16666200  0.99571900  0.78056600  1
  O  O176  1  0.75196700  0.43217900  0.58615600  1
  O  O177  1  0.75196700  0.06782100  0.08615600  1
  O  O178  1  0.24803300  0.56782100  0.41384400  1
  O  O179  1  0.24803300  0.93217900  0.91384400  1
  O  O180  1  0.73991000  0.52067500  0.54031100  1
  O  O181  1  0.73991000  0.97932500  0.04031100  1
  O  O182  1  0.26009000  0.47932500  0.45968900  1
  O  O183  1  0.26009000  0.02067500  0.95968900  1
  O  O184  1  0.12956800  0.30193800  0.37408900  1
  O  O185  1  0.12956800  0.19806200  0.87408900  1
  O  O186  1  0.87043200  0.69806200  0.62591100  1
  O  O187  1  0.87043200  0.80193800  0.12591100  1
  O  O188  1  0.46797000  0.30133900  0.47298900  1
  O  O189  1  0.46797000  0.19866100  0.97298900  1
  O  O190  1  0.53203000  0.69866100  0.52701100  1
  O  O191  1  0.53203000  0.80133900  0.02701100  1
  O  O192  1  0.29668100  0.22234900  0.41929600  1
  O  O193  1  0.29668100  0.27765100  0.91929600  1
  O  O194  1  0.70331900  0.77765100  0.58070400  1
  O  O195  1  0.70331900  0.72234900  0.08070400  1
  O  O196  1  0.19886600  0.29119400  0.14499900  1
  O  O197  1  0.19886600  0.20880600  0.64499900  1
  O  O198  1  0.80113400  0.70880600  0.85500100  1
  O  O199  1  0.80113400  0.79119400  0.35500100  1
  O  O200  1  0.97929300  0.22143400  0.07307800  1
  O  O201  1  0.97929300  0.27856600  0.57307800  1
  O  O202  1  0.02070700  0.77856600  0.92692200  1
  O  O203  1  0.02070700  0.72143400  0.42692200  1
  O  O204  1  0.31325400  0.20498000  0.18452100  1
  O  O205  1  0.31325400  0.29502000  0.68452100  1
  O  O206  1  0.68674600  0.79502000  0.81547900  1
  O  O207  1  0.68674600  0.70498000  0.31547900  1
  O  O208  1  0.71674000  0.31606300  0.97394000  1
  O  O209  1  0.71674000  0.18393700  0.47394000  1
  O  O210  1  0.28326000  0.68393700  0.02606000  1
  O  O211  1  0.28326000  0.81606300  0.52606000  1
