# generated using pymatgen
data_UN2O11
_symmetry_space_group_name_H-M   'P 1'
_cell_length_a   8.89791800
_cell_length_b   7.27165000
_cell_length_c   14.61682787
_cell_angle_alpha   85.72619574
_cell_angle_beta   90.00000000
_cell_angle_gamma   90.00000000
_symmetry_Int_Tables_number   1
_chemical_formula_structural   UN2O11
_chemical_formula_sum   'U4 N8 O44'
_cell_volume   943.11614268
_cell_formula_units_Z   4
loop_
 _symmetry_equiv_pos_site_id
 _symmetry_equiv_pos_as_xyz
  1  'x, y, z'
loop_
 _atom_site_type_symbol
 _atom_site_label
 _atom_site_symmetry_multiplicity
 _atom_site_fract_x
 _atom_site_fract_y
 _atom_site_fract_z
 _atom_site_occupancy
  U  U0  1  0.72204000  0.90001600  0.87208700  1
  U  U1  1  0.22204000  0.09998400  0.62791300  1
  U  U2  1  0.27796000  0.09998400  0.12791300  1
  U  U3  1  0.77796000  0.90001600  0.37208700  1
  N  N4  1  0.57724400  0.53876400  0.83674500  1
  N  N5  1  0.07724400  0.46123600  0.66325500  1
  N  N6  1  0.42275600  0.46123600  0.16325500  1
  N  N7  1  0.92275600  0.53876400  0.33674500  1
  N  N8  1  0.75010700  0.17516100  0.71137500  1
  N  N9  1  0.25010700  0.82483900  0.78862500  1
  N  N10  1  0.24989300  0.82483900  0.28862500  1
  N  N11  1  0.74989300  0.17516100  0.21137500  1
  O  O12  1  0.52753800  0.96625700  0.89016800  1
  O  O13  1  0.02753800  0.03374300  0.60983200  1
  O  O14  1  0.47246200  0.03374300  0.10983200  1
  O  O15  1  0.97246200  0.96625700  0.39016800  1
  O  O16  1  0.90416700  0.79555900  0.85267100  1
  O  O17  1  0.40416700  0.20444100  0.64732900  1
  O  O18  1  0.09583300  0.20444100  0.14732900  1
  O  O19  1  0.59583300  0.79555900  0.35267100  1
  O  O20  1  0.79333800  0.20964700  0.79240900  1
  O  O21  1  0.29333800  0.79035300  0.70759100  1
  O  O22  1  0.20666200  0.79035300  0.20759100  1
  O  O23  1  0.70666200  0.20964700  0.29240900  1
  O  O24  1  0.61175900  0.67408000  0.77660600  1
  O  O25  1  0.11175900  0.32592000  0.72339400  1
  O  O26  1  0.38824100  0.32592000  0.22339400  1
  O  O27  1  0.88824100  0.67408000  0.27660600  1
  O  O28  1  0.69922000  0.01085000  0.70563000  1
  O  O29  1  0.19922000  0.98915000  0.79437000  1
  O  O30  1  0.30078000  0.98915000  0.29437000  1
  O  O31  1  0.80078000  0.01085000  0.20563000  1
  O  O32  1  0.62061500  0.55880600  0.91811300  1
  O  O33  1  0.12061500  0.44119400  0.58188700  1
  O  O34  1  0.37938500  0.44119400  0.08188700  1
  O  O35  1  0.87938500  0.55880600  0.41811300  1
  O  O36  1  0.50736200  0.40594400  0.81244500  1
  O  O37  1  0.00736200  0.59405600  0.68755500  1
  O  O38  1  0.49263800  0.59405600  0.18755500  1
  O  O39  1  0.99263800  0.40594400  0.31244500  1
  O  O40  1  0.75683400  0.28828800  0.64543200  1
  O  O41  1  0.25683400  0.71171200  0.85456800  1
  O  O42  1  0.24316600  0.71171200  0.35456800  1
  O  O43  1  0.74316600  0.28828800  0.14543200  1
  O  O44  1  0.78835500  0.69535100  0.06554400  1
  O  O45  1  0.28835500  0.30464900  0.43445600  1
  O  O46  1  0.21164500  0.30464900  0.93445600  1
  O  O47  1  0.71164500  0.69535100  0.56554400  1
  O  O48  1  0.80246600  0.03471300  0.96832300  1
  O  O49  1  0.30246600  0.96528700  0.53167700  1
  O  O50  1  0.19753400  0.96528700  0.03167700  1
  O  O51  1  0.69753400  0.03471300  0.46832300  1
  O  O52  1  0.57818400  0.65824100  0.57452200  1
  O  O53  1  0.07818400  0.34175900  0.92547800  1
  O  O54  1  0.42181600  0.34175900  0.42547800  1
  O  O55  1  0.92181600  0.65824100  0.07452200  1
