# generated using pymatgen
data_CeH12N5F4
_symmetry_space_group_name_H-M   'P 1'
_cell_length_a   9.50462600
_cell_length_b   9.50462600
_cell_length_c   11.26895700
_cell_angle_alpha   90.00000000
_cell_angle_beta   90.00000000
_cell_angle_gamma   90.00000000
_symmetry_Int_Tables_number   1
_chemical_formula_structural   CeH12N5F4
_chemical_formula_sum   'Ce4 H48 N20 F16'
_cell_volume   1018.01408411
_cell_formula_units_Z   4
loop_
 _symmetry_equiv_pos_site_id
 _symmetry_equiv_pos_as_xyz
  1  'x, y, z'
loop_
 _atom_site_type_symbol
 _atom_site_label
 _atom_site_symmetry_multiplicity
 _atom_site_fract_x
 _atom_site_fract_y
 _atom_site_fract_z
 _atom_site_occupancy
  Ce  Ce0  1  0.75000000  0.25000000  0.25000000  1
  Ce  Ce1  1  0.75000000  0.25000000  0.75000000  1
  Ce  Ce2  1  0.25000000  0.75000000  0.75000000  1
  Ce  Ce3  1  0.25000000  0.75000000  0.25000000  1
  H  H4  1  0.53695000  0.17647400  0.45042500  1
  H  H5  1  0.96305000  0.17647400  0.95042500  1
  H  H6  1  0.53695000  0.32352600  0.95042500  1
  H  H7  1  0.96305000  0.32352600  0.45042500  1
  H  H8  1  0.17647400  0.53695000  0.95042500  1
  H  H9  1  0.32352600  0.53695000  0.45042500  1
  H  H10  1  0.17647400  0.96305000  0.45042500  1
  H  H11  1  0.32352600  0.96305000  0.95042500  1
  H  H12  1  0.46305000  0.82352600  0.54957500  1
  H  H13  1  0.03695000  0.82352600  0.04957500  1
  H  H14  1  0.46305000  0.67647400  0.04957500  1
  H  H15  1  0.03695000  0.67647400  0.54957500  1
  H  H16  1  0.82352600  0.46305000  0.04957500  1
  H  H17  1  0.67647400  0.46305000  0.54957500  1
  H  H18  1  0.82352600  0.03695000  0.54957500  1
  H  H19  1  0.67647400  0.03695000  0.04957500  1
  H  H20  1  0.50109100  0.04545400  0.35777000  1
  H  H21  1  0.99890900  0.04545400  0.85777000  1
  H  H22  1  0.50109100  0.45454600  0.85777000  1
  H  H23  1  0.99890900  0.45454600  0.35777000  1
  H  H24  1  0.04545400  0.50109100  0.85777000  1
  H  H25  1  0.45454600  0.50109100  0.35777000  1
  H  H26  1  0.04545400  0.99890900  0.35777000  1
  H  H27  1  0.45454600  0.99890900  0.85777000  1
  H  H28  1  0.49890900  0.95454600  0.64223000  1
  H  H29  1  0.00109100  0.95454600  0.14223000  1
  H  H30  1  0.49890900  0.54545400  0.14223000  1
  H  H31  1  0.00109100  0.54545400  0.64223000  1
  H  H32  1  0.95454600  0.49890900  0.14223000  1
  H  H33  1  0.54545400  0.49890900  0.64223000  1
  H  H34  1  0.95454600  0.00109100  0.64223000  1
  H  H35  1  0.54545400  0.00109100  0.14223000  1
  H  H36  1  0.44368200  0.20685600  0.32870800  1
  H  H37  1  0.05631800  0.20685600  0.82870800  1
  H  H38  1  0.44368200  0.29314400  0.82870800  1
  H  H39  1  0.05631800  0.29314400  0.32870800  1
  H  H40  1  0.20685600  0.44368200  0.82870800  1
  H  H41  1  0.29314400  0.44368200  0.32870800  1
  H  H42  1  0.20685600  0.05631800  0.32870800  1
  H  H43  1  0.29314400  0.05631800  0.82870800  1
  H  H44  1  0.55631800  0.79314400  0.67129200  1
  H  H45  1  0.94368200  0.79314400  0.17129200  1
  H  H46  1  0.55631800  0.70685600  0.17129200  1
  H  H47  1  0.94368200  0.70685600  0.67129200  1
  H  H48  1  0.79314400  0.55631800  0.17129200  1
  H  H49  1  0.70685600  0.55631800  0.67129200  1
  H  H50  1  0.79314400  0.94368200  0.67129200  1
  H  H51  1  0.70685600  0.94368200  0.17129200  1
  N  N52  1  0.52573400  0.15032500  0.36236100  1
  N  N53  1  0.97426600  0.15032500  0.86236100  1
  N  N54  1  0.52573400  0.34967500  0.86236100  1
  N  N55  1  0.97426600  0.34967500  0.36236100  1
  N  N56  1  0.15032500  0.52573400  0.86236100  1
  N  N57  1  0.34967500  0.52573400  0.36236100  1
  N  N58  1  0.15032500  0.97426600  0.36236100  1
  N  N59  1  0.34967500  0.97426600  0.86236100  1
  N  N60  1  0.47426600  0.84967500  0.63763900  1
  N  N61  1  0.02573400  0.84967500  0.13763900  1
  N  N62  1  0.47426600  0.65032500  0.13763900  1
  N  N63  1  0.02573400  0.65032500  0.63763900  1
  N  N64  1  0.84967500  0.47426600  0.13763900  1
  N  N65  1  0.65032500  0.47426600  0.63763900  1
  N  N66  1  0.84967500  0.02573400  0.63763900  1
  N  N67  1  0.65032500  0.02573400  0.13763900  1
  N  N68  1  0.75000000  0.75000000  0.32603500  1
  N  N69  1  0.75000000  0.75000000  0.82603500  1
  N  N70  1  0.25000000  0.25000000  0.67396500  1
  N  N71  1  0.25000000  0.25000000  0.17396500  1
  F  F72  1  0.67006100  0.41267100  0.36909100  1
  F  F73  1  0.82993900  0.41267100  0.86909100  1
  F  F74  1  0.67006100  0.08732900  0.86909100  1
  F  F75  1  0.82993900  0.08732900  0.36909100  1
  F  F76  1  0.41267100  0.67006100  0.86909100  1
  F  F77  1  0.08732900  0.67006100  0.36909100  1
  F  F78  1  0.41267100  0.82993900  0.36909100  1
  F  F79  1  0.08732900  0.82993900  0.86909100  1
  F  F80  1  0.32993900  0.58732900  0.63090900  1
  F  F81  1  0.17006100  0.58732900  0.13090900  1
  F  F82  1  0.32993900  0.91267100  0.13090900  1
  F  F83  1  0.17006100  0.91267100  0.63090900  1
  F  F84  1  0.58732900  0.32993900  0.13090900  1
  F  F85  1  0.91267100  0.32993900  0.63090900  1
  F  F86  1  0.58732900  0.17006100  0.63090900  1
  F  F87  1  0.91267100  0.17006100  0.13090900  1
