# generated using pymatgen
data_UCr4(H3O4)6
_symmetry_space_group_name_H-M   'P 1'
_cell_length_a   9.03654523
_cell_length_b   9.03654523
_cell_length_c   13.40979068
_cell_angle_alpha   80.09262857
_cell_angle_beta   80.09262857
_cell_angle_gamma   78.50595550
_symmetry_Int_Tables_number   1
_chemical_formula_structural   UCr4(H3O4)6
_chemical_formula_sum   'U2 Cr8 H36 O48'
_cell_volume   1046.24827373
_cell_formula_units_Z   2
loop_
 _symmetry_equiv_pos_site_id
 _symmetry_equiv_pos_as_xyz
  1  'x, y, z'
loop_
 _atom_site_type_symbol
 _atom_site_label
 _atom_site_symmetry_multiplicity
 _atom_site_fract_x
 _atom_site_fract_y
 _atom_site_fract_z
 _atom_site_occupancy
  U  U0  1  0.62599000  0.37401000  0.25000000  1
  U  U1  1  0.37401000  0.62599000  0.75000000  1
  Cr  Cr2  1  0.24101200  0.54631600  0.38814400  1
  Cr  Cr3  1  0.45368400  0.75898800  0.11185600  1
  Cr  Cr4  1  0.75898800  0.45368400  0.61185600  1
  Cr  Cr5  1  0.54631600  0.24101200  0.88814400  1
  Cr  Cr6  1  0.78228700  0.99335700  0.41062700  1
  Cr  Cr7  1  0.00664300  0.21771300  0.08937300  1
  Cr  Cr8  1  0.21771300  0.00664300  0.58937300  1
  Cr  Cr9  1  0.99335700  0.78228700  0.91062700  1
  H  H10  1  0.36559900  0.95805500  0.24451700  1
  H  H11  1  0.04194500  0.63440100  0.25548300  1
  H  H12  1  0.63440100  0.04194500  0.75548300  1
  H  H13  1  0.95805500  0.36559900  0.74451700  1
  H  H14  1  0.27879300  0.04217700  0.35075900  1
  H  H15  1  0.95782300  0.72120700  0.14924100  1
  H  H16  1  0.72120700  0.95782300  0.64924100  1
  H  H17  1  0.04217700  0.27879300  0.85075900  1
  H  H18  1  0.22248100  0.12215300  0.23645900  1
  H  H19  1  0.87784700  0.77751900  0.26354100  1
  H  H20  1  0.77751900  0.87784700  0.76354100  1
  H  H21  1  0.12215300  0.22248100  0.73645900  1
  H  H22  1  0.91268800  0.39755800  0.44267800  1
  H  H23  1  0.60244200  0.08731200  0.05732200  1
  H  H24  1  0.08731200  0.60244200  0.55732200  1
  H  H25  1  0.39755800  0.91268800  0.94267800  1
  H  H26  1  0.89121000  0.25570100  0.38378900  1
  H  H27  1  0.74429900  0.10879000  0.11621100  1
  H  H28  1  0.10879000  0.74429900  0.61621100  1
  H  H29  1  0.25570100  0.89121000  0.88378900  1
  H  H30  1  0.03751600  0.35384600  0.34437300  1
  H  H31  1  0.64615400  0.96248400  0.15562700  1
  H  H32  1  0.96248400  0.64615400  0.65562700  1
  H  H33  1  0.35384600  0.03751600  0.84437300  1
  H  H34  1  0.34449100  0.49116200  0.11138000  1
  H  H35  1  0.50883800  0.65550900  0.38862000  1
  H  H36  1  0.65550900  0.50883800  0.88862000  1
  H  H37  1  0.49116200  0.34449100  0.61138000  1
  H  H38  1  0.18327900  0.35524400  0.13632300  1
  H  H39  1  0.64475600  0.81672100  0.36367700  1
  H  H40  1  0.81672100  0.64475600  0.86367700  1
  H  H41  1  0.35524400  0.18327900  0.63632300  1
  H  H42  1  0.33858100  0.39541500  0.02660400  1
  H  H43  1  0.60458500  0.66141900  0.47339600  1
  H  H44  1  0.66141900  0.60458500  0.97339600  1
  H  H45  1  0.39541500  0.33858100  0.52660400  1
  O  O46  1  0.50329900  0.24759300  0.23116700  1
  O  O47  1  0.75240700  0.49670100  0.26883300  1
  O  O48  1  0.49670100  0.75240700  0.76883300  1
  O  O49  1  0.24759300  0.50329900  0.73116700  1
  O  O50  1  0.43635600  0.48150200  0.36538300  1
  O  O51  1  0.51849800  0.56364400  0.13461700  1
  O  O52  1  0.56364400  0.51849800  0.63461700  1
  O  O53  1  0.48150200  0.43635600  0.86538300  1
  O  O54  1  0.17389200  0.47427500  0.50618700  1
  O  O55  1  0.52572500  0.82610800  0.99381300  1
  O  O56  1  0.82610800  0.52572500  0.49381300  1
  O  O57  1  0.47427500  0.17389200  0.00618700  1
  O  O58  1  0.21444500  0.72700600  0.38382800  1
  O  O59  1  0.27299400  0.78555500  0.11617200  1
  O  O60  1  0.78555500  0.27299400  0.61617200  1
  O  O61  1  0.72700600  0.21444500  0.88382800  1
  O  O62  1  0.14226200  0.50493200  0.30308600  1
  O  O63  1  0.49506800  0.85773800  0.19691400  1
  O  O64  1  0.85773800  0.49506800  0.69691400  1
  O  O65  1  0.50493200  0.14226200  0.80308600  1
  O  O66  1  0.74315200  0.18790300  0.36840100  1
  O  O67  1  0.81209700  0.25684800  0.13159900  1
  O  O68  1  0.25684800  0.81209700  0.63159900  1
  O  O69  1  0.18790300  0.74315200  0.86840100  1
  O  O70  1  0.96235400  0.95218600  0.40661000  1
  O  O71  1  0.04781400  0.03764600  0.09339000  1
  O  O72  1  0.03764600  0.04781400  0.59339000  1
  O  O73  1  0.95218600  0.96235400  0.90661000  1
  O  O74  1  0.73344600  0.88234900  0.32832100  1
  O  O75  1  0.11765100  0.26655400  0.17167900  1
  O  O76  1  0.26655400  0.11765100  0.67167900  1
  O  O77  1  0.88234900  0.73344600  0.82832100  1
  O  O78  1  0.69982700  0.95031800  0.52694100  1
  O  O79  1  0.04968200  0.30017300  0.97305900  1
  O  O80  1  0.30017300  0.04968200  0.47305900  1
  O  O81  1  0.95031800  0.69982700  0.02694100  1
  O  O82  1  0.26739200  0.02597200  0.28027900  1
  O  O83  1  0.97402800  0.73260800  0.21972100  1
  O  O84  1  0.73260800  0.97402800  0.71972100  1
  O  O85  1  0.02597200  0.26739200  0.78027900  1
  O  O86  1  0.97194000  0.30480500  0.40421600  1
  O  O87  1  0.69519500  0.02806000  0.09578400  1
  O  O88  1  0.02806000  0.69519500  0.59578400  1
  O  O89  1  0.30480500  0.97194000  0.90421600  1
  O  O90  1  0.27279400  0.45639200  0.07637200  1
  O  O91  1  0.54360800  0.72720600  0.42362800  1
  O  O92  1  0.72720600  0.54360800  0.92362800  1
  O  O93  1  0.45639200  0.27279400  0.57637200  1
