# generated using pymatgen
data_CoBP(HO3)2
_symmetry_space_group_name_H-M   'P 1'
_cell_length_a   7.96601804
_cell_length_b   7.96601804
_cell_length_c   12.68726400
_cell_angle_alpha   90.00000000
_cell_angle_beta   90.00000000
_cell_angle_gamma   120.00000032
_symmetry_Int_Tables_number   1
_chemical_formula_structural   CoBP(HO3)2
_chemical_formula_sum   'Co6 B6 P6 H12 O36'
_cell_volume   697.23820831
_cell_formula_units_Z   6
loop_
 _symmetry_equiv_pos_site_id
 _symmetry_equiv_pos_as_xyz
  1  'x, y, z'
loop_
 _atom_site_type_symbol
 _atom_site_label
 _atom_site_symmetry_multiplicity
 _atom_site_fract_x
 _atom_site_fract_y
 _atom_site_fract_z
 _atom_site_occupancy
  Co  Co0  1  0.97829900  0.14680200  0.34120700  1
  Co  Co1  1  0.85319800  0.83149700  0.67454100  1
  Co  Co2  1  0.16850300  0.02170100  0.00787400  1
  Co  Co3  1  0.84785600  0.76284700  0.17427400  1
  Co  Co4  1  0.23715300  0.08500900  0.50760800  1
  Co  Co5  1  0.91499100  0.15214400  0.84094100  1
  B  B6  1  0.52676600  0.74461900  0.53483800  1
  B  B7  1  0.25538100  0.78214700  0.86817200  1
  B  B8  1  0.21785300  0.47323400  0.20150500  1
  B  B9  1  0.58336100  0.27426800  0.13231200  1
  B  B10  1  0.72573200  0.30909200  0.46564600  1
  B  B11  1  0.69090800  0.41663900  0.79897900  1
  P  P12  1  0.78389100  0.68688100  0.43055000  1
  P  P13  1  0.31311900  0.09701100  0.76388400  1
  P  P14  1  0.90298900  0.21610900  0.09721700  1
  P  P15  1  0.27945400  0.98728000  0.25850000  1
  P  P16  1  0.01272000  0.29217500  0.59183400  1
  P  P17  1  0.70782500  0.72054600  0.92516700  1
  H  H18  1  0.70904800  0.44387900  0.26375700  1
  H  H19  1  0.55612100  0.26516900  0.59709100  1
  H  H20  1  0.73483100  0.29095200  0.93042400  1
  H  H21  1  0.30907400  0.78764400  0.37111700  1
  H  H22  1  0.21235600  0.52143000  0.70445100  1
  H  H23  1  0.47857000  0.69092600  0.03778400  1
  H  H24  1  0.49210400  0.63048700  0.21789000  1
  H  H25  1  0.36951300  0.86161700  0.55122400  1
  H  H26  1  0.13838300  0.50789600  0.88455700  1
  H  H27  1  0.64652500  0.14157300  0.33235700  1
  H  H28  1  0.85842700  0.50495200  0.66569100  1
  H  H29  1  0.49504800  0.35347500  0.99902400  1
  O  O30  1  0.69349900  0.46380100  0.18800600  1
  O  O31  1  0.53619900  0.22969700  0.52134000  1
  O  O32  1  0.77030300  0.30650100  0.85467300  1
  O  O33  1  0.39235000  0.79358000  0.49376900  1
  O  O34  1  0.20642000  0.59877000  0.82710300  1
  O  O35  1  0.40123000  0.60765000  0.16043600  1
  O  O36  1  0.19232200  0.39351800  0.29538200  1
  O  O37  1  0.60648200  0.79880400  0.62871600  1
  O  O38  1  0.20119600  0.80767800  0.96204900  1
  O  O39  1  0.73592700  0.17293700  0.39226500  1
  O  O40  1  0.82706300  0.56299000  0.72559900  1
  O  O41  1  0.43701000  0.26407300  0.05893200  1
  O  O42  1  0.83527500  0.80930100  0.32869300  1
  O  O43  1  0.19069900  0.02597400  0.66202700  1
  O  O44  1  0.97402600  0.16472500  0.99536000  1
  O  O45  1  0.23573700  0.08116100  0.35135200  1
  O  O46  1  0.91883900  0.15457600  0.68468600  1
  O  O47  1  0.84542400  0.76426300  0.01801900  1
  O  O48  1  0.57285600  0.63754100  0.46153300  1
  O  O49  1  0.36245900  0.93531500  0.79486700  1
  O  O50  1  0.06468500  0.42714400  0.12820000  1
  O  O51  1  0.49194600  0.12151500  0.21629200  1
  O  O52  1  0.87848500  0.37043100  0.54962600  1
  O  O53  1  0.62956900  0.50805400  0.88295900  1
  O  O54  1  0.76609800  0.48659000  0.40118300  1
  O  O55  1  0.51341000  0.27950900  0.73451700  1
  O  O56  1  0.72049100  0.23390200  0.06785000  1
  O  O57  1  0.26730400  0.79418600  0.29685800  1
  O  O58  1  0.20581400  0.47311800  0.63019200  1
  O  O59  1  0.52688200  0.73269600  0.96352500  1
  O  O60  1  0.93262100  0.79246500  0.51783700  1
  O  O61  1  0.20753500  0.14015700  0.85117100  1
  O  O62  1  0.85984300  0.06737900  0.18450400  1
  O  O63  1  0.13835600  0.93940900  0.16665600  1
  O  O64  1  0.06059100  0.19894700  0.49999000  1
  O  O65  1  0.80105300  0.86164400  0.83332300  1
