# generated using pymatgen
data_Ba3Ge9O22
_symmetry_space_group_name_H-M   'P 1'
_cell_length_a   4.79990400
_cell_length_b   13.48833200
_cell_length_c   15.45004218
_cell_angle_alpha   73.15584703
_cell_angle_beta   90.00000000
_cell_angle_gamma   90.00000000
_symmetry_Int_Tables_number   1
_chemical_formula_structural   Ba3Ge9O22
_chemical_formula_sum   'Ba6 Ge18 O44'
_cell_volume   957.36200440
_cell_formula_units_Z   2
loop_
 _symmetry_equiv_pos_site_id
 _symmetry_equiv_pos_as_xyz
  1  'x, y, z'
loop_
 _atom_site_type_symbol
 _atom_site_label
 _atom_site_symmetry_multiplicity
 _atom_site_fract_x
 _atom_site_fract_y
 _atom_site_fract_z
 _atom_site_occupancy
  Ba  Ba0  1  0.05059200  0.86986800  0.88656900  1
  Ba  Ba1  1  0.05059200  0.13013200  0.11343100  1
  Ba  Ba2  1  0.02417300  0.75558500  0.50054300  1
  Ba  Ba3  1  0.02417300  0.24441500  0.49945700  1
  Ba  Ba4  1  0.98903800  0.62928400  0.11531200  1
  Ba  Ba5  1  0.98903800  0.37071600  0.88468800  1
  Ge  Ge6  1  0.52895900  0.61344900  0.91908500  1
  Ge  Ge7  1  0.52895900  0.38655100  0.08091500  1
  Ge  Ge8  1  0.53411300  0.81939300  0.69290800  1
  Ge  Ge9  1  0.53411300  0.18060700  0.30709200  1
  Ge  Ge10  1  0.54397500  0.55087700  0.69091200  1
  Ge  Ge11  1  0.54397500  0.44912300  0.30908800  1
  Ge  Ge12  1  0.51854200  0.95031300  0.30675100  1
  Ge  Ge13  1  0.51854200  0.04968700  0.69324900  1
  Ge  Ge14  1  0.52020900  0.88681100  0.08148500  1
  Ge  Ge15  1  0.52020900  0.11318900  0.91851500  1
  Ge  Ge16  1  0.52624000  0.68017500  0.30932000  1
  Ge  Ge17  1  0.52624000  0.31982500  0.69068000  1
  Ge  Ge18  1  0.04162600  0.65884000  0.77013300  1
  Ge  Ge19  1  0.04162600  0.34116000  0.22986700  1
  Ge  Ge20  1  0.01931300  0.84117700  0.23054500  1
  Ge  Ge21  1  0.01931300  0.15882300  0.76945500  1
  Ge  Ge22  1  0.46813500  0.00000000  0.50000000  1
  Ge  Ge23  1  0.60185300  0.50000000  0.50000000  1
  O  O24  1  0.37492600  0.93025000  0.41616900  1
  O  O25  1  0.37492600  0.06975000  0.58383100  1
  O  O26  1  0.38775300  0.57612300  0.27055800  1
  O  O27  1  0.38775300  0.42387700  0.72944200  1
  O  O28  1  0.67338000  0.92273000  0.73256200  1
  O  O29  1  0.67338000  0.07727000  0.26743800  1
  O  O30  1  0.36278400  0.00000000  0.00000000  1
  O  O31  1  0.68660700  0.50000000  0.00000000  1
  O  O32  1  0.36496500  0.68695100  0.98452700  1
  O  O33  1  0.36496500  0.31304900  0.01547300  1
  O  O34  1  0.67140300  0.81060600  0.01639200  1
  O  O35  1  0.67140300  0.18939400  0.98360800  1
  O  O36  1  0.80991600  0.54428200  0.77212500  1
  O  O37  1  0.80991600  0.45571800  0.22787500  1
  O  O38  1  0.25173300  0.95702100  0.22563000  1
  O  O39  1  0.25173300  0.04297900  0.77437000  1
  O  O40  1  0.81572900  0.68861200  0.86408700  1
  O  O41  1  0.81572900  0.31138800  0.13591300  1
  O  O42  1  0.23641700  0.81036800  0.13718300  1
  O  O43  1  0.23641700  0.18963200  0.86281700  1
  O  O44  1  0.81790500  0.74428100  0.67654100  1
  O  O45  1  0.81790500  0.25571900  0.32345900  1
  O  O46  1  0.24976600  0.75875800  0.32498900  1
  O  O47  1  0.24976600  0.24124200  0.67501100  1
  O  O48  1  0.27307800  0.77127100  0.77581300  1
  O  O49  1  0.27307800  0.22872900  0.22418700  1
  O  O50  1  0.78760500  0.72853600  0.22691200  1
  O  O51  1  0.78760500  0.27146400  0.77308800  1
  O  O52  1  0.27215100  0.56368400  0.86011200  1
  O  O53  1  0.27215100  0.43631600  0.13988800  1
  O  O54  1  0.78222800  0.93532400  0.13949600  1
  O  O55  1  0.78222800  0.06467600  0.86050400  1
  O  O56  1  0.27472100  0.64303300  0.67441400  1
  O  O57  1  0.27472100  0.35696700  0.32558600  1
  O  O58  1  0.79322500  0.85999800  0.32544000  1
  O  O59  1  0.79322500  0.14000200  0.67456000  1
  O  O60  1  0.39767700  0.86956900  0.58216000  1
  O  O61  1  0.39767700  0.13043100  0.41784000  1
  O  O62  1  0.22051700  0.50000000  0.50000000  1
  O  O63  1  0.67168700  0.63027400  0.41853800  1
  O  O64  1  0.67168700  0.36972600  0.58146200  1
  O  O65  1  0.69838500  0.42968500  0.41678600  1
  O  O66  1  0.69838500  0.57031500  0.58321400  1
  O  O67  1  0.85224700  0.00000000  0.50000000  1
