# generated using pymatgen
data_CoH8(CO4)2
_symmetry_space_group_name_H-M   'P 1'
_cell_length_a   6.26158900
_cell_length_b   8.74814553
_cell_length_c   11.12341425
_cell_angle_alpha   71.15939767
_cell_angle_beta   84.10049178
_cell_angle_gamma   71.70470945
_symmetry_Int_Tables_number   1
_chemical_formula_structural   CoH8(CO4)2
_chemical_formula_sum   'Co3 H24 C6 O24'
_cell_volume   547.51374663
_cell_formula_units_Z   3
loop_
 _symmetry_equiv_pos_site_id
 _symmetry_equiv_pos_as_xyz
  1  'x, y, z'
loop_
 _atom_site_type_symbol
 _atom_site_label
 _atom_site_symmetry_multiplicity
 _atom_site_fract_x
 _atom_site_fract_y
 _atom_site_fract_z
 _atom_site_occupancy
  Co  Co0  1  0.51521700  0.85183200  0.32037400  1
  Co  Co1  1  0.48478300  0.14816800  0.67962600  1
  Co  Co2  1  0.50000000  0.50000000  0.00000000  1
  H  H3  1  0.71836300  0.03933700  0.13514300  1
  H  H4  1  0.28163700  0.96066300  0.86485700  1
  H  H5  1  0.80818200  0.02860000  0.26543800  1
  H  H6  1  0.19181800  0.97140000  0.73456200  1
  H  H7  1  0.19163900  0.78067600  0.49035500  1
  H  H8  1  0.80836100  0.21932400  0.50964500  1
  H  H9  1  0.21059900  0.66686400  0.39599500  1
  H  H10  1  0.78940100  0.33313600  0.60400500  1
  H  H11  1  0.16995400  0.35973400  0.08999500  1
  H  H12  1  0.83004600  0.64026600  0.91000500  1
  H  H13  1  0.20152300  0.45569100  0.19132900  1
  H  H14  1  0.79847700  0.54430900  0.80867100  1
  H  H15  1  0.97256600  0.86143800  0.65881900  1
  H  H16  1  0.02743400  0.13856200  0.34118100  1
  H  H17  1  0.20363900  0.72286400  0.71113000  1
  H  H18  1  0.79636100  0.27713600  0.28887000  1
  H  H19  1  0.97399600  0.23019700  0.00561500  1
  H  H20  1  0.02600400  0.76980300  0.99438500  1
  H  H21  1  0.20256200  0.09891000  0.07084100  1
  H  H22  1  0.79743800  0.90109000  0.92915900  1
  H  H23  1  0.98065500  0.54331400  0.33635800  1
  H  H24  1  0.01934500  0.45668600  0.66364200  1
  H  H25  1  0.19909700  0.39815000  0.40385000  1
  H  H26  1  0.80090300  0.60185000  0.59615000  1
  C  C27  1  0.43438000  0.76764900  0.10955800  1
  C  C28  1  0.56562000  0.23235100  0.89044200  1
  C  C29  1  0.60397700  0.61056500  0.19673200  1
  C  C30  1  0.39602300  0.38943500  0.80326800  1
  C  C31  1  0.40598600  0.07572600  0.46163300  1
  C  C32  1  0.59401400  0.92427400  0.53836700  1
  O  O33  1  0.37881900  0.90024600  0.14285200  1
  O  O34  1  0.62118100  0.09975400  0.85714800  1
  O  O35  1  0.67673700  0.63040600  0.29196100  1
  O  O36  1  0.32326300  0.36959400  0.70803900  1
  O  O37  1  0.36338200  0.75321800  0.01199800  1
  O  O38  1  0.63661800  0.24678200  0.98800200  1
  O  O39  1  0.65862300  0.47374200  0.16956200  1
  O  O40  1  0.34137700  0.52625800  0.83043800  1
  O  O41  1  0.34390900  0.06734800  0.35944300  1
  O  O42  1  0.65609100  0.93265200  0.64055700  1
  O  O43  1  0.67408500  0.80144500  0.49350600  1
  O  O44  1  0.32591500  0.19855500  0.50649400  1
  O  O45  1  0.76636500  0.96088900  0.22048600  1
  O  O46  1  0.23363500  0.03911100  0.77951400  1
  O  O47  1  0.25118000  0.76116600  0.40925600  1
  O  O48  1  0.74882000  0.23883400  0.59074400  1
  O  O49  1  0.23337800  0.44407400  0.10516800  1
  O  O50  1  0.76662200  0.55592600  0.89483200  1
  O  O51  1  0.13741600  0.83542600  0.64837700  1
  O  O52  1  0.86258400  0.16457400  0.35162300  1
  O  O53  1  0.12279700  0.22067600  0.03218100  1
  O  O54  1  0.87720300  0.77932400  0.96781900  1
  O  O55  1  0.14639000  0.51201700  0.33994400  1
  O  O56  1  0.85361000  0.48798300  0.66005600  1
