# generated using pymatgen
data_KNa2(NiO2)2
_symmetry_space_group_name_H-M   'P 1'
_cell_length_a   11.16728700
_cell_length_b   5.82120200
_cell_length_c   9.08019390
_cell_angle_alpha   65.70186353
_cell_angle_beta   90.00000000
_cell_angle_gamma   90.00000000
_symmetry_Int_Tables_number   1
_chemical_formula_structural   KNa2(NiO2)2
_chemical_formula_sum   'K4 Na8 Ni8 O16'
_cell_volume   537.98780745
_cell_formula_units_Z   4
loop_
 _symmetry_equiv_pos_site_id
 _symmetry_equiv_pos_as_xyz
  1  'x, y, z'
loop_
 _atom_site_type_symbol
 _atom_site_label
 _atom_site_symmetry_multiplicity
 _atom_site_fract_x
 _atom_site_fract_y
 _atom_site_fract_z
 _atom_site_occupancy
  K  K0  1  0.88811000  0.16776100  0.04671200  1
  K  K1  1  0.61189000  0.16776100  0.54671200  1
  K  K2  1  0.11189000  0.83223900  0.95328800  1
  K  K3  1  0.38811000  0.83223900  0.45328800  1
  Na  Na4  1  0.92052700  0.10950900  0.60881100  1
  Na  Na5  1  0.57947300  0.10950900  0.10881100  1
  Na  Na6  1  0.07947300  0.89049100  0.39118900  1
  Na  Na7  1  0.42052700  0.89049100  0.89118900  1
  Na  Na8  1  0.79725700  0.89189400  0.37461300  1
  Na  Na9  1  0.70274300  0.89189400  0.87461300  1
  Na  Na10  1  0.20274300  0.10810600  0.62538700  1
  Na  Na11  1  0.29725700  0.10810600  0.12538700  1
  Ni  Ni12  1  0.91769500  0.54551800  0.69627300  1
  Ni  Ni13  1  0.58230500  0.54551800  0.19627300  1
  Ni  Ni14  1  0.08230500  0.45448200  0.30372700  1
  Ni  Ni15  1  0.41769500  0.45448200  0.80372700  1
  Ni  Ni16  1  0.16689300  0.49393800  0.75952300  1
  Ni  Ni17  1  0.33310700  0.49393800  0.25952300  1
  Ni  Ni18  1  0.83310700  0.50606200  0.24047700  1
  Ni  Ni19  1  0.66689300  0.50606200  0.74047700  1
  O  O20  1  0.77914700  0.77328800  0.66049500  1
  O  O21  1  0.72085300  0.77328800  0.16049500  1
  O  O22  1  0.22085300  0.22671200  0.33950500  1
  O  O23  1  0.27914700  0.22671200  0.83950500  1
  O  O24  1  0.04788100  0.28883500  0.74908400  1
  O  O25  1  0.45211900  0.28883500  0.24908400  1
  O  O26  1  0.95211900  0.71116500  0.25091600  1
  O  O27  1  0.54788100  0.71116500  0.75091600  1
  O  O28  1  0.28544200  0.70106300  0.76907800  1
  O  O29  1  0.21455800  0.70106300  0.26907800  1
  O  O30  1  0.71455800  0.29893700  0.23092200  1
  O  O31  1  0.78544200  0.29893700  0.73092200  1
  O  O32  1  0.05600200  0.76229600  0.67853400  1
  O  O33  1  0.44399800  0.76229600  0.17853400  1
  O  O34  1  0.94399800  0.23770400  0.32146600  1
  O  O35  1  0.55600200  0.23770400  0.82146600  1
