# generated using pymatgen
data_TmSbMo2O9
_symmetry_space_group_name_H-M   'P 1'
_cell_length_a   9.63172768
_cell_length_b   9.63172768
_cell_length_c   10.76252216
_cell_angle_alpha   67.97297777
_cell_angle_beta   67.97297777
_cell_angle_gamma   95.13331426
_symmetry_Int_Tables_number   1
_chemical_formula_structural   TmSbMo2O9
_chemical_formula_sum   'Tm4 Sb4 Mo8 O36'
_cell_volume   826.66368579
_cell_formula_units_Z   4
loop_
 _symmetry_equiv_pos_site_id
 _symmetry_equiv_pos_as_xyz
  1  'x, y, z'
loop_
 _atom_site_type_symbol
 _atom_site_label
 _atom_site_symmetry_multiplicity
 _atom_site_fract_x
 _atom_site_fract_y
 _atom_site_fract_z
 _atom_site_occupancy
  Tm  Tm0  1  0.67087300  0.32912700  0.75000000  1
  Tm  Tm1  1  0.32912700  0.67087300  0.25000000  1
  Tm  Tm2  1  0.12641900  0.87358100  0.75000000  1
  Tm  Tm3  1  0.87358100  0.12641900  0.25000000  1
  Sb  Sb4  1  0.65302700  0.61692400  0.96589800  1
  Sb  Sb5  1  0.38307600  0.34697300  0.53410200  1
  Sb  Sb6  1  0.34697300  0.38307600  0.03410200  1
  Sb  Sb7  1  0.61692400  0.65302700  0.46589800  1
  Mo  Mo8  1  0.04564200  0.25929500  0.47421000  1
  Mo  Mo9  1  0.74070500  0.95435800  0.02579000  1
  Mo  Mo10  1  0.95435800  0.74070500  0.52579000  1
  Mo  Mo11  1  0.25929500  0.04564200  0.97421000  1
  Mo  Mo12  1  0.05834200  0.43355800  0.80670500  1
  Mo  Mo13  1  0.56644200  0.94165800  0.69329500  1
  Mo  Mo14  1  0.94165800  0.56644200  0.19329500  1
  Mo  Mo15  1  0.43355800  0.05834200  0.30670500  1
  O  O16  1  0.06802200  0.09400900  0.60214100  1
  O  O17  1  0.90599100  0.93197800  0.89785900  1
  O  O18  1  0.93197800  0.90599100  0.39785900  1
  O  O19  1  0.09400900  0.06802200  0.10214100  1
  O  O20  1  0.86751600  0.29747100  0.57025400  1
  O  O21  1  0.70252900  0.13248400  0.92974600  1
  O  O22  1  0.13248400  0.70252900  0.42974600  1
  O  O23  1  0.29747100  0.86751600  0.07025400  1
  O  O24  1  0.04102800  0.22007100  0.32465000  1
  O  O25  1  0.77992900  0.95897200  0.17535000  1
  O  O26  1  0.95897200  0.77992900  0.67535000  1
  O  O27  1  0.22007100  0.04102800  0.82465000  1
  O  O28  1  0.77781500  0.59332400  0.58031700  1
  O  O29  1  0.40667600  0.22218500  0.91968300  1
  O  O30  1  0.22218500  0.40667600  0.41968300  1
  O  O31  1  0.59332400  0.77781500  0.08031700  1
  O  O32  1  0.97728100  0.30514900  0.00059100  1
  O  O33  1  0.69485100  0.02271900  0.49940900  1
  O  O34  1  0.02271900  0.69485100  0.99941000  1
  O  O35  1  0.30514900  0.97728100  0.50059100  1
  O  O36  1  0.14850100  0.62214000  0.76974000  1
  O  O37  1  0.37786000  0.85149900  0.73026000  1
  O  O38  1  0.85149900  0.37786000  0.23026000  1
  O  O39  1  0.62214000  0.14850100  0.26974000  1
  O  O40  1  0.90631700  0.44465000  0.74957400  1
  O  O41  1  0.55535000  0.09368300  0.75042600  1
  O  O42  1  0.09368300  0.55535000  0.25042600  1
  O  O43  1  0.44465000  0.90631700  0.24957400  1
  O  O44  1  0.20864700  0.36050400  0.70275900  1
  O  O45  1  0.63949600  0.79135300  0.79724100  1
  O  O46  1  0.79135300  0.63949600  0.29724100  1
  O  O47  1  0.36050400  0.20864700  0.20275900  1
  O  O48  1  0.57750600  0.45785400  0.89843100  1
  O  O49  1  0.54214600  0.42249400  0.60156900  1
  O  O50  1  0.42249400  0.54214600  0.10156900  1
  O  O51  1  0.45785400  0.57750600  0.39843100  1
