# generated using pymatgen
data_Nb4Mo6I22O
_symmetry_space_group_name_H-M   'P 1'
_cell_length_a   11.21421700
_cell_length_b   11.24467364
_cell_length_c   12.39699796
_cell_angle_alpha   80.41740958
_cell_angle_beta   80.36912188
_cell_angle_gamma   79.76184755
_symmetry_Int_Tables_number   1
_chemical_formula_structural   Nb4Mo6I22O
_chemical_formula_sum   'Nb4 Mo6 I22 O1'
_cell_volume   1501.55348895
_cell_formula_units_Z   1
loop_
 _symmetry_equiv_pos_site_id
 _symmetry_equiv_pos_as_xyz
  1  'x, y, z'
loop_
 _atom_site_type_symbol
 _atom_site_label
 _atom_site_symmetry_multiplicity
 _atom_site_fract_x
 _atom_site_fract_y
 _atom_site_fract_z
 _atom_site_occupancy
  Nb  Nb0  1  0.42191100  0.66371900  0.55884300  1
  Nb  Nb1  1  0.57808900  0.33628100  0.44115700  1
  Nb  Nb2  1  0.64154900  0.43804400  0.59566800  1
  Nb  Nb3  1  0.35845100  0.56195600  0.40433200  1
  Mo  Mo4  1  0.85388700  0.88248200  0.94072800  1
  Mo  Mo5  1  0.14611300  0.11751800  0.05927200  1
  Mo  Mo6  1  0.16834600  0.94009200  0.83744600  1
  Mo  Mo7  1  0.83165400  0.05990800  0.16255400  1
  Mo  Mo8  1  0.92185900  0.18914200  0.88045100  1
  Mo  Mo9  1  0.07814100  0.81085800  0.11954900  1
  I  I10  1  0.95268000  0.01318600  0.72561300  1
  I  I11  1  0.04732000  0.98681400  0.27438700  1
  I  I12  1  0.92868400  0.30315800  0.07269400  1
  I  I13  1  0.07131600  0.69684200  0.92730600  1
  I  I14  1  0.18730000  0.21316900  0.82815500  1
  I  I15  1  0.81270000  0.78683100  0.17184500  1
  I  I16  1  0.36218000  0.89117000  0.65128600  1
  I  I17  1  0.63782000  0.10883000  0.34871400  1
  I  I18  1  0.69320500  0.76019300  0.87441400  1
  I  I19  1  0.30679500  0.23980700  0.12558600  1
  I  I20  1  0.68302700  0.10239100  0.98569800  1
  I  I21  1  0.31697300  0.89760900  0.01430200  1
  I  I22  1  0.82446300  0.41518700  0.73754900  1
  I  I23  1  0.17553700  0.58481300  0.26245100  1
  I  I24  1  0.17102100  0.63609700  0.57973200  1
  I  I25  1  0.82897900  0.36390300  0.42026800  1
  I  I26  1  0.39828800  0.80869800  0.34658700  1
  I  I27  1  0.60171200  0.19130200  0.65341300  1
  I  I28  1  0.44597200  0.50860300  0.76638100  1
  I  I29  1  0.55402800  0.49139700  0.23361900  1
  I  I30  1  0.67557500  0.68795200  0.53045100  1
  I  I31  1  0.32442500  0.31204800  0.46954900  1
  O  O32  1  0.50000000  0.50000000  0.50000000  1
