# generated using pymatgen
data_CaMgB6O17
_symmetry_space_group_name_H-M   'P 1'
_cell_length_a   6.48068800
_cell_length_b   8.11709800
_cell_length_c   11.40726411
_cell_angle_alpha   79.38035491
_cell_angle_beta   90.00000000
_cell_angle_gamma   90.00000000
_symmetry_Int_Tables_number   1
_chemical_formula_structural   CaMgB6O17
_chemical_formula_sum   'Ca2 Mg2 B12 O34'
_cell_volume   589.79414940
_cell_formula_units_Z   2
loop_
 _symmetry_equiv_pos_site_id
 _symmetry_equiv_pos_as_xyz
  1  'x, y, z'
loop_
 _atom_site_type_symbol
 _atom_site_label
 _atom_site_symmetry_multiplicity
 _atom_site_fract_x
 _atom_site_fract_y
 _atom_site_fract_z
 _atom_site_occupancy
  Ca  Ca0  1  0.76548800  0.25000000  0.50000000  1
  Ca  Ca1  1  0.23451200  0.75000000  0.50000000  1
  Mg  Mg2  1  0.00000000  0.50000000  0.00000000  1
  Mg  Mg3  1  0.00000000  0.00000000  0.00000000  1
  B  B4  1  0.72276500  0.35960400  0.79077400  1
  B  B5  1  0.72276500  0.14039600  0.20922600  1
  B  B6  1  0.27723500  0.64039600  0.20922600  1
  B  B7  1  0.27723500  0.85960400  0.79077400  1
  B  B8  1  0.70579500  0.57923600  0.59942200  1
  B  B9  1  0.70579500  0.92076400  0.40057800  1
  B  B10  1  0.29420500  0.42076400  0.40057800  1
  B  B11  1  0.29420500  0.07923600  0.59942200  1
  B  B12  1  0.46924300  0.59937300  0.76320600  1
  B  B13  1  0.46924300  0.90062700  0.23679400  1
  B  B14  1  0.53075700  0.40062700  0.23679400  1
  B  B15  1  0.53075700  0.09937300  0.76320600  1
  O  O16  1  0.94822400  0.25000000  0.00000000  1
  O  O17  1  0.05177600  0.75000000  0.00000000  1
  O  O18  1  0.65191000  0.68321500  0.98174600  1
  O  O19  1  0.65191000  0.81678500  0.01825400  1
  O  O20  1  0.34809000  0.31678500  0.01825400  1
  O  O21  1  0.34809000  0.18321500  0.98174600  1
  O  O22  1  0.89924600  0.39603900  0.86706300  1
  O  O23  1  0.89924600  0.10396100  0.13293700  1
  O  O24  1  0.10075400  0.60396100  0.13293700  1
  O  O25  1  0.10075400  0.89603900  0.86706300  1
  O  O26  1  0.68975200  0.17888700  0.80911100  1
  O  O27  1  0.68975200  0.32111300  0.19088900  1
  O  O28  1  0.31024800  0.82111300  0.19088900  1
  O  O29  1  0.31024800  0.67888700  0.80911100  1
  O  O30  1  0.54092700  0.44895200  0.82101700  1
  O  O31  1  0.54092700  0.05104800  0.17898300  1
  O  O32  1  0.45907300  0.55104800  0.17898300  1
  O  O33  1  0.45907300  0.94895200  0.82101700  1
  O  O34  1  0.79232200  0.42847300  0.66604400  1
  O  O35  1  0.79232200  0.07152700  0.33395600  1
  O  O36  1  0.20767800  0.57152700  0.33395600  1
  O  O37  1  0.20767800  0.92847300  0.66604400  1
  O  O38  1  0.55221300  0.67042900  0.65067100  1
  O  O39  1  0.55221300  0.82957100  0.34932900  1
  O  O40  1  0.44778700  0.32957100  0.34932900  1
  O  O41  1  0.44778700  0.17042900  0.65067100  1
  O  O42  1  0.89173700  0.66900200  0.54373600  1
  O  O43  1  0.89173700  0.83099800  0.45626400  1
  O  O44  1  0.10826300  0.33099800  0.45626400  1
  O  O45  1  0.10826300  0.16900200  0.54373600  1
  O  O46  1  0.60563700  0.51623300  0.49049700  1
  O  O47  1  0.60563700  0.98376700  0.50950300  1
  O  O48  1  0.39436300  0.48376700  0.50950300  1
  O  O49  1  0.39436300  0.01623300  0.49049700  1
