# generated using pymatgen
data_CoMoH24N6ClO7
_symmetry_space_group_name_H-M   'P 1'
_cell_length_a   8.53798000
_cell_length_b   8.84667200
_cell_length_c   18.69907000
_cell_angle_alpha   90.00000000
_cell_angle_beta   90.00000000
_cell_angle_gamma   90.00000000
_symmetry_Int_Tables_number   1
_chemical_formula_structural   CoMoH24N6ClO7
_chemical_formula_sum   'Co4 Mo4 H96 N24 Cl4 O28'
_cell_volume   1412.39140545
_cell_formula_units_Z   4
loop_
 _symmetry_equiv_pos_site_id
 _symmetry_equiv_pos_as_xyz
  1  'x, y, z'
loop_
 _atom_site_type_symbol
 _atom_site_label
 _atom_site_symmetry_multiplicity
 _atom_site_fract_x
 _atom_site_fract_y
 _atom_site_fract_z
 _atom_site_occupancy
  Co  Co0  1  0.17853500  0.75000000  0.33241600  1
  Co  Co1  1  0.32146500  0.75000000  0.83241600  1
  Co  Co2  1  0.82146500  0.25000000  0.66758400  1
  Co  Co3  1  0.67853500  0.25000000  0.16758400  1
  Mo  Mo4  1  0.39217200  0.75000000  0.09882100  1
  Mo  Mo5  1  0.10782800  0.75000000  0.59882100  1
  Mo  Mo6  1  0.60782800  0.25000000  0.90117900  1
  Mo  Mo7  1  0.89217200  0.25000000  0.40117900  1
  H  H8  1  0.13847600  0.50144400  0.39671900  1
  H  H9  1  0.36152400  0.99855600  0.89671900  1
  H  H10  1  0.86152400  0.00144400  0.60328100  1
  H  H11  1  0.63847600  0.49855600  0.10328100  1
  H  H12  1  0.86152400  0.49855600  0.60328100  1
  H  H13  1  0.63847600  0.00144400  0.10328100  1
  H  H14  1  0.13847600  0.99855600  0.39671900  1
  H  H15  1  0.36152400  0.50144400  0.89671900  1
  H  H16  1  0.18945800  0.63201700  0.45571000  1
  H  H17  1  0.31054200  0.86798300  0.95571000  1
  H  H18  1  0.81054200  0.13201700  0.54429000  1
  H  H19  1  0.68945800  0.36798300  0.04429000  1
  H  H20  1  0.81054200  0.36798300  0.54429000  1
  H  H21  1  0.68945800  0.13201700  0.04429000  1
  H  H22  1  0.18945800  0.86798300  0.45571000  1
  H  H23  1  0.31054200  0.63201700  0.95571000  1
  H  H24  1  0.32661200  0.55159300  0.40610200  1
  H  H25  1  0.17338800  0.94840700  0.90610200  1
  H  H26  1  0.67338800  0.05159300  0.59389800  1
  H  H27  1  0.82661200  0.44840700  0.09389800  1
  H  H28  1  0.67338800  0.44840700  0.59389800  1
  H  H29  1  0.82661200  0.05159300  0.09389800  1
  H  H30  1  0.32661200  0.94840700  0.40610200  1
  H  H31  1  0.17338800  0.55159300  0.90610200  1
  H  H32  1  0.42492300  0.75000000  0.25283600  1
  H  H33  1  0.07507700  0.75000000  0.75283600  1
  H  H34  1  0.57507700  0.25000000  0.74716400  1
  H  H35  1  0.92492300  0.25000000  0.24716400  1
  H  H36  1  0.46205300  0.65749500  0.32844600  1
  H  H37  1  0.03794700  0.84250500  0.82844600  1
  H  H38  1  0.53794700  0.15749500  0.67155400  1
  H  H39  1  0.96205300  0.34250500  0.17155400  1
  H  H40  1  0.53794700  0.34250500  0.67155400  1
  H  H41  1  0.96205300  0.15749500  0.17155400  1
  H  H42  1  0.46205300  0.84250500  0.32844600  1
  H  H43  1  0.03794700  0.65749500  0.82844600  1
  H  H44  1  0.88563300  0.75000000  0.31025100  1
  H  H45  1  0.61436700  0.75000000  0.81025100  1
  H  H46  1  0.11436700  0.25000000  0.68974900  1
  H  H47  1  0.38563300  0.25000000  0.18974900  1
  H  H48  1  0.91896900  0.84465700  0.38480600  1
  H  H49  1  0.58103100  0.65534300  0.88480600  1
  H  H50  1  0.08103100  0.34465700  0.61519400  1
  H  H51  1  0.41896900  0.15534300  0.11519400  1
  H  H52  1  0.08103100  0.15534300  0.61519400  1
  H  H53  1  0.41896900  0.34465700  0.11519400  1
  H  H54  1  0.91896900  0.65534300  0.38480600  1
  H  H55  1  0.58103100  0.84465700  0.88480600  1
  H  H56  1  0.04329100  0.62678000  0.22877800  1
  H  H57  1  0.45670900  0.87322000  0.72877800  1
  H  H58  1  0.95670900  0.12678000  0.77122200  1
  H  H59  1  0.54329100  0.37322000  0.27122200  1
  H  H60  1  0.95670900  0.37322000  0.77122200  1
  H  H61  1  0.54329100  0.12678000  0.27122200  1
  H  H62  1  0.04329100  0.87322000  0.22877800  1
  H  H63  1  0.45670900  0.62678000  0.72877800  1
  H  H64  1  0.10802100  0.49281500  0.28338400  1
  H  H65  1  0.39197900  0.00718500  0.78338400  1
  H  H66  1  0.89197900  0.99281500  0.71661600  1
  H  H67  1  0.60802100  0.50718500  0.21661600  1
  H  H68  1  0.89197900  0.50718500  0.71661600  1
  H  H69  1  0.60802100  0.99281500  0.21661600  1
  H  H70  1  0.10802100  0.00718500  0.28338400  1
  H  H71  1  0.39197900  0.49281500  0.78338400  1
  H  H72  1  0.23150200  0.57393600  0.22544100  1
  H  H73  1  0.26849800  0.92606400  0.72544100  1
  H  H74  1  0.76849800  0.07393600  0.77455900  1
  H  H75  1  0.73150200  0.42606400  0.27455900  1
  H  H76  1  0.76849800  0.42606400  0.77455900  1
  H  H77  1  0.73150200  0.07393600  0.27455900  1
  H  H78  1  0.23150200  0.92606400  0.22544100  1
  H  H79  1  0.26849800  0.57393600  0.72544100  1
  H  H80  1  0.71164200  0.75000000  0.01253800  1
  H  H81  1  0.78835800  0.75000000  0.51253800  1
  H  H82  1  0.28835800  0.25000000  0.98746200  1
  H  H83  1  0.21164200  0.25000000  0.48746200  1
  H  H84  1  0.86908900  0.75000000  0.05528000  1
  H  H85  1  0.63091100  0.75000000  0.55528000  1
  H  H86  1  0.13091100  0.25000000  0.94472000  1
  H  H87  1  0.36908900  0.25000000  0.44472000  1
  H  H88  1  0.58941500  0.43761800  0.41854200  1
  H  H89  1  0.91058500  0.06238200  0.91854200  1
  H  H90  1  0.41058500  0.93761800  0.58145800  1
  H  H91  1  0.08941500  0.56238200  0.08145800  1
  H  H92  1  0.41058500  0.56238200  0.58145800  1
  H  H93  1  0.08941500  0.93761800  0.08145800  1
  H  H94  1  0.58941500  0.06238200  0.41854200  1
  H  H95  1  0.91058500  0.43761800  0.91854200  1
  H  H96  1  0.58953400  0.60566700  0.44778700  1
  H  H97  1  0.91046600  0.89433300  0.94778700  1
  H  H98  1  0.41046600  0.10566700  0.55221300  1
  H  H99  1  0.08953400  0.39433300  0.05221300  1
  H  H100  1  0.41046600  0.39433300  0.55221300  1
  H  H101  1  0.08953400  0.10566700  0.05221300  1
  H  H102  1  0.58953400  0.89433300  0.44778700  1
  H  H103  1  0.91046600  0.60566700  0.94778700  1
  N  N104  1  0.21219300  0.59125700  0.40544000  1
  N  N105  1  0.28780700  0.90874300  0.90544000  1
  N  N106  1  0.78780700  0.09125700  0.59456000  1
  N  N107  1  0.71219300  0.40874300  0.09456000  1
  N  N108  1  0.78780700  0.40874300  0.59456000  1
  N  N109  1  0.71219300  0.09125700  0.09456000  1
  N  N110  1  0.21219300  0.90874300  0.40544000  1
  N  N111  1  0.28780700  0.59125700  0.90544000  1
  N  N112  1  0.40558800  0.75000000  0.30704200  1
  N  N113  1  0.09441200  0.75000000  0.80704200  1
  N  N114  1  0.59441200  0.25000000  0.69295800  1
  N  N115  1  0.90558800  0.25000000  0.19295800  1
  N  N116  1  0.95074800  0.75000000  0.35676200  1
  N  N117  1  0.54925200  0.75000000  0.85676200  1
  N  N118  1  0.04925200  0.25000000  0.64323800  1
  N  N119  1  0.45074800  0.25000000  0.14323800  1
  N  N120  1  0.13834900  0.59302900  0.25933700  1
  N  N121  1  0.36165100  0.90697100  0.75933700  1
  N  N122  1  0.86165100  0.09302900  0.74066300  1
  N  N123  1  0.63834900  0.40697100  0.24066300  1
  N  N124  1  0.86165100  0.40697100  0.74066300  1
  N  N125  1  0.63834900  0.09302900  0.24066300  1
  N  N126  1  0.13834900  0.90697100  0.25933700  1
  N  N127  1  0.36165100  0.59302900  0.75933700  1
  Cl  Cl128  1  0.83124400  0.75000000  0.18635200  1
  Cl  Cl129  1  0.66875600  0.75000000  0.68635200  1
  Cl  Cl130  1  0.16875600  0.25000000  0.81364800  1
  Cl  Cl131  1  0.33124400  0.25000000  0.31364800  1
  O  O132  1  0.41716700  0.91486000  0.15382600  1
  O  O133  1  0.08283300  0.58514000  0.65382600  1
  O  O134  1  0.58283300  0.41486000  0.84617400  1
  O  O135  1  0.91716700  0.08514000  0.34617400  1
  O  O136  1  0.58283300  0.08514000  0.84617400  1
  O  O137  1  0.91716700  0.41486000  0.34617400  1
  O  O138  1  0.41716700  0.58514000  0.15382600  1
  O  O139  1  0.08283300  0.91486000  0.65382600  1
  O  O140  1  0.52661500  0.75000000  0.02459500  1
  O  O141  1  0.97338500  0.75000000  0.52459500  1
  O  O142  1  0.47338500  0.25000000  0.97540500  1
  O  O143  1  0.02661500  0.25000000  0.47540500  1
  O  O144  1  0.19732600  0.75000000  0.06188700  1
  O  O145  1  0.30267400  0.75000000  0.56188700  1
  O  O146  1  0.80267400  0.25000000  0.93811300  1
  O  O147  1  0.69732600  0.25000000  0.43811300  1
  O  O148  1  0.82942700  0.75000000  0.00601600  1
  O  O149  1  0.67057300  0.75000000  0.50601600  1
  O  O150  1  0.17057300  0.25000000  0.99398400  1
  O  O151  1  0.32942700  0.25000000  0.49398400  1
  O  O152  1  0.54390000  0.53862900  0.41071500  1
  O  O153  1  0.95610000  0.96137100  0.91071500  1
  O  O154  1  0.45610000  0.03862900  0.58928500  1
  O  O155  1  0.04390000  0.46137100  0.08928500  1
  O  O156  1  0.45610000  0.46137100  0.58928500  1
  O  O157  1  0.04390000  0.03862900  0.08928500  1
  O  O158  1  0.54390000  0.96137100  0.41071500  1
  O  O159  1  0.95610000  0.53862900  0.91071500  1
