# generated using pymatgen
data_MgP2H10(NO4)2
_symmetry_space_group_name_H-M   'P 1'
_cell_length_a   10.57887300
_cell_length_b   6.49416200
_cell_length_c   12.90839468
_cell_angle_alpha   75.91570025
_cell_angle_beta   90.00000000
_cell_angle_gamma   90.00000000
_symmetry_Int_Tables_number   1
_chemical_formula_structural   MgP2H10(NO4)2
_chemical_formula_sum   'Mg4 P8 H40 N8 O32'
_cell_volume   860.15963902
_cell_formula_units_Z   4
loop_
 _symmetry_equiv_pos_site_id
 _symmetry_equiv_pos_as_xyz
  1  'x, y, z'
loop_
 _atom_site_type_symbol
 _atom_site_label
 _atom_site_symmetry_multiplicity
 _atom_site_fract_x
 _atom_site_fract_y
 _atom_site_fract_z
 _atom_site_occupancy
  Mg  Mg0  1  0.69807200  0.95211400  0.65399100  1
  Mg  Mg1  1  0.19807200  0.04788600  0.84600900  1
  Mg  Mg2  1  0.30192800  0.04788600  0.34600900  1
  Mg  Mg3  1  0.80192800  0.95211400  0.15399100  1
  P  P4  1  0.96809900  0.72713700  0.60698200  1
  P  P5  1  0.46809900  0.27286300  0.89301800  1
  P  P6  1  0.03190100  0.27286300  0.39301800  1
  P  P7  1  0.53190100  0.72713700  0.10698200  1
  P  P8  1  0.68829000  0.96242300  0.91848100  1
  P  P9  1  0.18829000  0.03757700  0.58151900  1
  P  P10  1  0.31171000  0.03757700  0.08151900  1
  P  P11  1  0.81171000  0.96242300  0.41848100  1
  H  H12  1  0.54311500  0.69537000  0.93151500  1
  H  H13  1  0.04311500  0.30463000  0.56848500  1
  H  H14  1  0.45688500  0.30463000  0.06848500  1
  H  H15  1  0.95688500  0.69537000  0.43151500  1
  H  H16  1  0.18614800  0.67900000  0.61072000  1
  H  H17  1  0.68614800  0.32100000  0.88928000  1
  H  H18  1  0.81385200  0.32100000  0.38928000  1
  H  H19  1  0.31385200  0.67900000  0.11072000  1
  H  H20  1  0.94559900  0.96876100  0.89829500  1
  H  H21  1  0.44559900  0.03123900  0.60170500  1
  H  H22  1  0.05440100  0.03123900  0.10170500  1
  H  H23  1  0.55440100  0.96876100  0.39829500  1
  H  H24  1  0.96661000  0.92021700  0.78487100  1
  H  H25  1  0.46661000  0.07978300  0.71512900  1
  H  H26  1  0.03339000  0.07978300  0.21512900  1
  H  H27  1  0.53339000  0.92021700  0.28487100  1
  H  H28  1  0.82819500  0.34894900  0.63411700  1
  H  H29  1  0.32819500  0.65105100  0.86588300  1
  H  H30  1  0.17180500  0.65105100  0.36588300  1
  H  H31  1  0.67180500  0.34894900  0.13411700  1
  H  H32  1  0.71935500  0.35845400  0.54753600  1
  H  H33  1  0.21935500  0.64154600  0.95246400  1
  H  H34  1  0.28064500  0.64154600  0.45246400  1
  H  H35  1  0.78064500  0.35845400  0.04753600  1
  H  H36  1  0.56315700  0.59980600  0.74018000  1
  H  H37  1  0.06315700  0.40019400  0.75982000  1
  H  H38  1  0.43684300  0.40019400  0.25982000  1
  H  H39  1  0.93684300  0.59980600  0.24018000  1
  H  H40  1  0.65770700  0.51657600  0.66350100  1
  H  H41  1  0.15770700  0.48342400  0.83649900  1
  H  H42  1  0.34229300  0.48342400  0.33649900  1
  H  H43  1  0.84229300  0.51657600  0.16350100  1
  H  H44  1  0.91410000  0.43873600  0.88840900  1
  H  H45  1  0.41410000  0.56126400  0.61159100  1
  H  H46  1  0.08590000  0.56126400  0.11159100  1
  H  H47  1  0.58590000  0.43873600  0.38840900  1
  H  H48  1  0.81178600  0.62261900  0.86751000  1
  H  H49  1  0.31178600  0.37738100  0.63249000  1
  H  H50  1  0.18821400  0.37738100  0.13249000  1
  H  H51  1  0.68821400  0.62261900  0.36751000  1
  N  N52  1  0.58235200  0.78405900  0.97996500  1
  N  N53  1  0.08235200  0.21594100  0.52003500  1
  N  N54  1  0.41764800  0.21594100  0.02003500  1
  N  N55  1  0.91764800  0.78405900  0.47996500  1
  N  N56  1  0.11954200  0.79680600  0.60844900  1
  N  N57  1  0.61954200  0.20319400  0.89155100  1
  N  N58  1  0.88045800  0.20319400  0.39155100  1
  N  N59  1  0.38045800  0.79680600  0.10844900  1
  O  O60  1  0.88916100  0.86055100  0.66429000  1
  O  O61  1  0.38916100  0.13944900  0.83571000  1
  O  O62  1  0.11083900  0.13944900  0.33571000  1
  O  O63  1  0.61083900  0.86055100  0.16429000  1
  O  O64  1  0.96753000  0.48581900  0.64834100  1
  O  O65  1  0.46753000  0.51418100  0.85165900  1
  O  O66  1  0.03247000  0.51418100  0.35165900  1
  O  O67  1  0.53247000  0.48581900  0.14834100  1
  O  O68  1  0.80123200  0.97647100  0.98949600  1
  O  O69  1  0.30123200  0.02352900  0.51050400  1
  O  O70  1  0.19876800  0.02352900  0.01050400  1
  O  O71  1  0.69876800  0.97647100  0.48949600  1
  O  O72  1  0.71942800  0.89738600  0.81622800  1
  O  O73  1  0.21942800  0.10261400  0.68377200  1
  O  O74  1  0.28057200  0.10261400  0.18377200  1
  O  O75  1  0.78057200  0.89738600  0.31622800  1
  O  O76  1  0.01106100  0.94616600  0.84780000  1
  O  O77  1  0.51106100  0.05383400  0.65220000  1
  O  O78  1  0.98893900  0.05383400  0.15220000  1
  O  O79  1  0.48893900  0.94616600  0.34780000  1
  O  O80  1  0.74240300  0.29357400  0.62304100  1
  O  O81  1  0.24240300  0.70642600  0.87695900  1
  O  O82  1  0.25759700  0.70642600  0.37695900  1
  O  O83  1  0.75759700  0.29357400  0.12304100  1
  O  O84  1  0.61152600  0.64366600  0.67201000  1
  O  O85  1  0.11152600  0.35633400  0.82799000  1
  O  O86  1  0.38847400  0.35633400  0.32799000  1
  O  O87  1  0.88847400  0.64366600  0.17201000  1
  O  O88  1  0.82871400  0.47544900  0.90738100  1
  O  O89  1  0.32871400  0.52455100  0.59261900  1
  O  O90  1  0.17128600  0.52455100  0.09261900  1
  O  O91  1  0.67128600  0.47544900  0.40738100  1
