# generated using pymatgen
data_Cr6CuSi2(Pb5O17)2
_symmetry_space_group_name_H-M   'P 1'
_cell_length_a   9.79662100
_cell_length_b   10.10982153
_cell_length_c   10.11722260
_cell_angle_alpha   65.07001288
_cell_angle_beta   71.67045097
_cell_angle_gamma   68.36945605
_symmetry_Int_Tables_number   1
_chemical_formula_structural   Cr6CuSi2(Pb5O17)2
_chemical_formula_sum   'Cr6 Cu1 Si2 Pb10 O34'
_cell_volume   829.49508151
_cell_formula_units_Z   1
loop_
 _symmetry_equiv_pos_site_id
 _symmetry_equiv_pos_as_xyz
  1  'x, y, z'
loop_
 _atom_site_type_symbol
 _atom_site_label
 _atom_site_symmetry_multiplicity
 _atom_site_fract_x
 _atom_site_fract_y
 _atom_site_fract_z
 _atom_site_occupancy
  Cr  Cr0  1  0.03435900  0.64522500  0.27907800  1
  Cr  Cr1  1  0.96564100  0.35477500  0.72092200  1
  Cr  Cr2  1  0.73534700  0.84576000  0.98172700  1
  Cr  Cr3  1  0.26465300  0.15424000  0.01827300  1
  Cr  Cr4  1  0.77702500  0.16450500  0.51212900  1
  Cr  Cr5  1  0.22297500  0.83549500  0.48787100  1
  Cu  Cu6  1  0.50000000  0.00000000  0.50000000  1
  Si  Si7  1  0.47902200  0.33448400  0.20753500  1
  Si  Si8  1  0.52097800  0.66551600  0.79246500  1
  Pb  Pb9  1  0.36547400  0.73909900  0.15607200  1
  Pb  Pb10  1  0.63452600  0.26090100  0.84392800  1
  Pb  Pb11  1  0.35485800  0.33232000  0.57422200  1
  Pb  Pb12  1  0.64514200  0.66768000  0.42577800  1
  Pb  Pb13  1  0.18154100  0.97223400  0.78456400  1
  Pb  Pb14  1  0.81845900  0.02776600  0.21543600  1
  Pb  Pb15  1  0.14390800  0.25302000  0.32678400  1
  Pb  Pb16  1  0.85609200  0.74698000  0.67321600  1
  Pb  Pb17  1  0.76347100  0.46792500  0.08347400  1
  Pb  Pb18  1  0.23652900  0.53207500  0.91652500  1
  O  O19  1  0.98256500  0.51823000  0.25418100  1
  O  O20  1  0.01743500  0.48177000  0.74581900  1
  O  O21  1  0.18116100  0.56133600  0.36203800  1
  O  O22  1  0.81883900  0.43866400  0.63796200  1
  O  O23  1  0.11461100  0.26357000  0.61881900  1
  O  O24  1  0.88538900  0.73643000  0.38118100  1
  O  O25  1  0.08282700  0.77165800  0.11751500  1
  O  O26  1  0.91717300  0.22834200  0.88248500  1
  O  O27  1  0.64372600  0.72853400  0.13343100  1
  O  O28  1  0.35627400  0.27146600  0.86656900  1
  O  O29  1  0.63143500  0.94475700  0.85633200  1
  O  O30  1  0.36856500  0.05524300  0.14366800  1
  O  O31  1  0.77862400  0.96532300  0.02561000  1
  O  O32  1  0.22137600  0.03467700  0.97439000  1
  O  O33  1  0.88913900  0.73205800  0.91137500  1
  O  O34  1  0.11086100  0.26794200  0.08862500  1
  O  O35  1  0.89259000  0.08696900  0.62728000  1
  O  O36  1  0.10741000  0.91303100  0.37272000  1
  O  O37  1  0.85843600  0.26048500  0.34470500  1
  O  O38  1  0.14156400  0.73951500  0.65529500  1
  O  O39  1  0.73394300  0.02799900  0.49145700  1
  O  O40  1  0.26605700  0.97200100  0.50854300  1
  O  O41  1  0.62070800  0.28157300  0.58019600  1
  O  O42  1  0.37929200  0.71842700  0.41980400  1
  O  O43  1  0.50994900  0.48225000  0.21454000  1
  O  O44  1  0.49005100  0.51775000  0.78546000  1
  O  O45  1  0.43558600  0.21730000  0.38266400  1
  O  O46  1  0.56441400  0.78270000  0.61733600  1
  O  O47  1  0.36207800  0.73984100  0.88793700  1
  O  O48  1  0.63792200  0.26015900  0.11206300  1
  O  O49  1  0.33015000  0.38284300  0.13827600  1
  O  O50  1  0.66985000  0.61715700  0.86172400  1
  O  O51  1  0.40125100  0.05840000  0.65777300  1
  O  O52  1  0.59874900  0.94160000  0.34222700  1
