# generated using pymatgen
data_CdH8C4(NCl)2
_symmetry_space_group_name_H-M   'P 1'
_cell_length_a   8.29263740
_cell_length_b   8.29263740
_cell_length_c   6.81432235
_cell_angle_alpha   89.15775959
_cell_angle_beta   89.15775959
_cell_angle_gamma   108.90366369
_symmetry_Int_Tables_number   1
_chemical_formula_structural   CdH8C4(NCl)2
_chemical_formula_sum   'Cd2 H16 C8 N4 Cl4'
_cell_volume   443.19003221
_cell_formula_units_Z   2
loop_
 _symmetry_equiv_pos_site_id
 _symmetry_equiv_pos_as_xyz
  1  'x, y, z'
loop_
 _atom_site_type_symbol
 _atom_site_label
 _atom_site_symmetry_multiplicity
 _atom_site_fract_x
 _atom_site_fract_y
 _atom_site_fract_z
 _atom_site_occupancy
  Cd  Cd0  1  0.94130500  0.05869500  0.25000000  1
  Cd  Cd1  1  0.05869500  0.94130500  0.75000000  1
  H  H2  1  0.23284400  0.42456900  0.14130100  1
  H  H3  1  0.57543100  0.76715600  0.35869900  1
  H  H4  1  0.76715600  0.57543100  0.85869900  1
  H  H5  1  0.42456900  0.23284400  0.64130100  1
  H  H6  1  0.10417900  0.52173400  0.27430000  1
  H  H7  1  0.47826600  0.89582100  0.22570000  1
  H  H8  1  0.89582100  0.47826600  0.72570000  1
  H  H9  1  0.52173400  0.10417900  0.77430000  1
  H  H10  1  0.73460100  0.26765600  0.96963000  1
  H  H11  1  0.73234400  0.26539900  0.53037000  1
  H  H12  1  0.26539900  0.73234400  0.03037000  1
  H  H13  1  0.26765600  0.73460100  0.46963000  1
  H  H14  1  0.77687900  0.42199000  0.15808400  1
  H  H15  1  0.57801000  0.22312100  0.34191600  1
  H  H16  1  0.22312100  0.57801000  0.84191600  1
  H  H17  1  0.42199000  0.77687900  0.65808400  1
  C  C18  1  0.12478900  0.47268400  0.12814700  1
  C  C19  1  0.52731600  0.87521100  0.37185300  1
  C  C20  1  0.87521100  0.52731600  0.87185300  1
  C  C21  1  0.47268400  0.12478900  0.62814700  1
  C  C22  1  0.83233600  0.38058900  0.02599400  1
  C  C23  1  0.61941100  0.16766400  0.47400600  1
  C  C24  1  0.16766400  0.61941100  0.97400600  1
  C  C25  1  0.38058900  0.83233600  0.52599400  1
  N  N26  1  0.97298800  0.33193100  0.09472900  1
  N  N27  1  0.66806900  0.02701200  0.40527100  1
  N  N28  1  0.02701200  0.66806900  0.90527100  1
  N  N29  1  0.33193100  0.97298800  0.59472900  1
  Cl  Cl30  1  0.76552200  0.91826100  0.93168200  1
  Cl  Cl31  1  0.08173900  0.23447800  0.56831800  1
  Cl  Cl32  1  0.23447800  0.08173900  0.06831800  1
  Cl  Cl33  1  0.91826100  0.76552200  0.43168200  1
