# generated using pymatgen
data_K8Rh3(Br9O5)2
_symmetry_space_group_name_H-M   'P 1'
_cell_length_a   9.89614400
_cell_length_b   15.47090600
_cell_length_c   16.10184500
_cell_angle_alpha   90.00000000
_cell_angle_beta   90.00000000
_cell_angle_gamma   90.00000000
_symmetry_Int_Tables_number   1
_chemical_formula_structural   K8Rh3(Br9O5)2
_chemical_formula_sum   'K16 Rh6 Br36 O20'
_cell_volume   2465.22972251
_cell_formula_units_Z   2
loop_
 _symmetry_equiv_pos_site_id
 _symmetry_equiv_pos_as_xyz
  1  'x, y, z'
loop_
 _atom_site_type_symbol
 _atom_site_label
 _atom_site_symmetry_multiplicity
 _atom_site_fract_x
 _atom_site_fract_y
 _atom_site_fract_z
 _atom_site_occupancy
  K  K0  1  0.26216900  0.90975900  0.18353400  1
  K  K1  1  0.26216900  0.09024100  0.81646600  1
  K  K2  1  0.73783100  0.40975900  0.31646600  1
  K  K3  1  0.73783100  0.59024100  0.68353400  1
  K  K4  1  0.73783100  0.09024100  0.81646600  1
  K  K5  1  0.73783100  0.90975900  0.18353400  1
  K  K6  1  0.26216900  0.59024100  0.68353400  1
  K  K7  1  0.26216900  0.40975900  0.31646600  1
  K  K8  1  0.24830600  0.70147100  0.41091200  1
  K  K9  1  0.24830600  0.29852900  0.58908800  1
  K  K10  1  0.75169400  0.20147100  0.08908800  1
  K  K11  1  0.75169400  0.79852900  0.91091200  1
  K  K12  1  0.75169400  0.29852900  0.58908800  1
  K  K13  1  0.75169400  0.70147100  0.41091200  1
  K  K14  1  0.24830600  0.79852900  0.91091200  1
  K  K15  1  0.24830600  0.20147100  0.08908800  1
  Rh  Rh16  1  0.00000000  0.50000000  0.50000000  1
  Rh  Rh17  1  0.00000000  0.00000000  0.00000000  1
  Rh  Rh18  1  0.50000000  0.68055000  0.18819800  1
  Rh  Rh19  1  0.50000000  0.31945000  0.81180200  1
  Rh  Rh20  1  0.50000000  0.18055000  0.31180200  1
  Rh  Rh21  1  0.50000000  0.81945000  0.68819800  1
  Br  Br22  1  0.00000000  0.65203600  0.55645300  1
  Br  Br23  1  0.00000000  0.34796400  0.44354700  1
  Br  Br24  1  0.00000000  0.15203600  0.94354700  1
  Br  Br25  1  0.00000000  0.84796400  0.05645300  1
  Br  Br26  1  0.25510800  0.50000000  0.50000000  1
  Br  Br27  1  0.74489200  0.00000000  0.00000000  1
  Br  Br28  1  0.74489200  0.50000000  0.50000000  1
  Br  Br29  1  0.25510800  0.00000000  0.00000000  1
  Br  Br30  1  0.00000000  0.55749800  0.35336300  1
  Br  Br31  1  0.00000000  0.44250200  0.64663700  1
  Br  Br32  1  0.00000000  0.05749800  0.14663700  1
  Br  Br33  1  0.00000000  0.94250200  0.85336300  1
  Br  Br34  1  0.50000000  0.80330700  0.29572700  1
  Br  Br35  1  0.50000000  0.19669300  0.70427300  1
  Br  Br36  1  0.50000000  0.30330700  0.20427300  1
  Br  Br37  1  0.50000000  0.69669300  0.79572700  1
  Br  Br38  1  0.24637200  0.68429900  0.19278100  1
  Br  Br39  1  0.24637200  0.31570100  0.80721900  1
  Br  Br40  1  0.75362800  0.18429900  0.30721900  1
  Br  Br41  1  0.75362800  0.81570100  0.69278100  1
  Br  Br42  1  0.75362800  0.31570100  0.80721900  1
  Br  Br43  1  0.75362800  0.68429900  0.19278100  1
  Br  Br44  1  0.24637200  0.81570100  0.69278100  1
  Br  Br45  1  0.24637200  0.18429900  0.30721900  1
  Br  Br46  1  0.50000000  0.57417500  0.30763900  1
  Br  Br47  1  0.50000000  0.42582500  0.69236100  1
  Br  Br48  1  0.50000000  0.07417500  0.19236100  1
  Br  Br49  1  0.50000000  0.92582500  0.80763900  1
  Br  Br50  1  0.50000000  0.79316800  0.07314400  1
  Br  Br51  1  0.50000000  0.20683200  0.92685600  1
  Br  Br52  1  0.50000000  0.29316800  0.42685600  1
  Br  Br53  1  0.50000000  0.70683200  0.57314400  1
  Br  Br54  1  0.50000000  0.56452700  0.08649900  1
  Br  Br55  1  0.50000000  0.43547300  0.91350100  1
  Br  Br56  1  0.50000000  0.06452700  0.41350100  1
  Br  Br57  1  0.50000000  0.93547300  0.58649900  1
  O  O58  1  0.00000000  0.85094200  0.36424900  1
  O  O59  1  0.00000000  0.14905800  0.63575100  1
  O  O60  1  0.00000000  0.35094200  0.13575100  1
  O  O61  1  0.00000000  0.64905800  0.86424900  1
  O  O62  1  0.19752100  0.89632600  0.44274600  1
  O  O63  1  0.19752100  0.10367400  0.55725400  1
  O  O64  1  0.80247900  0.39632600  0.05725400  1
  O  O65  1  0.80247900  0.60367400  0.94274600  1
  O  O66  1  0.80247900  0.10367400  0.55725400  1
  O  O67  1  0.80247900  0.89632600  0.44274600  1
  O  O68  1  0.19752100  0.60367400  0.94274600  1
  O  O69  1  0.19752100  0.39632600  0.05725400  1
  O  O70  1  0.13251600  0.91389300  0.37781000  1
  O  O71  1  0.13251600  0.08610700  0.62219000  1
  O  O72  1  0.86748400  0.41389300  0.12219000  1
  O  O73  1  0.86748400  0.58610700  0.87781000  1
  O  O74  1  0.86748400  0.08610700  0.62219000  1
  O  O75  1  0.86748400  0.91389300  0.37781000  1
  O  O76  1  0.13251600  0.58610700  0.87781000  1
  O  O77  1  0.13251600  0.41389300  0.12219000  1
