# generated using pymatgen
data_CsY(BH4)4
_symmetry_space_group_name_H-M   'P 1'
_cell_length_a   10.88884846
_cell_length_b   10.88884846
_cell_length_c   10.88884846
_cell_angle_alpha   138.76102376
_cell_angle_beta   138.76102376
_cell_angle_gamma   59.73943168
_symmetry_Int_Tables_number   1
_chemical_formula_structural   CsY(BH4)4
_chemical_formula_sum   'Cs2 Y2 B8 H32'
_cell_volume   555.37358812
_cell_formula_units_Z   2
loop_
 _symmetry_equiv_pos_site_id
 _symmetry_equiv_pos_as_xyz
  1  'x, y, z'
loop_
 _atom_site_type_symbol
 _atom_site_label
 _atom_site_symmetry_multiplicity
 _atom_site_fract_x
 _atom_site_fract_y
 _atom_site_fract_z
 _atom_site_occupancy
  Cs  Cs0  1  0.75000000  0.25000000  0.50000000  1
  Cs  Cs1  1  0.00000000  0.00000000  0.00000000  1
  Y  Y2  1  0.25000000  0.75000000  0.50000000  1
  Y  Y3  1  0.50000000  0.50000000  0.00000000  1
  B  B4  1  0.06301300  0.92762100  0.63363200  1
  B  B5  1  0.29398900  0.42938100  0.36636800  1
  B  B6  1  0.45601100  0.82061900  0.13363200  1
  B  B7  1  0.68698700  0.32237900  0.86636800  1
  B  B8  1  0.07237900  0.70601100  0.13539200  1
  B  B9  1  0.57061900  0.93698700  0.86460800  1
  B  B10  1  0.17938100  0.31301300  0.63539200  1
  B  B11  1  0.67762100  0.54398900  0.36460800  1
  H  H12  1  0.95951600  0.83088300  0.40955100  1
  H  H13  1  0.42133100  0.54996500  0.59044900  1
  H  H14  1  0.32866900  0.70003500  0.90955100  1
  H  H15  1  0.79048400  0.41911700  0.09044900  1
  H  H16  1  0.16911700  0.57866900  0.12863300  1
  H  H17  1  0.45003500  0.04048400  0.87136700  1
  H  H18  1  0.29996500  0.20951600  0.62863300  1
  H  H19  1  0.58088300  0.67133100  0.37136700  1
  H  H20  1  0.15138800  0.81986800  0.67711200  1
  H  H21  1  0.14275700  0.47427600  0.32288800  1
  H  H22  1  0.60724300  0.77572400  0.17711200  1
  H  H23  1  0.59861200  0.43013200  0.82288800  1
  H  H24  1  0.18013200  0.85724300  0.33152000  1
  H  H25  1  0.52572400  0.84861200  0.66848000  1
  H  H26  1  0.22427600  0.40138800  0.83152000  1
  H  H27  1  0.56986800  0.39275700  0.16848000  1
  H  H28  1  0.17868500  0.03573300  0.74229400  1
  H  H29  1  0.29344000  0.43639100  0.25770600  1
  H  H30  1  0.45656000  0.81360900  0.24229400  1
  H  H31  1  0.57131500  0.21426700  0.75770600  1
  H  H32  1  0.96426700  0.70656000  0.14295200  1
  H  H33  1  0.56360900  0.82131500  0.85704800  1
  H  H34  1  0.18639100  0.42868500  0.64295200  1
  H  H35  1  0.78573300  0.54344000  0.35704800  1
  H  H36  1  0.97292900  0.01404200  0.69763200  1
  H  H37  1  0.31641100  0.27529700  0.30236800  1
  H  H38  1  0.43358900  0.97470300  0.19763200  1
  H  H39  1  0.77707100  0.23595800  0.80236800  1
  H  H40  1  0.98595800  0.68358900  0.95888700  1
  H  H41  1  0.72470300  0.02707100  0.04111300  1
  H  H42  1  0.02529700  0.22292900  0.45888700  1
  H  H43  1  0.76404200  0.56641100  0.54111300  1
