# generated using pymatgen
data_Li2B3H14N
_symmetry_space_group_name_H-M   'P 1'
_cell_length_a   6.48276200
_cell_length_b   8.25680500
_cell_length_c   12.46032800
_cell_angle_alpha   90.00000000
_cell_angle_beta   90.00000000
_cell_angle_gamma   90.00000000
_symmetry_Int_Tables_number   1
_chemical_formula_structural   Li2B3H14N
_chemical_formula_sum   'Li8 B12 H56 N4'
_cell_volume   666.96275195
_cell_formula_units_Z   4
loop_
 _symmetry_equiv_pos_site_id
 _symmetry_equiv_pos_as_xyz
  1  'x, y, z'
loop_
 _atom_site_type_symbol
 _atom_site_label
 _atom_site_symmetry_multiplicity
 _atom_site_fract_x
 _atom_site_fract_y
 _atom_site_fract_z
 _atom_site_occupancy
  Li  Li0  1  0.53202400  0.83300900  0.92311400  1
  Li  Li1  1  0.96797600  0.33300900  0.57688600  1
  Li  Li2  1  0.46797600  0.16699100  0.42311400  1
  Li  Li3  1  0.03202400  0.66699100  0.07688600  1
  Li  Li4  1  0.46797600  0.16699100  0.07688600  1
  Li  Li5  1  0.03202400  0.66699100  0.42311400  1
  Li  Li6  1  0.53202400  0.83300900  0.57688600  1
  Li  Li7  1  0.96797600  0.33300900  0.92311400  1
  B  B8  1  0.78190000  0.59982300  0.57280600  1
  B  B9  1  0.71810000  0.09982300  0.92719400  1
  B  B10  1  0.21810000  0.40017700  0.07280600  1
  B  B11  1  0.28190000  0.90017700  0.42719400  1
  B  B12  1  0.21810000  0.40017700  0.42719400  1
  B  B13  1  0.28190000  0.90017700  0.07280600  1
  B  B14  1  0.78190000  0.59982300  0.92719400  1
  B  B15  1  0.71810000  0.09982300  0.57280600  1
  B  B16  1  0.18815900  0.28549600  0.75000000  1
  B  B17  1  0.31184100  0.78549600  0.75000000  1
  B  B18  1  0.81184100  0.71450400  0.25000000  1
  B  B19  1  0.68815900  0.21450400  0.25000000  1
  H  H20  1  0.55237400  0.57600400  0.18389100  1
  H  H21  1  0.94762600  0.07600400  0.31610900  1
  H  H22  1  0.44762600  0.42399600  0.68389100  1
  H  H23  1  0.05237400  0.92399600  0.81610900  1
  H  H24  1  0.44762600  0.42399600  0.81610900  1
  H  H25  1  0.05237400  0.92399600  0.68389100  1
  H  H26  1  0.55237400  0.57600400  0.31610900  1
  H  H27  1  0.94762600  0.07600400  0.18389100  1
  H  H28  1  0.52255200  0.26122600  0.75000000  1
  H  H29  1  0.97744800  0.76122600  0.75000000  1
  H  H30  1  0.47744800  0.73877400  0.25000000  1
  H  H31  1  0.02255200  0.23877400  0.25000000  1
  H  H32  1  0.71304400  0.67189600  0.65068000  1
  H  H33  1  0.78695600  0.17189600  0.84932000  1
  H  H34  1  0.28695600  0.32810400  0.15068000  1
  H  H35  1  0.21304400  0.82810400  0.34932000  1
  H  H36  1  0.28695600  0.32810400  0.34932000  1
  H  H37  1  0.21304400  0.82810400  0.15068000  1
  H  H38  1  0.71304400  0.67189600  0.84932000  1
  H  H39  1  0.78695600  0.17189600  0.65068000  1
  H  H40  1  0.72679400  0.66445300  0.48864200  1
  H  H41  1  0.77320600  0.16445300  0.01135800  1
  H  H42  1  0.27320600  0.33554700  0.98864200  1
  H  H43  1  0.22679400  0.83554700  0.51135800  1
  H  H44  1  0.27320600  0.33554700  0.51135800  1
  H  H45  1  0.22679400  0.83554700  0.98864200  1
  H  H46  1  0.72679400  0.66445300  0.01135800  1
  H  H47  1  0.77320600  0.16445300  0.48864200  1
  H  H48  1  0.71543500  0.46103900  0.57360100  1
  H  H49  1  0.78456500  0.96103900  0.92639900  1
  H  H50  1  0.28456500  0.53896100  0.07360100  1
  H  H51  1  0.21543500  0.03896100  0.42639900  1
  H  H52  1  0.28456500  0.53896100  0.42639900  1
  H  H53  1  0.21543500  0.03896100  0.07360100  1
  H  H54  1  0.71543500  0.46103900  0.92639900  1
  H  H55  1  0.78456500  0.96103900  0.57360100  1
  H  H56  1  0.97122400  0.60177300  0.57989000  1
  H  H57  1  0.52877600  0.10177300  0.92011000  1
  H  H58  1  0.02877600  0.39822700  0.07989000  1
  H  H59  1  0.47122400  0.89822700  0.42011000  1
  H  H60  1  0.02877600  0.39822700  0.42011000  1
  H  H61  1  0.47122400  0.89822700  0.07989000  1
  H  H62  1  0.97122400  0.60177300  0.92011000  1
  H  H63  1  0.52877600  0.10177300  0.57989000  1
  H  H64  1  0.83071600  0.79859300  0.17016100  1
  H  H65  1  0.66928400  0.29859300  0.32983900  1
  H  H66  1  0.16928400  0.20140700  0.67016100  1
  H  H67  1  0.33071600  0.70140700  0.82983900  1
  H  H68  1  0.16928400  0.20140700  0.82983900  1
  H  H69  1  0.33071600  0.70140700  0.67016100  1
  H  H70  1  0.83071600  0.79859300  0.32983900  1
  H  H71  1  0.66928400  0.29859300  0.17016100  1
  H  H72  1  0.06870700  0.40047600  0.75000000  1
  H  H73  1  0.43129300  0.90047600  0.75000000  1
  H  H74  1  0.93129300  0.59952400  0.25000000  1
  H  H75  1  0.56870700  0.09952400  0.25000000  1
  N  N76  1  0.41691700  0.35358500  0.75000000  1
  N  N77  1  0.08308300  0.85358500  0.75000000  1
  N  N78  1  0.58308300  0.64641500  0.25000000  1
  N  N79  1  0.91691700  0.14641500  0.25000000  1
