# generated using pymatgen
data_Na2SeO9
_symmetry_space_group_name_H-M   'P 1'
_cell_length_a   7.71948300
_cell_length_b   7.71948300
_cell_length_c   13.58733800
_cell_angle_alpha   90.00000000
_cell_angle_beta   90.00000000
_cell_angle_gamma   90.00000000
_symmetry_Int_Tables_number   1
_chemical_formula_structural   Na2SeO9
_chemical_formula_sum   'Na8 Se4 O36'
_cell_volume   809.67514804
_cell_formula_units_Z   4
loop_
 _symmetry_equiv_pos_site_id
 _symmetry_equiv_pos_as_xyz
  1  'x, y, z'
loop_
 _atom_site_type_symbol
 _atom_site_label
 _atom_site_symmetry_multiplicity
 _atom_site_fract_x
 _atom_site_fract_y
 _atom_site_fract_z
 _atom_site_occupancy
  Na  Na0  1  0.61410800  0.50000000  0.75000000  1
  Na  Na1  1  0.38589200  0.50000000  0.25000000  1
  Na  Na2  1  0.50000000  0.61410800  0.50000000  1
  Na  Na3  1  0.50000000  0.38589200  0.00000000  1
  Na  Na4  1  0.00000000  0.59035000  0.00000000  1
  Na  Na5  1  0.00000000  0.40965000  0.50000000  1
  Na  Na6  1  0.40965000  0.00000000  0.75000000  1
  Na  Na7  1  0.59035000  0.00000000  0.25000000  1
  Se  Se8  1  0.99252200  0.50000000  0.25000000  1
  Se  Se9  1  0.00747800  0.50000000  0.75000000  1
  Se  Se10  1  0.50000000  0.99252200  0.00000000  1
  Se  Se11  1  0.50000000  0.00747800  0.50000000  1
  O  O12  1  0.39966500  0.39966500  0.62500000  1
  O  O13  1  0.60033500  0.60033500  0.12500000  1
  O  O14  1  0.60033500  0.39966500  0.37500000  1
  O  O15  1  0.39966500  0.60033500  0.87500000  1
  O  O16  1  0.04000000  0.82485300  0.21341200  1
  O  O17  1  0.96000000  0.17514700  0.71341200  1
  O  O18  1  0.17514700  0.04000000  0.96341200  1
  O  O19  1  0.82485300  0.96000000  0.46341200  1
  O  O20  1  0.96000000  0.82485300  0.78658800  1
  O  O21  1  0.04000000  0.17514700  0.28658800  1
  O  O22  1  0.82485300  0.04000000  0.03658800  1
  O  O23  1  0.17514700  0.96000000  0.53658800  1
  O  O24  1  0.87480700  0.51986300  0.65227900  1
  O  O25  1  0.12519300  0.48013700  0.15227900  1
  O  O26  1  0.48013700  0.87480700  0.40227900  1
  O  O27  1  0.51986300  0.12519300  0.90227900  1
  O  O28  1  0.12519300  0.51986300  0.34772100  1
  O  O29  1  0.87480700  0.48013700  0.84772100  1
  O  O30  1  0.51986300  0.87480700  0.59772100  1
  O  O31  1  0.48013700  0.12519300  0.09772100  1
  O  O32  1  0.70226100  0.62902800  0.04449200  1
  O  O33  1  0.29773900  0.37097200  0.54449200  1
  O  O34  1  0.37097200  0.70226100  0.79449200  1
  O  O35  1  0.62902800  0.29773900  0.29449200  1
  O  O36  1  0.29773900  0.62902800  0.95550800  1
  O  O37  1  0.70226100  0.37097200  0.45550800  1
  O  O38  1  0.62902800  0.70226100  0.20550800  1
  O  O39  1  0.37097200  0.29773900  0.70550800  1
  O  O40  1  0.82849800  0.79848600  0.45298200  1
  O  O41  1  0.17150200  0.20151400  0.95298200  1
  O  O42  1  0.20151400  0.82849800  0.20298200  1
  O  O43  1  0.79848600  0.17150200  0.70298200  1
  O  O44  1  0.17150200  0.79848600  0.54701800  1
  O  O45  1  0.82849800  0.20151400  0.04701800  1
  O  O46  1  0.79848600  0.82849800  0.79701800  1
  O  O47  1  0.20151400  0.17150200  0.29701800  1
