# generated using pymatgen
data_MgAsO8
_symmetry_space_group_name_H-M   'P 1'
_cell_length_a   6.96532100
_cell_length_b   10.55280500
_cell_length_c   16.91225900
_cell_angle_alpha   90.00000000
_cell_angle_beta   90.00000000
_cell_angle_gamma   90.00000000
_symmetry_Int_Tables_number   1
_chemical_formula_structural   MgAsO8
_chemical_formula_sum   'Mg8 As8 O64'
_cell_volume   1243.11317680
_cell_formula_units_Z   8
loop_
 _symmetry_equiv_pos_site_id
 _symmetry_equiv_pos_as_xyz
  1  'x, y, z'
loop_
 _atom_site_type_symbol
 _atom_site_label
 _atom_site_symmetry_multiplicity
 _atom_site_fract_x
 _atom_site_fract_y
 _atom_site_fract_z
 _atom_site_occupancy
  Mg  Mg0  1  0.86234600  0.50702800  0.14157100  1
  Mg  Mg1  1  0.36234600  0.99297200  0.85842900  1
  Mg  Mg2  1  0.13765400  0.00702800  0.35842900  1
  Mg  Mg3  1  0.63765400  0.49297200  0.64157100  1
  Mg  Mg4  1  0.13765400  0.49297200  0.85842900  1
  Mg  Mg5  1  0.63765400  0.00702800  0.14157100  1
  Mg  Mg6  1  0.86234600  0.99297200  0.64157100  1
  Mg  Mg7  1  0.36234600  0.50702800  0.35842900  1
  As  As8  1  0.47527200  0.19854500  0.41276400  1
  As  As9  1  0.97527200  0.30145500  0.58723600  1
  As  As10  1  0.52472800  0.69854500  0.08723600  1
  As  As11  1  0.02472800  0.80145500  0.91276400  1
  As  As12  1  0.52472800  0.80145500  0.58723600  1
  As  As13  1  0.02472800  0.69854500  0.41276400  1
  As  As14  1  0.47527200  0.30145500  0.91276400  1
  As  As15  1  0.97527200  0.19854500  0.08723600  1
  O  O16  1  0.85452200  0.31072900  0.49697300  1
  O  O17  1  0.35452200  0.18927100  0.50302700  1
  O  O18  1  0.14547800  0.81072900  0.00302700  1
  O  O19  1  0.64547800  0.68927100  0.99697300  1
  O  O20  1  0.14547800  0.68927100  0.50302700  1
  O  O21  1  0.64547800  0.81072900  0.49697300  1
  O  O22  1  0.85452200  0.18927100  0.99697300  1
  O  O23  1  0.35452200  0.31072900  0.00302700  1
  O  O24  1  0.71248200  0.15334300  0.43242400  1
  O  O25  1  0.21248200  0.34665700  0.56757600  1
  O  O26  1  0.28751800  0.65334300  0.06757600  1
  O  O27  1  0.78751800  0.84665700  0.93242400  1
  O  O28  1  0.28751800  0.84665700  0.56757600  1
  O  O29  1  0.78751800  0.65334300  0.43242400  1
  O  O30  1  0.71248200  0.34665700  0.93242400  1
  O  O31  1  0.21248200  0.15334300  0.06757600  1
  O  O32  1  0.45850700  0.33883800  0.36329400  1
  O  O33  1  0.95850700  0.16116200  0.63670600  1
  O  O34  1  0.54149300  0.83883800  0.13670600  1
  O  O35  1  0.04149300  0.66116200  0.86329400  1
  O  O36  1  0.54149300  0.66116200  0.63670600  1
  O  O37  1  0.04149300  0.83883800  0.36329400  1
  O  O38  1  0.45850700  0.16116200  0.86329400  1
  O  O39  1  0.95850700  0.33883800  0.13670600  1
  O  O40  1  0.88603100  0.08204100  0.14732900  1
  O  O41  1  0.38603100  0.41795900  0.85267100  1
  O  O42  1  0.11396900  0.58204100  0.35267100  1
  O  O43  1  0.61396900  0.91795900  0.64732900  1
  O  O44  1  0.11396900  0.91795900  0.85267100  1
  O  O45  1  0.61396900  0.58204100  0.14732900  1
  O  O46  1  0.88603100  0.41795900  0.64732900  1
  O  O47  1  0.38603100  0.08204100  0.35267100  1
  O  O48  1  0.94488800  0.14237300  0.31703700  1
  O  O49  1  0.44488800  0.35762700  0.68296300  1
  O  O50  1  0.05511200  0.64237300  0.18296300  1
  O  O51  1  0.55511200  0.85762700  0.81703700  1
  O  O52  1  0.05511200  0.85762700  0.68296300  1
  O  O53  1  0.55511200  0.64237300  0.31703700  1
  O  O54  1  0.94488800  0.35762700  0.81703700  1
  O  O55  1  0.44488800  0.14237300  0.18296300  1
  O  O56  1  0.88112400  0.34333600  0.29664700  1
  O  O57  1  0.38112400  0.15666400  0.70335300  1
  O  O58  1  0.11887600  0.84333600  0.20335300  1
  O  O59  1  0.61887600  0.65666400  0.79664700  1
  O  O60  1  0.11887600  0.65666400  0.70335300  1
  O  O61  1  0.61887600  0.84333600  0.29664700  1
  O  O62  1  0.88112400  0.15666400  0.79664700  1
  O  O63  1  0.38112400  0.34333600  0.20335300  1
  O  O64  1  0.50222300  0.26422000  0.17876200  1
  O  O65  1  0.00222300  0.23578000  0.82123800  1
  O  O66  1  0.49777700  0.76422000  0.32123800  1
  O  O67  1  0.99777700  0.73578000  0.67876200  1
  O  O68  1  0.49777700  0.73578000  0.82123800  1
  O  O69  1  0.99777700  0.76422000  0.17876200  1
  O  O70  1  0.50222300  0.23578000  0.67876200  1
  O  O71  1  0.00222300  0.26422000  0.32123800  1
  O  O72  1  0.57628100  0.01748200  0.01596900  1
  O  O73  1  0.07628100  0.48251800  0.98403100  1
  O  O74  1  0.42371900  0.51748200  0.48403100  1
  O  O75  1  0.92371900  0.98251800  0.51596900  1
  O  O76  1  0.42371900  0.98251800  0.98403100  1
  O  O77  1  0.92371900  0.51748200  0.01596900  1
  O  O78  1  0.57628100  0.48251800  0.51596900  1
  O  O79  1  0.07628100  0.01748200  0.48403100  1
