# generated using pymatgen
data_Na2MgB4(H5N)4
_symmetry_space_group_name_H-M   'P 1'
_cell_length_a   9.32566879
_cell_length_b   9.32566879
_cell_length_c   9.32566879
_cell_angle_alpha   118.09759131
_cell_angle_beta   118.09759131
_cell_angle_gamma   93.32791420
_symmetry_Int_Tables_number   1
_chemical_formula_structural   Na2MgB4(H5N)4
_chemical_formula_sum   'Na4 Mg2 B8 H40 N8'
_cell_volume   588.90487924
_cell_formula_units_Z   2
loop_
 _symmetry_equiv_pos_site_id
 _symmetry_equiv_pos_as_xyz
  1  'x, y, z'
loop_
 _atom_site_type_symbol
 _atom_site_label
 _atom_site_symmetry_multiplicity
 _atom_site_fract_x
 _atom_site_fract_y
 _atom_site_fract_z
 _atom_site_occupancy
  Na  Na0  1  0.87500000  0.62500000  0.75000000  1
  Na  Na1  1  0.87500000  0.12500000  0.25000000  1
  Na  Na2  1  0.37500000  0.12500000  0.25000000  1
  Na  Na3  1  0.87500000  0.12500000  0.75000000  1
  Mg  Mg4  1  0.25000000  0.75000000  0.50000000  1
  Mg  Mg5  1  0.50000000  0.50000000  0.00000000  1
  B  B6  1  0.07239300  0.35325700  0.20706200  1
  B  B7  1  0.14619500  0.86533100  0.79293800  1
  B  B8  1  0.10325700  0.39619500  0.78086400  1
  B  B9  1  0.61533100  0.32239300  0.21913600  1
  B  B10  1  0.67760700  0.89674300  0.29293800  1
  B  B11  1  0.60380500  0.38466900  0.70706200  1
  B  B12  1  0.64674300  0.85380500  0.71913600  1
  B  B13  1  0.13466900  0.92760700  0.28086400  1
  H  H14  1  0.18679000  0.34684700  0.17470300  1
  H  H15  1  0.17214300  0.01208700  0.82529700  1
  H  H16  1  0.09684700  0.42214300  0.66005600  1
  H  H17  1  0.76208700  0.43679000  0.33994400  1
  H  H18  1  0.56321000  0.90315300  0.32529700  1
  H  H19  1  0.57785700  0.23791300  0.67470300  1
  H  H20  1  0.65315300  0.82785700  0.83994400  1
  H  H21  1  0.98791300  0.81321000  0.16005600  1
  H  H22  1  0.12482100  0.34987500  0.35372200  1
  H  H23  1  0.99615300  0.77109900  0.64627800  1
  H  H24  1  0.09987500  0.24615300  0.72505400  1
  H  H25  1  0.52109900  0.37482100  0.27494600  1
  H  H26  1  0.62517900  0.90012500  0.14627800  1
  H  H27  1  0.75384700  0.47890100  0.85372200  1
  H  H28  1  0.65012500  0.00384700  0.77494600  1
  H  H29  1  0.22890100  0.87517900  0.22505400  1
  H  H30  1  0.93971100  0.22173100  0.06423000  1
  H  H31  1  0.15750000  0.87548100  0.93577000  1
  H  H32  1  0.97173100  0.40750000  0.78201900  1
  H  H33  1  0.62548100  0.18971100  0.21798100  1
  H  H34  1  0.81028900  0.02826900  0.43577000  1
  H  H35  1  0.59250000  0.37451900  0.56423000  1
  H  H36  1  0.77826900  0.84250000  0.71798100  1
  H  H37  1  0.12451900  0.06028900  0.28201900  1
  H  H38  1  0.98771800  0.53448000  0.13167600  1
  H  H39  1  0.40280300  0.85604200  0.86832400  1
  H  H40  1  0.28448000  0.65280300  0.04676100  1
  H  H41  1  0.60604200  0.23771800  0.95323900  1
  H  H42  1  0.76228200  0.71552000  0.36832400  1
  H  H43  1  0.34719700  0.39395800  0.63167600  1
  H  H44  1  0.46552000  0.59719700  0.45323900  1
  H  H45  1  0.14395800  0.01228200  0.54676100  1
  H  H46  1  0.93856200  0.52626600  0.27317500  1
  H  H47  1  0.25309100  0.66538700  0.72682500  1
  H  H48  1  0.27626600  0.50309100  0.08770400  1
  H  H49  1  0.41538700  0.18856200  0.91229600  1
  H  H50  1  0.81143800  0.72373400  0.22682500  1
  H  H51  1  0.49690900  0.58461300  0.77317500  1
  H  H52  1  0.47373400  0.74690900  0.41229600  1
  H  H53  1  0.33461300  0.06143800  0.58770400  1
  N  N54  1  0.03580600  0.52666700  0.25076400  1
  N  N55  1  0.27590300  0.78504200  0.74923600  1
  N  N56  1  0.27666700  0.52590300  0.99086100  1
  N  N57  1  0.53504200  0.28580600  0.00913900  1
  N  N58  1  0.71419400  0.72333300  0.24923600  1
  N  N59  1  0.47409700  0.46495800  0.75076400  1
  N  N60  1  0.47333300  0.72409700  0.50913900  1
  N  N61  1  0.21495800  0.96419400  0.49086100  1
