# generated using pymatgen
data_Na4NpH7O9
_symmetry_space_group_name_H-M   'P 1'
_cell_length_a   6.04197400
_cell_length_b   8.17238686
_cell_length_c   10.99852100
_cell_angle_alpha   104.19243753
_cell_angle_beta   101.63804915
_cell_angle_gamma   105.89460039
_symmetry_Int_Tables_number   1
_chemical_formula_structural   Na4NpH7O9
_chemical_formula_sum   'Na8 Np2 H14 O18'
_cell_volume   484.86168443
_cell_formula_units_Z   2
loop_
 _symmetry_equiv_pos_site_id
 _symmetry_equiv_pos_as_xyz
  1  'x, y, z'
loop_
 _atom_site_type_symbol
 _atom_site_label
 _atom_site_symmetry_multiplicity
 _atom_site_fract_x
 _atom_site_fract_y
 _atom_site_fract_z
 _atom_site_occupancy
  Na  Na0  1  0.79190500  0.53482400  0.58511300  1
  Na  Na1  1  0.20809500  0.46517600  0.41488700  1
  Na  Na2  1  0.94493800  0.66116800  0.92406300  1
  Na  Na3  1  0.05506200  0.33883200  0.07593700  1
  Na  Na4  1  0.47455400  0.27796100  0.90477400  1
  Na  Na5  1  0.52544600  0.72203900  0.09522600  1
  Na  Na6  1  0.39269100  0.14994000  0.57809000  1
  Na  Na7  1  0.60730900  0.85006000  0.42191000  1
  Np  Np8  1  0.36289500  0.58615400  0.75162900  1
  Np  Np9  1  0.63710500  0.41384600  0.24837100  1
  H  H10  1  0.58644500  0.82289200  0.63149900  1
  H  H11  1  0.41355500  0.17710800  0.36850100  1
  H  H12  1  0.07498000  0.36172000  0.85276200  1
  H  H13  1  0.92502000  0.63828000  0.14723800  1
  H  H14  1  0.84269700  0.17472800  0.61775900  1
  H  H15  1  0.15730300  0.82527200  0.38224100  1
  H  H16  1  0.75901500  0.11145300  0.78591100  1
  H  H17  1  0.24098500  0.88854700  0.21408900  1
  H  H18  1  0.71093400  0.01581300  0.89413100  1
  H  H19  1  0.28906600  0.98418700  0.10586900  1
  H  H20  1  0.17741600  0.93074300  0.72971400  1
  H  H21  1  0.82258400  0.06925700  0.27028600  1
  H  H22  1  0.01376300  0.04404300  0.68698100  1
  H  H23  1  0.98623700  0.95595700  0.31301900  1
  O  O24  1  0.14697200  0.72134100  0.75797300  1
  O  O25  1  0.85302800  0.27865900  0.24202700  1
  O  O26  1  0.60805200  0.77419200  0.89534900  1
  O  O27  1  0.39194800  0.22580800  0.10465100  1
  O  O28  1  0.57619300  0.44592300  0.74850000  1
  O  O29  1  0.42380700  0.55407700  0.25150000  1
  O  O30  1  0.11902300  0.39574300  0.60938900  1
  O  O31  1  0.88097700  0.60425700  0.39061100  1
  O  O32  1  0.50918000  0.69188200  0.59690200  1
  O  O33  1  0.49082000  0.30811800  0.40309800  1
  O  O34  1  0.21235000  0.46882700  0.90620800  1
  O  O35  1  0.78765000  0.53117300  0.09379200  1
  O  O36  1  0.75337600  0.06969700  0.63751900  1
  O  O37  1  0.24662400  0.93030300  0.36248100  1
  O  O38  1  0.76029700  0.13524500  0.88276100  1
  O  O39  1  0.23970300  0.86475500  0.11723900  1
  O  O40  1  0.18734100  0.04788700  0.71651500  1
  O  O41  1  0.81265900  0.95211300  0.28348500  1
