# generated using pymatgen
data_Sm3Sb4S9
_symmetry_space_group_name_H-M   'P 1'
_cell_length_a   3.84981300
_cell_length_b   15.86498100
_cell_length_c   24.58837600
_cell_angle_alpha   90.00000000
_cell_angle_beta   90.00000000
_cell_angle_gamma   90.00000000
_symmetry_Int_Tables_number   1
_chemical_formula_structural   Sm3Sb4S9
_chemical_formula_sum   'Sm12 Sb16 S36'
_cell_volume   1501.78940693
_cell_formula_units_Z   4
loop_
 _symmetry_equiv_pos_site_id
 _symmetry_equiv_pos_as_xyz
  1  'x, y, z'
loop_
 _atom_site_type_symbol
 _atom_site_label
 _atom_site_symmetry_multiplicity
 _atom_site_fract_x
 _atom_site_fract_y
 _atom_site_fract_z
 _atom_site_occupancy
  Sm  Sm0  1  0.25000000  0.12894300  0.43660800  1
  Sm  Sm1  1  0.25000000  0.62894300  0.06339200  1
  Sm  Sm2  1  0.75000000  0.87105700  0.56339200  1
  Sm  Sm3  1  0.75000000  0.37105700  0.93660800  1
  Sm  Sm4  1  0.25000000  0.32583100  0.32199500  1
  Sm  Sm5  1  0.25000000  0.82583100  0.17800500  1
  Sm  Sm6  1  0.75000000  0.67416900  0.67800500  1
  Sm  Sm7  1  0.75000000  0.17416900  0.82199500  1
  Sm  Sm8  1  0.25000000  0.04037400  0.26737500  1
  Sm  Sm9  1  0.25000000  0.54037400  0.23262500  1
  Sm  Sm10  1  0.75000000  0.95962600  0.73262500  1
  Sm  Sm11  1  0.75000000  0.45962600  0.76737500  1
  Sb  Sb12  1  0.25000000  0.14553900  0.99929700  1
  Sb  Sb13  1  0.25000000  0.64553900  0.50070300  1
  Sb  Sb14  1  0.75000000  0.85446100  0.00070300  1
  Sb  Sb15  1  0.75000000  0.35446100  0.49929700  1
  Sb  Sb16  1  0.25000000  0.45769600  0.58777700  1
  Sb  Sb17  1  0.25000000  0.95769600  0.91222300  1
  Sb  Sb18  1  0.75000000  0.54230400  0.41222300  1
  Sb  Sb19  1  0.75000000  0.04230400  0.08777700  1
  Sb  Sb20  1  0.25000000  0.10231600  0.60318400  1
  Sb  Sb21  1  0.25000000  0.60231600  0.89681600  1
  Sb  Sb22  1  0.75000000  0.89768400  0.39681600  1
  Sb  Sb23  1  0.75000000  0.39768400  0.10318400  1
  Sb  Sb24  1  0.25000000  0.26504300  0.67605000  1
  Sb  Sb25  1  0.25000000  0.76504300  0.82395000  1
  Sb  Sb26  1  0.75000000  0.73495700  0.32395000  1
  Sb  Sb27  1  0.75000000  0.23495700  0.17605000  1
  S  S28  1  0.25000000  0.25415000  0.89806400  1
  S  S29  1  0.25000000  0.75415000  0.60193600  1
  S  S30  1  0.75000000  0.74585000  0.10193600  1
  S  S31  1  0.75000000  0.24585000  0.39806400  1
  S  S32  1  0.25000000  0.45117200  0.86176800  1
  S  S33  1  0.25000000  0.95117200  0.63823200  1
  S  S34  1  0.75000000  0.54882800  0.13823200  1
  S  S35  1  0.75000000  0.04882800  0.36176800  1
  S  S36  1  0.25000000  0.04972300  0.79259300  1
  S  S37  1  0.25000000  0.54972300  0.70740700  1
  S  S38  1  0.75000000  0.95027700  0.20740700  1
  S  S39  1  0.75000000  0.45027700  0.29259300  1
  S  S40  1  0.25000000  0.29613700  0.77439800  1
  S  S41  1  0.25000000  0.79613700  0.72560200  1
  S  S42  1  0.75000000  0.70386300  0.22560200  1
  S  S43  1  0.75000000  0.20386300  0.27439800  1
  S  S44  1  0.25000000  0.43053000  0.42238100  1
  S  S45  1  0.25000000  0.93053000  0.07761900  1
  S  S46  1  0.75000000  0.56947000  0.57761900  1
  S  S47  1  0.75000000  0.06947000  0.92238100  1
  S  S48  1  0.25000000  0.44481400  0.03491400  1
  S  S49  1  0.25000000  0.94481400  0.46508600  1
  S  S50  1  0.75000000  0.55518600  0.96508600  1
  S  S51  1  0.75000000  0.05518600  0.53491400  1
  S  S52  1  0.25000000  0.24707500  0.52349500  1
  S  S53  1  0.25000000  0.74707500  0.97650500  1
  S  S54  1  0.75000000  0.75292500  0.47650500  1
  S  S55  1  0.75000000  0.25292500  0.02349500  1
  S  S56  1  0.25000000  0.36980100  0.19050400  1
  S  S57  1  0.25000000  0.86980100  0.30949600  1
  S  S58  1  0.75000000  0.63019900  0.80949600  1
  S  S59  1  0.75000000  0.13019900  0.69050400  1
  S  S60  1  0.25000000  0.12541300  0.16420700  1
  S  S61  1  0.25000000  0.62541300  0.33579300  1
  S  S62  1  0.75000000  0.87458700  0.83579300  1
  S  S63  1  0.75000000  0.37458700  0.66420700  1
