# generated using pymatgen
data_Cs3Ge9(H3N)2
_symmetry_space_group_name_H-M   'P 1'
_cell_length_a   14.95071800
_cell_length_b   9.75379600
_cell_length_c   18.22763944
_cell_angle_alpha   60.54825746
_cell_angle_beta   90.00000000
_cell_angle_gamma   90.00000000
_symmetry_Int_Tables_number   1
_chemical_formula_structural   Cs3Ge9(H3N)2
_chemical_formula_sum   'Cs12 Ge36 H24 N8'
_cell_volume   2314.56654378
_cell_formula_units_Z   4
loop_
 _symmetry_equiv_pos_site_id
 _symmetry_equiv_pos_as_xyz
  1  'x, y, z'
loop_
 _atom_site_type_symbol
 _atom_site_label
 _atom_site_symmetry_multiplicity
 _atom_site_fract_x
 _atom_site_fract_y
 _atom_site_fract_z
 _atom_site_occupancy
  Cs  Cs0  1  0.89418100  0.66609500  0.89024000  1
  Cs  Cs1  1  0.60581900  0.66609500  0.39024000  1
  Cs  Cs2  1  0.10581900  0.33390500  0.10976000  1
  Cs  Cs3  1  0.39418100  0.33390500  0.60976000  1
  Cs  Cs4  1  0.76735700  0.21482000  0.84675600  1
  Cs  Cs5  1  0.73264300  0.21482000  0.34675600  1
  Cs  Cs6  1  0.23264300  0.78518000  0.15324400  1
  Cs  Cs7  1  0.26735700  0.78518000  0.65324400  1
  Cs  Cs8  1  0.55084100  0.73906300  0.98599400  1
  Cs  Cs9  1  0.94915900  0.73906300  0.48599400  1
  Cs  Cs10  1  0.44915900  0.26093700  0.01400600  1
  Cs  Cs11  1  0.05084100  0.26093700  0.51400600  1
  Ge  Ge12  1  0.14434700  0.85448300  0.90269900  1
  Ge  Ge13  1  0.35565300  0.85448300  0.40269900  1
  Ge  Ge14  1  0.85565300  0.14551700  0.09730100  1
  Ge  Ge15  1  0.64434700  0.14551700  0.59730100  1
  Ge  Ge16  1  0.75902300  0.68705800  0.69802900  1
  Ge  Ge17  1  0.74097700  0.68705800  0.19802900  1
  Ge  Ge18  1  0.24097700  0.31294200  0.30197100  1
  Ge  Ge19  1  0.25902300  0.31294200  0.80197100  1
  Ge  Ge20  1  0.71269100  0.92945600  0.73724700  1
  Ge  Ge21  1  0.78730900  0.92945600  0.23724700  1
  Ge  Ge22  1  0.28730900  0.07054400  0.26275300  1
  Ge  Ge23  1  0.21269100  0.07054400  0.76275300  1
  Ge  Ge24  1  0.79510700  0.80397700  0.04482800  1
  Ge  Ge25  1  0.70489300  0.80397700  0.54482800  1
  Ge  Ge26  1  0.20489300  0.19602300  0.95517200  1
  Ge  Ge27  1  0.29510700  0.19602300  0.45517200  1
  Ge  Ge28  1  0.07418900  0.32925100  0.84126800  1
  Ge  Ge29  1  0.42581100  0.32925100  0.34126800  1
  Ge  Ge30  1  0.92581100  0.67074900  0.15873200  1
  Ge  Ge31  1  0.57418900  0.67074900  0.65873200  1
  Ge  Ge32  1  0.92634100  0.97609600  0.04106700  1
  Ge  Ge33  1  0.57365900  0.97609600  0.54106700  1
  Ge  Ge34  1  0.07365900  0.02390400  0.95893300  1
  Ge  Ge35  1  0.42634100  0.02390400  0.45893300  1
  Ge  Ge36  1  0.03315100  0.09157300  0.80238800  1
  Ge  Ge37  1  0.46684900  0.09157300  0.30238800  1
  Ge  Ge38  1  0.96684900  0.90842700  0.19761200  1
  Ge  Ge39  1  0.53315100  0.90842700  0.69761200  1
  Ge  Ge40  1  0.70994400  0.98689100  0.09456500  1
  Ge  Ge41  1  0.79005600  0.98689100  0.59456500  1
  Ge  Ge42  1  0.29005600  0.01310900  0.90543500  1
  Ge  Ge43  1  0.20994400  0.01310900  0.40543500  1
  Ge  Ge44  1  0.62750600  0.65949300  0.79817900  1
  Ge  Ge45  1  0.87249400  0.65949300  0.29817900  1
  Ge  Ge46  1  0.37249400  0.34050700  0.20182100  1
  Ge  Ge47  1  0.12750600  0.34050700  0.70182100  1
  H  H48  1  0.53244000  0.29419100  0.79590600  1
  H  H49  1  0.96756000  0.29419100  0.29590600  1
  H  H50  1  0.46756000  0.70580900  0.20409400  1
  H  H51  1  0.03244000  0.70580900  0.70409400  1
  H  H52  1  0.54687400  0.13314900  0.79032400  1
  H  H53  1  0.95312600  0.13314900  0.29032400  1
  H  H54  1  0.45312600  0.86685100  0.20967600  1
  H  H55  1  0.04687400  0.86685100  0.70967600  1
  H  H56  1  0.48516800  0.13037300  0.86451100  1
  H  H57  1  0.01483200  0.13037300  0.36451100  1
  H  H58  1  0.51483200  0.86962700  0.13548900  1
  H  H59  1  0.98516800  0.86962700  0.63548900  1
  H  H60  1  0.64937100  0.29676000  0.09034200  1
  H  H61  1  0.85062900  0.29676000  0.59034200  1
  H  H62  1  0.35062900  0.70324000  0.90965800  1
  H  H63  1  0.14937100  0.70324000  0.40965800  1
  H  H64  1  0.68753400  0.43608500  0.10614900  1
  H  H65  1  0.81246600  0.43608500  0.60614900  1
  H  H66  1  0.31246600  0.56391500  0.89385100  1
  H  H67  1  0.18753400  0.56391500  0.39385100  1
  H  H68  1  0.59662300  0.33957700  0.15508600  1
  H  H69  1  0.90337700  0.33957700  0.65508600  1
  H  H70  1  0.40337700  0.66042300  0.84491400  1
  H  H71  1  0.09662300  0.66042300  0.34491400  1
  N  N72  1  0.54385900  0.17534000  0.83201200  1
  N  N73  1  0.95614100  0.17534000  0.33201200  1
  N  N74  1  0.45614100  0.82466000  0.16798800  1
  N  N75  1  0.04385900  0.82466000  0.66798800  1
  N  N76  1  0.62920000  0.38943000  0.09815400  1
  N  N77  1  0.87080000  0.38943000  0.59815400  1
  N  N78  1  0.37080000  0.61057000  0.90184600  1
  N  N79  1  0.12920000  0.61057000  0.40184600  1
