# generated using pymatgen
data_V5O14
_symmetry_space_group_name_H-M   'P 1'
_cell_length_a   10.54444400
_cell_length_b   10.68290048
_cell_length_c   17.36959266
_cell_angle_alpha   83.31322858
_cell_angle_beta   86.88142763
_cell_angle_gamma   70.67156349
_symmetry_Int_Tables_number   1
_chemical_formula_structural   V5O14
_chemical_formula_sum   'V20 O56'
_cell_volume   1833.49952416
_cell_formula_units_Z   4
loop_
 _symmetry_equiv_pos_site_id
 _symmetry_equiv_pos_as_xyz
  1  'x, y, z'
loop_
 _atom_site_type_symbol
 _atom_site_label
 _atom_site_symmetry_multiplicity
 _atom_site_fract_x
 _atom_site_fract_y
 _atom_site_fract_z
 _atom_site_occupancy
  V  V0  1  0.96043000  0.39233700  0.44759800  1
  V  V1  1  0.03957000  0.60766300  0.55240200  1
  V  V2  1  0.59614800  0.87751500  0.06570500  1
  V  V3  1  0.40385200  0.12248500  0.93429500  1
  V  V4  1  0.02044900  0.66274800  0.36035900  1
  V  V5  1  0.97955100  0.33725200  0.63964100  1
  V  V6  1  0.73382300  0.58089400  0.56462800  1
  V  V7  1  0.26617700  0.41910600  0.43537200  1
  V  V8  1  0.30522000  0.86741100  0.01025100  1
  V  V9  1  0.69478000  0.13258900  0.98974900  1
  V  V10  1  0.71752200  0.63735200  0.37571300  1
  V  V11  1  0.28247800  0.36264800  0.62428700  1
  V  V12  1  0.44979200  0.18669700  0.11207300  1
  V  V13  1  0.55020800  0.81330300  0.88792700  1
  V  V14  1  0.16284600  0.17178100  0.05746600  1
  V  V15  1  0.83715400  0.82821900  0.94253400  1
  V  V16  1  0.34639200  0.93864300  0.18370900  1
  V  V17  1  0.65360800  0.06135700  0.81629100  1
  V  V18  1  0.79553300  0.84314700  0.47556200  1
  V  V19  1  0.20446700  0.15685300  0.52443800  1
  O  O20  1  0.82813300  0.44242600  0.38495900  1
  O  O21  1  0.17186700  0.55757400  0.61504100  1
  O  O22  1  0.11925000  0.69002300  0.29077700  1
  O  O23  1  0.88075000  0.30997700  0.70922300  1
  O  O24  1  0.90389000  0.59529900  0.47176000  1
  O  O25  1  0.09611000  0.40470100  0.52824000  1
  O  O26  1  0.62428400  0.04038900  0.08570400  1
  O  O27  1  0.37571600  0.95961100  0.91429600  1
  O  O28  1  0.08398300  0.45889900  0.38290300  1
  O  O29  1  0.91601700  0.54110100  0.61709700  1
  O  O30  1  0.85923100  0.39378600  0.54374700  1
  O  O31  1  0.14076900  0.60621400  0.45625300  1
  O  O32  1  0.72894000  0.73528500  0.90787900  1
  O  O33  1  0.27106000  0.26471500  0.09212100  1
  O  O34  1  0.51028200  0.78898000  0.00508300  1
  O  O35  1  0.48971800  0.21102000  0.99491700  1
  O  O36  1  0.71263100  0.75822500  0.55584600  1
  O  O37  1  0.28736900  0.24177500  0.44415400  1
  O  O38  1  0.04661400  0.22467900  0.45101300  1
  O  O39  1  0.95338600  0.77532100  0.54898700  1
  O  O40  1  0.64894200  0.59158400  0.47448500  1
  O  O41  1  0.35105800  0.40841600  0.52551500  1
  O  O42  1  0.86959400  0.65562100  0.31680400  1
  O  O43  1  0.13040600  0.34437900  0.68319600  1
  O  O44  1  0.69008600  0.80694200  0.40453000  1
  O  O45  1  0.30991400  0.19305800  0.59547000  1
  O  O46  1  0.50165300  0.29429200  0.14724200  1
  O  O47  1  0.49834700  0.70570800  0.85275800  1
  O  O48  1  0.93416300  0.82121300  0.39867300  1
  O  O49  1  0.06583700  0.17878700  0.60132700  1
  O  O50  1  0.63749100  0.55160600  0.63483600  1
  O  O51  1  0.36250900  0.44839400  0.36516400  1
  O  O52  1  0.60215200  0.65169500  0.31508900  1
  O  O53  1  0.39784800  0.34830500  0.68491100  1
  O  O54  1  0.18645100  0.06996600  0.15320000  1
  O  O55  1  0.81354900  0.93003400  0.84680000  1
  O  O56  1  0.01061500  0.27190900  0.05794500  1
  O  O57  1  0.98938500  0.72809100  0.94205500  1
  O  O58  1  0.23972200  0.21505900  0.95247400  1
  O  O59  1  0.76027800  0.78494100  0.04752600  1
  O  O60  1  0.59591300  0.97873000  0.95307000  1
  O  O61  1  0.40408700  0.02127000  0.04693000  1
  O  O62  1  0.31956500  0.88305800  0.27103600  1
  O  O63  1  0.68043500  0.11694200  0.72896400  1
  O  O64  1  0.84058300  0.98139800  0.98755700  1
  O  O65  1  0.15941700  0.01860200  0.01244300  1
  O  O66  1  0.42086000  0.07533900  0.19340900  1
  O  O67  1  0.57914000  0.92466100  0.80659100  1
  O  O68  1  0.53922300  0.83458200  0.15607800  1
  O  O69  1  0.46077700  0.16541800  0.84392200  1
  O  O70  1  0.30865100  0.82910300  0.11503800  1
  O  O71  1  0.69134900  0.17089700  0.88496200  1
  O  O72  1  0.74153400  0.24264800  0.02608900  1
  O  O73  1  0.25846600  0.75735200  0.97391100  1
  O  O74  1  0.73384300  0.00104100  0.48251600  1
  O  O75  1  0.26615700  0.99895900  0.51748400  1
