# generated using pymatgen
data_CoH15Pd(NCl)5
_symmetry_space_group_name_H-M   'P 1'
_cell_length_a   8.10927500
_cell_length_b   9.42564700
_cell_length_c   16.60728200
_cell_angle_alpha   90.00000000
_cell_angle_beta   90.00000000
_cell_angle_gamma   90.00000000
_symmetry_Int_Tables_number   1
_chemical_formula_structural   CoH15Pd(NCl)5
_chemical_formula_sum   'Co4 H60 Pd4 N20 Cl20'
_cell_volume   1269.38031622
_cell_formula_units_Z   4
loop_
 _symmetry_equiv_pos_site_id
 _symmetry_equiv_pos_as_xyz
  1  'x, y, z'
loop_
 _atom_site_type_symbol
 _atom_site_label
 _atom_site_symmetry_multiplicity
 _atom_site_fract_x
 _atom_site_fract_y
 _atom_site_fract_z
 _atom_site_occupancy
  Co  Co0  1  0.99171200  0.14381100  0.59965300  1
  Co  Co1  1  0.49171200  0.85618900  0.40034700  1
  Co  Co2  1  0.49171200  0.64381100  0.90034700  1
  Co  Co3  1  0.99171200  0.35618900  0.09965300  1
  H  H4  1  0.25182400  0.29329800  0.57976200  1
  H  H5  1  0.75182400  0.70670200  0.42023800  1
  H  H6  1  0.75182400  0.79329800  0.92023800  1
  H  H7  1  0.25182400  0.20670200  0.07976200  1
  H  H8  1  0.11835200  0.34024300  0.51135700  1
  H  H9  1  0.61835200  0.65975700  0.48864300  1
  H  H10  1  0.61835200  0.84024300  0.98864300  1
  H  H11  1  0.11835200  0.15975700  0.01135700  1
  H  H12  1  0.22362500  0.19110500  0.50123800  1
  H  H13  1  0.72362500  0.80889500  0.49876200  1
  H  H14  1  0.72362500  0.69110500  0.99876200  1
  H  H15  1  0.22362500  0.30889500  0.00123800  1
  H  H16  1  0.24830800  0.09728400  0.68599200  1
  H  H17  1  0.74830800  0.90271600  0.31400800  1
  H  H18  1  0.74830800  0.59728400  0.81400800  1
  H  H19  1  0.24830800  0.40271600  0.18599200  1
  H  H20  1  0.23487900  0.97692300  0.61369600  1
  H  H21  1  0.73487900  0.02307700  0.38630400  1
  H  H22  1  0.73487900  0.47692300  0.88630400  1
  H  H23  1  0.23487900  0.52307700  0.11369600  1
  H  H24  1  0.12177700  0.96187100  0.69574100  1
  H  H25  1  0.62177700  0.03812900  0.30425900  1
  H  H26  1  0.62177700  0.46187100  0.80425900  1
  H  H27  1  0.12177700  0.53812900  0.19574100  1
  H  H28  1  0.82002100  0.92737400  0.64005300  1
  H  H29  1  0.32002100  0.07262600  0.35994700  1
  H  H30  1  0.32002100  0.42737400  0.85994700  1
  H  H31  1  0.82002100  0.57262600  0.14005300  1
  H  H32  1  0.70190400  0.06886700  0.65083200  1
  H  H33  1  0.20190400  0.93113300  0.34916800  1
  H  H34  1  0.20190400  0.56886700  0.84916800  1
  H  H35  1  0.70190400  0.43113300  0.15083200  1
  H  H36  1  0.83803800  0.03181800  0.71979800  1
  H  H37  1  0.33803800  0.96818200  0.28020200  1
  H  H38  1  0.33803800  0.53181800  0.78020200  1
  H  H39  1  0.83803800  0.46818200  0.21979800  1
  H  H40  1  0.88040000  0.30685900  0.70652100  1
  H  H41  1  0.38040000  0.69314100  0.29347900  1
  H  H42  1  0.38040000  0.80685900  0.79347900  1
  H  H43  1  0.88040000  0.19314100  0.20652100  1
  H  H44  1  0.04440300  0.38019900  0.66419500  1
  H  H45  1  0.54440300  0.61980100  0.33580500  1
  H  H46  1  0.54440300  0.88019900  0.83580500  1
  H  H47  1  0.04440300  0.11980100  0.16419500  1
  H  H48  1  0.06573100  0.25639500  0.73560200  1
  H  H49  1  0.56573100  0.74360500  0.26439800  1
  H  H50  1  0.56573100  0.75639500  0.76439800  1
  H  H51  1  0.06573100  0.24360500  0.23560200  1
  H  H52  1  0.85084700  0.28412300  0.48832500  1
  H  H53  1  0.35084700  0.71587700  0.51167500  1
  H  H54  1  0.35084700  0.78412300  0.01167500  1
  H  H55  1  0.85084700  0.21587700  0.98832500  1
  H  H56  1  0.78186300  0.34372900  0.57420500  1
  H  H57  1  0.28186300  0.65627100  0.42579500  1
  H  H58  1  0.28186300  0.84372900  0.92579500  1
  H  H59  1  0.78186300  0.15627100  0.07420500  1
  H  H60  1  0.71181600  0.19309200  0.53665700  1
  H  H61  1  0.21181600  0.80690800  0.46334300  1
  H  H62  1  0.21181600  0.69309200  0.96334300  1
  H  H63  1  0.71181600  0.30690800  0.03665700  1
  Pd  Pd64  1  0.00156000  0.66419800  0.65779800  1
  Pd  Pd65  1  0.50156000  0.33580200  0.34220200  1
  Pd  Pd66  1  0.50156000  0.16419800  0.84220200  1
  Pd  Pd67  1  0.00156000  0.83580200  0.15779800  1
  N  N68  1  0.16270100  0.25327300  0.54223800  1
  N  N69  1  0.66270100  0.74672700  0.45776200  1
  N  N70  1  0.66270100  0.75327300  0.95776200  1
  N  N71  1  0.16270100  0.24672700  0.04223800  1
  N  N72  1  0.16714200  0.03374600  0.65478900  1
  N  N73  1  0.66714200  0.96625400  0.34521100  1
  N  N74  1  0.66714200  0.53374600  0.84521100  1
  N  N75  1  0.16714200  0.46625400  0.15478900  1
  N  N76  1  0.82009000  0.03153800  0.65836400  1
  N  N77  1  0.32009000  0.96846200  0.34163600  1
  N  N78  1  0.32009000  0.53153800  0.84163600  1
  N  N79  1  0.82009000  0.46846200  0.15836400  1
  N  N80  1  0.99708300  0.28628900  0.68579500  1
  N  N81  1  0.49708300  0.71371100  0.31420500  1
  N  N82  1  0.49708300  0.78628900  0.81420500  1
  N  N83  1  0.99708300  0.21371100  0.18579500  1
  N  N84  1  0.81700300  0.25228700  0.54526300  1
  N  N85  1  0.31700300  0.74771300  0.45473700  1
  N  N86  1  0.31700300  0.75228700  0.95473700  1
  N  N87  1  0.81700300  0.24771300  0.04526300  1
  Cl  Cl88  1  0.99717400  0.57061000  0.52870000  1
  Cl  Cl89  1  0.49717400  0.42939000  0.47130000  1
  Cl  Cl90  1  0.49717400  0.07061000  0.97130000  1
  Cl  Cl91  1  0.99717400  0.92939000  0.02870000  1
  Cl  Cl92  1  0.00308100  0.76291800  0.78751100  1
  Cl  Cl93  1  0.50308100  0.23708200  0.21248900  1
  Cl  Cl94  1  0.50308100  0.26291800  0.71248900  1
  Cl  Cl95  1  0.00308100  0.73708200  0.28751100  1
  Cl  Cl96  1  0.71472100  0.65957100  0.65867900  1
  Cl  Cl97  1  0.21472100  0.34042900  0.34132100  1
  Cl  Cl98  1  0.21472100  0.15957100  0.84132100  1
  Cl  Cl99  1  0.71472100  0.84042900  0.15867900  1
  Cl  Cl100  1  0.28782500  0.67042800  0.65417900  1
  Cl  Cl101  1  0.78782500  0.32957200  0.34582100  1
  Cl  Cl102  1  0.78782500  0.17042800  0.84582100  1
  Cl  Cl103  1  0.28782500  0.82957200  0.15417900  1
  Cl  Cl104  1  0.99242000  0.98626800  0.49573400  1
  Cl  Cl105  1  0.49242000  0.01373200  0.50426600  1
  Cl  Cl106  1  0.49242000  0.48626800  0.00426600  1
  Cl  Cl107  1  0.99242000  0.51373200  0.99573400  1
