# generated using pymatgen
data_V2Cu3H6O11
_symmetry_space_group_name_H-M   'P 1'
_cell_length_a   5.95170800
_cell_length_b   8.97932843
_cell_length_c   10.03918076
_cell_angle_alpha   70.36462028
_cell_angle_beta   72.75705441
_cell_angle_gamma   70.64552103
_symmetry_Int_Tables_number   1
_chemical_formula_structural   V2Cu3H6O11
_chemical_formula_sum   'V4 Cu6 H12 O22'
_cell_volume   466.30841144
_cell_formula_units_Z   2
loop_
 _symmetry_equiv_pos_site_id
 _symmetry_equiv_pos_as_xyz
  1  'x, y, z'
loop_
 _atom_site_type_symbol
 _atom_site_label
 _atom_site_symmetry_multiplicity
 _atom_site_fract_x
 _atom_site_fract_y
 _atom_site_fract_z
 _atom_site_occupancy
  V  V0  1  0.40090700  0.37953600  0.36974800  1
  V  V1  1  0.84980900  0.87953600  0.86974800  1
  V  V2  1  0.64991500  0.12008000  0.13054200  1
  V  V3  1  0.09946200  0.62008000  0.63054200  1
  Cu  Cu4  1  0.75153300  0.49853800  0.50015100  1
  Cu  Cu5  1  0.24977700  0.99853800  0.00015100  1
  Cu  Cu6  1  0.49780400  0.25164100  0.74718300  1
  Cu  Cu7  1  0.50337200  0.75164100  0.24718300  1
  Cu  Cu8  1  0.99581300  0.24865400  0.75464600  1
  Cu  Cu9  1  0.00088700  0.74865400  0.25464600  1
  H  H10  1  0.88211900  0.51981500  0.22121700  1
  H  H11  1  0.37684900  0.01981500  0.72121700  1
  H  H12  1  0.12534000  0.97888800  0.28069100  1
  H  H13  1  0.61508100  0.47888800  0.78069100  1
  H  H14  1  0.57505200  0.64300800  0.92621100  1
  H  H15  1  0.85572900  0.14300800  0.42621100  1
  H  H16  1  0.11011000  0.10391400  0.45427600  1
  H  H17  1  0.33169900  0.60391400  0.95427600  1
  H  H18  1  0.93250300  0.34279600  0.08018200  1
  H  H19  1  0.64452000  0.84279600  0.58018200  1
  H  H20  1  0.38697800  0.87750600  0.55977300  1
  H  H21  1  0.17574400  0.37750600  0.05977300  1
  O  O22  1  0.92565300  0.15459700  0.02169400  1
  O  O23  1  0.89805600  0.65459700  0.52169400  1
  O  O24  1  0.60258200  0.34372800  0.47871400  1
  O  O25  1  0.57497700  0.84372800  0.97871400  1
  O  O26  1  0.17432200  0.41016100  0.73315600  1
  O  O27  1  0.68236100  0.91016100  0.23315600  1
  O  O28  1  0.81697100  0.08999200  0.76783900  1
  O  O29  1  0.32519900  0.58999200  0.26783900  1
  O  O30  1  0.80857400  0.59604500  0.28725600  1
  O  O31  1  0.30812500  0.09604500  0.78725600  1
  O  O32  1  0.19270400  0.90384800  0.21331200  1
  O  O33  1  0.69013600  0.40384800  0.71331200  1
  O  O34  1  0.35377700  0.67568000  0.52750600  1
  O  O35  1  0.44303600  0.17568000  0.02750600  1
  O  O36  1  0.05692800  0.82364200  0.97252300  1
  O  O37  1  0.14690800  0.32364200  0.47252300  1
  O  O38  1  0.55272600  0.25005200  0.24978800  1
  O  O39  1  0.94743400  0.75005200  0.74978800  1
  O  O40  1  0.50629200  0.55989400  0.92054800  1
  O  O41  1  0.01326600  0.05989400  0.42054800  1
  O  O42  1  0.48565300  0.92485500  0.58885600  1
  O  O43  1  0.00063600  0.42485500  0.08885600  1
