# generated using pymatgen
data_Te(CF2)4
_symmetry_space_group_name_H-M   'P 1'
_cell_length_a   19.48382880
_cell_length_b   19.48382880
_cell_length_c   19.48382880
_cell_angle_alpha   60.00000000
_cell_angle_beta   60.00000000
_cell_angle_gamma   60.00000000
_symmetry_Int_Tables_number   1
_chemical_formula_structural   Te(CF2)4
_chemical_formula_sum   'Te24 C96 F192'
_cell_volume   5230.07500257
_cell_formula_units_Z   24
loop_
 _symmetry_equiv_pos_site_id
 _symmetry_equiv_pos_as_xyz
  1  'x, y, z'
loop_
 _atom_site_type_symbol
 _atom_site_label
 _atom_site_symmetry_multiplicity
 _atom_site_fract_x
 _atom_site_fract_y
 _atom_site_fract_z
 _atom_site_occupancy
  Te  Te0  1  0.25000000  0.75000000  0.97152563  1
  Te  Te1  1  0.52847437  0.97152563  0.75000000  1
  Te  Te2  1  0.97152563  0.52847437  0.25000000  1
  Te  Te3  1  0.75000000  0.25000000  0.52847437  1
  Te  Te4  1  0.97152563  0.25000000  0.75000000  1
  Te  Te5  1  0.75000000  0.52847437  0.97152563  1
  Te  Te6  1  0.25000000  0.97152563  0.52847437  1
  Te  Te7  1  0.52847437  0.75000000  0.25000000  1
  Te  Te8  1  0.75000000  0.97152563  0.25000000  1
  Te  Te9  1  0.97152563  0.75000000  0.52847437  1
  Te  Te10  1  0.52847437  0.25000000  0.97152563  1
  Te  Te11  1  0.25000000  0.52847437  0.75000000  1
  Te  Te12  1  0.75000000  0.25000000  0.02847437  1
  Te  Te13  1  0.47152563  0.02847437  0.25000000  1
  Te  Te14  1  0.02847437  0.47152563  0.75000000  1
  Te  Te15  1  0.25000000  0.75000000  0.47152563  1
  Te  Te16  1  0.02847437  0.75000000  0.25000000  1
  Te  Te17  1  0.25000000  0.47152563  0.02847437  1
  Te  Te18  1  0.75000000  0.02847437  0.47152563  1
  Te  Te19  1  0.47152563  0.25000000  0.75000000  1
  Te  Te20  1  0.25000000  0.02847437  0.75000000  1
  Te  Te21  1  0.02847437  0.25000000  0.47152563  1
  Te  Te22  1  0.47152563  0.75000000  0.02847437  1
  Te  Te23  1  0.75000000  0.47152563  0.25000000  1
  C  C24  1  0.15573185  0.76694016  0.93280076  1
  C  C25  1  0.64452723  0.93280076  0.76694016  1
  C  C26  1  0.93280076  0.64452723  0.15573185  1
  C  C27  1  0.76694016  0.15573185  0.64452723  1
  C  C28  1  0.93280076  0.15573185  0.76694016  1
  C  C29  1  0.76694016  0.64452723  0.93280076  1
  C  C30  1  0.15573185  0.93280076  0.64452723  1
  C  C31  1  0.64452723  0.76694016  0.15573185  1
  C  C32  1  0.76694016  0.93280076  0.15573185  1
  C  C33  1  0.93280076  0.76694016  0.64452723  1
  C  C34  1  0.64452723  0.15573185  0.93280076  1
  C  C35  1  0.15573185  0.64452723  0.76694016  1
  C  C36  1  0.84426815  0.23305984  0.06719924  1
  C  C37  1  0.35547277  0.06719924  0.23305984  1
  C  C38  1  0.06719924  0.35547277  0.84426815  1
  C  C39  1  0.23305984  0.84426815  0.35547277  1
  C  C40  1  0.06719924  0.84426815  0.23305984  1
  C  C41  1  0.23305984  0.35547277  0.06719924  1
  C  C42  1  0.84426815  0.06719924  0.35547277  1
  C  C43  1  0.35547277  0.23305984  0.84426815  1
  C  C44  1  0.23305984  0.06719924  0.84426815  1
  C  C45  1  0.06719924  0.23305984  0.35547277  1
  C  C46  1  0.35547277  0.84426815  0.06719924  1
  C  C47  1  0.84426815  0.35547277  0.23305984  1
  C  C48  1  0.26694016  0.65573185  0.43280076  1
  C  C49  1  0.43280076  0.14452723  0.26694016  1
  C  C50  1  0.14452723  0.43280076  0.65573185  1
  C  C51  1  0.65573185  0.26694016  0.14452723  1
  C  C52  1  0.65573185  0.43280076  0.26694016  1
  C  C53  1  0.14452723  0.26694016  0.43280076  1
  C  C54  1  0.43280076  0.65573185  0.14452723  1
  C  C55  1  0.26694016  0.14452723  0.65573185  1
  C  C56  1  0.43280076  0.26694016  0.65573185  1
  C  C57  1  0.26694016  0.43280076  0.14452723  1
  C  C58  1  0.65573185  0.14452723  0.43280076  1
  C  C59  1  0.14452723  0.65573185  0.26694016  1
  C  C60  1  0.73305984  0.34426815  0.56719924  1
  C  C61  1  0.56719924  0.85547277  0.73305984  1
  C  C62  1  0.85547277  0.56719924  0.34426815  1
  C  C63  1  0.34426815  0.73305984  0.85547277  1
  C  C64  1  0.34426815  0.56719924  0.73305984  1
  C  C65  1  0.85547277  0.73305984  0.56719924  1
  C  C66  1  0.56719924  0.34426815  0.85547277  1
  C  C67  1  0.73305984  0.85547277  0.34426815  1
  C  C68  1  0.56719924  0.73305984  0.34426815  1
  C  C69  1  0.73305984  0.56719924  0.85547277  1
  C  C70  1  0.34426815  0.85547277  0.56719924  1
  C  C71  1  0.85547277  0.34426815  0.73305984  1
  C  C72  1  0.08424541  0.83202664  0.93330764  1
  C  C73  1  0.65042031  0.93330764  0.83202664  1
  C  C74  1  0.93330764  0.65042031  0.08424541  1
  C  C75  1  0.83202664  0.08424541  0.65042031  1
  C  C76  1  0.93330764  0.08424541  0.83202664  1
  C  C77  1  0.83202664  0.65042031  0.93330764  1
  C  C78  1  0.08424541  0.93330764  0.65042031  1
  C  C79  1  0.65042031  0.83202664  0.08424541  1
  C  C80  1  0.83202664  0.93330764  0.08424541  1
  C  C81  1  0.93330764  0.83202664  0.65042031  1
  C  C82  1  0.65042031  0.08424541  0.93330764  1
  C  C83  1  0.08424541  0.65042031  0.83202664  1
  C  C84  1  0.91575459  0.16797336  0.06669236  1
  C  C85  1  0.34957969  0.06669236  0.16797336  1
  C  C86  1  0.06669236  0.34957969  0.91575459  1
  C  C87  1  0.16797336  0.91575459  0.34957969  1
  C  C88  1  0.06669236  0.91575459  0.16797336  1
  C  C89  1  0.16797336  0.34957969  0.06669236  1
  C  C90  1  0.91575459  0.06669236  0.34957969  1
  C  C91  1  0.34957969  0.16797336  0.91575459  1
  C  C92  1  0.16797336  0.06669236  0.91575459  1
  C  C93  1  0.06669236  0.16797336  0.34957969  1
  C  C94  1  0.34957969  0.91575459  0.06669236  1
  C  C95  1  0.91575459  0.34957969  0.16797336  1
  C  C96  1  0.33202664  0.58424541  0.43330764  1
  C  C97  1  0.43330764  0.15042031  0.33202664  1
  C  C98  1  0.15042031  0.43330764  0.58424541  1
  C  C99  1  0.58424541  0.33202664  0.15042031  1
  C  C100  1  0.58424541  0.43330764  0.33202664  1
  C  C101  1  0.15042031  0.33202664  0.43330764  1
  C  C102  1  0.43330764  0.58424541  0.15042031  1
  C  C103  1  0.33202664  0.15042031  0.58424541  1
  C  C104  1  0.43330764  0.33202664  0.58424541  1
  C  C105  1  0.33202664  0.43330764  0.15042031  1
  C  C106  1  0.58424541  0.15042031  0.43330764  1
  C  C107  1  0.15042031  0.58424541  0.33202664  1
  C  C108  1  0.66797336  0.41575459  0.56669236  1
  C  C109  1  0.56669236  0.84957969  0.66797336  1
  C  C110  1  0.84957969  0.56669236  0.41575459  1
  C  C111  1  0.41575459  0.66797336  0.84957969  1
  C  C112  1  0.41575459  0.56669236  0.66797336  1
  C  C113  1  0.84957969  0.66797336  0.56669236  1
  C  C114  1  0.56669236  0.41575459  0.84957969  1
  C  C115  1  0.66797336  0.84957969  0.41575459  1
  C  C116  1  0.56669236  0.66797336  0.41575459  1
  C  C117  1  0.66797336  0.56669236  0.84957969  1
  C  C118  1  0.41575459  0.84957969  0.56669236  1
  C  C119  1  0.84957969  0.41575459  0.66797336  1
  F  F120  1  0.23858273  0.87279258  0.90491754  1
  F  F121  1  0.48370715  0.90491754  0.87279258  1
  F  F122  1  0.90491754  0.48370715  0.23858273  1
  F  F123  1  0.87279258  0.23858273  0.48370715  1
  F  F124  1  0.90491754  0.23858273  0.87279258  1
  F  F125  1  0.87279258  0.48370715  0.90491754  1
  F  F126  1  0.23858273  0.90491754  0.48370715  1
  F  F127  1  0.48370715  0.87279258  0.23858273  1
  F  F128  1  0.87279258  0.90491754  0.23858273  1
  F  F129  1  0.90491754  0.87279258  0.48370715  1
  F  F130  1  0.48370715  0.23858273  0.90491754  1
  F  F131  1  0.23858273  0.48370715  0.87279258  1
  F  F132  1  0.76141727  0.12720742  0.09508246  1
  F  F133  1  0.51629285  0.09508246  0.12720742  1
  F  F134  1  0.09508246  0.51629285  0.76141727  1
  F  F135  1  0.12720742  0.76141727  0.51629285  1
  F  F136  1  0.09508246  0.76141727  0.12720742  1
  F  F137  1  0.12720742  0.51629285  0.09508246  1
  F  F138  1  0.76141727  0.09508246  0.51629285  1
  F  F139  1  0.51629285  0.12720742  0.76141727  1
  F  F140  1  0.12720742  0.09508246  0.76141727  1
  F  F141  1  0.09508246  0.12720742  0.51629285  1
  F  F142  1  0.51629285  0.76141727  0.09508246  1
  F  F143  1  0.76141727  0.51629285  0.12720742  1
  F  F144  1  0.37279258  0.73858273  0.40491754  1
  F  F145  1  0.40491754  0.98370715  0.37279258  1
  F  F146  1  0.98370715  0.40491754  0.73858273  1
  F  F147  1  0.73858273  0.37279258  0.98370715  1
  F  F148  1  0.73858273  0.40491754  0.37279258  1
  F  F149  1  0.98370715  0.37279258  0.40491754  1
  F  F150  1  0.40491754  0.73858273  0.98370715  1
  F  F151  1  0.37279258  0.98370715  0.73858273  1
  F  F152  1  0.40491754  0.37279258  0.73858273  1
  F  F153  1  0.37279258  0.40491754  0.98370715  1
  F  F154  1  0.73858273  0.98370715  0.40491754  1
  F  F155  1  0.98370715  0.73858273  0.37279258  1
  F  F156  1  0.62720742  0.26141727  0.59508246  1
  F  F157  1  0.59508246  0.01629285  0.62720742  1
  F  F158  1  0.01629285  0.59508246  0.26141727  1
  F  F159  1  0.26141727  0.62720742  0.01629285  1
  F  F160  1  0.26141727  0.59508246  0.62720742  1
  F  F161  1  0.01629285  0.62720742  0.59508246  1
  F  F162  1  0.59508246  0.26141727  0.01629285  1
  F  F163  1  0.62720742  0.01629285  0.26141727  1
  F  F164  1  0.59508246  0.62720742  0.26141727  1
  F  F165  1  0.62720742  0.59508246  0.01629285  1
  F  F166  1  0.26141727  0.01629285  0.59508246  1
  F  F167  1  0.01629285  0.26141727  0.62720742  1
  F  F168  1  0.02588093  0.84170128  0.90953287  1
  F  F169  1  0.72288493  0.90953287  0.84170128  1
  F  F170  1  0.90953287  0.72288493  0.02588093  1
  F  F171  1  0.84170128  0.02588093  0.72288493  1
  F  F172  1  0.90953287  0.02588093  0.84170128  1
  F  F173  1  0.84170128  0.72288493  0.90953287  1
  F  F174  1  0.02588093  0.90953287  0.72288493  1
  F  F175  1  0.72288493  0.84170128  0.02588093  1
  F  F176  1  0.84170128  0.90953287  0.02588093  1
  F  F177  1  0.90953287  0.84170128  0.72288493  1
  F  F178  1  0.72288493  0.02588093  0.90953287  1
  F  F179  1  0.02588093  0.72288493  0.84170128  1
  F  F180  1  0.97411907  0.15829872  0.09046713  1
  F  F181  1  0.27711507  0.09046713  0.15829872  1
  F  F182  1  0.09046713  0.27711507  0.97411907  1
  F  F183  1  0.15829872  0.97411907  0.27711507  1
  F  F184  1  0.09046713  0.97411907  0.15829872  1
  F  F185  1  0.15829872  0.27711507  0.09046713  1
  F  F186  1  0.97411907  0.09046713  0.27711507  1
  F  F187  1  0.27711507  0.15829872  0.97411907  1
  F  F188  1  0.15829872  0.09046713  0.97411907  1
  F  F189  1  0.09046713  0.15829872  0.27711507  1
  F  F190  1  0.27711507  0.97411907  0.09046713  1
  F  F191  1  0.97411907  0.27711507  0.15829872  1
  F  F192  1  0.34170128  0.52588093  0.40953287  1
  F  F193  1  0.40953287  0.22288493  0.34170128  1
  F  F194  1  0.22288493  0.40953287  0.52588093  1
  F  F195  1  0.52588093  0.34170128  0.22288493  1
  F  F196  1  0.52588093  0.40953287  0.34170128  1
  F  F197  1  0.22288493  0.34170128  0.40953287  1
  F  F198  1  0.40953287  0.52588093  0.22288493  1
  F  F199  1  0.34170128  0.22288493  0.52588093  1
  F  F200  1  0.40953287  0.34170128  0.52588093  1
  F  F201  1  0.34170128  0.40953287  0.22288493  1
  F  F202  1  0.52588093  0.22288493  0.40953287  1
  F  F203  1  0.22288493  0.52588093  0.34170128  1
  F  F204  1  0.65829872  0.47411907  0.59046713  1
  F  F205  1  0.59046713  0.77711507  0.65829872  1
  F  F206  1  0.77711507  0.59046713  0.47411907  1
  F  F207  1  0.47411907  0.65829872  0.77711507  1
  F  F208  1  0.47411907  0.59046713  0.65829872  1
  F  F209  1  0.77711507  0.65829872  0.59046713  1
  F  F210  1  0.59046713  0.47411907  0.77711507  1
  F  F211  1  0.65829872  0.77711507  0.47411907  1
  F  F212  1  0.59046713  0.65829872  0.47411907  1
  F  F213  1  0.65829872  0.59046713  0.77711507  1
  F  F214  1  0.47411907  0.77711507  0.59046713  1
  F  F215  1  0.77711507  0.47411907  0.65829872  1
  F  F216  1  0.16940278  0.70501061  0.90928049  1
  F  F217  1  0.71630612  0.90928049  0.70501061  1
  F  F218  1  0.90928049  0.71630612  0.16940278  1
  F  F219  1  0.70501061  0.16940278  0.71630612  1
  F  F220  1  0.90928049  0.16940278  0.70501061  1
  F  F221  1  0.70501061  0.71630612  0.90928049  1
  F  F222  1  0.16940278  0.90928049  0.71630612  1
  F  F223  1  0.71630612  0.70501061  0.16940278  1
  F  F224  1  0.70501061  0.90928049  0.16940278  1
  F  F225  1  0.90928049  0.70501061  0.71630612  1
  F  F226  1  0.71630612  0.16940278  0.90928049  1
  F  F227  1  0.16940278  0.71630612  0.70501061  1
  F  F228  1  0.83059722  0.29498939  0.09071951  1
  F  F229  1  0.28369388  0.09071951  0.29498939  1
  F  F230  1  0.09071951  0.28369388  0.83059722  1
  F  F231  1  0.29498939  0.83059722  0.28369388  1
  F  F232  1  0.09071951  0.83059722  0.29498939  1
  F  F233  1  0.29498939  0.28369388  0.09071951  1
  F  F234  1  0.83059722  0.09071951  0.28369388  1
  F  F235  1  0.28369388  0.29498939  0.83059722  1
  F  F236  1  0.29498939  0.09071951  0.83059722  1
  F  F237  1  0.09071951  0.29498939  0.28369388  1
  F  F238  1  0.28369388  0.83059722  0.09071951  1
  F  F239  1  0.83059722  0.28369388  0.29498939  1
  F  F240  1  0.20501061  0.66940278  0.40928049  1
  F  F241  1  0.40928049  0.21630612  0.20501061  1
  F  F242  1  0.21630612  0.40928049  0.66940278  1
  F  F243  1  0.66940278  0.20501061  0.21630612  1
  F  F244  1  0.66940278  0.40928049  0.20501061  1
  F  F245  1  0.21630612  0.20501061  0.40928049  1
  F  F246  1  0.40928049  0.66940278  0.21630612  1
  F  F247  1  0.20501061  0.21630612  0.66940278  1
  F  F248  1  0.40928049  0.20501061  0.66940278  1
  F  F249  1  0.20501061  0.40928049  0.21630612  1
  F  F250  1  0.66940278  0.21630612  0.40928049  1
  F  F251  1  0.21630612  0.66940278  0.20501061  1
  F  F252  1  0.79498939  0.33059722  0.59071951  1
  F  F253  1  0.59071951  0.78369388  0.79498939  1
  F  F254  1  0.78369388  0.59071951  0.33059722  1
  F  F255  1  0.33059722  0.79498939  0.78369388  1
  F  F256  1  0.33059722  0.59071951  0.79498939  1
  F  F257  1  0.78369388  0.79498939  0.59071951  1
  F  F258  1  0.59071951  0.33059722  0.78369388  1
  F  F259  1  0.79498939  0.78369388  0.33059722  1
  F  F260  1  0.59071951  0.79498939  0.33059722  1
  F  F261  1  0.79498939  0.59071951  0.78369388  1
  F  F262  1  0.33059722  0.78369388  0.59071951  1
  F  F263  1  0.78369388  0.33059722  0.79498939  1
  F  F264  1  0.06317599  0.89517156  0.95663670  1
  F  F265  1  0.58501576  0.95663670  0.89517156  1
  F  F266  1  0.95663670  0.58501576  0.06317599  1
  F  F267  1  0.89517156  0.06317599  0.58501576  1
  F  F268  1  0.95663670  0.06317599  0.89517156  1
  F  F269  1  0.89517156  0.58501576  0.95663670  1
  F  F270  1  0.06317599  0.95663670  0.58501576  1
  F  F271  1  0.58501576  0.89517156  0.06317599  1
  F  F272  1  0.89517156  0.95663670  0.06317599  1
  F  F273  1  0.95663670  0.89517156  0.58501576  1
  F  F274  1  0.58501576  0.06317599  0.95663670  1
  F  F275  1  0.06317599  0.58501576  0.89517156  1
  F  F276  1  0.93682401  0.10482844  0.04336330  1
  F  F277  1  0.41498424  0.04336330  0.10482844  1
  F  F278  1  0.04336330  0.41498424  0.93682401  1
  F  F279  1  0.10482844  0.93682401  0.41498424  1
  F  F280  1  0.04336330  0.93682401  0.10482844  1
  F  F281  1  0.10482844  0.41498424  0.04336330  1
  F  F282  1  0.93682401  0.04336330  0.41498424  1
  F  F283  1  0.41498424  0.10482844  0.93682401  1
  F  F284  1  0.10482844  0.04336330  0.93682401  1
  F  F285  1  0.04336330  0.10482844  0.41498424  1
  F  F286  1  0.41498424  0.93682401  0.04336330  1
  F  F287  1  0.93682401  0.41498424  0.10482844  1
  F  F288  1  0.39517156  0.56317599  0.45663670  1
  F  F289  1  0.45663670  0.08501576  0.39517156  1
  F  F290  1  0.08501576  0.45663670  0.56317599  1
  F  F291  1  0.56317599  0.39517156  0.08501576  1
  F  F292  1  0.56317599  0.45663670  0.39517156  1
  F  F293  1  0.08501576  0.39517156  0.45663670  1
  F  F294  1  0.45663670  0.56317599  0.08501576  1
  F  F295  1  0.39517156  0.08501576  0.56317599  1
  F  F296  1  0.45663670  0.39517156  0.56317599  1
  F  F297  1  0.39517156  0.45663670  0.08501576  1
  F  F298  1  0.56317599  0.08501576  0.45663670  1
  F  F299  1  0.08501576  0.56317599  0.39517156  1
  F  F300  1  0.60482844  0.43682401  0.54336330  1
  F  F301  1  0.54336330  0.91498424  0.60482844  1
  F  F302  1  0.91498424  0.54336330  0.43682401  1
  F  F303  1  0.43682401  0.60482844  0.91498424  1
  F  F304  1  0.43682401  0.54336330  0.60482844  1
  F  F305  1  0.91498424  0.60482844  0.54336330  1
  F  F306  1  0.54336330  0.43682401  0.91498424  1
  F  F307  1  0.60482844  0.91498424  0.43682401  1
  F  F308  1  0.54336330  0.60482844  0.43682401  1
  F  F309  1  0.60482844  0.54336330  0.91498424  1
  F  F310  1  0.43682401  0.91498424  0.54336330  1
  F  F311  1  0.91498424  0.43682401  0.60482844  1
