# generated using pymatgen
data_InAs2PbO8
_symmetry_space_group_name_H-M   'P 1'
_cell_length_a   8.61847100
_cell_length_b   5.09123800
_cell_length_c   16.44382630
_cell_angle_alpha   75.32876765
_cell_angle_beta   90.00000000
_cell_angle_gamma   90.00000000
_symmetry_Int_Tables_number   1
_chemical_formula_structural   InAs2PbO8
_chemical_formula_sum   'In4 As8 Pb4 O32'
_cell_volume   698.00793701
_cell_formula_units_Z   4
loop_
 _symmetry_equiv_pos_site_id
 _symmetry_equiv_pos_as_xyz
  1  'x, y, z'
loop_
 _atom_site_type_symbol
 _atom_site_label
 _atom_site_symmetry_multiplicity
 _atom_site_fract_x
 _atom_site_fract_y
 _atom_site_fract_z
 _atom_site_occupancy
  In  In0  1  0.95304200  0.69650000  0.64163500  1
  In  In1  1  0.54695800  0.69650000  0.14163500  1
  In  In2  1  0.04695800  0.30350000  0.35836500  1
  In  In3  1  0.45304200  0.30350000  0.85836500  1
  As  As4  1  0.79532500  0.30910900  0.51652300  1
  As  As5  1  0.70467500  0.30910900  0.01652300  1
  As  As6  1  0.20467500  0.69089100  0.48347700  1
  As  As7  1  0.29532500  0.69089100  0.98347700  1
  As  As8  1  0.76365100  0.07897600  0.76329200  1
  As  As9  1  0.73634900  0.07897600  0.26329200  1
  As  As10  1  0.23634900  0.92102400  0.23670800  1
  As  As11  1  0.26365100  0.92102400  0.73670800  1
  Pb  Pb12  1  0.52077700  0.77573900  0.61938000  1
  Pb  Pb13  1  0.97922300  0.77573900  0.11938000  1
  Pb  Pb14  1  0.47922300  0.22426100  0.38062000  1
  Pb  Pb15  1  0.02077700  0.22426100  0.88062000  1
  O  O16  1  0.94430300  0.11156300  0.56603600  1
  O  O17  1  0.55569700  0.11156300  0.06603600  1
  O  O18  1  0.05569700  0.88843700  0.43396400  1
  O  O19  1  0.44430300  0.88843700  0.93396400  1
  O  O20  1  0.83921500  0.42053300  0.41224200  1
  O  O21  1  0.66078500  0.42053300  0.91224200  1
  O  O22  1  0.16078500  0.57946700  0.58775800  1
  O  O23  1  0.33921500  0.57946700  0.08775800  1
  O  O24  1  0.76651800  0.56788200  0.56773300  1
  O  O25  1  0.73348200  0.56788200  0.06773300  1
  O  O26  1  0.23348200  0.43211800  0.43226700  1
  O  O27  1  0.26651800  0.43211800  0.93226700  1
  O  O28  1  0.60965600  0.16197900  0.51854000  1
  O  O29  1  0.89034400  0.16197900  0.01854000  1
  O  O30  1  0.39034400  0.83802100  0.48146000  1
  O  O31  1  0.10965600  0.83802100  0.98146000  1
  O  O32  1  0.58995200  0.24829000  0.75303300  1
  O  O33  1  0.91004800  0.24829000  0.25303300  1
  O  O34  1  0.41004800  0.75171000  0.24696700  1
  O  O35  1  0.08995200  0.75171000  0.74696700  1
  O  O36  1  0.74684700  0.85608900  0.69902200  1
  O  O37  1  0.75315300  0.85608900  0.19902200  1
  O  O38  1  0.25315300  0.14391100  0.30097800  1
  O  O39  1  0.24684700  0.14391100  0.80097800  1
  O  O40  1  0.91819700  0.30674300  0.73379100  1
  O  O41  1  0.58180300  0.30674300  0.23379100  1
  O  O42  1  0.08180300  0.69325700  0.26620900  1
  O  O43  1  0.41819700  0.69325700  0.76620900  1
  O  O44  1  0.82564800  0.92478100  0.86356900  1
  O  O45  1  0.67435200  0.92478100  0.36356900  1
  O  O46  1  0.17435200  0.07521900  0.13643100  1
  O  O47  1  0.32564800  0.07521900  0.63643100  1
