# generated using pymatgen
data_Ba2SnS4O11
_symmetry_space_group_name_H-M   'P 1'
_cell_length_a   7.29925860
_cell_length_b   5.87376524
_cell_length_c   17.29369784
_cell_angle_alpha   102.14431908
_cell_angle_beta   91.87935208
_cell_angle_gamma   108.01395432
_symmetry_Int_Tables_number   1
_chemical_formula_structural   Ba2SnS4O11
_chemical_formula_sum   'Ba4 Sn2 S8 O22'
_cell_volume   685.49861328
_cell_formula_units_Z   2
loop_
 _symmetry_equiv_pos_site_id
 _symmetry_equiv_pos_as_xyz
  1  'x, y, z'
loop_
 _atom_site_type_symbol
 _atom_site_label
 _atom_site_symmetry_multiplicity
 _atom_site_fract_x
 _atom_site_fract_y
 _atom_site_fract_z
 _atom_site_occupancy
  Ba  Ba0  1  0.95939700  0.65754300  0.37301000  1
  Ba  Ba1  1  0.04060300  0.34245700  0.62699000  1
  Ba  Ba2  1  0.80512900  0.47236900  0.07729300  1
  Ba  Ba3  1  0.19487100  0.52763100  0.92270700  1
  Sn  Sn4  1  0.36043700  0.85019600  0.17449900  1
  Sn  Sn5  1  0.63956300  0.14980400  0.82550100  1
  S  S6  1  0.30399100  0.38999400  0.45137500  1
  S  S7  1  0.69600900  0.61000600  0.54862500  1
  S  S8  1  0.99318600  0.07087800  0.20871900  1
  S  S9  1  0.00681400  0.92912200  0.79128100  1
  S  S10  1  0.28609300  0.24158400  0.08138900  1
  S  S11  1  0.71390700  0.75841600  0.91861100  1
  S  S12  1  0.47829300  0.63354500  0.34485200  1
  S  S13  1  0.52170700  0.36645500  0.65514800  1
  O  O14  1  0.57623700  0.47197400  0.29803100  1
  O  O15  1  0.42376300  0.52802600  0.70196900  1
  O  O16  1  0.21555000  0.57251700  0.49467700  1
  O  O17  1  0.78445000  0.42748300  0.50532300  1
  O  O18  1  0.01382300  0.85870900  0.24697500  1
  O  O19  1  0.98617700  0.14129100  0.75302500  1
  O  O20  1  0.40169800  0.47734000  0.14514400  1
  O  O21  1  0.59830200  0.52266000  0.85485600  1
  O  O22  1  0.60900600  0.81119800  0.41422500  1
  O  O23  1  0.39099400  0.18880200  0.58577500  1
  O  O24  1  0.10051300  0.25971800  0.05071300  1
  O  O25  1  0.89948700  0.74028200  0.94928700  1
  O  O26  1  0.97666800  0.27691900  0.27623000  1
  O  O27  1  0.02333200  0.72308100  0.72377000  1
  O  O28  1  0.84043300  0.86123300  0.56963100  1
  O  O29  1  0.15956700  0.13876700  0.43036900  1
  O  O30  1  0.41398500  0.21712400  0.01649100  1
  O  O31  1  0.58601500  0.78287600  0.98350900  1
  O  O32  1  0.79940900  0.96248200  0.15680000  1
  O  O33  1  0.20059100  0.03751800  0.84320000  1
  O  O34  1  0.18449300  0.74869000  0.07557300  1
  O  O35  1  0.81550700  0.25131000  0.92442700  1
