# generated using pymatgen
data_P2H27C10N4Cl
_symmetry_space_group_name_H-M   'P 1'
_cell_length_a   13.57779246
_cell_length_b   16.58690719
_cell_length_c   17.39218859
_cell_angle_alpha   90.00000000
_cell_angle_beta   90.00000000
_cell_angle_gamma   90.00000000
_symmetry_Int_Tables_number   1
_chemical_formula_structural   P2H27C10N4Cl
_chemical_formula_sum   'P16 H216 C80 N32 Cl8'
_cell_volume   3916.95711516
_cell_formula_units_Z   8
loop_
 _symmetry_equiv_pos_site_id
 _symmetry_equiv_pos_as_xyz
  1  'x, y, z'
loop_
 _atom_site_type_symbol
 _atom_site_label
 _atom_site_symmetry_multiplicity
 _atom_site_fract_x
 _atom_site_fract_y
 _atom_site_fract_z
 _atom_site_occupancy
  P  P0  1  0.30121926  0.44233458  0.11863914  1
  P  P1  1  0.69878074  0.94233458  0.38136086  1
  P  P2  1  0.19878074  0.55766542  0.61863914  1
  P  P3  1  0.80121926  0.05766542  0.88136086  1
  P  P4  1  0.69878074  0.55766542  0.88136086  1
  P  P5  1  0.30121926  0.05766542  0.61863914  1
  P  P6  1  0.80121926  0.44233458  0.38136086  1
  P  P7  1  0.19878074  0.94233458  0.11863914  1
  P  P8  1  0.41203858  0.32585793  0.08892515  1
  P  P9  1  0.58796142  0.82585793  0.41107485  1
  P  P10  1  0.08796142  0.67414207  0.58892515  1
  P  P11  1  0.91203858  0.17414207  0.91107485  1
  P  P12  1  0.58796142  0.67414207  0.91107485  1
  P  P13  1  0.41203858  0.17414207  0.58892515  1
  P  P14  1  0.91203858  0.32585793  0.41107485  1
  P  P15  1  0.08796142  0.82585793  0.08892515  1
  H  H16  1  0.47247111  0.47076962  0.08208903  1
  H  H17  1  0.52752889  0.97076962  0.41791097  1
  H  H18  1  0.02752889  0.52923038  0.58208903  1
  H  H19  1  0.97247111  0.02923038  0.91791097  1
  H  H20  1  0.52752889  0.52923038  0.91791097  1
  H  H21  1  0.47247111  0.02923038  0.58208903  1
  H  H22  1  0.97247111  0.47076962  0.41791097  1
  H  H23  1  0.02752889  0.97076962  0.08208903  1
  H  H24  1  0.40625224  0.43762471  0.99684376  1
  H  H25  1  0.59374776  0.93762471  0.50315624  1
  H  H26  1  0.09374776  0.56237529  0.49684376  1
  H  H27  1  0.90625224  0.06237529  0.00315624  1
  H  H28  1  0.59374776  0.56237529  0.00315624  1
  H  H29  1  0.40625224  0.06237529  0.49684376  1
  H  H30  1  0.90625224  0.43762471  0.50315624  1
  H  H31  1  0.09374776  0.93762471  0.99684376  1
  H  H32  1  0.26100354  0.30258990  0.17642475  1
  H  H33  1  0.73899646  0.80258990  0.32357525  1
  H  H34  1  0.23899646  0.69741010  0.67642475  1
  H  H35  1  0.76100354  0.19741010  0.82357525  1
  H  H36  1  0.73899646  0.69741010  0.82357525  1
  H  H37  1  0.26100354  0.19741010  0.67642475  1
  H  H38  1  0.76100354  0.30258990  0.32357525  1
  H  H39  1  0.23899646  0.80258990  0.17642475  1
  H  H40  1  0.26506241  0.45237616  0.95680357  1
  H  H41  1  0.73493759  0.95237616  0.54319643  1
  H  H42  1  0.23493759  0.54762384  0.45680357  1
  H  H43  1  0.76506241  0.04762384  0.04319643  1
  H  H44  1  0.73493759  0.54762384  0.04319643  1
  H  H45  1  0.26506241  0.04762384  0.45680357  1
  H  H46  1  0.76506241  0.45237616  0.54319643  1
  H  H47  1  0.23493759  0.95237616  0.95680357  1
  H  H48  1  0.14956486  0.40663208  0.98028136  1
  H  H49  1  0.85043514  0.90663208  0.51971864  1
  H  H50  1  0.35043514  0.59336792  0.48028136  1
  H  H51  1  0.64956486  0.09336792  0.01971864  1
  H  H52  1  0.85043514  0.59336792  0.01971864  1
  H  H53  1  0.14956486  0.09336792  0.48028136  1
  H  H54  1  0.64956486  0.40663208  0.51971864  1
  H  H55  1  0.35043514  0.90663208  0.98028136  1
  H  H56  1  0.15610053  0.51160550  0.95865096  1
  H  H57  1  0.84389947  0.01160550  0.54134904  1
  H  H58  1  0.34389947  0.48839450  0.45865096  1
  H  H59  1  0.65610053  0.98839450  0.04134904  1
  H  H60  1  0.84389947  0.48839450  0.04134904  1
  H  H61  1  0.15610053  0.98839450  0.45865096  1
  H  H62  1  0.65610053  0.51160550  0.54134904  1
  H  H63  1  0.34389947  0.01160550  0.95865096  1
  H  H64  1  0.12780564  0.51363751  0.16809745  1
  H  H65  1  0.87219436  0.01363751  0.33190255  1
  H  H66  1  0.37219436  0.48636249  0.66809745  1
  H  H67  1  0.62780564  0.98636249  0.83190255  1
  H  H68  1  0.87219436  0.48636249  0.83190255  1
  H  H69  1  0.12780564  0.98636249  0.66809745  1
  H  H70  1  0.62780564  0.51363751  0.33190255  1
  H  H71  1  0.37219436  0.01363751  0.16809745  1
  H  H72  1  0.07674354  0.54724590  0.07915518  1
  H  H73  1  0.92325646  0.04724590  0.42084482  1
  H  H74  1  0.42325646  0.45275410  0.57915518  1
  H  H75  1  0.57674354  0.95275410  0.92084482  1
  H  H76  1  0.92325646  0.45275410  0.92084482  1
  H  H77  1  0.07674354  0.95275410  0.57915518  1
  H  H78  1  0.57674354  0.54724590  0.42084482  1
  H  H79  1  0.42325646  0.04724590  0.07915518  1
  H  H80  1  0.06686929  0.44366777  0.10583930  1
  H  H81  1  0.93313071  0.94366777  0.39416070  1
  H  H82  1  0.43313071  0.55633223  0.60583930  1
  H  H83  1  0.56686929  0.05633223  0.89416070  1
  H  H84  1  0.93313071  0.55633223  0.89416070  1
  H  H85  1  0.06686929  0.05633223  0.60583930  1
  H  H86  1  0.56686929  0.44366777  0.39416070  1
  H  H87  1  0.43313071  0.94366777  0.10583930  1
  H  H88  1  0.27121949  0.60686087  0.12698278  1
  H  H89  1  0.72878051  0.10686087  0.37301722  1
  H  H90  1  0.22878051  0.39313913  0.62698278  1
  H  H91  1  0.77121949  0.89313913  0.87301722  1
  H  H92  1  0.72878051  0.39313913  0.87301722  1
  H  H93  1  0.27121949  0.89313913  0.62698278  1
  H  H94  1  0.77121949  0.60686087  0.37301722  1
  H  H95  1  0.22878051  0.10686087  0.12698278  1
  H  H96  1  0.25551259  0.61741794  0.22856596  1
  H  H97  1  0.74448741  0.11741794  0.27143404  1
  H  H98  1  0.24448741  0.38258206  0.72856596  1
  H  H99  1  0.75551259  0.88258206  0.77143404  1
  H  H100  1  0.74448741  0.38258206  0.77143404  1
  H  H101  1  0.25551259  0.88258206  0.72856596  1
  H  H102  1  0.75551259  0.61741794  0.27143404  1
  H  H103  1  0.24448741  0.11741794  0.22856596  1
  H  H104  1  0.37771932  0.61723272  0.18661333  1
  H  H105  1  0.62228068  0.11723272  0.31338667  1
  H  H106  1  0.12228068  0.38276728  0.68661333  1
  H  H107  1  0.87771932  0.88276728  0.81338667  1
  H  H108  1  0.62228068  0.38276728  0.81338667  1
  H  H109  1  0.37771932  0.88276728  0.68661333  1
  H  H110  1  0.87771932  0.61723272  0.31338667  1
  H  H111  1  0.12228068  0.11723272  0.18661333  1
  H  H112  1  0.34638093  0.41409751  0.27271287  1
  H  H113  1  0.65361907  0.91409751  0.22728713  1
  H  H114  1  0.15361907  0.58590249  0.77271287  1
  H  H115  1  0.84638093  0.08590249  0.72728713  1
  H  H116  1  0.65361907  0.58590249  0.72728713  1
  H  H117  1  0.34638093  0.08590249  0.77271287  1
  H  H118  1  0.84638093  0.41409751  0.22728713  1
  H  H119  1  0.15361907  0.91409751  0.27271287  1
  H  H120  1  0.42180712  0.50270883  0.27449085  1
  H  H121  1  0.57819288  0.00270883  0.22550915  1
  H  H122  1  0.07819288  0.49729117  0.77449085  1
  H  H123  1  0.92180712  0.99729117  0.72550915  1
  H  H124  1  0.57819288  0.49729117  0.72550915  1
  H  H125  1  0.42180712  0.99729117  0.77449085  1
  H  H126  1  0.92180712  0.50270883  0.22550915  1
  H  H127  1  0.07819288  0.00270883  0.27449085  1
  H  H128  1  0.29813866  0.50558857  0.31239731  1
  H  H129  1  0.70186134  0.00558857  0.18760269  1
  H  H130  1  0.20186134  0.49441143  0.81239731  1
  H  H131  1  0.79813866  0.99441143  0.68760269  1
  H  H132  1  0.70186134  0.49441143  0.68760269  1
  H  H133  1  0.29813866  0.99441143  0.81239731  1
  H  H134  1  0.79813866  0.50558857  0.18760269  1
  H  H135  1  0.20186134  0.00558857  0.31239731  1
  H  H136  1  0.56814021  0.41825607  0.15765743  1
  H  H137  1  0.43185979  0.91825607  0.34234257  1
  H  H138  1  0.93185979  0.58174393  0.65765743  1
  H  H139  1  0.06814021  0.08174393  0.84234257  1
  H  H140  1  0.43185979  0.58174393  0.84234257  1
  H  H141  1  0.56814021  0.08174393  0.65765743  1
  H  H142  1  0.06814021  0.41825607  0.34234257  1
  H  H143  1  0.93185979  0.91825607  0.15765743  1
  H  H144  1  0.54502196  0.35409882  0.23826644  1
  H  H145  1  0.45497804  0.85409882  0.26173356  1
  H  H146  1  0.95497804  0.64590118  0.73826644  1
  H  H147  1  0.04502196  0.14590118  0.76173356  1
  H  H148  1  0.45497804  0.64590118  0.76173356  1
  H  H149  1  0.54502196  0.14590118  0.73826644  1
  H  H150  1  0.04502196  0.35409882  0.26173356  1
  H  H151  1  0.95497804  0.85409882  0.23826644  1
  H  H152  1  0.65032183  0.33809168  0.17879475  1
  H  H153  1  0.34967817  0.83809168  0.32120525  1
  H  H154  1  0.84967817  0.66190832  0.67879475  1
  H  H155  1  0.15032183  0.16190832  0.82120525  1
  H  H156  1  0.34967817  0.66190832  0.82120525  1
  H  H157  1  0.65032183  0.16190832  0.67879475  1
  H  H158  1  0.15032183  0.33809168  0.32120525  1
  H  H159  1  0.84967817  0.83809168  0.17879475  1
  H  H160  1  0.48847607  0.17430797  0.11856863  1
  H  H161  1  0.51152393  0.67430797  0.38143137  1
  H  H162  1  0.01152393  0.82569203  0.61856863  1
  H  H163  1  0.98847607  0.32569203  0.88143137  1
  H  H164  1  0.51152393  0.82569203  0.88143137  1
  H  H165  1  0.48847607  0.32569203  0.61856863  1
  H  H166  1  0.98847607  0.17430797  0.38143137  1
  H  H167  1  0.01152393  0.67430797  0.11856863  1
  H  H168  1  0.60598599  0.19879337  0.15809381  1
  H  H169  1  0.39401401  0.69879337  0.34190619  1
  H  H170  1  0.89401401  0.80120663  0.65809381  1
  H  H171  1  0.10598599  0.30120663  0.84190619  1
  H  H172  1  0.39401401  0.80120663  0.84190619  1
  H  H173  1  0.60598599  0.30120663  0.65809381  1
  H  H174  1  0.10598599  0.19879337  0.34190619  1
  H  H175  1  0.89401401  0.69879337  0.15809381  1
  H  H176  1  0.49742022  0.20806107  0.21566674  1
  H  H177  1  0.50257978  0.70806107  0.28433326  1
  H  H178  1  0.00257978  0.79193893  0.71566674  1
  H  H179  1  0.99742022  0.29193893  0.78433326  1
  H  H180  1  0.50257978  0.79193893  0.78433326  1
  H  H181  1  0.49742022  0.29193893  0.71566674  1
  H  H182  1  0.99742022  0.20806107  0.28433326  1
  H  H183  1  0.00257978  0.70806107  0.21566674  1
  H  H184  1  0.55406441  0.25453620  0.99625353  1
  H  H185  1  0.44593559  0.75453620  0.50374647  1
  H  H186  1  0.94593559  0.74546380  0.49625353  1
  H  H187  1  0.05406441  0.24546380  0.00374647  1
  H  H188  1  0.44593559  0.74546380  0.00374647  1
  H  H189  1  0.55406441  0.24546380  0.49625353  1
  H  H190  1  0.05406441  0.25453620  0.50374647  1
  H  H191  1  0.94593559  0.75453620  0.99625353  1
  H  H192  1  0.48278305  0.17881770  0.94910208  1
  H  H193  1  0.51721695  0.67881770  0.55089792  1
  H  H194  1  0.01721695  0.82118230  0.44910208  1
  H  H195  1  0.98278305  0.32118230  0.05089792  1
  H  H196  1  0.51721695  0.82118230  0.05089792  1
  H  H197  1  0.48278305  0.32118230  0.44910208  1
  H  H198  1  0.98278305  0.17881770  0.55089792  1
  H  H199  1  0.01721695  0.67881770  0.94910208  1
  H  H200  1  0.47893996  0.28147674  0.91538090  1
  H  H201  1  0.52106004  0.78147674  0.58461910  1
  H  H202  1  0.02106004  0.71852326  0.41538090  1
  H  H203  1  0.97893996  0.21852326  0.08461910  1
  H  H204  1  0.52106004  0.71852326  0.08461910  1
  H  H205  1  0.47893996  0.21852326  0.41538090  1
  H  H206  1  0.97893996  0.28147674  0.58461910  1
  H  H207  1  0.02106004  0.78147674  0.91538090  1
  H  H208  1  0.24641866  0.25248557  0.02420397  1
  H  H209  1  0.75358134  0.75248557  0.47579603  1
  H  H210  1  0.25358134  0.74751443  0.52420397  1
  H  H211  1  0.74641866  0.24751443  0.97579603  1
  H  H212  1  0.75358134  0.74751443  0.97579603  1
  H  H213  1  0.24641866  0.24751443  0.52420397  1
  H  H214  1  0.74641866  0.25248557  0.47579603  1
  H  H215  1  0.25358134  0.75248557  0.02420397  1
  H  H216  1  0.29519509  0.27885551  0.93159388  1
  H  H217  1  0.70480491  0.77885551  0.56840612  1
  H  H218  1  0.20480491  0.72114449  0.43159388  1
  H  H219  1  0.79519509  0.22114449  0.06840612  1
  H  H220  1  0.70480491  0.72114449  0.06840612  1
  H  H221  1  0.29519509  0.22114449  0.43159388  1
  H  H222  1  0.79519509  0.27885551  0.56840612  1
  H  H223  1  0.20480491  0.77885551  0.93159388  1
  H  H224  1  0.30385381  0.17728315  0.96614926  1
  H  H225  1  0.69614619  0.67728315  0.53385074  1
  H  H226  1  0.19614619  0.82271685  0.46614926  1
  H  H227  1  0.80385381  0.32271685  0.03385074  1
  H  H228  1  0.69614619  0.82271685  0.03385074  1
  H  H229  1  0.30385381  0.32271685  0.46614926  1
  H  H230  1  0.80385381  0.17728315  0.53385074  1
  H  H231  1  0.19614619  0.67728315  0.96614926  1
  C  C232  1  0.41278688  0.43194311  0.05999383  1
  C  C233  1  0.58721312  0.93194311  0.44000617  1
  C  C234  1  0.08721312  0.56805689  0.55999383  1
  C  C235  1  0.91278688  0.06805689  0.94000617  1
  C  C236  1  0.58721312  0.56805689  0.94000617  1
  C  C237  1  0.41278688  0.06805689  0.55999383  1
  C  C238  1  0.91278688  0.43194311  0.44000617  1
  C  C239  1  0.08721312  0.93194311  0.05999383  1
  C  C240  1  0.30626301  0.34150049  0.14100018  1
  C  C241  1  0.69373699  0.84150049  0.35899982  1
  C  C242  1  0.19373699  0.65849951  0.64100018  1
  C  C243  1  0.80626301  0.15849951  0.85899982  1
  C  C244  1  0.69373699  0.65849951  0.85899982  1
  C  C245  1  0.30626301  0.15849951  0.64100018  1
  C  C246  1  0.80626301  0.34150049  0.35899982  1
  C  C247  1  0.19373699  0.84150049  0.14100018  1
  C  C248  1  0.19494279  0.46152012  0.98707705  1
  C  C249  1  0.80505721  0.96152012  0.51292295  1
  C  C250  1  0.30505721  0.53847988  0.48707705  1
  C  C251  1  0.69494279  0.03847988  0.01292295  1
  C  C252  1  0.80505721  0.53847988  0.01292295  1
  C  C253  1  0.19494279  0.03847988  0.48707705  1
  C  C254  1  0.69494279  0.46152012  0.51292295  1
  C  C255  1  0.30505721  0.96152012  0.98707705  1
  C  C256  1  0.11535169  0.49722397  0.10782169  1
  C  C257  1  0.88464831  0.99722397  0.39217831  1
  C  C258  1  0.38464831  0.50277603  0.60782169  1
  C  C259  1  0.61535169  0.00277603  0.89217831  1
  C  C260  1  0.88464831  0.50277603  0.89217831  1
  C  C261  1  0.11535169  0.00277603  0.60782169  1
  C  C262  1  0.61535169  0.49722397  0.39217831  1
  C  C263  1  0.38464831  0.99722397  0.10782169  1
  C  C264  1  0.30274327  0.59192256  0.18316012  1
  C  C265  1  0.69725673  0.09192256  0.31683988  1
  C  C266  1  0.19725673  0.40807744  0.68316012  1
  C  C267  1  0.80274327  0.90807744  0.81683988  1
  C  C268  1  0.69725673  0.40807744  0.81683988  1
  C  C269  1  0.30274327  0.90807744  0.68316012  1
  C  C270  1  0.80274327  0.59192256  0.31683988  1
  C  C271  1  0.19725673  0.09192256  0.18316012  1
  C  C272  1  0.34591345  0.47997431  0.26747231  1
  C  C273  1  0.65408655  0.97997431  0.23252769  1
  C  C274  1  0.15408655  0.52002569  0.76747231  1
  C  C275  1  0.84591345  0.02002569  0.73252769  1
  C  C276  1  0.65408655  0.52002569  0.73252769  1
  C  C277  1  0.34591345  0.02002569  0.76747231  1
  C  C278  1  0.84591345  0.47997431  0.23252769  1
  C  C279  1  0.15408655  0.97997431  0.26747231  1
  C  C280  1  0.57219049  0.35579631  0.17839049  1
  C  C281  1  0.42780951  0.85579631  0.32160951  1
  C  C282  1  0.92780951  0.64420369  0.67839049  1
  C  C283  1  0.07219049  0.14420369  0.82160951  1
  C  C284  1  0.42780951  0.64420369  0.82160951  1
  C  C285  1  0.57219049  0.14420369  0.67839049  1
  C  C286  1  0.07219049  0.35579631  0.32160951  1
  C  C287  1  0.92780951  0.85579631  0.17839049  1
  C  C288  1  0.52758872  0.21553951  0.15712033  1
  C  C289  1  0.47241128  0.71553951  0.34287967  1
  C  C290  1  0.97241128  0.78446049  0.65712033  1
  C  C291  1  0.02758872  0.28446049  0.84287967  1
  C  C292  1  0.47241128  0.78446049  0.84287967  1
  C  C293  1  0.52758872  0.28446049  0.65712033  1
  C  C294  1  0.02758872  0.21553951  0.34287967  1
  C  C295  1  0.97241128  0.71553951  0.15712033  1
  C  C296  1  0.48432921  0.24262350  0.96673928  1
  C  C297  1  0.51567079  0.74262350  0.53326072  1
  C  C298  1  0.01567079  0.75737650  0.46673928  1
  C  C299  1  0.98432921  0.25737650  0.03326072  1
  C  C300  1  0.51567079  0.75737650  0.03326072  1
  C  C301  1  0.48432921  0.25737650  0.46673928  1
  C  C302  1  0.98432921  0.24262350  0.53326072  1
  C  C303  1  0.01567079  0.74262350  0.96673928  1
  C  C304  1  0.30613500  0.24122656  0.98325182  1
  C  C305  1  0.69386500  0.74122656  0.51674818  1
  C  C306  1  0.19386500  0.75877344  0.48325182  1
  C  C307  1  0.80613500  0.25877344  0.01674818  1
  C  C308  1  0.69386500  0.75877344  0.01674818  1
  C  C309  1  0.30613500  0.25877344  0.48325182  1
  C  C310  1  0.80613500  0.24122656  0.51674818  1
  C  C311  1  0.19386500  0.74122656  0.98325182  1
  N  N312  1  0.20866183  0.48253374  0.06791851  1
  N  N313  1  0.79133817  0.98253374  0.43208149  1
  N  N314  1  0.29133817  0.51746626  0.56791851  1
  N  N315  1  0.70866183  0.01746626  0.93208149  1
  N  N316  1  0.79133817  0.51746626  0.93208149  1
  N  N317  1  0.20866183  0.01746626  0.56791851  1
  N  N318  1  0.70866183  0.48253374  0.43208149  1
  N  N319  1  0.29133817  0.98253374  0.06791851  1
  N  N320  1  0.30633208  0.50409609  0.19285978  1
  N  N321  1  0.69366792  0.00409609  0.30714022  1
  N  N322  1  0.19366792  0.49590391  0.69285978  1
  N  N323  1  0.80633208  0.99590391  0.80714022  1
  N  N324  1  0.69366792  0.49590391  0.80714022  1
  N  N325  1  0.30633208  0.99590391  0.69285978  1
  N  N326  1  0.80633208  0.50409609  0.30714022  1
  N  N327  1  0.19366792  0.00409609  0.19285978  1
  N  N328  1  0.51879141  0.29887667  0.12933495  1
  N  N329  1  0.48120859  0.79887667  0.37066505  1
  N  N330  1  0.98120859  0.70112333  0.62933495  1
  N  N331  1  0.01879141  0.20112333  0.87066505  1
  N  N332  1  0.48120859  0.70112333  0.87066505  1
  N  N333  1  0.51879141  0.20112333  0.62933495  1
  N  N334  1  0.01879141  0.29887667  0.37066505  1
  N  N335  1  0.98120859  0.79887667  0.12933495  1
  N  N336  1  0.40152374  0.25784382  0.01905635  1
  N  N337  1  0.59847626  0.75784382  0.48094365  1
  N  N338  1  0.09847626  0.74215618  0.51905635  1
  N  N339  1  0.90152374  0.24215618  0.98094365  1
  N  N340  1  0.59847626  0.74215618  0.98094365  1
  N  N341  1  0.40152374  0.24215618  0.51905635  1
  N  N342  1  0.90152374  0.25784382  0.48094365  1
  N  N343  1  0.09847626  0.75784382  0.01905635  1
  Cl  Cl344  1  0.40649809  0.07676422  0.34920108  1
  Cl  Cl345  1  0.59350191  0.57676422  0.15079892  1
  Cl  Cl346  1  0.09350191  0.92323578  0.84920108  1
  Cl  Cl347  1  0.90649809  0.42323578  0.65079892  1
  Cl  Cl348  1  0.59350191  0.92323578  0.65079892  1
  Cl  Cl349  1  0.40649809  0.42323578  0.84920108  1
  Cl  Cl350  1  0.90649809  0.07676422  0.15079892  1
  Cl  Cl351  1  0.09350191  0.57676422  0.34920108  1
