# generated using pymatgen
data_Re2C3(ClO2)3
_symmetry_space_group_name_H-M   'P 1'
_cell_length_a   7.51658500
_cell_length_b   11.23200300
_cell_length_c   13.28403700
_cell_angle_alpha   90.00000000
_cell_angle_beta   90.00000000
_cell_angle_gamma   90.00000000
_symmetry_Int_Tables_number   1
_chemical_formula_structural   Re2C3(ClO2)3
_chemical_formula_sum   'Re8 C12 Cl12 O24'
_cell_volume   1121.52216298
_cell_formula_units_Z   4
loop_
 _symmetry_equiv_pos_site_id
 _symmetry_equiv_pos_as_xyz
  1  'x, y, z'
loop_
 _atom_site_type_symbol
 _atom_site_label
 _atom_site_symmetry_multiplicity
 _atom_site_fract_x
 _atom_site_fract_y
 _atom_site_fract_z
 _atom_site_occupancy
  Re  Re0  1  0.00141600  0.28959100  0.31317200  1
  Re  Re1  1  0.50141600  0.71040900  0.68682800  1
  Re  Re2  1  0.50141600  0.78959100  0.18682800  1
  Re  Re3  1  0.00141600  0.21040900  0.81317200  1
  Re  Re4  1  0.17079800  0.14286700  0.24603000  1
  Re  Re5  1  0.67079800  0.85713300  0.75397000  1
  Re  Re6  1  0.67079800  0.64286700  0.25397000  1
  Re  Re7  1  0.17079800  0.35713300  0.74603000  1
  C  C8  1  0.36360400  0.29050000  0.38269900  1
  C  C9  1  0.86360400  0.70950000  0.61730100  1
  C  C10  1  0.86360400  0.79050000  0.11730100  1
  C  C11  1  0.36360400  0.20950000  0.88269900  1
  C  C12  1  0.81281400  0.14735300  0.17015900  1
  C  C13  1  0.31281400  0.85264700  0.82984100  1
  C  C14  1  0.31281400  0.64735300  0.32984100  1
  C  C15  1  0.81281400  0.35264700  0.67015900  1
  C  C16  1  0.18671500  0.36258600  0.13212100  1
  C  C17  1  0.68671500  0.63741400  0.86787900  1
  C  C18  1  0.68671500  0.86258600  0.36787900  1
  C  C19  1  0.18671500  0.13741400  0.63212100  1
  Cl  Cl20  1  0.35323200  0.99603800  0.12704100  1
  Cl  Cl21  1  0.85323200  0.00396200  0.87295900  1
  Cl  Cl22  1  0.85323200  0.49603800  0.37295900  1
  Cl  Cl23  1  0.35323200  0.50396200  0.62704100  1
  Cl  Cl24  1  0.87844100  0.20025600  0.44943600  1
  Cl  Cl25  1  0.37844100  0.79974400  0.55056400  1
  Cl  Cl26  1  0.37844100  0.70025600  0.05056400  1
  Cl  Cl27  1  0.87844100  0.29974400  0.94943600  1
  Cl  Cl28  1  0.12793500  0.99318800  0.35712000  1
  Cl  Cl29  1  0.62793500  0.00681200  0.64288000  1
  Cl  Cl30  1  0.62793500  0.49318800  0.14288000  1
  Cl  Cl31  1  0.12793500  0.50681200  0.85712000  1
  O  O32  1  0.39229900  0.20460700  0.32447900  1
  O  O33  1  0.89229900  0.79539300  0.67552100  1
  O  O34  1  0.89229900  0.70460700  0.17552100  1
  O  O35  1  0.39229900  0.29539300  0.82447900  1
  O  O36  1  0.08150300  0.40602700  0.19581100  1
  O  O37  1  0.58150300  0.59397300  0.80418900  1
  O  O38  1  0.58150300  0.90602700  0.30418900  1
  O  O39  1  0.08150300  0.09397300  0.69581100  1
  O  O40  1  0.95320800  0.09043000  0.15653200  1
  O  O41  1  0.45320800  0.90957000  0.84346800  1
  O  O42  1  0.45320800  0.59043000  0.34346800  1
  O  O43  1  0.95320800  0.40957000  0.65653200  1
  O  O44  1  0.78651400  0.23757300  0.22327900  1
  O  O45  1  0.28651400  0.76242700  0.77672100  1
  O  O46  1  0.28651400  0.73757300  0.27672100  1
  O  O47  1  0.78651400  0.26242700  0.72327900  1
  O  O48  1  0.25173600  0.25979500  0.12834600  1
  O  O49  1  0.75173600  0.74020500  0.87165400  1
  O  O50  1  0.75173600  0.75979500  0.37165400  1
  O  O51  1  0.25173600  0.24020500  0.62834600  1
  O  O52  1  0.22448500  0.34974500  0.39346100  1
  O  O53  1  0.72448500  0.65025500  0.60653900  1
  O  O54  1  0.72448500  0.84974500  0.10653900  1
  O  O55  1  0.22448500  0.15025500  0.89346100  1
