# generated using pymatgen
data_H8S(NO2)2
_symmetry_space_group_name_H-M   'P 1'
_cell_length_a   5.95267500
_cell_length_b   8.17087300
_cell_length_c   10.54497700
_cell_angle_alpha   90.00000000
_cell_angle_beta   90.00000000
_cell_angle_gamma   90.00000000
_symmetry_Int_Tables_number   1
_chemical_formula_structural   H8S(NO2)2
_chemical_formula_sum   'H32 S4 N8 O16'
_cell_volume   512.89240620
_cell_formula_units_Z   4
loop_
 _symmetry_equiv_pos_site_id
 _symmetry_equiv_pos_as_xyz
  1  'x, y, z'
loop_
 _atom_site_type_symbol
 _atom_site_label
 _atom_site_symmetry_multiplicity
 _atom_site_fract_x
 _atom_site_fract_y
 _atom_site_fract_z
 _atom_site_occupancy
  H  H0  1  0.75000000  0.44239500  0.55117700  1
  H  H1  1  0.75000000  0.94239500  0.94882300  1
  H  H2  1  0.25000000  0.55760500  0.44882300  1
  H  H3  1  0.25000000  0.05760500  0.05117700  1
  H  H4  1  0.75000000  0.33844300  0.69015000  1
  H  H5  1  0.75000000  0.83844300  0.80985000  1
  H  H6  1  0.25000000  0.66155700  0.30985000  1
  H  H7  1  0.25000000  0.16155700  0.19015000  1
  H  H8  1  0.75000000  0.06984900  0.21218600  1
  H  H9  1  0.75000000  0.56984900  0.28781400  1
  H  H10  1  0.25000000  0.93015100  0.78781400  1
  H  H11  1  0.25000000  0.43015100  0.71218600  1
  H  H12  1  0.75000000  0.39212900  0.20781800  1
  H  H13  1  0.75000000  0.89212900  0.29218200  1
  H  H14  1  0.25000000  0.60787100  0.79218200  1
  H  H15  1  0.25000000  0.10787100  0.70781800  1
  H  H16  1  0.89427600  0.26876600  0.56537800  1
  H  H17  1  0.60572400  0.76876600  0.93462200  1
  H  H18  1  0.39427600  0.73123400  0.43462200  1
  H  H19  1  0.10572400  0.23123400  0.06537800  1
  H  H20  1  0.10572400  0.73123400  0.43462200  1
  H  H21  1  0.39427600  0.23123400  0.06537800  1
  H  H22  1  0.60572400  0.26876600  0.56537800  1
  H  H23  1  0.89427600  0.76876600  0.93462200  1
  H  H24  1  0.89121000  0.05415400  0.35033600  1
  H  H25  1  0.60879000  0.55415400  0.14966400  1
  H  H26  1  0.39121000  0.94584600  0.64966400  1
  H  H27  1  0.10879000  0.44584600  0.85033600  1
  H  H28  1  0.10879000  0.94584600  0.64966400  1
  H  H29  1  0.39121000  0.44584600  0.85033600  1
  H  H30  1  0.60879000  0.05415400  0.35033600  1
  H  H31  1  0.89121000  0.55415400  0.14966400  1
  S  S32  1  0.75000000  0.26226400  0.91966100  1
  S  S33  1  0.75000000  0.76226400  0.58033900  1
  S  S34  1  0.25000000  0.73773600  0.08033900  1
  S  S35  1  0.25000000  0.23773600  0.41966100  1
  N  N36  1  0.75000000  0.32854500  0.59272000  1
  N  N37  1  0.75000000  0.82854500  0.90728000  1
  N  N38  1  0.25000000  0.67145500  0.40728000  1
  N  N39  1  0.25000000  0.17145500  0.09272000  1
  N  N40  1  0.75000000  0.01704000  0.30139100  1
  N  N41  1  0.75000000  0.51704000  0.19860900  1
  N  N42  1  0.25000000  0.98296000  0.69860900  1
  N  N43  1  0.25000000  0.48296000  0.80139100  1
  O  O44  1  0.75000000  0.44481900  0.91381700  1
  O  O45  1  0.75000000  0.94481900  0.58618300  1
  O  O46  1  0.25000000  0.55518100  0.08618300  1
  O  O47  1  0.25000000  0.05518100  0.41381700  1
  O  O48  1  0.75000000  0.20640600  0.05713200  1
  O  O49  1  0.75000000  0.70640600  0.44286800  1
  O  O50  1  0.25000000  0.79359400  0.94286800  1
  O  O51  1  0.25000000  0.29359400  0.55713200  1
  O  O52  1  0.95579300  0.19763100  0.85729700  1
  O  O53  1  0.54420700  0.69763100  0.64270300  1
  O  O54  1  0.45579300  0.80236900  0.14270300  1
  O  O55  1  0.04420700  0.30236900  0.35729700  1
  O  O56  1  0.04420700  0.80236900  0.14270300  1
  O  O57  1  0.45579300  0.30236900  0.35729700  1
  O  O58  1  0.54420700  0.19763100  0.85729700  1
  O  O59  1  0.95579300  0.69763100  0.64270300  1
