# generated using pymatgen
data_MnAl2(SiO5)2
_symmetry_space_group_name_H-M   'P 1'
_cell_length_a   11.88416868
_cell_length_b   11.88416868
_cell_length_c   5.19608000
_cell_angle_alpha   90.00000000
_cell_angle_beta   90.00000000
_cell_angle_gamma   110.72103762
_symmetry_Int_Tables_number   1
_chemical_formula_structural   MnAl2(SiO5)2
_chemical_formula_sum   'Mn4 Al8 Si8 O40'
_cell_volume   686.39002406
_cell_formula_units_Z   4
loop_
 _symmetry_equiv_pos_site_id
 _symmetry_equiv_pos_as_xyz
  1  'x, y, z'
loop_
 _atom_site_type_symbol
 _atom_site_label
 _atom_site_symmetry_multiplicity
 _atom_site_fract_x
 _atom_site_fract_y
 _atom_site_fract_z
 _atom_site_occupancy
  Mn  Mn0  1  0.86528500  0.13471500  0.00000000  1
  Mn  Mn1  1  0.36528500  0.63471500  0.50000000  1
  Mn  Mn2  1  0.63471500  0.36528500  0.50000000  1
  Mn  Mn3  1  0.13471500  0.86528500  0.00000000  1
  Al  Al4  1  0.18998300  0.18998300  0.00000000  1
  Al  Al5  1  0.31001700  0.31001700  0.50000000  1
  Al  Al6  1  0.68998300  0.68998300  0.50000000  1
  Al  Al7  1  0.81001700  0.81001700  0.00000000  1
  Al  Al8  1  0.78581000  0.21419000  0.50000000  1
  Al  Al9  1  0.28581000  0.71419000  0.00000000  1
  Al  Al10  1  0.71419000  0.28581000  0.00000000  1
  Al  Al11  1  0.21419000  0.78581000  0.50000000  1
  Si  Si12  1  0.06360300  0.33183800  0.32341600  1
  Si  Si13  1  0.16816200  0.43639700  0.82341600  1
  Si  Si14  1  0.83183800  0.56360300  0.82341600  1
  Si  Si15  1  0.93639700  0.66816200  0.32341600  1
  Si  Si16  1  0.43639700  0.16816200  0.17658400  1
  Si  Si17  1  0.33183800  0.06360300  0.67658400  1
  Si  Si18  1  0.66816200  0.93639700  0.67658400  1
  Si  Si19  1  0.56360300  0.83183800  0.17658400  1
  O  O20  1  0.02402700  0.14794700  0.89654200  1
  O  O21  1  0.35205300  0.47597300  0.39654200  1
  O  O22  1  0.64794700  0.52402700  0.39654200  1
  O  O23  1  0.97597300  0.85205300  0.89654200  1
  O  O24  1  0.47597300  0.35205300  0.60345800  1
  O  O25  1  0.14794700  0.02402700  0.10345800  1
  O  O26  1  0.85205300  0.97597300  0.10345800  1
  O  O27  1  0.52402700  0.64794700  0.60345800  1
  O  O28  1  0.16212700  0.26562400  0.31403700  1
  O  O29  1  0.23437600  0.33787300  0.81403700  1
  O  O30  1  0.76562400  0.66212700  0.81403700  1
  O  O31  1  0.83787300  0.73437600  0.31403700  1
  O  O32  1  0.33787300  0.23437600  0.18596300  1
  O  O33  1  0.26562400  0.16212700  0.68596300  1
  O  O34  1  0.73437600  0.83787300  0.68596300  1
  O  O35  1  0.66212700  0.76562400  0.18596300  1
  O  O36  1  0.08463400  0.42093700  0.07630800  1
  O  O37  1  0.07906300  0.41536600  0.57630800  1
  O  O38  1  0.92093700  0.58463400  0.57630800  1
  O  O39  1  0.91536600  0.57906300  0.07630800  1
  O  O40  1  0.41536600  0.07906300  0.42369200  1
  O  O41  1  0.42093700  0.08463400  0.92369200  1
  O  O42  1  0.57906300  0.91536600  0.92369200  1
  O  O43  1  0.58463400  0.92093700  0.42369200  1
  O  O44  1  0.92897000  0.22674600  0.32280200  1
  O  O45  1  0.27325400  0.57103000  0.82280200  1
  O  O46  1  0.72674600  0.42897000  0.82280200  1
  O  O47  1  0.07103000  0.77325400  0.32280200  1
  O  O48  1  0.57103000  0.27325400  0.17719800  1
  O  O49  1  0.22674600  0.92897000  0.67719800  1
  O  O50  1  0.77325400  0.07103000  0.67719800  1
  O  O51  1  0.42897000  0.72674600  0.17719800  1
  O  O52  1  0.85523900  0.27610900  0.83295900  1
  O  O53  1  0.22389100  0.64476100  0.33295900  1
  O  O54  1  0.77610900  0.35523900  0.33295900  1
  O  O55  1  0.14476100  0.72389100  0.83295900  1
  O  O56  1  0.64476100  0.22389100  0.66704100  1
  O  O57  1  0.27610900  0.85523900  0.16704100  1
  O  O58  1  0.72389100  0.14476100  0.16704100  1
  O  O59  1  0.35523900  0.77610900  0.66704100  1
