# generated using pymatgen
data_TeAsXeO2F11
_symmetry_space_group_name_H-M   'P 1'
_cell_length_a   5.42763600
_cell_length_b   7.43823599
_cell_length_c   14.21212915
_cell_angle_alpha   89.49433637
_cell_angle_beta   95.88567787
_cell_angle_gamma   95.78927993
_symmetry_Int_Tables_number   1
_chemical_formula_structural   TeAsXeO2F11
_chemical_formula_sum   'Te2 As2 Xe2 O4 F22'
_cell_volume   567.83624472
_cell_formula_units_Z   2
loop_
 _symmetry_equiv_pos_site_id
 _symmetry_equiv_pos_as_xyz
  1  'x, y, z'
loop_
 _atom_site_type_symbol
 _atom_site_label
 _atom_site_symmetry_multiplicity
 _atom_site_fract_x
 _atom_site_fract_y
 _atom_site_fract_z
 _atom_site_occupancy
  Te  Te0  1  0.73108800  0.73372000  0.63216200  1
  Te  Te1  1  0.26891200  0.26628000  0.36783800  1
  As  As2  1  0.60692700  0.76408100  0.12605600  1
  As  As3  1  0.39307300  0.23591900  0.87394400  1
  Xe  Xe4  1  0.86598100  0.73678500  0.88010800  1
  Xe  Xe5  1  0.13401900  0.26321500  0.11989200  1
  O  O6  1  0.93296200  0.65759100  0.74604200  1
  O  O7  1  0.06703800  0.34240900  0.25395800  1
  O  O8  1  0.81182700  0.52459400  0.55668300  1
  O  O9  1  0.18817300  0.47540600  0.44331700  1
  F  F10  1  0.91719600  0.39069200  0.61745500  1
  F  F11  1  0.08280400  0.60930800  0.38254500  1
  F  F12  1  0.63523200  0.93510100  0.69200400  1
  F  F13  1  0.36476800  0.06489900  0.30799600  1
  F  F14  1  0.56114000  0.79550200  0.51697500  1
  F  F15  1  0.43886000  0.20449800  0.48302500  1
  F  F16  1  0.43695500  0.60251500  0.66566300  1
  F  F17  1  0.56304500  0.39748500  0.33433700  1
  F  F18  1  0.01431600  0.87590300  0.59669100  1
  F  F19  1  0.98568400  0.12409700  0.40330900  1
  F  F20  1  0.40141000  0.67783700  0.02862500  1
  F  F21  1  0.59859000  0.32216300  0.97137500  1
  F  F22  1  0.38913600  0.70799100  0.20577400  1
  F  F23  1  0.61086400  0.29200900  0.79422600  1
  F  F24  1  0.84081600  0.85993000  0.21015400  1
  F  F25  1  0.15918400  0.14007000  0.78984600  1
  F  F26  1  0.72989600  0.55357300  0.13765400  1
  F  F27  1  0.27010400  0.44642700  0.86234600  1
  F  F28  1  0.50982200  0.98090500  0.10338700  1
  F  F29  1  0.49017800  0.01909500  0.89661300  1
  F  F30  1  0.84773800  0.82426900  0.03548800  1
  F  F31  1  0.15226200  0.17573100  0.96451200  1
