# generated using pymatgen
data_Rb2CdC2Cl2O5
_symmetry_space_group_name_H-M   'P 1'
_cell_length_a   6.11666400
_cell_length_b   11.05149800
_cell_length_c   15.82654700
_cell_angle_alpha   90.00000000
_cell_angle_beta   90.00000000
_cell_angle_gamma   90.00000000
_symmetry_Int_Tables_number   1
_chemical_formula_structural   Rb2CdC2Cl2O5
_chemical_formula_sum   'Rb8 Cd4 C8 Cl8 O20'
_cell_volume   1069.84767148
_cell_formula_units_Z   4
loop_
 _symmetry_equiv_pos_site_id
 _symmetry_equiv_pos_as_xyz
  1  'x, y, z'
loop_
 _atom_site_type_symbol
 _atom_site_label
 _atom_site_symmetry_multiplicity
 _atom_site_fract_x
 _atom_site_fract_y
 _atom_site_fract_z
 _atom_site_occupancy
  Rb  Rb0  1  0.16209200  0.11131700  0.61439900  1
  Rb  Rb1  1  0.83790800  0.88868300  0.11439900  1
  Rb  Rb2  1  0.16209200  0.38868300  0.38560100  1
  Rb  Rb3  1  0.83790800  0.61131700  0.88560100  1
  Rb  Rb4  1  0.83790800  0.88868300  0.38560100  1
  Rb  Rb5  1  0.16209200  0.11131700  0.88560100  1
  Rb  Rb6  1  0.83790800  0.61131700  0.61439900  1
  Rb  Rb7  1  0.16209200  0.38868300  0.11439900  1
  Cd  Cd8  1  0.64889500  0.91405800  0.75000000  1
  Cd  Cd9  1  0.35110500  0.08594200  0.25000000  1
  Cd  Cd10  1  0.64889500  0.58594200  0.25000000  1
  Cd  Cd11  1  0.35110500  0.41405800  0.75000000  1
  C  C12  1  0.31105800  0.70123000  0.75000000  1
  C  C13  1  0.68894200  0.29877000  0.25000000  1
  C  C14  1  0.31105800  0.79877000  0.25000000  1
  C  C15  1  0.68894200  0.20123000  0.75000000  1
  C  C16  1  0.17167500  0.82040600  0.75000000  1
  C  C17  1  0.82832500  0.17959400  0.25000000  1
  C  C18  1  0.17167500  0.67959400  0.25000000  1
  C  C19  1  0.82832500  0.32040600  0.75000000  1
  Cl  Cl20  1  0.65887700  0.91473800  0.91501500  1
  Cl  Cl21  1  0.34112300  0.08526200  0.41501500  1
  Cl  Cl22  1  0.65887700  0.58526200  0.08498500  1
  Cl  Cl23  1  0.34112300  0.41473800  0.58498500  1
  Cl  Cl24  1  0.34112300  0.08526200  0.08498500  1
  Cl  Cl25  1  0.65887700  0.91473800  0.58498500  1
  Cl  Cl26  1  0.34112300  0.41473800  0.91501500  1
  Cl  Cl27  1  0.65887700  0.58526200  0.41501500  1
  O  O28  1  0.19975900  0.60422900  0.75000000  1
  O  O29  1  0.80024100  0.39577100  0.25000000  1
  O  O30  1  0.19975900  0.89577100  0.25000000  1
  O  O31  1  0.80024100  0.10422900  0.75000000  1
  O  O32  1  0.96749200  0.80324800  0.75000000  1
  O  O33  1  0.03250800  0.19675200  0.25000000  1
  O  O34  1  0.96749200  0.69675200  0.25000000  1
  O  O35  1  0.03250800  0.30324800  0.75000000  1
  O  O36  1  0.26776700  0.92203900  0.75000000  1
  O  O37  1  0.73223300  0.07796100  0.25000000  1
  O  O38  1  0.26776700  0.57796100  0.25000000  1
  O  O39  1  0.73223300  0.42203900  0.75000000  1
  O  O40  1  0.51698200  0.70908200  0.75000000  1
  O  O41  1  0.48301800  0.29091800  0.25000000  1
  O  O42  1  0.51698200  0.79091800  0.25000000  1
  O  O43  1  0.48301800  0.20908200  0.75000000  1
  O  O44  1  0.78022000  0.25000000  0.50000000  1
  O  O45  1  0.21978000  0.75000000  0.00000000  1
  O  O46  1  0.21978000  0.75000000  0.50000000  1
  O  O47  1  0.78022000  0.25000000  0.00000000  1
