# generated using pymatgen
data_V2Pb2Se2O11
_symmetry_space_group_name_H-M   'P 1'
_cell_length_a   6.99437000
_cell_length_b   7.31086691
_cell_length_c   10.06454973
_cell_angle_alpha   96.42228181
_cell_angle_beta   93.90733643
_cell_angle_gamma   95.41164790
_symmetry_Int_Tables_number   1
_chemical_formula_structural   V2Pb2Se2O11
_chemical_formula_sum   'V4 Pb4 Se4 O22'
_cell_volume   507.52737007
_cell_formula_units_Z   2
loop_
 _symmetry_equiv_pos_site_id
 _symmetry_equiv_pos_as_xyz
  1  'x, y, z'
loop_
 _atom_site_type_symbol
 _atom_site_label
 _atom_site_symmetry_multiplicity
 _atom_site_fract_x
 _atom_site_fract_y
 _atom_site_fract_z
 _atom_site_occupancy
  V  V0  1  0.65490000  0.16106000  0.44909900  1
  V  V1  1  0.34510000  0.83894000  0.55090100  1
  V  V2  1  0.33587600  0.94250800  0.24730400  1
  V  V3  1  0.66412400  0.05749200  0.75269600  1
  Pb  Pb4  1  0.82126900  0.85383300  0.10688400  1
  Pb  Pb5  1  0.17873100  0.14616700  0.89311600  1
  Pb  Pb6  1  0.13588300  0.45232600  0.24967100  1
  Pb  Pb7  1  0.86411700  0.54767400  0.75032900  1
  Se  Se8  1  0.66838800  0.33855100  0.04586500  1
  Se  Se9  1  0.33161200  0.66144900  0.95413500  1
  Se  Se10  1  0.65874000  0.59679100  0.39918000  1
  Se  Se11  1  0.34126000  0.40320900  0.60082000  1
  O  O12  1  0.88278400  0.24851000  0.07705800  1
  O  O13  1  0.11721600  0.75149000  0.92294200  1
  O  O14  1  0.73330700  0.52916000  0.96156100  1
  O  O15  1  0.26669300  0.47084000  0.03843900  1
  O  O16  1  0.54935100  0.18021700  0.91051300  1
  O  O17  1  0.45064900  0.81978300  0.08948700  1
  O  O18  1  0.44593300  0.70045000  0.36944000  1
  O  O19  1  0.55406700  0.29955000  0.63056000  1
  O  O20  1  0.76815000  0.60455700  0.25327500  1
  O  O21  1  0.23185000  0.39544300  0.74672500  1
  O  O22  1  0.53674800  0.37011100  0.37398700  1
  O  O23  1  0.46325200  0.62988900  0.62601300  1
  O  O24  1  0.87687600  0.26591700  0.46937400  1
  O  O25  1  0.12312400  0.73408300  0.53062600  1
  O  O26  1  0.63294700  0.02452600  0.29142300  1
  O  O27  1  0.36705300  0.97547400  0.70857700  1
  O  O28  1  0.13326800  0.78349200  0.22600400  1
  O  O29  1  0.86673200  0.21650800  0.77399600  1
  O  O30  1  0.26037500  0.12325900  0.17631900  1
  O  O31  1  0.73962500  0.87674100  0.82368100  1
  O  O32  1  0.33682000  0.02421500  0.43252900  1
  O  O33  1  0.66318000  0.97578500  0.56747100  1
