# generated using pymatgen
data_Na2B4O17
_symmetry_space_group_name_H-M   'P 1'
_cell_length_a   7.60902771
_cell_length_b   7.60902771
_cell_length_c   13.53406152
_cell_angle_alpha   79.58313763
_cell_angle_beta   79.58313763
_cell_angle_gamma   90.79225930
_symmetry_Int_Tables_number   1
_chemical_formula_structural   Na2B4O17
_chemical_formula_sum   'Na4 B8 O34'
_cell_volume   757.09186600
_cell_formula_units_Z   2
loop_
 _symmetry_equiv_pos_site_id
 _symmetry_equiv_pos_as_xyz
  1  'x, y, z'
loop_
 _atom_site_type_symbol
 _atom_site_label
 _atom_site_symmetry_multiplicity
 _atom_site_fract_x
 _atom_site_fract_y
 _atom_site_fract_z
 _atom_site_occupancy
  Na  Na0  1  0.50000000  0.00000000  0.50000000  1
  Na  Na1  1  0.00000000  0.50000000  0.00000000  1
  Na  Na2  1  0.46479600  0.53520400  0.75000000  1
  Na  Na3  1  0.53520400  0.46479600  0.25000000  1
  B  B4  1  0.96608200  0.22384300  0.72331500  1
  B  B5  1  0.77615700  0.03391800  0.77668500  1
  B  B6  1  0.03391800  0.77615700  0.27668500  1
  B  B7  1  0.22384300  0.96608200  0.22331500  1
  B  B8  1  0.82736300  0.21461900  0.89342800  1
  B  B9  1  0.78538100  0.17263700  0.60657200  1
  B  B10  1  0.17263700  0.78538100  0.10657200  1
  B  B11  1  0.21461900  0.82736300  0.39342800  1
  O  O12  1  0.96503300  0.03496700  0.75000000  1
  O  O13  1  0.03496700  0.96503300  0.25000000  1
  O  O14  1  0.95562500  0.30983000  0.80598300  1
  O  O15  1  0.69017000  0.04437500  0.69401700  1
  O  O16  1  0.04437500  0.69017000  0.19401700  1
  O  O17  1  0.30983000  0.95562500  0.30598300  1
  O  O18  1  0.91234100  0.29179800  0.63234700  1
  O  O19  1  0.70820200  0.08765900  0.86765300  1
  O  O20  1  0.08765900  0.70820200  0.36765300  1
  O  O21  1  0.29179800  0.91234100  0.13234700  1
  O  O22  1  0.31172000  0.23009200  0.69092000  1
  O  O23  1  0.76990800  0.68828000  0.80908000  1
  O  O24  1  0.68828000  0.76990800  0.30908000  1
  O  O25  1  0.23009200  0.31172000  0.19092000  1
  O  O26  1  0.81920700  0.25763200  0.98412000  1
  O  O27  1  0.74236800  0.18079300  0.51588000  1
  O  O28  1  0.18079300  0.74236800  0.01588000  1
  O  O29  1  0.25763200  0.81920700  0.48412000  1
  O  O30  1  0.30407500  0.39680300  0.90639200  1
  O  O31  1  0.60319700  0.69592500  0.59360800  1
  O  O32  1  0.69592500  0.60319700  0.09360800  1
  O  O33  1  0.39680300  0.30407500  0.40639200  1
  O  O34  1  0.34307600  0.07018400  0.69842600  1
  O  O35  1  0.92981600  0.65692400  0.80157400  1
  O  O36  1  0.65692400  0.92981600  0.30157400  1
  O  O37  1  0.07018400  0.34307600  0.19842600  1
  O  O38  1  0.88820300  0.81723100  0.00101900  1
  O  O39  1  0.18276900  0.11179700  0.49898100  1
  O  O40  1  0.11179700  0.18276900  0.99898100  1
  O  O41  1  0.81723100  0.88820300  0.50101900  1
  O  O42  1  0.77420700  0.76123500  0.57843600  1
  O  O43  1  0.23876500  0.22579300  0.92156400  1
  O  O44  1  0.22579300  0.23876500  0.42156400  1
  O  O45  1  0.76123500  0.77420700  0.07843600  1
