# generated using pymatgen
data_Al2Bi7Ru(BrCl4)2
_symmetry_space_group_name_H-M   'P 1'
_cell_length_a   14.76375300
_cell_length_b   11.90142100
_cell_length_c   18.17264063
_cell_angle_alpha   57.48905989
_cell_angle_beta   90.00000000
_cell_angle_gamma   90.00000000
_symmetry_Int_Tables_number   1
_chemical_formula_structural   Al2Bi7Ru(BrCl4)2
_chemical_formula_sum   'Al8 Bi28 Ru4 Br8 Cl32'
_cell_volume   2692.71245532
_cell_formula_units_Z   4
loop_
 _symmetry_equiv_pos_site_id
 _symmetry_equiv_pos_as_xyz
  1  'x, y, z'
loop_
 _atom_site_type_symbol
 _atom_site_label
 _atom_site_symmetry_multiplicity
 _atom_site_fract_x
 _atom_site_fract_y
 _atom_site_fract_z
 _atom_site_occupancy
  Al  Al0  1  0.18868500  0.46958000  0.58348800  1
  Al  Al1  1  0.31131500  0.46958000  0.08348800  1
  Al  Al2  1  0.81131500  0.53042000  0.41651200  1
  Al  Al3  1  0.68868500  0.53042000  0.91651200  1
  Al  Al4  1  0.53266000  0.80273600  0.19445000  1
  Al  Al5  1  0.96734000  0.80273600  0.69445000  1
  Al  Al6  1  0.46734000  0.19726400  0.80555000  1
  Al  Al7  1  0.03266000  0.19726400  0.30555000  1
  Bi  Bi8  1  0.13389100  0.10497300  0.91022400  1
  Bi  Bi9  1  0.36610900  0.10497300  0.41022400  1
  Bi  Bi10  1  0.86610900  0.89502700  0.08977600  1
  Bi  Bi11  1  0.63389100  0.89502700  0.58977600  1
  Bi  Bi12  1  0.00501800  0.83029300  0.96442800  1
  Bi  Bi13  1  0.49498200  0.83029300  0.46442800  1
  Bi  Bi14  1  0.99498200  0.16970700  0.03557200  1
  Bi  Bi15  1  0.50501800  0.16970700  0.53557200  1
  Bi  Bi16  1  0.95987100  0.15178100  0.74706700  1
  Bi  Bi17  1  0.54012900  0.15178100  0.24706700  1
  Bi  Bi18  1  0.04012900  0.84821900  0.25293300  1
  Bi  Bi19  1  0.45987100  0.84821900  0.75293300  1
  Bi  Bi20  1  0.78820600  0.01220900  0.85670300  1
  Bi  Bi21  1  0.71179400  0.01220900  0.35670300  1
  Bi  Bi22  1  0.21179400  0.98779100  0.14329700  1
  Bi  Bi23  1  0.28820600  0.98779100  0.64329700  1
  Bi  Bi24  1  0.77747000  0.22284200  0.90632400  1
  Bi  Bi25  1  0.72253000  0.22284200  0.40632400  1
  Bi  Bi26  1  0.22253000  0.77715800  0.09367600  1
  Bi  Bi27  1  0.27747000  0.77715800  0.59367600  1
  Bi  Bi28  1  0.94420000  0.36767300  0.79216200  1
  Bi  Bi29  1  0.55580000  0.36767300  0.29216200  1
  Bi  Bi30  1  0.05580000  0.63232700  0.20783800  1
  Bi  Bi31  1  0.44420000  0.63232700  0.70783800  1
  Bi  Bi32  1  0.77530300  0.31568800  0.70594700  1
  Bi  Bi33  1  0.72469700  0.31568800  0.20594700  1
  Bi  Bi34  1  0.22469700  0.68431200  0.29405300  1
  Bi  Bi35  1  0.27530300  0.68431200  0.79405300  1
  Ru  Ru36  1  0.94328100  0.08162400  0.92493300  1
  Ru  Ru37  1  0.55671900  0.08162400  0.42493300  1
  Ru  Ru38  1  0.05671900  0.91837600  0.07506700  1
  Ru  Ru39  1  0.44328100  0.91837600  0.57506700  1
  Br  Br40  1  0.16378300  0.91799000  0.84912900  1
  Br  Br41  1  0.33621700  0.91799000  0.34912900  1
  Br  Br42  1  0.83621700  0.08201000  0.15087100  1
  Br  Br43  1  0.66378300  0.08201000  0.65087100  1
  Br  Br44  1  0.83749200  0.68826600  0.05398000  1
  Br  Br45  1  0.66250800  0.68826600  0.55398000  1
  Br  Br46  1  0.16250800  0.31173400  0.94602000  1
  Br  Br47  1  0.33749200  0.31173400  0.44602000  1
  Cl  Cl48  1  0.16650100  0.44528700  0.70938600  1
  Cl  Cl49  1  0.33349900  0.44528700  0.20938600  1
  Cl  Cl50  1  0.83349900  0.55471300  0.29061400  1
  Cl  Cl51  1  0.66650100  0.55471300  0.79061400  1
  Cl  Cl52  1  0.32943300  0.52036600  0.54864000  1
  Cl  Cl53  1  0.17056700  0.52036600  0.04864000  1
  Cl  Cl54  1  0.67056700  0.47963400  0.45136000  1
  Cl  Cl55  1  0.82943300  0.47963400  0.95136000  1
  Cl  Cl56  1  0.11066000  0.63910400  0.48694900  1
  Cl  Cl57  1  0.38934000  0.63910400  0.98694900  1
  Cl  Cl58  1  0.88934000  0.36089600  0.51305100  1
  Cl  Cl59  1  0.61066000  0.36089600  0.01305100  1
  Cl  Cl60  1  0.14551900  0.29129600  0.59203900  1
  Cl  Cl61  1  0.35448100  0.29129600  0.09203900  1
  Cl  Cl62  1  0.85448100  0.70870400  0.40796100  1
  Cl  Cl63  1  0.64551900  0.70870400  0.90796100  1
  Cl  Cl64  1  0.59835800  0.72593300  0.12515500  1
  Cl  Cl65  1  0.90164200  0.72593300  0.62515500  1
  Cl  Cl66  1  0.40164200  0.27406700  0.87484500  1
  Cl  Cl67  1  0.09835800  0.27406700  0.37484500  1
  Cl  Cl68  1  0.63458800  0.85691700  0.25608500  1
  Cl  Cl69  1  0.86541200  0.85691700  0.75608500  1
  Cl  Cl70  1  0.36541200  0.14308300  0.74391500  1
  Cl  Cl71  1  0.13458800  0.14308300  0.24391500  1
  Cl  Cl72  1  0.45030800  0.97412200  0.11078400  1
  Cl  Cl73  1  0.04969200  0.97412200  0.61078400  1
  Cl  Cl74  1  0.54969200  0.02587800  0.88921600  1
  Cl  Cl75  1  0.95030800  0.02587800  0.38921600  1
  Cl  Cl76  1  0.44970700  0.64744300  0.29782700  1
  Cl  Cl77  1  0.05029300  0.64744300  0.79782700  1
  Cl  Cl78  1  0.55029300  0.35255700  0.70217300  1
  Cl  Cl79  1  0.94970700  0.35255700  0.20217300  1
