# generated using pymatgen
data_AgN2ClO4
_symmetry_space_group_name_H-M   'P 1'
_cell_length_a   7.40071400
_cell_length_b   6.40493700
_cell_length_c   11.25834929
_cell_angle_alpha   90.00000000
_cell_angle_beta   98.09238044
_cell_angle_gamma   90.00000000
_symmetry_Int_Tables_number   1
_chemical_formula_structural   AgN2ClO4
_chemical_formula_sum   'Ag4 N8 Cl4 O16'
_cell_volume   528.34425626
_cell_formula_units_Z   4
loop_
 _symmetry_equiv_pos_site_id
 _symmetry_equiv_pos_as_xyz
  1  'x, y, z'
loop_
 _atom_site_type_symbol
 _atom_site_label
 _atom_site_symmetry_multiplicity
 _atom_site_fract_x
 _atom_site_fract_y
 _atom_site_fract_z
 _atom_site_occupancy
  Ag  Ag0  1  0.50000000  0.00000000  0.50000000  1
  Ag  Ag1  1  0.50000000  0.50000000  0.50000000  1
  Ag  Ag2  1  0.00000000  0.00000000  0.00000000  1
  Ag  Ag3  1  0.00000000  0.50000000  0.00000000  1
  N  N4  1  0.04496100  0.00000000  0.81668500  1
  N  N5  1  0.95503900  0.00000000  0.18331500  1
  N  N6  1  0.70721000  0.50000000  0.98936300  1
  N  N7  1  0.29279000  0.50000000  0.01063700  1
  N  N8  1  0.22735100  0.00000000  0.54546700  1
  N  N9  1  0.77264900  0.00000000  0.45453300  1
  N  N10  1  0.58063500  0.50000000  0.68687900  1
  N  N11  1  0.41936500  0.50000000  0.31312100  1
  Cl  Cl12  1  0.53604400  0.00000000  0.82374400  1
  Cl  Cl13  1  0.46395600  0.00000000  0.17625600  1
  Cl  Cl14  1  0.02893400  0.50000000  0.66970100  1
  Cl  Cl15  1  0.97106600  0.50000000  0.33029900  1
  O  O16  1  0.42794700  0.18713200  0.82712800  1
  O  O17  1  0.42794700  0.81286800  0.82712800  1
  O  O18  1  0.57205300  0.81286800  0.17287200  1
  O  O19  1  0.57205300  0.18713200  0.17287200  1
  O  O20  1  0.62820000  0.00000000  0.71339700  1
  O  O21  1  0.37180000  0.00000000  0.28660300  1
  O  O22  1  0.68373300  0.00000000  0.92828200  1
  O  O23  1  0.31626700  0.00000000  0.07171800  1
  O  O24  1  0.07569000  0.50000000  0.80383000  1
  O  O25  1  0.92431000  0.50000000  0.19617000  1
  O  O26  1  0.92460500  0.31293200  0.63260100  1
  O  O27  1  0.92460500  0.68706800  0.63260100  1
  O  O28  1  0.07539500  0.68706800  0.36739900  1
  O  O29  1  0.07539500  0.31293200  0.36739900  1
  O  O30  1  0.20250500  0.50000000  0.62285600  1
  O  O31  1  0.79749500  0.50000000  0.37714400  1
