# generated using pymatgen
data_HoH6C6Cl3(O3F2)3
_symmetry_space_group_name_H-M   'P 1'
_cell_length_a   19.81185700
_cell_length_b   9.35672200
_cell_length_c   10.66022962
_cell_angle_alpha   66.10983101
_cell_angle_beta   90.00000000
_cell_angle_gamma   90.00000000
_symmetry_Int_Tables_number   1
_chemical_formula_structural   HoH6C6Cl3(O3F2)3
_chemical_formula_sum   'Ho4 H24 C24 Cl12 O36 F24'
_cell_volume   1806.82184270
_cell_formula_units_Z   4
loop_
 _symmetry_equiv_pos_site_id
 _symmetry_equiv_pos_as_xyz
  1  'x, y, z'
loop_
 _atom_site_type_symbol
 _atom_site_label
 _atom_site_symmetry_multiplicity
 _atom_site_fract_x
 _atom_site_fract_y
 _atom_site_fract_z
 _atom_site_occupancy
  Ho  Ho0  1  0.42904300  0.70336300  0.47378500  1
  Ho  Ho1  1  0.92904300  0.29663700  0.02621500  1
  Ho  Ho2  1  0.57095700  0.29663700  0.52621500  1
  Ho  Ho3  1  0.07095700  0.70336300  0.97378500  1
  H  H4  1  0.28827000  0.68278800  0.56845500  1
  H  H5  1  0.78827000  0.31721200  0.93154500  1
  H  H6  1  0.71173000  0.31721200  0.43154500  1
  H  H7  1  0.21173000  0.68278800  0.06845500  1
  H  H8  1  0.28765100  0.57377500  0.48080100  1
  H  H9  1  0.78765100  0.42622500  0.01919900  1
  H  H10  1  0.71234900  0.42622500  0.51919900  1
  H  H11  1  0.21234900  0.57377500  0.98080100  1
  H  H12  1  0.38773600  0.86332300  0.16490500  1
  H  H13  1  0.88773600  0.13667700  0.33509500  1
  H  H14  1  0.61226400  0.13667700  0.83509500  1
  H  H15  1  0.11226400  0.86332300  0.66490500  1
  H  H16  1  0.31827800  0.83012400  0.24165700  1
  H  H17  1  0.81827800  0.16987600  0.25834300  1
  H  H18  1  0.68172200  0.16987600  0.75834300  1
  H  H19  1  0.18172200  0.83012400  0.74165700  1
  H  H20  1  0.45499800  0.05731700  0.40621000  1
  H  H21  1  0.95499800  0.94268300  0.09379000  1
  H  H22  1  0.54500200  0.94268300  0.59379000  1
  H  H23  1  0.04500200  0.05731700  0.90621000  1
  H  H24  1  0.46794100  0.02388100  0.27530600  1
  H  H25  1  0.96794100  0.97611900  0.22469400  1
  H  H26  1  0.53205900  0.97611900  0.72469400  1
  H  H27  1  0.03205900  0.02388100  0.77530600  1
  C  C28  1  0.58325300  0.63879600  0.59257000  1
  C  C29  1  0.08325300  0.36120400  0.90743000  1
  C  C30  1  0.41674700  0.36120400  0.40743000  1
  C  C31  1  0.91674700  0.63879600  0.09257000  1
  C  C32  1  0.46065600  0.35552300  0.74677600  1
  C  C33  1  0.96065600  0.64447700  0.75322400  1
  C  C34  1  0.53934400  0.64447700  0.25322400  1
  C  C35  1  0.03934400  0.35552300  0.24677600  1
  C  C36  1  0.33155100  0.83759800  0.66637700  1
  C  C37  1  0.83155100  0.16240200  0.83362300  1
  C  C38  1  0.66844900  0.16240200  0.33362300  1
  C  C39  1  0.16844900  0.83759800  0.16637700  1
  C  C40  1  0.65008000  0.67089000  0.65376500  1
  C  C41  1  0.15008000  0.32911000  0.84623500  1
  C  C42  1  0.34992000  0.32911000  0.34623500  1
  C  C43  1  0.84992000  0.67089000  0.15376500  1
  C  C44  1  0.44040400  0.27794900  0.90191000  1
  C  C45  1  0.94040400  0.72205100  0.59809000  1
  C  C46  1  0.55959600  0.72205100  0.09809000  1
  C  C47  1  0.05959600  0.27794900  0.40191000  1
  C  C48  1  0.33706300  0.93758600  0.75286500  1
  C  C49  1  0.83706300  0.06241400  0.74713500  1
  C  C50  1  0.66293700  0.06241400  0.24713500  1
  C  C51  1  0.16293700  0.93758600  0.25286500  1
  Cl  Cl52  1  0.65474000  0.54626500  0.83052300  1
  Cl  Cl53  1  0.15474000  0.45373500  0.66947700  1
  Cl  Cl54  1  0.34526000  0.45373500  0.16947700  1
  Cl  Cl55  1  0.84526000  0.54626500  0.33052300  1
  Cl  Cl56  1  0.35182900  0.26759700  0.92283000  1
  Cl  Cl57  1  0.85182900  0.73240300  0.57717000  1
  Cl  Cl58  1  0.64817100  0.73240300  0.07717000  1
  Cl  Cl59  1  0.14817100  0.26759700  0.42283000  1
  Cl  Cl60  1  0.35871000  0.81050800  0.92513400  1
  Cl  Cl61  1  0.85871000  0.18949200  0.57486600  1
  Cl  Cl62  1  0.64129000  0.18949200  0.07486600  1
  Cl  Cl63  1  0.14129000  0.81050800  0.42513400  1
  O  O64  1  0.53581400  0.73493400  0.57338900  1
  O  O65  1  0.03581400  0.26506600  0.92661100  1
  O  O66  1  0.46418600  0.26506600  0.42661100  1
  O  O67  1  0.96418600  0.73493400  0.07338900  1
  O  O68  1  0.41617000  0.48326200  0.42959000  1
  O  O69  1  0.91617000  0.51673800  0.07041000  1
  O  O70  1  0.58383000  0.51673800  0.57041000  1
  O  O71  1  0.08383000  0.48326200  0.92959000  1
  O  O72  1  0.43990200  0.49322300  0.68474900  1
  O  O73  1  0.93990200  0.50677700  0.81525100  1
  O  O74  1  0.56009800  0.50677700  0.31525100  1
  O  O75  1  0.06009800  0.49322300  0.18474900  1
  O  O76  1  0.50429600  0.72745100  0.29658100  1
  O  O77  1  0.00429600  0.27254900  0.20341900  1
  O  O78  1  0.49570400  0.27254900  0.70341900  1
  O  O79  1  0.99570400  0.72745100  0.79658100  1
  O  O80  1  0.38580500  0.82284300  0.61014800  1
  O  O81  1  0.88580500  0.17715700  0.88985200  1
  O  O82  1  0.61419500  0.17715700  0.38985200  1
  O  O83  1  0.11419500  0.82284300  0.11014800  1
  O  O84  1  0.27426700  0.78056300  0.66459500  1
  O  O85  1  0.77426700  0.21943700  0.83540500  1
  O  O86  1  0.72573300  0.21943700  0.33540500  1
  O  O87  1  0.22573300  0.78056300  0.16459500  1
  O  O88  1  0.31434400  0.64383700  0.50743000  1
  O  O89  1  0.81434400  0.35616300  0.99257000  1
  O  O90  1  0.68565600  0.35616300  0.49257000  1
  O  O91  1  0.18565600  0.64383700  0.00743000  1
  O  O92  1  0.36723200  0.83416600  0.25488900  1
  O  O93  1  0.86723200  0.16583400  0.24511100  1
  O  O94  1  0.63276800  0.16583400  0.74511100  1
  O  O95  1  0.13276800  0.83416600  0.75488900  1
  O  O96  1  0.46132200  0.97357500  0.37387200  1
  O  O97  1  0.96132200  0.02642500  0.12612800  1
  O  O98  1  0.53867800  0.02642500  0.62612800  1
  O  O99  1  0.03867800  0.97357500  0.87387200  1
  F  F100  1  0.70448600  0.64310600  0.58659000  1
  F  F101  1  0.20448600  0.35689400  0.91341000  1
  F  F102  1  0.29551400  0.35689400  0.41341000  1
  F  F103  1  0.79551400  0.64310600  0.08659000  1
  F  F104  1  0.65509100  0.82206400  0.63858500  1
  F  F105  1  0.15509100  0.17793600  0.86141500  1
  F  F106  1  0.34490900  0.17793600  0.36141500  1
  F  F107  1  0.84490900  0.82206400  0.13858500  1
  F  F108  1  0.46639300  0.13028500  0.96510900  1
  F  F109  1  0.96639300  0.86971500  0.53489100  1
  F  F110  1  0.53360700  0.86971500  0.03489100  1
  F  F111  1  0.03360700  0.13028500  0.46510900  1
  F  F112  1  0.46720400  0.36325800  0.96845700  1
  F  F113  1  0.96720400  0.63674200  0.53154300  1
  F  F114  1  0.53279600  0.63674200  0.03154300  1
  F  F115  1  0.03279600  0.36325800  0.46845700  1
  F  F116  1  0.27728200  0.00945200  0.75429500  1
  F  F117  1  0.77728200  0.99054800  0.74570500  1
  F  F118  1  0.72271800  0.99054800  0.24570500  1
  F  F119  1  0.22271800  0.00945200  0.25429500  1
  F  F120  1  0.38466400  0.05133300  0.70274400  1
  F  F121  1  0.88466400  0.94866700  0.79725600  1
  F  F122  1  0.61533600  0.94866700  0.29725600  1
  F  F123  1  0.11533600  0.05133300  0.20274400  1
