# generated using pymatgen
data_H6C3S3NCl3O5
_symmetry_space_group_name_H-M   'P 1'
_cell_length_a   14.53929600
_cell_length_b   9.62518200
_cell_length_c   10.61315366
_cell_angle_alpha   64.53325951
_cell_angle_beta   90.00000000
_cell_angle_gamma   90.00000000
_symmetry_Int_Tables_number   1
_chemical_formula_structural   H6C3S3NCl3O5
_chemical_formula_sum   'H24 C12 S12 N4 Cl12 O20'
_cell_volume   1340.92715693
_cell_formula_units_Z   4
loop_
 _symmetry_equiv_pos_site_id
 _symmetry_equiv_pos_as_xyz
  1  'x, y, z'
loop_
 _atom_site_type_symbol
 _atom_site_label
 _atom_site_symmetry_multiplicity
 _atom_site_fract_x
 _atom_site_fract_y
 _atom_site_fract_z
 _atom_site_occupancy
  H  H0  1  0.41914200  0.82604600  0.96472800  1
  H  H1  1  0.91914200  0.17395400  0.53527200  1
  H  H2  1  0.58085800  0.17395400  0.03527200  1
  H  H3  1  0.08085800  0.82604600  0.46472800  1
  H  H4  1  0.45599000  0.81127900  0.13193500  1
  H  H5  1  0.95599000  0.18872100  0.36806500  1
  H  H6  1  0.54401000  0.18872100  0.86806500  1
  H  H7  1  0.04401000  0.81127900  0.63193500  1
  H  H8  1  0.42441300  0.63861400  0.11069000  1
  H  H9  1  0.92441300  0.36138600  0.38931000  1
  H  H10  1  0.57558700  0.36138600  0.88931000  1
  H  H11  1  0.07558700  0.63861400  0.61069000  1
  H  H12  1  0.80162300  0.90415600  0.21550100  1
  H  H13  1  0.30162300  0.09584400  0.28449900  1
  H  H14  1  0.19837700  0.09584400  0.78449900  1
  H  H15  1  0.69837700  0.90415600  0.71550100  1
  H  H16  1  0.75455200  0.91018600  0.05467600  1
  H  H17  1  0.25455200  0.08981400  0.44532400  1
  H  H18  1  0.24544800  0.08981400  0.94532400  1
  H  H19  1  0.74544800  0.91018600  0.55467600  1
  H  H20  1  0.82015200  0.74395900  0.17323600  1
  H  H21  1  0.32015200  0.25604100  0.32676400  1
  H  H22  1  0.17984800  0.25604100  0.82676400  1
  H  H23  1  0.67984800  0.74395900  0.67323600  1
  C  C24  1  0.60042000  0.31990200  0.37855300  1
  C  C25  1  0.10042000  0.68009800  0.12144700  1
  C  C26  1  0.39958000  0.68009800  0.62144700  1
  C  C27  1  0.89958000  0.31990200  0.87855300  1
  C  C28  1  0.45466600  0.75390800  0.06253600  1
  C  C29  1  0.95466600  0.24609200  0.43746400  1
  C  C30  1  0.54533400  0.24609200  0.93746400  1
  C  C31  1  0.04533400  0.75390800  0.56253600  1
  C  C32  1  0.77310500  0.83703200  0.16311500  1
  C  C33  1  0.27310500  0.16296800  0.33688500  1
  C  C34  1  0.22689500  0.16296800  0.83688500  1
  C  C35  1  0.72689500  0.83703200  0.66311500  1
  S  S36  1  0.66809600  0.46017500  0.20496000  1
  S  S37  1  0.16809600  0.53982500  0.29504000  1
  S  S38  1  0.33190400  0.53982500  0.79504000  1
  S  S39  1  0.83190400  0.46017500  0.70496000  1
  S  S40  1  0.56869700  0.73937500  0.01183700  1
  S  S41  1  0.06869700  0.26062500  0.48816300  1
  S  S42  1  0.43130300  0.26062500  0.98816300  1
  S  S43  1  0.93130300  0.73937500  0.51183700  1
  S  S44  1  0.67082100  0.75335300  0.25432100  1
  S  S45  1  0.17082100  0.24664700  0.24567900  1
  S  S46  1  0.32917900  0.24664700  0.74567900  1
  S  S47  1  0.82917900  0.75335300  0.75432100  1
  N  N48  1  0.62857600  0.64682500  0.16926000  1
  N  N49  1  0.12857600  0.35317500  0.33074000  1
  N  N50  1  0.37142400  0.35317500  0.83074000  1
  N  N51  1  0.87142400  0.64682500  0.66926000  1
  Cl  Cl52  1  0.59542300  0.15132700  0.34816800  1
  Cl  Cl53  1  0.09542300  0.84867300  0.15183200  1
  Cl  Cl54  1  0.40457700  0.84867300  0.65183200  1
  Cl  Cl55  1  0.90457700  0.15132700  0.84816800  1
  Cl  Cl56  1  0.66386200  0.28319200  0.52906400  1
  Cl  Cl57  1  0.16386200  0.71680800  0.97093600  1
  Cl  Cl58  1  0.33613800  0.71680800  0.47093600  1
  Cl  Cl59  1  0.83613800  0.28319200  0.02906400  1
  Cl  Cl60  1  0.49039000  0.39058900  0.38228800  1
  Cl  Cl61  1  0.99039000  0.60941100  0.11771200  1
  Cl  Cl62  1  0.50961000  0.60941100  0.61771200  1
  Cl  Cl63  1  0.00961000  0.39058900  0.88228800  1
  O  O64  1  0.57138800  0.63514700  0.94738100  1
  O  O65  1  0.07138800  0.36485300  0.55261900  1
  O  O66  1  0.42861200  0.36485300  0.05261900  1
  O  O67  1  0.92861200  0.63514700  0.44738100  1
  O  O68  1  0.60831300  0.89115300  0.94174200  1
  O  O69  1  0.10831300  0.10884700  0.55825800  1
  O  O70  1  0.39168700  0.10884700  0.05825800  1
  O  O71  1  0.89168700  0.89115300  0.44174200  1
  O  O72  1  0.69310100  0.64301000  0.39317000  1
  O  O73  1  0.19310100  0.35699000  0.10683000  1
  O  O74  1  0.30689900  0.35699000  0.60683000  1
  O  O75  1  0.80689900  0.64301000  0.89317000  1
  O  O76  1  0.60365900  0.87260700  0.23104300  1
  O  O77  1  0.10365900  0.12739300  0.26895700  1
  O  O78  1  0.39634100  0.12739300  0.76895700  1
  O  O79  1  0.89634100  0.87260700  0.73104300  1
  O  O80  1  0.76423700  0.44730300  0.25132000  1
  O  O81  1  0.26423700  0.55269700  0.24868000  1
  O  O82  1  0.23576300  0.55269700  0.74868000  1
  O  O83  1  0.73576300  0.44730300  0.75132000  1
