# generated using pymatgen
data_Rb2RuNCl5O3
_symmetry_space_group_name_H-M   'P 1'
_cell_length_a   6.73013900
_cell_length_b   11.70859000
_cell_length_c   16.25054668
_cell_angle_alpha   78.37779922
_cell_angle_beta   90.00000000
_cell_angle_gamma   90.00000000
_symmetry_Int_Tables_number   1
_chemical_formula_structural   Rb2RuNCl5O3
_chemical_formula_sum   'Rb8 Ru4 N4 Cl20 O12'
_cell_volume   1254.29541569
_cell_formula_units_Z   4
loop_
 _symmetry_equiv_pos_site_id
 _symmetry_equiv_pos_as_xyz
  1  'x, y, z'
loop_
 _atom_site_type_symbol
 _atom_site_label
 _atom_site_symmetry_multiplicity
 _atom_site_fract_x
 _atom_site_fract_y
 _atom_site_fract_z
 _atom_site_occupancy
  Rb  Rb0  1  0.46815600  0.54525900  0.16051600  1
  Rb  Rb1  1  0.96815600  0.45474100  0.33948400  1
  Rb  Rb2  1  0.53184400  0.45474100  0.83948400  1
  Rb  Rb3  1  0.03184400  0.54525900  0.66051600  1
  Rb  Rb4  1  0.37202600  0.17351200  0.42376600  1
  Rb  Rb5  1  0.87202600  0.82648800  0.07623400  1
  Rb  Rb6  1  0.62797400  0.82648800  0.57623400  1
  Rb  Rb7  1  0.12797400  0.17351200  0.92376600  1
  Ru  Ru8  1  0.17154800  0.77599600  0.40967200  1
  Ru  Ru9  1  0.67154800  0.22400400  0.09032800  1
  Ru  Ru10  1  0.82845200  0.22400400  0.59032800  1
  Ru  Ru11  1  0.32845200  0.77599600  0.90967200  1
  N  N12  1  0.50748300  0.09057400  0.13996800  1
  N  N13  1  0.00748300  0.90942600  0.36003200  1
  N  N14  1  0.49251700  0.90942600  0.86003200  1
  N  N15  1  0.99251700  0.09057400  0.63996800  1
  Cl  Cl16  1  0.35868200  0.83717800  0.04312100  1
  Cl  Cl17  1  0.85868200  0.16282200  0.45687900  1
  Cl  Cl18  1  0.64131800  0.16282200  0.95687900  1
  Cl  Cl19  1  0.14131800  0.83717800  0.54312100  1
  Cl  Cl20  1  0.17541100  0.73621500  0.27205800  1
  Cl  Cl21  1  0.67541100  0.26378500  0.22794200  1
  Cl  Cl22  1  0.82458900  0.26378500  0.72794200  1
  Cl  Cl23  1  0.32458900  0.73621500  0.77205800  1
  Cl  Cl24  1  0.36560300  0.32614000  0.05882700  1
  Cl  Cl25  1  0.86560300  0.67386000  0.44117300  1
  Cl  Cl26  1  0.63439700  0.67386000  0.94117300  1
  Cl  Cl27  1  0.13439700  0.32614000  0.55882700  1
  Cl  Cl28  1  0.94736700  0.09268000  0.12499100  1
  Cl  Cl29  1  0.44736700  0.90732000  0.37500900  1
  Cl  Cl30  1  0.05263300  0.90732000  0.87500900  1
  Cl  Cl31  1  0.55263300  0.09268000  0.62499100  1
  Cl  Cl32  1  0.96897700  0.55464100  0.13635000  1
  Cl  Cl33  1  0.46897700  0.44535900  0.36365000  1
  Cl  Cl34  1  0.03102300  0.44535900  0.86365000  1
  Cl  Cl35  1  0.53102300  0.55464100  0.63635000  1
  O  O36  1  0.31559500  0.65651800  0.45092700  1
  O  O37  1  0.81559500  0.34348200  0.04907300  1
  O  O38  1  0.68440500  0.34348200  0.54907300  1
  O  O39  1  0.18440500  0.65651800  0.95092700  1
  O  O40  1  0.41023700  0.01316500  0.17269000  1
  O  O41  1  0.91023700  0.98683500  0.32731000  1
  O  O42  1  0.58976300  0.98683500  0.82731000  1
  O  O43  1  0.08976300  0.01316500  0.67269000  1
  O  O44  1  0.16178700  0.25993400  0.26379200  1
  O  O45  1  0.66178700  0.74006600  0.23620800  1
  O  O46  1  0.83821300  0.74006600  0.73620800  1
  O  O47  1  0.33821300  0.25993400  0.76379200  1
