# generated using pymatgen
data_NaH2SNO3
_symmetry_space_group_name_H-M   'P 1'
_cell_length_a   5.63854300
_cell_length_b   12.81687500
_cell_length_c   15.93988900
_cell_angle_alpha   90.00000000
_cell_angle_beta   90.00000000
_cell_angle_gamma   90.00000000
_symmetry_Int_Tables_number   1
_chemical_formula_structural   NaH2SNO3
_chemical_formula_sum   'Na12 H24 S12 N12 O36'
_cell_volume   1151.95188116
_cell_formula_units_Z   12
loop_
 _symmetry_equiv_pos_site_id
 _symmetry_equiv_pos_as_xyz
  1  'x, y, z'
loop_
 _atom_site_type_symbol
 _atom_site_label
 _atom_site_symmetry_multiplicity
 _atom_site_fract_x
 _atom_site_fract_y
 _atom_site_fract_z
 _atom_site_occupancy
  Na  Na0  1  0.95394300  0.53621500  0.72563300  1
  Na  Na1  1  0.54605700  0.46378500  0.22563300  1
  Na  Na2  1  0.45394300  0.96378500  0.27436700  1
  Na  Na3  1  0.04605700  0.03621500  0.77436700  1
  Na  Na4  1  0.95404100  0.78088700  0.22860900  1
  Na  Na5  1  0.54595900  0.21911300  0.72860900  1
  Na  Na6  1  0.45404100  0.71911300  0.77139100  1
  Na  Na7  1  0.04595900  0.28088700  0.27139100  1
  Na  Na8  1  0.99772900  0.78613900  0.63196900  1
  Na  Na9  1  0.50227100  0.21386100  0.13196900  1
  Na  Na10  1  0.49772900  0.71386100  0.36803100  1
  Na  Na11  1  0.00227100  0.28613900  0.86803100  1
  H  H12  1  0.16023900  0.99649900  0.48190700  1
  H  H13  1  0.33976100  0.00350100  0.98190700  1
  H  H14  1  0.66023900  0.50350100  0.51809300  1
  H  H15  1  0.83976100  0.49649900  0.01809300  1
  H  H16  1  0.00912900  0.04738900  0.40061100  1
  H  H17  1  0.49087100  0.95261100  0.90061100  1
  H  H18  1  0.50912900  0.45261100  0.59938900  1
  H  H19  1  0.99087100  0.54738900  0.09938900  1
  H  H20  1  0.42366000  0.24848300  0.49243200  1
  H  H21  1  0.07634000  0.75151700  0.99243200  1
  H  H22  1  0.92366000  0.25151700  0.50756800  1
  H  H23  1  0.57634000  0.74848300  0.00756800  1
  H  H24  1  0.50220500  0.35530000  0.44077900  1
  H  H25  1  0.99779500  0.64470000  0.94077900  1
  H  H26  1  0.00220500  0.14470000  0.55922100  1
  H  H27  1  0.49779500  0.85530000  0.05922100  1
  H  H28  1  0.98466300  0.12362900  0.02920700  1
  H  H29  1  0.51533700  0.87637100  0.52920700  1
  H  H30  1  0.48466300  0.37637100  0.97079300  1
  H  H31  1  0.01533700  0.62362900  0.47079300  1
  H  H32  1  0.90168700  0.99997300  0.02137100  1
  H  H33  1  0.59831300  0.00002700  0.52137100  1
  H  H34  1  0.40168700  0.50002700  0.97862900  1
  H  H35  1  0.09831300  0.49997300  0.47862900  1
  S  S36  1  0.98145600  0.87328800  0.41086800  1
  S  S37  1  0.51854400  0.12671200  0.91086800  1
  S  S38  1  0.48145600  0.62671200  0.58913200  1
  S  S39  1  0.01854400  0.37328800  0.08913200  1
  S  S40  1  0.54219400  0.21443900  0.35993200  1
  S  S41  1  0.95780600  0.78556100  0.85993200  1
  S  S42  1  0.04219400  0.28556100  0.64006800  1
  S  S43  1  0.45780600  0.71443900  0.14006800  1
  S  S44  1  0.98828600  0.04625900  0.15340200  1
  S  S45  1  0.51171400  0.95374100  0.65340200  1
  S  S46  1  0.48828600  0.45374100  0.84659800  1
  S  S47  1  0.01171400  0.54625900  0.34659800  1
  N  N48  1  0.00393700  0.99372800  0.44836900  1
  N  N49  1  0.49606300  0.00627200  0.94836900  1
  N  N50  1  0.50393700  0.50627200  0.55163100  1
  N  N51  1  0.99606300  0.49372800  0.05163100  1
  N  N52  1  0.41586800  0.28555100  0.43540800  1
  N  N53  1  0.08413200  0.71444900  0.93540800  1
  N  N54  1  0.91586800  0.21444900  0.56459200  1
  N  N55  1  0.58413200  0.78555100  0.06459200  1
  N  N56  1  0.02246200  0.04918600  0.04891000  1
  N  N57  1  0.47753800  0.95081400  0.54891000  1
  N  N58  1  0.52246200  0.45081400  0.95109000  1
  N  N59  1  0.97753800  0.54918600  0.45109000  1
  O  O60  1  0.76021800  0.87256400  0.36147000  1
  O  O61  1  0.73978200  0.12743600  0.86147000  1
  O  O62  1  0.26021800  0.62743600  0.63853000  1
  O  O63  1  0.23978200  0.37256400  0.13853000  1
  O  O64  1  0.18764900  0.84904000  0.35638800  1
  O  O65  1  0.31235100  0.15096000  0.85638800  1
  O  O66  1  0.68764900  0.65096000  0.64361200  1
  O  O67  1  0.81235100  0.34904000  0.14361200  1
  O  O68  1  0.97541600  0.80713100  0.48550500  1
  O  O69  1  0.52458400  0.19286900  0.98550500  1
  O  O70  1  0.47541600  0.69286900  0.51449500  1
  O  O71  1  0.02458400  0.30713100  0.01449500  1
  O  O72  1  0.48165300  0.27267800  0.28280600  1
  O  O73  1  0.01834700  0.72732200  0.78280600  1
  O  O74  1  0.98165300  0.22732200  0.71719400  1
  O  O75  1  0.51834700  0.77267800  0.21719400  1
  O  O76  1  0.42603300  0.11248500  0.36597700  1
  O  O77  1  0.07396700  0.88751500  0.86597700  1
  O  O78  1  0.92603300  0.38751500  0.63402300  1
  O  O79  1  0.57396700  0.61248500  0.13402300  1
  O  O80  1  0.80055800  0.20970100  0.37315100  1
  O  O81  1  0.69944200  0.79029900  0.87315100  1
  O  O82  1  0.30055800  0.29029900  0.62684900  1
  O  O83  1  0.19944200  0.70970100  0.12684900  1
  O  O84  1  0.73440900  0.05995200  0.17365900  1
  O  O85  1  0.76559100  0.94004800  0.67365900  1
  O  O86  1  0.23440900  0.44004800  0.82634100  1
  O  O87  1  0.26559100  0.55995200  0.32634100  1
  O  O88  1  0.13597600  0.13331900  0.18277200  1
  O  O89  1  0.36402400  0.86668100  0.68277200  1
  O  O90  1  0.63597600  0.36668100  0.81722800  1
  O  O91  1  0.86402400  0.63331900  0.31722800  1
  O  O92  1  0.08011400  0.94459700  0.17990300  1
  O  O93  1  0.41988600  0.05540300  0.67990300  1
  O  O94  1  0.58011400  0.55540300  0.82009700  1
  O  O95  1  0.91988600  0.44459700  0.32009700  1
