# generated using pymatgen
data_RbC2S2NO5F6
_symmetry_space_group_name_H-M   'P 1'
_cell_length_a   12.44140218
_cell_length_b   12.44140218
_cell_length_c   12.44140218
_cell_angle_alpha   95.57493244
_cell_angle_beta   95.57493244
_cell_angle_gamma   143.67840237
_symmetry_Int_Tables_number   1
_chemical_formula_structural   RbC2S2NO5F6
_chemical_formula_sum   'Rb4 C8 S8 N4 O20 F24'
_cell_volume   1083.85340290
_cell_formula_units_Z   4
loop_
 _symmetry_equiv_pos_site_id
 _symmetry_equiv_pos_as_xyz
  1  'x, y, z'
loop_
 _atom_site_type_symbol
 _atom_site_label
 _atom_site_symmetry_multiplicity
 _atom_site_fract_x
 _atom_site_fract_y
 _atom_site_fract_z
 _atom_site_occupancy
  Rb  Rb0  1  0.51762600  0.91646400  0.94263000  1
  Rb  Rb1  1  0.97383300  0.57499600  0.05737000  1
  Rb  Rb2  1  0.42500400  0.48237400  0.39883700  1
  Rb  Rb3  1  0.08353600  0.02616700  0.60116300  1
  C  C4  1  0.61127800  0.96038600  0.57004900  1
  C  C5  1  0.39033800  0.04123000  0.42995100  1
  C  C6  1  0.95877000  0.38872200  0.34910800  1
  C  C7  1  0.03961400  0.60966200  0.65089200  1
  C  C8  1  0.12433700  0.29042600  0.93574500  1
  C  C9  1  0.35468100  0.18859200  0.06425500  1
  C  C10  1  0.81140800  0.87566300  0.16608900  1
  C  C11  1  0.70957400  0.64531900  0.83391100  1
  S  S12  1  0.73035300  0.95888200  0.67275900  1
  S  S13  1  0.28612200  0.05759300  0.32724100  1
  S  S14  1  0.94240700  0.26964700  0.22852900  1
  S  S15  1  0.04111800  0.71387800  0.77147100  1
  S  S16  1  0.04521500  0.32823900  0.83020900  1
  S  S17  1  0.49803000  0.21500600  0.16979100  1
  S  S18  1  0.78499400  0.95478500  0.28302400  1
  S  S19  1  0.67176100  0.50197000  0.71697600  1
  N  N20  1  0.94771900  0.17500000  0.71526300  1
  N  N21  1  0.45973700  0.23245600  0.28473700  1
  N  N22  1  0.76754400  0.05228100  0.22728100  1
  N  N23  1  0.82500000  0.54026300  0.77271900  1
  O  O24  1  0.63041600  0.88551500  0.75714300  1
  O  O25  1  0.12837200  0.87327300  0.24285700  1
  O  O26  1  0.12672700  0.36958400  0.25509900  1
  O  O27  1  0.11448500  0.87162800  0.74490200  1
  O  O28  1  0.72020700  0.84942400  0.60217900  1
  O  O29  1  0.24724500  0.11802800  0.39782100  1
  O  O30  1  0.88197200  0.27979300  0.12921700  1
  O  O31  1  0.15057600  0.75275500  0.87078300  1
  O  O32  1  0.91979200  0.29705300  0.87390600  1
  O  O33  1  0.42314700  0.04588600  0.12609400  1
  O  O34  1  0.95411400  0.08020800  0.37726100  1
  O  O35  1  0.70294700  0.57685300  0.62273900  1
  O  O36  1  0.22091600  0.51453500  0.82249300  1
  O  O37  1  0.69204100  0.39842300  0.17750700  1
  O  O38  1  0.60157700  0.77908400  0.29361900  1
  O  O39  1  0.48546500  0.30795900  0.70638100  1
  O  O40  1  0.60989000  0.21023000  0.85810200  1
  O  O41  1  0.35212900  0.75178800  0.14189800  1
  O  O42  1  0.24821200  0.39011000  0.60034000  1
  O  O43  1  0.78977000  0.64787100  0.39966000  1
  F  F44  1  0.43661700  0.77867400  0.51005700  1
  F  F45  1  0.26861800  0.92656100  0.48994300  1
  F  F46  1  0.07343900  0.56338300  0.34205700  1
  F  F47  1  0.22132600  0.73138200  0.65794300  1
  F  F48  1  0.71236200  0.05668300  0.49825600  1
  F  F49  1  0.55842700  0.21410600  0.50174400  1
  F  F50  1  0.78589400  0.28763800  0.34432100  1
  F  F51  1  0.94331700  0.44157300  0.65567900  1
  F  F52  1  0.59308300  0.04148800  0.62626100  1
  F  F53  1  0.41522800  0.96682200  0.37373900  1
  F  F54  1  0.03317800  0.40691700  0.44840600  1
  F  F55  1  0.95851200  0.58477200  0.55159400  1
  F  F56  1  0.20661800  0.27281000  0.89195800  1
  F  F57  1  0.38085200  0.31466000  0.10804200  1
  F  F58  1  0.68534000  0.79338200  0.06619200  1
  F  F59  1  0.72719000  0.61914800  0.93380800  1
  F  F60  1  0.97429700  0.13107200  0.96342000  1
  F  F61  1  0.16765300  0.01087700  0.03658000  1
  F  F62  1  0.98912300  0.02570300  0.15677600  1
  F  F63  1  0.86892800  0.83234700  0.84322400  1
  F  F64  1  0.25206400  0.44042200  0.03020200  1
  F  F65  1  0.41022000  0.22186300  0.96979800  1
  F  F66  1  0.77813700  0.74793600  0.18835800  1
  F  F67  1  0.55957800  0.58978000  0.81164200  1
