# generated using pymatgen
data_Mn(BH4)2
_symmetry_space_group_name_H-M   'P 1'
_cell_length_a   10.27996985
_cell_length_b   10.27996985
_cell_length_c   10.97785800
_cell_angle_alpha   90.00000000
_cell_angle_beta   90.00000000
_cell_angle_gamma   119.99999905
_symmetry_Int_Tables_number   1
_chemical_formula_structural   Mn(BH4)2
_chemical_formula_sum   'Mn9 B18 H72'
_cell_volume   1004.68964637
_cell_formula_units_Z   9
loop_
 _symmetry_equiv_pos_site_id
 _symmetry_equiv_pos_as_xyz
  1  'x, y, z'
loop_
 _atom_site_type_symbol
 _atom_site_label
 _atom_site_symmetry_multiplicity
 _atom_site_fract_x
 _atom_site_fract_y
 _atom_site_fract_z
 _atom_site_occupancy
  Mn  Mn0  1  0.44541400  0.01989500  0.87784100  1
  Mn  Mn1  1  0.98010500  0.42551900  0.21117400  1
  Mn  Mn2  1  0.57448100  0.55458600  0.54450800  1
  Mn  Mn3  1  0.57448100  0.01989500  0.45549200  1
  Mn  Mn4  1  0.44541400  0.42551900  0.12215900  1
  Mn  Mn5  1  0.98010500  0.55458600  0.78882600  1
  Mn  Mn6  1  0.10010800  0.89989200  0.33333300  1
  Mn  Mn7  1  0.10010800  0.20021600  0.66666700  1
  Mn  Mn8  1  0.79978400  0.89989200  0.00000000  1
  B  B9  1  0.62102600  0.98215300  0.00221700  1
  B  B10  1  0.01784700  0.63887400  0.33555000  1
  B  B11  1  0.36112600  0.37897400  0.66888400  1
  B  B12  1  0.36112600  0.98215300  0.33111600  1
  B  B13  1  0.62102600  0.63887400  0.99778300  1
  B  B14  1  0.01784700  0.37897400  0.66445000  1
  B  B15  1  0.19797400  0.80202600  0.83333300  1
  B  B16  1  0.19797400  0.39594800  0.16666700  1
  B  B17  1  0.60405200  0.80202600  0.50000000  1
  B  B18  1  0.43872400  0.21936200  0.00000000  1
  B  B19  1  0.78063800  0.21936200  0.33333300  1
  B  B20  1  0.78063800  0.56127600  0.66666700  1
  B  B21  1  0.53193000  0.06386000  0.66666700  1
  B  B22  1  0.93614000  0.46807000  0.00000000  1
  B  B23  1  0.53193000  0.46807000  0.33333300  1
  B  B24  1  0.96637200  0.93274400  0.16666700  1
  B  B25  1  0.06725600  0.03362800  0.50000000  1
  B  B26  1  0.96637200  0.03362800  0.83333300  1
  H  H27  1  0.75585700  0.07342700  0.99200200  1
  H  H28  1  0.92657300  0.68243100  0.32533500  1
  H  H29  1  0.31756900  0.24414300  0.65866900  1
  H  H30  1  0.31756900  0.07342700  0.34133100  1
  H  H31  1  0.75585700  0.68243100  0.00799800  1
  H  H32  1  0.92657300  0.24414300  0.67466500  1
  H  H33  1  0.59239600  0.88676800  0.08000600  1
  H  H34  1  0.11323200  0.70562700  0.41333900  1
  H  H35  1  0.29437300  0.40760400  0.74667200  1
  H  H36  1  0.29437300  0.88676800  0.25332800  1
  H  H37  1  0.59239600  0.70562700  0.91999400  1
  H  H38  1  0.11323200  0.40760400  0.58666100  1
  H  H39  1  0.57416700  0.91964700  0.90279600  1
  H  H40  1  0.08035300  0.65452000  0.23613000  1
  H  H41  1  0.34548000  0.42583300  0.56946300  1
  H  H42  1  0.34548000  0.91964700  0.43053700  1
  H  H43  1  0.57416700  0.65452000  0.09720400  1
  H  H44  1  0.08035300  0.42583300  0.76387000  1
  H  H45  1  0.56615200  0.05768300  0.03561300  1
  H  H46  1  0.94231700  0.50846900  0.36894600  1
  H  H47  1  0.49153100  0.43384800  0.70227900  1
  H  H48  1  0.49153100  0.05768300  0.29772100  1
  H  H49  1  0.56615200  0.50846900  0.96438700  1
  H  H50  1  0.94231700  0.43384800  0.63105400  1
  H  H51  1  0.23813500  0.92508900  0.78615500  1
  H  H52  1  0.07491100  0.31304700  0.11948800  1
  H  H53  1  0.68695300  0.76186500  0.45282200  1
  H  H54  1  0.68695300  0.92508900  0.54717800  1
  H  H55  1  0.23813500  0.31304700  0.21384500  1
  H  H56  1  0.07491100  0.76186500  0.88051200  1
  H  H57  1  0.28214200  0.80407300  0.91517500  1
  H  H58  1  0.19592700  0.47806900  0.24850800  1
  H  H59  1  0.52193100  0.71785800  0.58184100  1
  H  H60  1  0.52193100  0.80407300  0.41815900  1
  H  H61  1  0.28214200  0.47806900  0.08482500  1
  H  H62  1  0.19592700  0.71785800  0.75149200  1
  H  H63  1  0.52459500  0.28317200  0.08689000  1
  H  H64  1  0.71682800  0.24142200  0.42022400  1
  H  H65  1  0.75857800  0.47540500  0.75355700  1
  H  H66  1  0.75857800  0.28317200  0.24644300  1
  H  H67  1  0.52459500  0.24142200  0.91311000  1
  H  H68  1  0.71682800  0.47540500  0.57977600  1
  H  H69  1  0.35855900  0.08638400  0.02830000  1
  H  H70  1  0.91361600  0.27217500  0.36163400  1
  H  H71  1  0.72782500  0.64144100  0.69496700  1
  H  H72  1  0.72782500  0.08638400  0.30503300  1
  H  H73  1  0.35855900  0.27217500  0.97170000  1
  H  H74  1  0.91361600  0.64144100  0.63836600  1
  H  H75  1  0.65507700  0.14543900  0.61937300  1
  H  H76  1  0.85456100  0.50963800  0.95270700  1
  H  H77  1  0.49036200  0.34492300  0.28604000  1
  H  H78  1  0.49036200  0.14543900  0.71396000  1
  H  H79  1  0.65507700  0.50963800  0.38062700  1
  H  H80  1  0.85456100  0.34492300  0.04729300  1
  H  H81  1  0.54827400  0.98069900  0.73753900  1
  H  H82  1  0.01930100  0.56757600  0.07087200  1
  H  H83  1  0.43242400  0.45172600  0.40420600  1
  H  H84  1  0.43242400  0.98069900  0.59579400  1
  H  H85  1  0.54827400  0.56757600  0.26246100  1
  H  H86  1  0.01930100  0.45172600  0.92912800  1
  H  H87  1  0.91388100  0.01635900  0.15069400  1
  H  H88  1  0.98364100  0.89752200  0.48402700  1
  H  H89  1  0.10247800  0.08611900  0.81736000  1
  H  H90  1  0.10247800  0.01635900  0.18264000  1
  H  H91  1  0.91388100  0.89752200  0.84930600  1
  H  H92  1  0.98364100  0.08611900  0.51597300  1
  H  H93  1  0.95407200  0.85221000  0.07966300  1
  H  H94  1  0.14779000  0.10186100  0.41299600  1
  H  H95  1  0.89813900  0.04592800  0.74633000  1
  H  H96  1  0.89813900  0.85221000  0.25367000  1
  H  H97  1  0.95407200  0.10186100  0.92033700  1
  H  H98  1  0.14779000  0.04592800  0.58700400  1
