# generated using pymatgen
data_MgB3O13
_symmetry_space_group_name_H-M   'P 1'
_cell_length_a   13.21793300
_cell_length_b   6.41906700
_cell_length_c   11.32177428
_cell_angle_alpha   78.76769035
_cell_angle_beta   90.00000000
_cell_angle_gamma   90.00000000
_symmetry_Int_Tables_number   1
_chemical_formula_structural   MgB3O13
_chemical_formula_sum   'Mg4 B12 O52'
_cell_volume   942.21613519
_cell_formula_units_Z   4
loop_
 _symmetry_equiv_pos_site_id
 _symmetry_equiv_pos_as_xyz
  1  'x, y, z'
loop_
 _atom_site_type_symbol
 _atom_site_label
 _atom_site_symmetry_multiplicity
 _atom_site_fract_x
 _atom_site_fract_y
 _atom_site_fract_z
 _atom_site_occupancy
  Mg  Mg0  1  0.35059100  0.81635700  0.56899600  1
  Mg  Mg1  1  0.85059100  0.18364300  0.93100400  1
  Mg  Mg2  1  0.64940900  0.18364300  0.43100400  1
  Mg  Mg3  1  0.14940900  0.81635700  0.06899600  1
  B  B4  1  0.39803400  0.43545100  0.72547000  1
  B  B5  1  0.89803400  0.56454900  0.77453000  1
  B  B6  1  0.60196600  0.56454900  0.27453000  1
  B  B7  1  0.10196600  0.43545100  0.22547000  1
  B  B8  1  0.54618600  0.64056900  0.71499000  1
  B  B9  1  0.04618600  0.35943100  0.78501000  1
  B  B10  1  0.45381400  0.35943100  0.28501000  1
  B  B11  1  0.95381400  0.64056900  0.21499000  1
  B  B12  1  0.53548700  0.29148400  0.64499800  1
  B  B13  1  0.03548700  0.70851600  0.85500200  1
  B  B14  1  0.46451300  0.70851600  0.35500200  1
  B  B15  1  0.96451300  0.29148400  0.14499800  1
  O  O16  1  0.30652000  0.26642400  0.96936300  1
  O  O17  1  0.80652000  0.73357600  0.53063700  1
  O  O18  1  0.69348000  0.73357600  0.03063700  1
  O  O19  1  0.19348000  0.26642400  0.46936300  1
  O  O20  1  0.31472700  0.53350600  0.67377300  1
  O  O21  1  0.81472700  0.46649400  0.82622700  1
  O  O22  1  0.68527300  0.46649400  0.32622700  1
  O  O23  1  0.18527300  0.53350600  0.17377300  1
  O  O24  1  0.43873200  0.25323200  0.69406500  1
  O  O25  1  0.93873200  0.74676800  0.80593500  1
  O  O26  1  0.56126800  0.74676800  0.30593500  1
  O  O27  1  0.06126800  0.25323200  0.19406500  1
  O  O28  1  0.45968600  0.54470700  0.79531200  1
  O  O29  1  0.95968600  0.45529300  0.70468800  1
  O  O30  1  0.54031400  0.45529300  0.20468800  1
  O  O31  1  0.04031400  0.54470700  0.29531200  1
  O  O32  1  0.62442900  0.71823300  0.78108700  1
  O  O33  1  0.12442900  0.28176700  0.71891300  1
  O  O34  1  0.37557100  0.28176700  0.21891300  1
  O  O35  1  0.87557100  0.71823300  0.28108700  1
  O  O36  1  0.58114900  0.48739900  0.64186000  1
  O  O37  1  0.08114900  0.51260100  0.85814000  1
  O  O38  1  0.41885100  0.51260100  0.35814000  1
  O  O39  1  0.91885100  0.48739900  0.14186000  1
  O  O40  1  0.58670400  0.15088900  0.59230100  1
  O  O41  1  0.08670400  0.84911100  0.90769900  1
  O  O42  1  0.41329600  0.84911100  0.40769900  1
  O  O43  1  0.91329600  0.15088900  0.09230100  1
  O  O44  1  0.49583500  0.82524300  0.64324100  1
  O  O45  1  0.99583500  0.17475700  0.85675900  1
  O  O46  1  0.50416500  0.17475700  0.35675900  1
  O  O47  1  0.00416500  0.82524300  0.14324100  1
  O  O48  1  0.20339200  0.79750000  0.46659200  1
  O  O49  1  0.70339200  0.20250000  0.03340800  1
  O  O50  1  0.79660800  0.20250000  0.53340800  1
  O  O51  1  0.29660800  0.79750000  0.96659200  1
  O  O52  1  0.27693200  0.18199000  0.47093900  1
  O  O53  1  0.77693200  0.81801000  0.02906100  1
  O  O54  1  0.72306800  0.81801000  0.52906100  1
  O  O55  1  0.22306800  0.18199000  0.97093900  1
  O  O56  1  0.11443600  0.78030800  0.52023200  1
  O  O57  1  0.61443600  0.21969200  0.97976800  1
  O  O58  1  0.88556400  0.21969200  0.47976800  1
  O  O59  1  0.38556400  0.78030800  0.02023200  1
  O  O60  1  0.28153400  0.90561300  0.71248900  1
  O  O61  1  0.78153400  0.09438700  0.78751100  1
  O  O62  1  0.71846600  0.09438700  0.28751100  1
  O  O63  1  0.21846600  0.90561300  0.21248900  1
  O  O64  1  0.46131300  0.83234800  0.95238700  1
  O  O65  1  0.96131300  0.16765200  0.54761300  1
  O  O66  1  0.53868700  0.16765200  0.04761300  1
  O  O67  1  0.03868700  0.83234800  0.45238700  1
