# generated using pymatgen
data_Nd3RuO7
_symmetry_space_group_name_H-M   'P 1'
_cell_length_a   7.50906123
_cell_length_b   7.60959400
_cell_length_c   10.97169608
_cell_angle_alpha   90.00000000
_cell_angle_beta   90.14461098
_cell_angle_gamma   90.00000000
_symmetry_Int_Tables_number   1
_chemical_formula_structural   Nd3RuO7
_chemical_formula_sum   'Nd12 Ru4 O28'
_cell_volume   626.93067175
_cell_formula_units_Z   4
loop_
 _symmetry_equiv_pos_site_id
 _symmetry_equiv_pos_as_xyz
  1  'x, y, z'
loop_
 _atom_site_type_symbol
 _atom_site_label
 _atom_site_symmetry_multiplicity
 _atom_site_fract_x
 _atom_site_fract_y
 _atom_site_fract_z
 _atom_site_occupancy
  Nd  Nd0  1  0.00000000  0.50000000  0.00000000  1
  Nd  Nd1  1  0.00000000  0.00000000  0.00000000  1
  Nd  Nd2  1  0.50000000  0.50000000  0.50000000  1
  Nd  Nd3  1  0.50000000  0.00000000  0.50000000  1
  Nd  Nd4  1  0.30895900  0.25000000  0.22397100  1
  Nd  Nd5  1  0.69104100  0.75000000  0.77602900  1
  Nd  Nd6  1  0.30113200  0.25000000  0.78185200  1
  Nd  Nd7  1  0.69886800  0.75000000  0.21814800  1
  Nd  Nd8  1  0.80365300  0.25000000  0.71796100  1
  Nd  Nd9  1  0.19634700  0.75000000  0.28203900  1
  Nd  Nd10  1  0.80747300  0.25000000  0.27509400  1
  Nd  Nd11  1  0.19252700  0.75000000  0.72490600  1
  Ru  Ru12  1  0.50000000  0.50000000  0.00000000  1
  Ru  Ru13  1  0.50000000  0.00000000  0.00000000  1
  Ru  Ru14  1  0.00000000  0.50000000  0.50000000  1
  Ru  Ru15  1  0.00000000  0.00000000  0.50000000  1
  O  O16  1  0.41634100  0.25000000  0.00375600  1
  O  O17  1  0.58365900  0.75000000  0.99624400  1
  O  O18  1  0.91810300  0.25000000  0.49406000  1
  O  O19  1  0.08189700  0.75000000  0.50594000  1
  O  O20  1  0.03216700  0.25000000  0.13294600  1
  O  O21  1  0.96783300  0.75000000  0.86705400  1
  O  O22  1  0.01876600  0.25000000  0.86943600  1
  O  O23  1  0.98123400  0.75000000  0.13056400  1
  O  O24  1  0.51732700  0.25000000  0.63243600  1
  O  O25  1  0.48267300  0.75000000  0.36756400  1
  O  O26  1  0.53344000  0.25000000  0.36896300  1
  O  O27  1  0.46656000  0.75000000  0.63103700  1
  O  O28  1  0.32147800  0.54011100  0.12948500  1
  O  O29  1  0.67852200  0.04011100  0.87051500  1
  O  O30  1  0.67852200  0.45988900  0.87051500  1
  O  O31  1  0.32147800  0.95988900  0.12948500  1
  O  O32  1  0.30851500  0.53857200  0.87790600  1
  O  O33  1  0.69148500  0.03857200  0.12209400  1
  O  O34  1  0.69148500  0.46142800  0.12209400  1
  O  O35  1  0.30851500  0.96142800  0.87790600  1
  O  O36  1  0.79873000  0.53675000  0.61598400  1
  O  O37  1  0.20127000  0.03675000  0.38401600  1
  O  O38  1  0.20127000  0.46325000  0.38401600  1
  O  O39  1  0.79873000  0.96325000  0.61598400  1
  O  O40  1  0.83510500  0.54284700  0.36367900  1
  O  O41  1  0.16489500  0.04284700  0.63632100  1
  O  O42  1  0.16489500  0.45715300  0.63632100  1
  O  O43  1  0.83510500  0.95715300  0.36367900  1
