# generated using pymatgen
data_P3PbNO9
_symmetry_space_group_name_H-M   'P 1'
_cell_length_a   17.20956600
_cell_length_b   7.23553500
_cell_length_c   14.22313988
_cell_angle_alpha   74.14654374
_cell_angle_beta   90.00000000
_cell_angle_gamma   90.00000000
_symmetry_Int_Tables_number   1
_chemical_formula_structural   P3PbNO9
_chemical_formula_sum   'P24 Pb8 N8 O72'
_cell_volume   1703.70602904
_cell_formula_units_Z   8
loop_
 _symmetry_equiv_pos_site_id
 _symmetry_equiv_pos_as_xyz
  1  'x, y, z'
loop_
 _atom_site_type_symbol
 _atom_site_label
 _atom_site_symmetry_multiplicity
 _atom_site_fract_x
 _atom_site_fract_y
 _atom_site_fract_z
 _atom_site_occupancy
  P  P0  1  0.13730200  0.01335800  0.14112100  1
  P  P1  1  0.63730200  0.98664200  0.35887900  1
  P  P2  1  0.86269800  0.98664200  0.85887900  1
  P  P3  1  0.36269800  0.01335800  0.64112100  1
  P  P4  1  0.24920800  0.96216100  0.30408000  1
  P  P5  1  0.74920800  0.03783900  0.19592000  1
  P  P6  1  0.75079200  0.03783900  0.69592000  1
  P  P7  1  0.25079200  0.96216100  0.80408000  1
  P  P8  1  0.28022200  0.55648700  0.31428600  1
  P  P9  1  0.78022200  0.44351300  0.18571400  1
  P  P10  1  0.71977800  0.44351300  0.68571400  1
  P  P11  1  0.21977800  0.55648700  0.81428600  1
  P  P12  1  0.37692300  0.54231900  0.14167900  1
  P  P13  1  0.87692300  0.45768100  0.35832100  1
  P  P14  1  0.62307700  0.45768100  0.85832100  1
  P  P15  1  0.12307700  0.54231900  0.64167900  1
  P  P16  1  0.48919400  0.84316700  0.14860800  1
  P  P17  1  0.98919400  0.15683300  0.35139200  1
  P  P18  1  0.51080600  0.15683300  0.85139200  1
  P  P19  1  0.01080600  0.84316700  0.64860800  1
  P  P20  1  0.51397600  0.71989900  0.36606200  1
  P  P21  1  0.01397600  0.28010100  0.13393800  1
  P  P22  1  0.48602400  0.28010100  0.63393800  1
  P  P23  1  0.98602400  0.71989900  0.86606200  1
  Pb  Pb24  1  0.57386100  0.80203400  0.61293600  1
  Pb  Pb25  1  0.07386100  0.19796600  0.88706400  1
  Pb  Pb26  1  0.42613900  0.19796600  0.38706400  1
  Pb  Pb27  1  0.92613900  0.80203400  0.11293600  1
  Pb  Pb28  1  0.41586400  0.66364600  0.87118500  1
  Pb  Pb29  1  0.91586400  0.33635400  0.62881500  1
  Pb  Pb30  1  0.58413600  0.33635400  0.12881500  1
  Pb  Pb31  1  0.08413600  0.66364600  0.37118500  1
  N  N32  1  0.66532500  0.83831200  0.00824400  1
  N  N33  1  0.16532500  0.16168800  0.49175600  1
  N  N34  1  0.33467500  0.16168800  0.99175600  1
  N  N35  1  0.83467500  0.83831200  0.50824400  1
  N  N36  1  0.66146700  0.37830700  0.45143800  1
  N  N37  1  0.16146700  0.62169300  0.04856200  1
  N  N38  1  0.33853300  0.62169300  0.54856200  1
  N  N39  1  0.83853300  0.37830700  0.95143800  1
  O  O40  1  0.14995200  0.03026000  0.03431600  1
  O  O41  1  0.64995200  0.96974000  0.46568400  1
  O  O42  1  0.85004800  0.96974000  0.96568400  1
  O  O43  1  0.35004800  0.03026000  0.53431600  1
  O  O44  1  0.08579100  0.84994600  0.19746800  1
  O  O45  1  0.58579100  0.15005400  0.30253200  1
  O  O46  1  0.91420900  0.15005400  0.80253200  1
  O  O47  1  0.41420900  0.84994600  0.69746800  1
  O  O48  1  0.22126800  0.01098800  0.19011300  1
  O  O49  1  0.72126800  0.98901200  0.30988700  1
  O  O50  1  0.77873200  0.98901200  0.80988700  1
  O  O51  1  0.27873200  0.01098800  0.69011300  1
  O  O52  1  0.17886700  0.91356700  0.36965200  1
  O  O53  1  0.67886700  0.08643300  0.13034800  1
  O  O54  1  0.82113300  0.08643300  0.63034800  1
  O  O55  1  0.32113300  0.91356700  0.86965200  1
  O  O56  1  0.30373400  0.11603800  0.31424400  1
  O  O57  1  0.80373400  0.88396200  0.18575600  1
  O  O58  1  0.69626600  0.88396200  0.68575600  1
  O  O59  1  0.19626600  0.11603800  0.81424400  1
  O  O60  1  0.30196600  0.77517800  0.31090300  1
  O  O61  1  0.80196600  0.22482200  0.18909700  1
  O  O62  1  0.69803400  0.22482200  0.68909700  1
  O  O63  1  0.19803400  0.77517800  0.81090300  1
  O  O64  1  0.33630700  0.43854700  0.38763500  1
  O  O65  1  0.83630700  0.56145300  0.11236500  1
  O  O66  1  0.66369300  0.56145300  0.61236500  1
  O  O67  1  0.16369300  0.43854700  0.88763500  1
  O  O68  1  0.19473200  0.52108100  0.32583100  1
  O  O69  1  0.69473200  0.47891900  0.17416900  1
  O  O70  1  0.80526800  0.47891900  0.67416900  1
  O  O71  1  0.30526800  0.52108100  0.82583100  1
  O  O72  1  0.29945100  0.54794500  0.20383800  1
  O  O73  1  0.79945100  0.45205500  0.29616200  1
  O  O74  1  0.70054900  0.45205500  0.79616200  1
  O  O75  1  0.20054900  0.54794500  0.70383800  1
  O  O76  1  0.43507600  0.40362400  0.20399400  1
  O  O77  1  0.93507600  0.59637600  0.29600600  1
  O  O78  1  0.56492400  0.59637600  0.79600600  1
  O  O79  1  0.06492400  0.40362400  0.70399400  1
  O  O80  1  0.35527800  0.51749800  0.04370000  1
  O  O81  1  0.85527800  0.48250200  0.45630000  1
  O  O82  1  0.64472200  0.48250200  0.95630000  1
  O  O83  1  0.14472200  0.51749800  0.54370000  1
  O  O84  1  0.40765100  0.76338700  0.12110800  1
  O  O85  1  0.90765100  0.23661300  0.37889200  1
  O  O86  1  0.59234900  0.23661300  0.87889200  1
  O  O87  1  0.09234900  0.76338700  0.62110800  1
  O  O88  1  0.49586800  0.05343900  0.09771400  1
  O  O89  1  0.99586800  0.94656100  0.40228600  1
  O  O90  1  0.50413200  0.94656100  0.90228600  1
  O  O91  1  0.00413200  0.05343900  0.59771400  1
  O  O92  1  0.55536300  0.71493600  0.13309800  1
  O  O93  1  0.05536300  0.28506400  0.36690200  1
  O  O94  1  0.44463700  0.28506400  0.86690200  1
  O  O95  1  0.94463700  0.71493600  0.63309800  1
  O  O96  1  0.47313300  0.82315500  0.26292700  1
  O  O97  1  0.97313300  0.17684500  0.23707300  1
  O  O98  1  0.52686700  0.17684500  0.73707300  1
  O  O99  1  0.02686700  0.82315500  0.76292700  1
  O  O100  1  0.48059900  0.82013200  0.43810700  1
  O  O101  1  0.98059900  0.17986800  0.06189300  1
  O  O102  1  0.51940100  0.17986800  0.56189300  1
  O  O103  1  0.01940100  0.82013200  0.93810700  1
  O  O104  1  0.51064000  0.50646800  0.38538200  1
  O  O105  1  0.01064000  0.49353200  0.11461800  1
  O  O106  1  0.48936000  0.49353200  0.61461800  1
  O  O107  1  0.98936000  0.50646800  0.88538200  1
  O  O108  1  0.60423400  0.78441700  0.34604400  1
  O  O109  1  0.10423400  0.21558300  0.15395600  1
  O  O110  1  0.39576600  0.21558300  0.65395600  1
  O  O111  1  0.89576600  0.78441700  0.84604400  1
