# generated using pymatgen
data_BeH10(NF)3
_symmetry_space_group_name_H-M   'P 1'
_cell_length_a   6.64088300
_cell_length_b   8.41736800
_cell_length_c   10.92741700
_cell_angle_alpha   90.00000000
_cell_angle_beta   90.00000000
_cell_angle_gamma   90.00000000
_symmetry_Int_Tables_number   1
_chemical_formula_structural   BeH10(NF)3
_chemical_formula_sum   'Be4 H40 N12 F12'
_cell_volume   610.82901720
_cell_formula_units_Z   4
loop_
 _symmetry_equiv_pos_site_id
 _symmetry_equiv_pos_as_xyz
  1  'x, y, z'
loop_
 _atom_site_type_symbol
 _atom_site_label
 _atom_site_symmetry_multiplicity
 _atom_site_fract_x
 _atom_site_fract_y
 _atom_site_fract_z
 _atom_site_occupancy
  Be  Be0  1  0.95549600  0.85849100  0.10596400  1
  Be  Be1  1  0.54450400  0.14150900  0.60596400  1
  Be  Be2  1  0.45549600  0.64150900  0.89403600  1
  Be  Be3  1  0.04450400  0.35849100  0.39403600  1
  H  H4  1  0.80657000  0.61606400  0.04202300  1
  H  H5  1  0.69343000  0.38393600  0.54202300  1
  H  H6  1  0.30657000  0.88393600  0.95797700  1
  H  H7  1  0.19343000  0.11606400  0.45797700  1
  H  H8  1  0.05334800  0.61619500  0.01998600  1
  H  H9  1  0.44665200  0.38380500  0.51998600  1
  H  H10  1  0.55334800  0.88380500  0.98001400  1
  H  H11  1  0.94665200  0.11619500  0.48001400  1
  H  H12  1  0.95537800  0.58117900  0.15727800  1
  H  H13  1  0.54462200  0.41882100  0.65727800  1
  H  H14  1  0.45537800  0.91882100  0.84272200  1
  H  H15  1  0.04462200  0.08117900  0.34272200  1
  H  H16  1  0.20111300  0.16145400  0.05055600  1
  H  H17  1  0.29888700  0.83854600  0.55055600  1
  H  H18  1  0.70111300  0.33854600  0.94944400  1
  H  H19  1  0.79888700  0.66145400  0.44944400  1
  H  H20  1  0.29947900  0.34189700  0.03415500  1
  H  H21  1  0.20052100  0.65810300  0.53415500  1
  H  H22  1  0.79947900  0.15810300  0.96584500  1
  H  H23  1  0.70052100  0.84189700  0.46584500  1
  H  H24  1  0.14286900  0.30386500  0.14791400  1
  H  H25  1  0.35713100  0.69613500  0.64791400  1
  H  H26  1  0.64286900  0.19613500  0.85208600  1
  H  H27  1  0.85713100  0.80386500  0.35208600  1
  H  H28  1  0.45638900  0.21305300  0.19555800  1
  H  H29  1  0.04361100  0.78694700  0.69555800  1
  H  H30  1  0.95638900  0.28694700  0.80444200  1
  H  H31  1  0.54361100  0.71305300  0.30444200  1
  H  H32  1  0.68810700  0.26528800  0.26036100  1
  H  H33  1  0.81189300  0.73471200  0.76036100  1
  H  H34  1  0.18810700  0.23471200  0.73963900  1
  H  H35  1  0.31189300  0.76528800  0.23963900  1
  H  H36  1  0.64733900  0.07770700  0.20952900  1
  H  H37  1  0.85266100  0.92229300  0.70952900  1
  H  H38  1  0.14733900  0.42229300  0.79047100  1
  H  H39  1  0.35266100  0.57770700  0.29047100  1
  H  H40  1  0.52983400  0.14290200  0.33792100  1
  H  H41  1  0.97016600  0.85709800  0.83792100  1
  H  H42  1  0.02983400  0.35709800  0.66207900  1
  H  H43  1  0.47016600  0.64290200  0.16207900  1
  N  N44  1  0.94209500  0.65035800  0.07988600  1
  N  N45  1  0.55790500  0.34964200  0.57988600  1
  N  N46  1  0.44209500  0.84964200  0.92011400  1
  N  N47  1  0.05790500  0.15035800  0.42011400  1
  N  N48  1  0.25790900  0.25765100  0.09648100  1
  N  N49  1  0.24209100  0.74234900  0.59648100  1
  N  N50  1  0.75790900  0.24234900  0.90351900  1
  N  N51  1  0.74209100  0.75765100  0.40351900  1
  N  N52  1  0.58063700  0.17592200  0.25171000  1
  N  N53  1  0.91936300  0.82407800  0.75171000  1
  N  N54  1  0.08063700  0.32407800  0.74829000  1
  N  N55  1  0.41936300  0.67592200  0.24829000  1
  F  F56  1  0.09928400  0.88684700  0.21649100  1
  F  F57  1  0.40071600  0.11315300  0.71649100  1
  F  F58  1  0.59928400  0.61315300  0.78350900  1
  F  F59  1  0.90071600  0.38684700  0.28350900  1
  F  F60  1  0.74079500  0.92479700  0.12995300  1
  F  F61  1  0.75920500  0.07520300  0.62995300  1
  F  F62  1  0.24079500  0.57520300  0.87004700  1
  F  F63  1  0.25920500  0.42479700  0.37004700  1
  F  F64  1  0.03802800  0.93382700  0.98451600  1
  F  F65  1  0.46197200  0.06617300  0.48451600  1
  F  F66  1  0.53802800  0.56617300  0.01548400  1
  F  F67  1  0.96197200  0.43382700  0.51548400  1
