# generated using pymatgen
data_ZnP3C6(NO6)2
_symmetry_space_group_name_H-M   'P 1'
_cell_length_a   9.96871000
_cell_length_b   10.80409400
_cell_length_c   15.57460400
_cell_angle_alpha   90.00000000
_cell_angle_beta   90.00000000
_cell_angle_gamma   90.00000000
_symmetry_Int_Tables_number   1
_chemical_formula_structural   ZnP3C6(NO6)2
_chemical_formula_sum   'Zn4 P12 C24 N8 O48'
_cell_volume   1677.42970408
_cell_formula_units_Z   4
loop_
 _symmetry_equiv_pos_site_id
 _symmetry_equiv_pos_as_xyz
  1  'x, y, z'
loop_
 _atom_site_type_symbol
 _atom_site_label
 _atom_site_symmetry_multiplicity
 _atom_site_fract_x
 _atom_site_fract_y
 _atom_site_fract_z
 _atom_site_occupancy
  Zn  Zn0  1  0.89641100  0.76264800  0.59060800  1
  Zn  Zn1  1  0.60358900  0.23735200  0.09060800  1
  Zn  Zn2  1  0.39641100  0.73735200  0.40939200  1
  Zn  Zn3  1  0.10358900  0.26264800  0.90939200  1
  P  P4  1  0.74672300  0.78835000  0.77088400  1
  P  P5  1  0.75327700  0.21165000  0.27088400  1
  P  P6  1  0.24672300  0.71165000  0.22911600  1
  P  P7  1  0.25327700  0.28835000  0.72911600  1
  P  P8  1  0.65720100  0.89118700  0.49146200  1
  P  P9  1  0.84279900  0.10881300  0.99146200  1
  P  P10  1  0.15720100  0.60881300  0.50853800  1
  P  P11  1  0.34279900  0.39118700  0.00853800  1
  P  P12  1  0.56623800  0.49537500  0.45608400  1
  P  P13  1  0.93376200  0.50462500  0.95608400  1
  P  P14  1  0.06623800  0.00462500  0.54391600  1
  P  P15  1  0.43376200  0.99537500  0.04391600  1
  C  C16  1  0.36292300  0.75776200  0.87603100  1
  C  C17  1  0.13707700  0.24223800  0.37603100  1
  C  C18  1  0.86292300  0.74223800  0.12396900  1
  C  C19  1  0.63707700  0.25776200  0.62396900  1
  C  C20  1  0.24038900  0.74331200  0.90684000  1
  C  C21  1  0.25961100  0.25668800  0.40684000  1
  C  C22  1  0.74038900  0.75668800  0.09316000  1
  C  C23  1  0.75961100  0.24331200  0.59316000  1
  C  C24  1  0.28076900  0.90706300  0.78309600  1
  C  C25  1  0.21923100  0.09293700  0.28309600  1
  C  C26  1  0.78076900  0.59293700  0.21690400  1
  C  C27  1  0.71923100  0.40706300  0.71690400  1
  C  C28  1  0.16666000  0.69071200  0.77019600  1
  C  C29  1  0.33334000  0.30928800  0.27019600  1
  C  C30  1  0.66666000  0.80928800  0.22980400  1
  C  C31  1  0.83334000  0.19071200  0.72980400  1
  C  C32  1  0.15335300  0.88579300  0.81214600  1
  C  C33  1  0.34664700  0.11420700  0.31214600  1
  C  C34  1  0.65335300  0.61420700  0.18785400  1
  C  C35  1  0.84664700  0.38579300  0.68785400  1
  C  C36  1  0.29207600  0.71341200  0.73846800  1
  C  C37  1  0.20792400  0.28658800  0.23846800  1
  C  C38  1  0.79207600  0.78658800  0.26153200  1
  C  C39  1  0.70792400  0.21341200  0.76153200  1
  N  N40  1  0.63917600  0.73690200  0.15457000  1
  N  N41  1  0.86082400  0.26309800  0.65457000  1
  N  N42  1  0.13917600  0.76309800  0.84543000  1
  N  N43  1  0.36082400  0.23690200  0.34543000  1
  N  N44  1  0.36457900  0.79951500  0.79044200  1
  N  N45  1  0.13542100  0.20048500  0.29044200  1
  N  N46  1  0.86457900  0.70048500  0.20955800  1
  N  N47  1  0.63542100  0.29951500  0.70955800  1
  O  O48  1  0.74623600  0.77842200  0.51232700  1
  O  O49  1  0.75376400  0.22157800  0.01232700  1
  O  O50  1  0.24623600  0.72157800  0.48767300  1
  O  O51  1  0.25376400  0.27842200  0.98767300  1
  O  O52  1  0.68684600  0.70309200  0.84000500  1
  O  O53  1  0.81315400  0.29690800  0.34000500  1
  O  O54  1  0.18684600  0.79690800  0.15999500  1
  O  O55  1  0.31315400  0.20309200  0.65999500  1
  O  O56  1  0.82910100  0.71470200  0.70436400  1
  O  O57  1  0.67089900  0.28529800  0.20436400  1
  O  O58  1  0.32910100  0.78529800  0.29563600  1
  O  O59  1  0.17089900  0.21470200  0.79563600  1
  O  O60  1  0.57199500  0.36039900  0.42557900  1
  O  O61  1  0.92800500  0.63960100  0.92557900  1
  O  O62  1  0.07199500  0.13960100  0.57442100  1
  O  O63  1  0.42800500  0.86039900  0.07442100  1
  O  O64  1  0.62277500  0.85243200  0.73099000  1
  O  O65  1  0.87722500  0.14756800  0.23099000  1
  O  O66  1  0.12277500  0.64756800  0.26901000  1
  O  O67  1  0.37722500  0.35243200  0.76901000  1
  O  O68  1  0.61258000  0.96210500  0.57317400  1
  O  O69  1  0.88742000  0.03789500  0.07317400  1
  O  O70  1  0.11258000  0.53789500  0.42682600  1
  O  O71  1  0.38742000  0.46210500  0.92682600  1
  O  O72  1  0.74200300  0.99558700  0.44818100  1
  O  O73  1  0.75799700  0.00441300  0.94818100  1
  O  O74  1  0.24200300  0.50441300  0.55181900  1
  O  O75  1  0.25799700  0.49558700  0.05181900  1
  O  O76  1  0.51296100  0.50411500  0.54922700  1
  O  O77  1  0.98703900  0.49588500  0.04922700  1
  O  O78  1  0.01296100  0.99588500  0.45077300  1
  O  O79  1  0.48703900  0.00411500  0.95077300  1
  O  O80  1  0.71422800  0.53854700  0.46235800  1
  O  O81  1  0.78577200  0.46145300  0.96235800  1
  O  O82  1  0.21422800  0.96145300  0.53764200  1
  O  O83  1  0.28577200  0.03854700  0.03764200  1
  O  O84  1  0.03815200  0.64624600  0.56412100  1
  O  O85  1  0.46184800  0.35375400  0.06412100  1
  O  O86  1  0.53815200  0.85375400  0.43587900  1
  O  O87  1  0.96184800  0.14624600  0.93587900  1
  O  O88  1  0.83996300  0.88988600  0.80823200  1
  O  O89  1  0.66003700  0.11011400  0.30823200  1
  O  O90  1  0.33996300  0.61011400  0.19176800  1
  O  O91  1  0.16003700  0.38988600  0.69176800  1
  O  O92  1  0.98384400  0.92511900  0.60668000  1
  O  O93  1  0.51615600  0.07488100  0.10668000  1
  O  O94  1  0.48384400  0.57488100  0.39332000  1
  O  O95  1  0.01615600  0.42511900  0.89332000  1
