# generated using pymatgen
data_K2UCoP2O11
_symmetry_space_group_name_H-M   'P 1'
_cell_length_a   8.30260300
_cell_length_b   17.11618500
_cell_length_c   8.03325127
_cell_angle_alpha   90.00000000
_cell_angle_beta   106.07859709
_cell_angle_gamma   90.00000000
_symmetry_Int_Tables_number   1
_chemical_formula_structural   K2UCoP2O11
_chemical_formula_sum   'K8 U4 Co4 P8 O44'
_cell_volume   1096.94021895
_cell_formula_units_Z   4
loop_
 _symmetry_equiv_pos_site_id
 _symmetry_equiv_pos_as_xyz
  1  'x, y, z'
loop_
 _atom_site_type_symbol
 _atom_site_label
 _atom_site_symmetry_multiplicity
 _atom_site_fract_x
 _atom_site_fract_y
 _atom_site_fract_z
 _atom_site_occupancy
  K  K0  1  0.24203400  0.77137500  0.91320200  1
  K  K1  1  0.75796600  0.27137500  0.58679800  1
  K  K2  1  0.75796600  0.22862500  0.08679800  1
  K  K3  1  0.24203400  0.72862500  0.41320200  1
  K  K4  1  0.28043200  0.00968000  0.72398500  1
  K  K5  1  0.71956800  0.50968000  0.77601500  1
  K  K6  1  0.71956800  0.99032000  0.27601500  1
  K  K7  1  0.28043200  0.49032000  0.22398500  1
  U  U8  1  0.20475800  0.96377100  0.21001000  1
  U  U9  1  0.79524200  0.46377100  0.28999000  1
  U  U10  1  0.79524200  0.03622900  0.78999000  1
  U  U11  1  0.20475800  0.53622900  0.71001000  1
  Co  Co12  1  0.70138100  0.72802100  0.79605900  1
  Co  Co13  1  0.29861900  0.22802100  0.70394100  1
  Co  Co14  1  0.29861900  0.27197900  0.20394100  1
  Co  Co15  1  0.70138100  0.77197900  0.29605900  1
  P  P16  1  0.90563100  0.84903900  0.04809000  1
  P  P17  1  0.09436900  0.34903900  0.45191000  1
  P  P18  1  0.09436900  0.15096100  0.95191000  1
  P  P19  1  0.90563100  0.65096100  0.54809000  1
  P  P20  1  0.54236400  0.86857000  0.56611500  1
  P  P21  1  0.45763600  0.36857000  0.93388500  1
  P  P22  1  0.45763600  0.13143000  0.43388500  1
  P  P23  1  0.54236400  0.63143000  0.06611500  1
  O  O24  1  0.89225200  0.79481800  0.89143700  1
  O  O25  1  0.10774800  0.29481800  0.60856300  1
  O  O26  1  0.10774800  0.20518200  0.10856300  1
  O  O27  1  0.89225200  0.70518200  0.39143700  1
  O  O28  1  0.51333800  0.79640400  0.67311800  1
  O  O29  1  0.48666200  0.29640400  0.82688200  1
  O  O30  1  0.48666200  0.20359600  0.32688200  1
  O  O31  1  0.51333800  0.70359600  0.17311800  1
  O  O32  1  0.07943000  0.83753800  0.18197200  1
  O  O33  1  0.92057000  0.33753800  0.31802800  1
  O  O34  1  0.92057000  0.16246200  0.81802800  1
  O  O35  1  0.07943000  0.66246200  0.68197200  1
  O  O36  1  0.32427600  0.93206800  0.05967300  1
  O  O37  1  0.67572400  0.43206800  0.44032700  1
  O  O38  1  0.67572400  0.06793200  0.94032700  1
  O  O39  1  0.32427600  0.56793200  0.55967300  1
  O  O40  1  0.60377200  0.93951600  0.68897400  1
  O  O41  1  0.39622800  0.43951600  0.81102600  1
  O  O42  1  0.39622800  0.06048400  0.31102600  1
  O  O43  1  0.60377200  0.56048400  0.18897400  1
  O  O44  1  0.91583400  0.93686800  0.99624100  1
  O  O45  1  0.08416600  0.43686800  0.50375900  1
  O  O46  1  0.08416600  0.06313200  0.00375900  1
  O  O47  1  0.91583400  0.56313200  0.49624100  1
  O  O48  1  0.08419600  0.99577500  0.35597500  1
  O  O49  1  0.91580400  0.49577500  0.14402500  1
  O  O50  1  0.91580400  0.00422500  0.64402500  1
  O  O51  1  0.08419600  0.50422500  0.85597500  1
  O  O52  1  0.75489700  0.83938900  0.12306200  1
  O  O53  1  0.24510300  0.33938900  0.37693800  1
  O  O54  1  0.24510300  0.16061100  0.87693800  1
  O  O55  1  0.75489700  0.66061100  0.62306200  1
  O  O56  1  0.37134400  0.89198500  0.43861200  1
  O  O57  1  0.62865600  0.39198500  0.06138800  1
  O  O58  1  0.62865600  0.10801500  0.56138800  1
  O  O59  1  0.37134400  0.60801500  0.93861200  1
  O  O60  1  0.66933400  0.84931200  0.46273100  1
  O  O61  1  0.33066600  0.34931200  0.03726900  1
  O  O62  1  0.33066600  0.15068800  0.53726900  1
  O  O63  1  0.66933400  0.65068800  0.96273100  1
  O  O64  1  0.09328200  0.85675800  0.61885000  1
  O  O65  1  0.90671800  0.35675800  0.88115000  1
  O  O66  1  0.90671800  0.14324200  0.38115000  1
  O  O67  1  0.09328200  0.64324200  0.11885000  1
