# generated using pymatgen
data_H4C(N2O)2
_symmetry_space_group_name_H-M   'P 1'
_cell_length_a   16.33655915
_cell_length_b   13.65409333
_cell_length_c   9.39374692
_cell_angle_alpha   88.25901592
_cell_angle_beta   56.65897234
_cell_angle_gamma   35.08201174
_symmetry_Int_Tables_number   1
_chemical_formula_structural   H4C(N2O)2
_chemical_formula_sum   'H16 C4 N16 O8'
_cell_volume   489.88144717
_cell_formula_units_Z   4
loop_
 _symmetry_equiv_pos_site_id
 _symmetry_equiv_pos_as_xyz
  1  'x, y, z'
loop_
 _atom_site_type_symbol
 _atom_site_label
 _atom_site_symmetry_multiplicity
 _atom_site_fract_x
 _atom_site_fract_y
 _atom_site_fract_z
 _atom_site_occupancy
  H  H0  1  0.91954700  0.45711100  0.05718800  1
  H  H1  1  0.56615400  0.05718800  0.45711100  1
  H  H2  1  0.19281200  0.68384600  0.33045300  1
  H  H3  1  0.79288900  0.33045300  0.68384600  1
  H  H4  1  0.74330200  0.51714000  0.16699400  1
  H  H5  1  0.57256500  0.16699400  0.51714000  1
  H  H6  1  0.08300600  0.67743500  0.50669800  1
  H  H7  1  0.73286000  0.50669800  0.67743500  1
  H  H8  1  0.84805900  0.27133200  0.19322400  1
  H  H9  1  0.68738500  0.19322400  0.27133200  1
  H  H10  1  0.05677600  0.56261500  0.40194100  1
  H  H11  1  0.97866800  0.40194100  0.56261500  1
  H  H12  1  0.16900400  0.95015500  0.03487600  1
  H  H13  1  0.84596600  0.03487600  0.95015500  1
  H  H14  1  0.21512400  0.40403400  0.08099600  1
  H  H15  1  0.29984500  0.08099600  0.40403400  1
  C  C16  1  0.08126000  0.17612000  0.02546300  1
  C  C17  1  0.71715700  0.02546300  0.17612000  1
  C  C18  1  0.22453700  0.53284300  0.16874000  1
  C  C19  1  0.07388000  0.16874000  0.53284300  1
  N  N20  1  0.32916900  0.97432700  0.89365600  1
  N  N21  1  0.80284700  0.89365600  0.97432700  1
  N  N22  1  0.35634400  0.44715300  0.92083100  1
  N  N23  1  0.27567300  0.92083100  0.44715300  1
  N  N24  1  0.41190500  0.98492100  0.83358100  1
  N  N25  1  0.76959300  0.83358100  0.98492100  1
  N  N26  1  0.41641900  0.48040700  0.83809500  1
  N  N27  1  0.26507900  0.83809500  0.48040700  1
  N  N28  1  0.91058600  0.39111000  0.08100600  1
  N  N29  1  0.61729800  0.08100600  0.39111000  1
  N  N30  1  0.16899400  0.63270200  0.33941400  1
  N  N31  1  0.85889000  0.33941500  0.63270200  1
  N  N32  1  0.03218000  0.12669100  0.08567300  1
  N  N33  1  0.75545700  0.08567300  0.12669100  1
  N  N34  1  0.16432700  0.49454300  0.21782000  1
  N  N35  1  0.12330900  0.21782000  0.49454300  1
  O  O36  1  0.22025900  0.23619800  0.93206200  1
  O  O37  1  0.61148200  0.93206200  0.23619800  1
  O  O38  1  0.31793800  0.63851800  0.02974100  1
  O  O39  1  0.01380200  0.02974100  0.63851800  1
  O  O40  1  0.42278800  0.63341200  0.90096100  1
  O  O41  1  0.04283900  0.90096100  0.63341200  1
  O  O42  1  0.34903900  0.20716100  0.82721200  1
  O  O43  1  0.61658800  0.82721200  0.20716100  1
