# generated using pymatgen
data_Ce4(TmS2)11
_symmetry_space_group_name_H-M   'P 1'
_cell_length_a   19.59585179
_cell_length_b   19.59585179
_cell_length_c   11.31532561
_cell_angle_alpha   88.61184172
_cell_angle_beta   88.61184172
_cell_angle_gamma   11.51514356
_symmetry_Int_Tables_number   1
_chemical_formula_structural   Ce4(TmS2)11
_chemical_formula_sum   'Ce4 Tm11 S22'
_cell_volume   867.13296240
_cell_formula_units_Z   1
loop_
 _symmetry_equiv_pos_site_id
 _symmetry_equiv_pos_as_xyz
  1  'x, y, z'
loop_
 _atom_site_type_symbol
 _atom_site_label
 _atom_site_symmetry_multiplicity
 _atom_site_fract_x
 _atom_site_fract_y
 _atom_site_fract_z
 _atom_site_occupancy
  Ce  Ce0  1  0.10396700  0.10396700  0.98806300  1
  Ce  Ce1  1  0.89603300  0.89603300  0.01193700  1
  Ce  Ce2  1  0.36728200  0.36728200  0.65251900  1
  Ce  Ce3  1  0.63271800  0.63271800  0.34748100  1
  Tm  Tm4  1  0.79810700  0.79810700  0.94179600  1
  Tm  Tm5  1  0.20189300  0.20189300  0.05820400  1
  Tm  Tm6  1  0.46175600  0.46175600  0.72893900  1
  Tm  Tm7  1  0.53824400  0.53824400  0.27106100  1
  Tm  Tm8  1  0.65761500  0.65761500  0.69781800  1
  Tm  Tm9  1  0.34238500  0.34238500  0.30218200  1
  Tm  Tm10  1  0.26412200  0.26412200  0.64797300  1
  Tm  Tm11  1  0.73587800  0.73587800  0.35202700  1
  Tm  Tm12  1  0.06950900  0.06950900  0.64022600  1
  Tm  Tm13  1  0.93049100  0.93049100  0.35977400  1
  Tm  Tm14  1  0.00000000  0.00000000  0.00000000  1
  S  S15  1  0.08760300  0.08760300  0.24844300  1
  S  S16  1  0.91239700  0.91239700  0.75155700  1
  S  S17  1  0.18858900  0.18858900  0.30787600  1
  S  S18  1  0.81141100  0.81141100  0.69212400  1
  S  S19  1  0.27996100  0.27996100  0.40977600  1
  S  S20  1  0.72003900  0.72003900  0.59022400  1
  S  S21  1  0.44583000  0.44583000  0.50451800  1
  S  S22  1  0.55417000  0.55417000  0.49548200  1
  S  S23  1  0.13481100  0.13481100  0.54580500  1
  S  S24  1  0.86518900  0.86518900  0.45419500  1
  S  S25  1  0.59296200  0.59296200  0.78860100  1
  S  S26  1  0.40703800  0.40703800  0.21139900  1
  S  S27  1  0.45281100  0.45281100  0.96847500  1
  S  S28  1  0.54718900  0.54718900  0.03152500  1
  S  S29  1  0.35111300  0.35111300  0.90857300  1
  S  S30  1  0.64888700  0.64888700  0.09142700  1
  S  S31  1  0.16830900  0.16830900  0.84876000  1
  S  S32  1  0.83169100  0.83169100  0.15124000  1
  S  S33  1  0.00786400  0.00786400  0.76044200  1
  S  S34  1  0.99213600  0.99213600  0.23955800  1
  S  S35  1  0.25515400  0.25515400  0.88063800  1
  S  S36  1  0.74484600  0.74484600  0.11936200  1
