# generated using pymatgen
data_Rb2NdH8N5O19
_symmetry_space_group_name_H-M   'P 1'
_cell_length_a   7.16520849
_cell_length_b   7.16520849
_cell_length_c   18.35874789
_cell_angle_alpha   81.48365707
_cell_angle_beta   81.48365707
_cell_angle_gamma   78.20715841
_symmetry_Int_Tables_number   1
_chemical_formula_structural   Rb2NdH8N5O19
_chemical_formula_sum   'Rb4 Nd2 H16 N10 O38'
_cell_volume   905.69090819
_cell_formula_units_Z   2
loop_
 _symmetry_equiv_pos_site_id
 _symmetry_equiv_pos_as_xyz
  1  'x, y, z'
loop_
 _atom_site_type_symbol
 _atom_site_label
 _atom_site_symmetry_multiplicity
 _atom_site_fract_x
 _atom_site_fract_y
 _atom_site_fract_z
 _atom_site_occupancy
  Rb  Rb0  1  0.07344100  0.86240100  0.62403800  1
  Rb  Rb1  1  0.86240100  0.07344100  0.12403800  1
  Rb  Rb2  1  0.66195000  0.43711100  0.58201300  1
  Rb  Rb3  1  0.43711100  0.66195000  0.08201300  1
  Nd  Nd4  1  0.30633600  0.19623800  0.39859900  1
  Nd  Nd5  1  0.19623800  0.30633600  0.89859900  1
  H  H6  1  0.09297800  0.83952700  0.41990000  1
  H  H7  1  0.83952700  0.09297800  0.91990000  1
  H  H8  1  0.93146500  0.01809500  0.43688700  1
  H  H9  1  0.01809500  0.93146500  0.93688700  1
  H  H10  1  0.66900200  0.39896600  0.37407500  1
  H  H11  1  0.39896600  0.66900200  0.87407500  1
  H  H12  1  0.49845400  0.57142600  0.35980900  1
  H  H13  1  0.57142600  0.49845400  0.85980900  1
  H  H14  1  0.76984100  0.50705800  0.18574600  1
  H  H15  1  0.50705800  0.76984100  0.68574600  1
  H  H16  1  0.62224500  0.40527200  0.23898600  1
  H  H17  1  0.40527200  0.62224500  0.73898600  1
  H  H18  1  0.13885600  0.89128400  0.23687100  1
  H  H19  1  0.89128400  0.13885600  0.73687100  1
  H  H20  1  0.17770600  0.66938400  0.23144300  1
  H  H21  1  0.66938400  0.17770600  0.73144300  1
  N  N22  1  0.95297800  0.53604500  0.40243400  1
  N  N23  1  0.53604500  0.95297800  0.90243400  1
  N  N24  1  0.90931300  0.56496000  0.80146700  1
  N  N25  1  0.56496000  0.90931300  0.30146700  1
  N  N26  1  0.36666800  0.16785700  0.04922100  1
  N  N27  1  0.16785700  0.36666800  0.54922100  1
  N  N28  1  0.29131200  0.17686300  0.74082500  1
  N  N29  1  0.17686300  0.29131200  0.24082500  1
  N  N30  1  0.96280500  0.58549300  0.00983300  1
  N  N31  1  0.58549300  0.96280500  0.50983300  1
  O  O32  1  0.80819100  0.65966000  0.41687000  1
  O  O33  1  0.65966000  0.80819100  0.91687000  1
  O  O34  1  0.56520800  0.12255500  0.90459000  1
  O  O35  1  0.12255500  0.56520800  0.40459000  1
  O  O36  1  0.37181700  0.93902300  0.88605000  1
  O  O37  1  0.93902300  0.37181700  0.38605000  1
  O  O38  1  0.80489200  0.66352600  0.75631100  1
  O  O39  1  0.66352600  0.80489200  0.25631100  1
  O  O40  1  0.08670500  0.57569300  0.79764000  1
  O  O41  1  0.57569300  0.08670500  0.29764000  1
  O  O42  1  0.84579900  0.44675000  0.85452900  1
  O  O43  1  0.44675000  0.84579900  0.35452900  1
  O  O44  1  0.46760400  0.09440100  0.09950400  1
  O  O45  1  0.09440100  0.46760400  0.59950400  1
  O  O46  1  0.26146200  0.07098300  0.02509500  1
  O  O47  1  0.07098200  0.26146200  0.52509500  1
  O  O48  1  0.36445200  0.33944600  0.01824300  1
  O  O49  1  0.33944600  0.36445200  0.51824300  1
  O  O50  1  0.33547900  0.11654000  0.67933900  1
  O  O51  1  0.11654000  0.33547900  0.17933900  1
  O  O52  1  0.12982800  0.16572600  0.77998100  1
  O  O53  1  0.16572600  0.12982800  0.27998100  1
  O  O54  1  0.40741800  0.25287300  0.76900200  1
  O  O55  1  0.25287300  0.40741800  0.26900200  1
  O  O56  1  0.87672200  0.68877000  0.05785400  1
  O  O57  1  0.68877000  0.87672200  0.55785400  1
  O  O58  1  0.93826600  0.41352700  0.01095200  1
  O  O59  1  0.41352700  0.93826600  0.51095200  1
  O  O60  1  0.08142700  0.64688100  0.95660100  1
  O  O61  1  0.64688100  0.08142700  0.45660100  1
  O  O62  1  0.07056600  0.96878600  0.43547400  1
  O  O63  1  0.96878600  0.07056600  0.93547400  1
  O  O64  1  0.53719200  0.43059800  0.36042400  1
  O  O65  1  0.43059800  0.53719200  0.86042400  1
  O  O66  1  0.67431200  0.42720900  0.18670000  1
  O  O67  1  0.42720900  0.67431200  0.68670000  1
  O  O68  1  0.14711400  0.79664600  0.20255300  1
  O  O69  1  0.79664600  0.14711400  0.70255300  1
