# generated using pymatgen
data_Na5Ag(TeO14)2
_symmetry_space_group_name_H-M   'P 1'
_cell_length_a   4.91819575
_cell_length_b   9.46775248
_cell_length_c   14.49473654
_cell_angle_alpha   96.59832602
_cell_angle_beta   100.71138733
_cell_angle_gamma   72.63632752
_symmetry_Int_Tables_number   1
_chemical_formula_structural   Na5Ag(TeO14)2
_chemical_formula_sum   'Na5 Ag1 Te2 O28'
_cell_volume   631.68268730
_cell_formula_units_Z   1
loop_
 _symmetry_equiv_pos_site_id
 _symmetry_equiv_pos_as_xyz
  1  'x, y, z'
loop_
 _atom_site_type_symbol
 _atom_site_label
 _atom_site_symmetry_multiplicity
 _atom_site_fract_x
 _atom_site_fract_y
 _atom_site_fract_z
 _atom_site_occupancy
  Na  Na0  1  0.00000000  0.50000000  0.50000000  1
  Na  Na1  1  0.69706200  0.16980000  0.03284500  1
  Na  Na2  1  0.30293800  0.83020000  0.96715500  1
  Na  Na3  1  0.35975600  0.71153400  0.69653100  1
  Na  Na4  1  0.64024400  0.28846600  0.30346900  1
  Ag  Ag5  1  0.00000000  0.50000000  0.00000000  1
  Te  Te6  1  0.80063400  0.28439700  0.81930000  1
  Te  Te7  1  0.19936600  0.71560300  0.18070000  1
  O  O8  1  0.20444600  0.27597100  0.78920900  1
  O  O9  1  0.79555400  0.72402900  0.21079100  1
  O  O10  1  0.47247800  0.36088500  0.62158500  1
  O  O11  1  0.52752200  0.63911500  0.37841500  1
  O  O12  1  0.94242800  0.99600000  0.79246100  1
  O  O13  1  0.05757200  0.00400000  0.20753900  1
  O  O14  1  0.42298800  0.28870800  0.86967200  1
  O  O15  1  0.57701200  0.71129200  0.13032800  1
  O  O16  1  0.94022900  0.28385300  0.94882700  1
  O  O17  1  0.05977100  0.71614700  0.05117300  1
  O  O18  1  0.69247800  0.54091600  0.84235400  1
  O  O19  1  0.30752200  0.45908400  0.15764600  1
  O  O20  1  0.88645800  0.67036000  0.63611500  1
  O  O21  1  0.11354200  0.32964000  0.36388500  1
  O  O22  1  0.95995600  0.22128400  0.52906500  1
  O  O23  1  0.04004400  0.77871600  0.47093500  1
  O  O24  1  0.66301000  0.94278300  0.95207500  1
  O  O25  1  0.33699000  0.05721700  0.04792500  1
  O  O26  1  0.20689300  0.94105600  0.78306600  1
  O  O27  1  0.79310700  0.05894400  0.21693400  1
  O  O28  1  0.41355400  0.61396600  0.84367900  1
  O  O29  1  0.58644600  0.38603400  0.15632100  1
  O  O30  1  0.68452100  0.79528400  0.62941300  1
  O  O31  1  0.31547900  0.20471600  0.37058700  1
  O  O32  1  0.47663500  0.48618800  0.59582900  1
  O  O33  1  0.52336500  0.51381200  0.40417100  1
  O  O34  1  0.17824800  0.11331000  0.54103800  1
  O  O35  1  0.82175200  0.88669000  0.45896200  1
