# generated using pymatgen
data_CaCu4As4(HO13)2
_symmetry_space_group_name_H-M   'P 1'
_cell_length_a   6.47047000
_cell_length_b   7.81290431
_cell_length_c   10.65981053
_cell_angle_alpha   81.03837918
_cell_angle_beta   78.73969078
_cell_angle_gamma   83.25456695
_symmetry_Int_Tables_number   1
_chemical_formula_structural   CaCu4As4(HO13)2
_chemical_formula_sum   'Ca1 Cu4 As4 H2 O26'
_cell_volume   519.95063432
_cell_formula_units_Z   1
loop_
 _symmetry_equiv_pos_site_id
 _symmetry_equiv_pos_as_xyz
  1  'x, y, z'
loop_
 _atom_site_type_symbol
 _atom_site_label
 _atom_site_symmetry_multiplicity
 _atom_site_fract_x
 _atom_site_fract_y
 _atom_site_fract_z
 _atom_site_occupancy
  Ca  Ca0  1  0.50000000  0.00000000  0.00000000  1
  Cu  Cu1  1  0.60240000  0.62073000  0.58663300  1
  Cu  Cu2  1  0.39760000  0.37927000  0.41336700  1
  Cu  Cu3  1  0.09779200  0.09176800  0.59117100  1
  Cu  Cu4  1  0.90220800  0.90823200  0.40882900  1
  As  As5  1  0.07881100  0.59914900  0.65335400  1
  As  As6  1  0.92118900  0.40085100  0.34664600  1
  As  As7  1  0.57013000  0.02840800  0.66092000  1
  As  As8  1  0.42987000  0.97159200  0.33908000  1
  H  H9  1  0.25647400  0.79193800  0.72873500  1
  H  H10  1  0.74352600  0.20806200  0.27126500  1
  O  O11  1  0.99578100  0.43762600  0.77437900  1
  O  O12  1  0.00421900  0.56237400  0.22562100  1
  O  O13  1  0.32462800  0.56139300  0.55717400  1
  O  O14  1  0.67537200  0.43860700  0.44282600  1
  O  O15  1  0.90206400  0.66779400  0.55010000  1
  O  O16  1  0.09793600  0.33220600  0.44990000  1
  O  O17  1  0.09985600  0.78156900  0.72939500  1
  O  O18  1  0.90014400  0.21843100  0.27060500  1
  O  O19  1  0.57796300  0.10678800  0.79854800  1
  O  O20  1  0.42203700  0.89321200  0.20145200  1
  O  O21  1  0.81823100  0.03963000  0.55722700  1
  O  O22  1  0.18176900  0.96037000  0.44277300  1
  O  O23  1  0.38833500  0.15230100  0.57391900  1
  O  O24  1  0.61166500  0.84769900  0.42608100  1
  O  O25  1  0.50058500  0.81713100  0.70699000  1
  O  O26  1  0.49941500  0.18286900  0.29301000  1
  O  O27  1  0.00710400  0.16360900  0.74360100  1
  O  O28  1  0.99289600  0.83639100  0.25639900  1
  O  O29  1  0.62812100  0.45998400  0.72887900  1
  O  O30  1  0.37187900  0.54001600  0.27112100  1
  O  O31  1  0.09126900  0.98389300  0.97201700  1
  O  O32  1  0.90873100  0.01610700  0.02798300  1
  O  O33  1  0.65609200  0.67350800  0.98528800  1
  O  O34  1  0.34390800  0.32649200  0.01471200  1
  O  O35  1  0.69750400  0.53444800  0.05151100  1
  O  O36  1  0.30249600  0.46555200  0.94848900  1
