# generated using pymatgen
data_CsTe7
_symmetry_space_group_name_H-M   'P 1'
_cell_length_a   13.69164227
_cell_length_b   19.30986543
_cell_length_c   19.30986543
_cell_angle_alpha   90.00000000
_cell_angle_beta   90.00000000
_cell_angle_gamma   90.00000000
_symmetry_Int_Tables_number   1
_chemical_formula_structural   CsTe7
_chemical_formula_sum   'Cs16 Te112'
_cell_volume   5105.21501574
_cell_formula_units_Z   16
loop_
 _symmetry_equiv_pos_site_id
 _symmetry_equiv_pos_as_xyz
  1  'x, y, z'
loop_
 _atom_site_type_symbol
 _atom_site_label
 _atom_site_symmetry_multiplicity
 _atom_site_fract_x
 _atom_site_fract_y
 _atom_site_fract_z
 _atom_site_occupancy
  Cs  Cs0  1  0.50670352  0.75000000  0.75000000  1
  Cs  Cs1  1  0.00670352  0.75000000  0.75000000  1
  Cs  Cs2  1  0.49329648  0.25000000  0.25000000  1
  Cs  Cs3  1  0.99329648  0.25000000  0.25000000  1
  Cs  Cs4  1  0.00000000  0.25000000  0.75000000  1
  Cs  Cs5  1  0.50000000  0.25000000  0.75000000  1
  Cs  Cs6  1  0.50000000  0.75000000  0.25000000  1
  Cs  Cs7  1  0.00000000  0.75000000  0.25000000  1
  Cs  Cs8  1  0.25000000  0.50633405  0.49366595  1
  Cs  Cs9  1  0.75000000  0.99366595  0.49366595  1
  Cs  Cs10  1  0.75000000  0.50633405  0.00633405  1
  Cs  Cs11  1  0.25000000  0.99366595  0.00633405  1
  Cs  Cs12  1  0.75000000  0.49366595  0.50633405  1
  Cs  Cs13  1  0.25000000  0.00633405  0.50633405  1
  Cs  Cs14  1  0.25000000  0.49366595  0.99366595  1
  Cs  Cs15  1  0.75000000  0.00633405  0.99366595  1
  Te  Te16  1  0.31832063  0.59751587  0.80063298  1
  Te  Te17  1  0.81832063  0.90248413  0.80063298  1
  Te  Te18  1  0.81832063  0.59751587  0.69936702  1
  Te  Te19  1  0.31832063  0.90248413  0.69936702  1
  Te  Te20  1  0.81832063  0.80063298  0.59751587  1
  Te  Te21  1  0.31832063  0.69936702  0.59751587  1
  Te  Te22  1  0.31832063  0.80063298  0.90248413  1
  Te  Te23  1  0.81832063  0.69936702  0.90248413  1
  Te  Te24  1  0.68167937  0.40248413  0.19936702  1
  Te  Te25  1  0.18167937  0.09751587  0.19936702  1
  Te  Te26  1  0.18167937  0.40248413  0.30063298  1
  Te  Te27  1  0.68167937  0.09751587  0.30063298  1
  Te  Te28  1  0.18167937  0.19936702  0.40248413  1
  Te  Te29  1  0.68167937  0.30063298  0.40248413  1
  Te  Te30  1  0.68167937  0.19936702  0.09751587  1
  Te  Te31  1  0.18167937  0.30063298  0.09751587  1
  Te  Te32  1  0.20276492  0.60644092  0.68086389  1
  Te  Te33  1  0.70276492  0.89355908  0.68086389  1
  Te  Te34  1  0.70276492  0.60644092  0.81913611  1
  Te  Te35  1  0.20276492  0.89355908  0.81913611  1
  Te  Te36  1  0.70276492  0.68086389  0.60644092  1
  Te  Te37  1  0.20276492  0.81913611  0.60644092  1
  Te  Te38  1  0.20276492  0.68086389  0.89355908  1
  Te  Te39  1  0.70276492  0.81913611  0.89355908  1
  Te  Te40  1  0.79723508  0.39355908  0.31913611  1
  Te  Te41  1  0.29723508  0.10644092  0.31913611  1
  Te  Te42  1  0.29723508  0.39355908  0.18086389  1
  Te  Te43  1  0.79723508  0.10644092  0.18086389  1
  Te  Te44  1  0.29723508  0.31913611  0.39355908  1
  Te  Te45  1  0.79723508  0.18086389  0.39355908  1
  Te  Te46  1  0.79723508  0.31913611  0.10644092  1
  Te  Te47  1  0.29723508  0.18086389  0.10644092  1
  Te  Te48  1  0.30271426  0.40016572  0.68803624  1
  Te  Te49  1  0.80271426  0.09983428  0.68803624  1
  Te  Te50  1  0.80271426  0.40016572  0.81196376  1
  Te  Te51  1  0.30271426  0.09983428  0.81196376  1
  Te  Te52  1  0.80271426  0.68803624  0.40016572  1
  Te  Te53  1  0.30271426  0.81196376  0.40016572  1
  Te  Te54  1  0.30271426  0.68803624  0.09983428  1
  Te  Te55  1  0.80271426  0.81196376  0.09983428  1
  Te  Te56  1  0.69728574  0.59983428  0.31196376  1
  Te  Te57  1  0.19728574  0.90016572  0.31196376  1
  Te  Te58  1  0.19728574  0.59983428  0.18803624  1
  Te  Te59  1  0.69728574  0.90016572  0.18803624  1
  Te  Te60  1  0.19728574  0.31196376  0.59983428  1
  Te  Te61  1  0.69728574  0.18803624  0.59983428  1
  Te  Te62  1  0.69728574  0.31196376  0.90016572  1
  Te  Te63  1  0.19728574  0.18803624  0.90016572  1
  Te  Te64  1  0.17199058  0.40336993  0.79908204  1
  Te  Te65  1  0.67199058  0.09663007  0.79908204  1
  Te  Te66  1  0.67199058  0.40336993  0.70091796  1
  Te  Te67  1  0.17199058  0.09663007  0.70091796  1
  Te  Te68  1  0.67199058  0.79908204  0.40336993  1
  Te  Te69  1  0.17199058  0.70091796  0.40336993  1
  Te  Te70  1  0.17199058  0.79908204  0.09663007  1
  Te  Te71  1  0.67199058  0.70091796  0.09663007  1
  Te  Te72  1  0.82800942  0.59663007  0.20091796  1
  Te  Te73  1  0.32800942  0.90336993  0.20091796  1
  Te  Te74  1  0.32800942  0.59663007  0.29908204  1
  Te  Te75  1  0.82800942  0.90336993  0.29908204  1
  Te  Te76  1  0.32800942  0.20091796  0.59663007  1
  Te  Te77  1  0.82800942  0.29908204  0.59663007  1
  Te  Te78  1  0.82800942  0.20091796  0.90336993  1
  Te  Te79  1  0.32800942  0.29908204  0.90336993  1
  Te  Te80  1  0.03660873  0.50195654  0.74873134  1
  Te  Te81  1  0.53660873  0.99804346  0.74873134  1
  Te  Te82  1  0.53660873  0.50195654  0.75126866  1
  Te  Te83  1  0.03660873  0.99804346  0.75126866  1
  Te  Te84  1  0.53660873  0.74873134  0.50195654  1
  Te  Te85  1  0.03660873  0.75126866  0.50195654  1
  Te  Te86  1  0.03660873  0.74873134  0.99804346  1
  Te  Te87  1  0.53660873  0.75126866  0.99804346  1
  Te  Te88  1  0.96339127  0.49804346  0.25126866  1
  Te  Te89  1  0.46339127  0.00195654  0.25126866  1
  Te  Te90  1  0.46339127  0.49804346  0.24873134  1
  Te  Te91  1  0.96339127  0.00195654  0.24873134  1
  Te  Te92  1  0.46339127  0.25126866  0.49804346  1
  Te  Te93  1  0.96339127  0.24873134  0.49804346  1
  Te  Te94  1  0.96339127  0.25126866  0.00195654  1
  Te  Te95  1  0.46339127  0.24873134  0.00195654  1
  Te  Te96  1  0.00656350  0.44671849  0.59527768  1
  Te  Te97  1  0.50656350  0.05328151  0.59527768  1
  Te  Te98  1  0.50656350  0.44671849  0.90472232  1
  Te  Te99  1  0.00656350  0.05328151  0.90472232  1
  Te  Te100  1  0.50656350  0.59527768  0.44671849  1
  Te  Te101  1  0.00656350  0.90472232  0.44671849  1
  Te  Te102  1  0.00656350  0.59527768  0.05328151  1
  Te  Te103  1  0.50656350  0.90472232  0.05328151  1
  Te  Te104  1  0.99343650  0.55328151  0.40472232  1
  Te  Te105  1  0.49343650  0.94671849  0.40472232  1
  Te  Te106  1  0.49343650  0.55328151  0.09527768  1
  Te  Te107  1  0.99343650  0.94671849  0.09527768  1
  Te  Te108  1  0.49343650  0.40472232  0.55328151  1
  Te  Te109  1  0.99343650  0.09527768  0.55328151  1
  Te  Te110  1  0.99343650  0.40472232  0.94671849  1
  Te  Te111  1  0.49343650  0.09527768  0.94671849  1
  Te  Te112  1  0.00678001  0.55518701  0.90761543  1
  Te  Te113  1  0.50678001  0.94481299  0.90761543  1
  Te  Te114  1  0.50678001  0.55518701  0.59238457  1
  Te  Te115  1  0.00678001  0.94481299  0.59238457  1
  Te  Te116  1  0.50678001  0.90761543  0.55518701  1
  Te  Te117  1  0.00678001  0.59238457  0.55518701  1
  Te  Te118  1  0.00678001  0.90761543  0.94481299  1
  Te  Te119  1  0.50678001  0.59238457  0.94481299  1
  Te  Te120  1  0.99321999  0.44481299  0.09238457  1
  Te  Te121  1  0.49321999  0.05518701  0.09238457  1
  Te  Te122  1  0.49321999  0.44481299  0.40761543  1
  Te  Te123  1  0.99321999  0.05518701  0.40761543  1
  Te  Te124  1  0.49321999  0.09238457  0.44481299  1
  Te  Te125  1  0.99321999  0.40761543  0.44481299  1
  Te  Te126  1  0.99321999  0.09238457  0.05518701  1
  Te  Te127  1  0.49321999  0.40761543  0.05518701  1
