# generated using pymatgen
data_K2B10H6O19
_symmetry_space_group_name_H-M   'P 1'
_cell_length_a   7.84807055
_cell_length_b   9.28193287
_cell_length_c   11.94171600
_cell_angle_alpha   98.94425820
_cell_angle_beta   106.82986329
_cell_angle_gamma   91.33651477
_symmetry_Int_Tables_number   1
_chemical_formula_structural   K2B10H6O19
_chemical_formula_sum   'K4 B20 H12 O38'
_cell_volume   820.36267420
_cell_formula_units_Z   2
loop_
 _symmetry_equiv_pos_site_id
 _symmetry_equiv_pos_as_xyz
  1  'x, y, z'
loop_
 _atom_site_type_symbol
 _atom_site_label
 _atom_site_symmetry_multiplicity
 _atom_site_fract_x
 _atom_site_fract_y
 _atom_site_fract_z
 _atom_site_occupancy
  K  K0  1  0.97730100  0.04346600  0.75830000  1
  K  K1  1  0.02269900  0.95653400  0.24170000  1
  K  K2  1  0.43277200  0.74477200  0.71231800  1
  K  K3  1  0.56722800  0.25522800  0.28768200  1
  B  B4  1  0.67974200  0.94072300  0.44349100  1
  B  B5  1  0.32025800  0.05927700  0.55650900  1
  B  B6  1  0.45538600  0.74278000  0.40095800  1
  B  B7  1  0.54461400  0.25722000  0.59904200  1
  B  B8  1  0.50178200  0.85250200  0.23288400  1
  B  B9  1  0.49821800  0.14749800  0.76711600  1
  B  B10  1  0.50389000  0.75766200  0.02481900  1
  B  B11  1  0.49611000  0.24233800  0.97518100  1
  B  B12  1  0.32102400  0.95383000  0.05706000  1
  B  B13  1  0.67897600  0.04617000  0.94294000  1
  B  B14  1  0.27308700  0.51583600  0.40514400  1
  B  B15  1  0.72691300  0.48416400  0.59485600  1
  B  B16  1  0.07889200  0.33472100  0.43853600  1
  B  B17  1  0.92110800  0.66527900  0.56146400  1
  B  B18  1  0.09836100  0.33285300  0.23453300  1
  B  B19  1  0.90163900  0.66714700  0.76546700  1
  B  B20  1  0.13009000  0.16650600  0.05813800  1
  B  B21  1  0.86991000  0.83349400  0.94186200  1
  B  B22  1  0.91976000  0.35141400  0.02740700  1
  B  B23  1  0.08024000  0.64858600  0.97259300  1
  H  H24  1  0.86699000  0.11028700  0.50266500  1
  H  H25  1  0.13301000  0.88971300  0.49733500  1
  H  H26  1  0.63197400  0.58855300  0.96700300  1
  H  H27  1  0.36802600  0.41144700  0.03299700  1
  H  H28  1  0.05674100  0.30703800  0.60000600  1
  H  H29  1  0.94325900  0.69296200  0.39999400  1
  H  H30  1  0.75742800  0.38152800  0.86872700  1
  H  H31  1  0.24257200  0.61847200  0.13127300  1
  H  H32  1  0.22156400  0.31257600  0.78674200  1
  H  H33  1  0.77843600  0.68742400  0.21325800  1
  H  H34  1  0.07720800  0.42956100  0.78725700  1
  H  H35  1  0.92279200  0.57043900  0.21274300  1
  O  O36  1  0.79976200  0.03845600  0.52999600  1
  O  O37  1  0.20023800  0.96154400  0.47000400  1
  O  O38  1  0.58756400  0.83940800  0.48308500  1
  O  O39  1  0.41243600  0.16059200  0.51691500  1
  O  O40  1  0.38192900  0.64326900  0.45253800  1
  O  O41  1  0.61807100  0.35673100  0.54746200  1
  O  O42  1  0.64969100  0.94287200  0.32485600  1
  O  O43  1  0.35030900  0.05712800  0.67514400  1
  O  O44  1  0.40641500  0.75023700  0.28290100  1
  O  O45  1  0.59358500  0.24976300  0.71709900  1
  O  O46  1  0.57441700  0.76303000  0.14441600  1
  O  O47  1  0.42558300  0.23697000  0.85558400  1
  O  O48  1  0.38053100  0.85574200  0.97868900  1
  O  O49  1  0.61946900  0.14425800  0.02131100  1
  O  O50  1  0.37350400  0.95346700  0.17563100  1
  O  O51  1  0.62649600  0.04653300  0.82436900  1
  O  O52  1  0.54991600  0.66267500  0.93969500  1
  O  O53  1  0.45008400  0.33732500  0.06030500  1
  O  O54  1  0.19897500  0.45856900  0.48335700  1
  O  O55  1  0.80102500  0.54143100  0.51664300  1
  O  O56  1  0.01542900  0.26437000  0.51290100  1
  O  O57  1  0.98457100  0.73563000  0.48709900  1
  O  O58  1  0.24424500  0.44824400  0.29155700  1
  O  O59  1  0.75575500  0.55175600  0.70844300  1
  O  O60  1  0.01923700  0.28080600  0.31990500  1
  O  O61  1  0.98076300  0.71919400  0.68009500  1
  O  O62  1  0.17280600  0.20637100  0.17713600  1
  O  O63  1  0.82719400  0.79362900  0.82286400  1
  O  O64  1  0.00387100  0.23595300  0.97985400  1
  O  O65  1  0.99612900  0.76404700  0.02014600  1
  O  O66  1  0.95850700  0.39492000  0.14637600  1
  O  O67  1  0.04149300  0.60508000  0.85362400  1
  O  O68  1  0.20210400  0.04983300  0.00400700  1
  O  O69  1  0.79789600  0.95016700  0.99599300  1
  O  O70  1  0.79156100  0.42179100  0.95378900  1
  O  O71  1  0.20843900  0.57820900  0.04621100  1
  O  O72  1  0.09827900  0.33356800  0.74520600  1
  O  O73  1  0.90172100  0.66643200  0.25479400  1
