# generated using pymatgen
data_AlTeH6C2Br3
_symmetry_space_group_name_H-M   'P 1'
_cell_length_a   6.96303300
_cell_length_b   11.25580900
_cell_length_c   14.25001900
_cell_angle_alpha   90.00000000
_cell_angle_beta   90.00000000
_cell_angle_gamma   90.00000000
_symmetry_Int_Tables_number   1
_chemical_formula_structural   AlTeH6C2Br3
_chemical_formula_sum   'Al4 Te4 H24 C8 Br12'
_cell_volume   1116.83910462
_cell_formula_units_Z   4
loop_
 _symmetry_equiv_pos_site_id
 _symmetry_equiv_pos_as_xyz
  1  'x, y, z'
loop_
 _atom_site_type_symbol
 _atom_site_label
 _atom_site_symmetry_multiplicity
 _atom_site_fract_x
 _atom_site_fract_y
 _atom_site_fract_z
 _atom_site_occupancy
  Al  Al0  1  0.44939300  0.75000000  0.55355100  1
  Al  Al1  1  0.55060700  0.25000000  0.44644900  1
  Al  Al2  1  0.44939300  0.25000000  0.94644900  1
  Al  Al3  1  0.55060700  0.75000000  0.05355100  1
  Te  Te4  1  0.36553200  0.75000000  0.36512000  1
  Te  Te5  1  0.63446800  0.25000000  0.63488000  1
  Te  Te6  1  0.36553200  0.25000000  0.13488000  1
  Te  Te7  1  0.63446800  0.75000000  0.86512000  1
  H  H8  1  0.07673400  0.87596700  0.29372900  1
  H  H9  1  0.92326600  0.37596700  0.70627100  1
  H  H10  1  0.07673400  0.12403300  0.20627100  1
  H  H11  1  0.92326600  0.62403300  0.79372900  1
  H  H12  1  0.92326600  0.12403300  0.70627100  1
  H  H13  1  0.07673400  0.62403300  0.29372900  1
  H  H14  1  0.92326600  0.87596700  0.79372900  1
  H  H15  1  0.07673400  0.37596700  0.20627100  1
  H  H16  1  0.23578000  0.97437000  0.35701600  1
  H  H17  1  0.76422000  0.47437000  0.64298400  1
  H  H18  1  0.23578000  0.02563000  0.14298400  1
  H  H19  1  0.76422000  0.52563000  0.85701600  1
  H  H20  1  0.76422000  0.02563000  0.64298400  1
  H  H21  1  0.23578000  0.52563000  0.35701600  1
  H  H22  1  0.76422000  0.97437000  0.85701600  1
  H  H23  1  0.23578000  0.47437000  0.14298400  1
  H  H24  1  0.06167200  0.88688700  0.42039300  1
  H  H25  1  0.93832800  0.38688700  0.57960700  1
  H  H26  1  0.06167200  0.11311300  0.07960700  1
  H  H27  1  0.93832800  0.61311300  0.92039300  1
  H  H28  1  0.93832800  0.11311300  0.57960700  1
  H  H29  1  0.06167200  0.61311300  0.42039300  1
  H  H30  1  0.93832800  0.88688700  0.92039300  1
  H  H31  1  0.06167200  0.38688700  0.07960700  1
  C  C32  1  0.15605800  0.89019000  0.35902400  1
  C  C33  1  0.84394200  0.39019000  0.64097600  1
  C  C34  1  0.15605800  0.10981000  0.14097600  1
  C  C35  1  0.84394200  0.60981000  0.85902400  1
  C  C36  1  0.84394200  0.10981000  0.64097600  1
  C  C37  1  0.15605800  0.60981000  0.35902400  1
  C  C38  1  0.84394200  0.89019000  0.85902400  1
  C  C39  1  0.15605800  0.39019000  0.14097600  1
  Br  Br40  1  0.78098600  0.75000000  0.56751900  1
  Br  Br41  1  0.21901400  0.25000000  0.43248100  1
  Br  Br42  1  0.78098600  0.25000000  0.93248100  1
  Br  Br43  1  0.21901400  0.75000000  0.06751900  1
  Br  Br44  1  0.32108000  0.57780300  0.61594100  1
  Br  Br45  1  0.67892000  0.07780300  0.38405900  1
  Br  Br46  1  0.32108000  0.42219700  0.88405900  1
  Br  Br47  1  0.67892000  0.92219700  0.11594100  1
  Br  Br48  1  0.67892000  0.42219700  0.38405900  1
  Br  Br49  1  0.32108000  0.92219700  0.61594100  1
  Br  Br50  1  0.67892000  0.57780300  0.11594100  1
  Br  Br51  1  0.32108000  0.07780300  0.88405900  1
