# generated using pymatgen
data_SmH6C2SNO9
_symmetry_space_group_name_H-M   'P 1'
_cell_length_a   8.80378600
_cell_length_b   6.67218200
_cell_length_c   15.26793490
_cell_angle_alpha   67.44563215
_cell_angle_beta   90.00000000
_cell_angle_gamma   90.00000000
_symmetry_Int_Tables_number   1
_chemical_formula_structural   SmH6C2SNO9
_chemical_formula_sum   'Sm4 H24 C8 S4 N4 O36'
_cell_volume   828.25121175
_cell_formula_units_Z   4
loop_
 _symmetry_equiv_pos_site_id
 _symmetry_equiv_pos_as_xyz
  1  'x, y, z'
loop_
 _atom_site_type_symbol
 _atom_site_label
 _atom_site_symmetry_multiplicity
 _atom_site_fract_x
 _atom_site_fract_y
 _atom_site_fract_z
 _atom_site_occupancy
  Sm  Sm0  1  0.73676500  0.33823500  0.40882600  1
  Sm  Sm1  1  0.76323500  0.33823500  0.90882600  1
  Sm  Sm2  1  0.26323500  0.66176500  0.59117400  1
  Sm  Sm3  1  0.23676500  0.66176500  0.09117400  1
  H  H4  1  0.79579300  0.92121000  0.16923400  1
  H  H5  1  0.70420700  0.92121000  0.66923400  1
  H  H6  1  0.20420700  0.07879000  0.83076600  1
  H  H7  1  0.29579300  0.07879000  0.33076600  1
  H  H8  1  0.82552700  0.99276000  0.26424400  1
  H  H9  1  0.67447300  0.99276000  0.76424400  1
  H  H10  1  0.17447300  0.00724000  0.73575600  1
  H  H11  1  0.32552700  0.00724000  0.23575600  1
  H  H12  1  0.96042400  0.02955800  0.18294200  1
  H  H13  1  0.53957600  0.02955800  0.68294200  1
  H  H14  1  0.03957600  0.97044200  0.81705800  1
  H  H15  1  0.46042400  0.97044200  0.31705800  1
  H  H16  1  0.97598600  0.29078700  0.56817000  1
  H  H17  1  0.52401400  0.29078700  0.06817000  1
  H  H18  1  0.02401400  0.70921300  0.43183000  1
  H  H19  1  0.47598600  0.70921300  0.93183000  1
  H  H20  1  0.97355300  0.05541700  0.57007600  1
  H  H21  1  0.52644700  0.05541700  0.07007600  1
  H  H22  1  0.02644700  0.94458300  0.42992400  1
  H  H23  1  0.47355300  0.94458300  0.92992400  1
  H  H24  1  0.80531300  0.18737600  0.15667600  1
  H  H25  1  0.69468700  0.18737600  0.65667600  1
  H  H26  1  0.19468700  0.81262400  0.84332400  1
  H  H27  1  0.30531300  0.81262400  0.34332400  1
  C  C28  1  0.03004700  0.58464600  0.27890500  1
  C  C29  1  0.46995300  0.58464600  0.77890500  1
  C  C30  1  0.96995300  0.41535400  0.72109500  1
  C  C31  1  0.53004700  0.41535400  0.22109500  1
  C  C32  1  0.02616400  0.36306700  0.26905600  1
  C  C33  1  0.47383600  0.36306700  0.76905600  1
  C  C34  1  0.97383600  0.63693300  0.73094400  1
  C  C35  1  0.52616400  0.63693300  0.23094400  1
  S  S36  1  0.66592600  0.74070300  0.52271800  1
  S  S37  1  0.83407400  0.74070300  0.02271800  1
  S  S38  1  0.33407400  0.25929700  0.47728200  1
  S  S39  1  0.16592600  0.25929700  0.97728200  1
  N  N40  1  0.84509600  0.03281700  0.19331500  1
  N  N41  1  0.65490400  0.03281700  0.69331500  1
  N  N42  1  0.15490400  0.96718300  0.80668500  1
  N  N43  1  0.34509600  0.96718300  0.30668500  1
  O  O44  1  0.73455400  0.56711800  0.49646100  1
  O  O45  1  0.76544600  0.56711800  0.99646100  1
  O  O46  1  0.26544600  0.43288200  0.50353900  1
  O  O47  1  0.23455400  0.43288200  0.00353900  1
  O  O48  1  0.73032300  0.95378700  0.45940200  1
  O  O49  1  0.76967700  0.95378700  0.95940200  1
  O  O50  1  0.26967700  0.04621300  0.54059800  1
  O  O51  1  0.23032300  0.04621300  0.04059800  1
  O  O52  1  0.94372700  0.60562000  0.34165700  1
  O  O53  1  0.55627300  0.60562000  0.84165700  1
  O  O54  1  0.05627300  0.39438000  0.65834300  1
  O  O55  1  0.44372700  0.39438000  0.15834300  1
  O  O56  1  0.92068300  0.19543500  0.54310600  1
  O  O57  1  0.57931700  0.19543500  0.04310600  1
  O  O58  1  0.07931700  0.80456500  0.45689400  1
  O  O59  1  0.42068300  0.80456500  0.95689400  1
  O  O60  1  0.94185700  0.21826300  0.32727900  1
  O  O61  1  0.55814300  0.21826300  0.82727900  1
  O  O62  1  0.05814300  0.78173700  0.67272100  1
  O  O63  1  0.44185700  0.78173700  0.17272100  1
  O  O64  1  0.50250900  0.25558800  0.49203300  1
  O  O65  1  0.99749100  0.25558800  0.99203300  1
  O  O66  1  0.49749100  0.74441200  0.50796700  1
  O  O67  1  0.00250900  0.74441200  0.00796700  1
  O  O68  1  0.60465200  0.65646300  0.29661700  1
  O  O69  1  0.89534800  0.65646300  0.79661700  1
  O  O70  1  0.39534800  0.34353700  0.70338300  1
  O  O71  1  0.10465200  0.34353700  0.20338300  1
  O  O72  1  0.61651800  0.27079500  0.27672500  1
  O  O73  1  0.88348200  0.27079500  0.77672500  1
  O  O74  1  0.38348200  0.72920500  0.72327500  1
  O  O75  1  0.11651800  0.72920500  0.22327500  1
  O  O76  1  0.70003500  0.69836400  0.62301500  1
  O  O77  1  0.79996500  0.69836400  0.12301500  1
  O  O78  1  0.29996500  0.30163600  0.37698500  1
  O  O79  1  0.20003500  0.30163600  0.87698500  1
