# generated using pymatgen
data_NaFe7(PO4)6
_symmetry_space_group_name_H-M   'P 1'
_cell_length_a   6.48246200
_cell_length_b   8.09609192
_cell_length_c   9.48843004
_cell_angle_alpha   105.39294645
_cell_angle_beta   108.23523744
_cell_angle_gamma   101.43833762
_symmetry_Int_Tables_number   1
_chemical_formula_structural   NaFe7(PO4)6
_chemical_formula_sum   'Na1 Fe7 P6 O24'
_cell_volume   433.94180058
_cell_formula_units_Z   1
loop_
 _symmetry_equiv_pos_site_id
 _symmetry_equiv_pos_as_xyz
  1  'x, y, z'
loop_
 _atom_site_type_symbol
 _atom_site_label
 _atom_site_symmetry_multiplicity
 _atom_site_fract_x
 _atom_site_fract_y
 _atom_site_fract_z
 _atom_site_occupancy
  Na  Na0  1  0.50000000  0.00000000  0.00000000  1
  Fe  Fe1  1  0.00000000  0.00000000  0.00000000  1
  Fe  Fe2  1  0.71593000  0.18840900  0.70753300  1
  Fe  Fe3  1  0.28407000  0.81159100  0.29246700  1
  Fe  Fe4  1  0.96006500  0.28176200  0.47389900  1
  Fe  Fe5  1  0.03993500  0.71823800  0.52610100  1
  Fe  Fe6  1  0.60773700  0.54242800  0.89007900  1
  Fe  Fe7  1  0.39226300  0.45757200  0.10992100  1
  P  P8  1  0.22632500  0.14647400  0.76457800  1
  P  P9  1  0.77367500  0.85352600  0.23542200  1
  P  P10  1  0.08524600  0.58915000  0.82927900  1
  P  P11  1  0.91475400  0.41085000  0.17072100  1
  P  P12  1  0.59879700  0.76791100  0.63187000  1
  P  P13  1  0.40120300  0.23208900  0.36813000  1
  O  O14  1  0.30136300  0.54207500  0.91382700  1
  O  O15  1  0.69863700  0.45792500  0.08617300  1
  O  O16  1  0.11339600  0.78702900  0.91068700  1
  O  O17  1  0.88660400  0.21297100  0.08931300  1
  O  O18  1  0.28170200  0.03761400  0.23734600  1
  O  O19  1  0.71829800  0.96238600  0.76265400  1
  O  O20  1  0.87389400  0.46495000  0.83383100  1
  O  O21  1  0.12610600  0.53505000  0.16616900  1
  O  O22  1  0.75137500  0.72509400  0.54074300  1
  O  O23  1  0.24862500  0.27490600  0.45925700  1
  O  O24  1  0.63230300  0.23547300  0.49096800  1
  O  O25  1  0.36769700  0.76452700  0.50903200  1
  O  O26  1  0.93793800  0.45339700  0.34821600  1
  O  O27  1  0.06206200  0.54660300  0.65178400  1
  O  O28  1  0.54898400  0.63727800  0.71496000  1
  O  O29  1  0.45101600  0.36272200  0.28504000  1
  O  O30  1  0.54719700  0.73785600  0.22883700  1
  O  O31  1  0.45280300  0.26214400  0.77116300  1
  O  O32  1  0.76687600  0.80936100  0.06170000  1
  O  O33  1  0.23312400  0.19063900  0.93830000  1
  O  O34  1  0.78909700  0.05202700  0.29618400  1
  O  O35  1  0.21090300  0.94797300  0.70381600  1
  O  O36  1  0.98087200  0.81376200  0.34240500  1
  O  O37  1  0.01912800  0.18623800  0.65759500  1
