# generated using pymatgen
data_MnH30C6(Se2N3)2
_symmetry_space_group_name_H-M   'P 1'
_cell_length_a   8.78150963
_cell_length_b   8.78150963
_cell_length_c   14.33574264
_cell_angle_alpha   78.66227320
_cell_angle_beta   78.66227320
_cell_angle_gamma   88.79203055
_symmetry_Int_Tables_number   1
_chemical_formula_structural   MnH30C6(Se2N3)2
_chemical_formula_sum   'Mn2 H60 C12 Se8 N12'
_cell_volume   1062.59636082
_cell_formula_units_Z   2
loop_
 _symmetry_equiv_pos_site_id
 _symmetry_equiv_pos_as_xyz
  1  'x, y, z'
loop_
 _atom_site_type_symbol
 _atom_site_label
 _atom_site_symmetry_multiplicity
 _atom_site_fract_x
 _atom_site_fract_y
 _atom_site_fract_z
 _atom_site_occupancy
  Mn  Mn0  1  0.33471200  0.66528800  0.75000000  1
  Mn  Mn1  1  0.66528800  0.33471200  0.25000000  1
  H  H2  1  0.48269400  0.38793300  0.82541400  1
  H  H3  1  0.61206700  0.51730600  0.67458600  1
  H  H4  1  0.51730600  0.61206700  0.17458600  1
  H  H5  1  0.38793300  0.48269400  0.32541400  1
  H  H6  1  0.42594300  0.48256900  0.91136300  1
  H  H7  1  0.51743100  0.57405700  0.58863700  1
  H  H8  1  0.57405700  0.51743100  0.08863700  1
  H  H9  1  0.48256900  0.42594300  0.41136300  1
  H  H10  1  0.15039400  0.37121400  0.91588900  1
  H  H11  1  0.62878600  0.84960600  0.58411100  1
  H  H12  1  0.84960600  0.62878600  0.08411100  1
  H  H13  1  0.37121400  0.15039400  0.41588900  1
  H  H14  1  0.28636100  0.25384400  0.97343500  1
  H  H15  1  0.74615600  0.71363900  0.52656500  1
  H  H16  1  0.71363900  0.74615600  0.02656500  1
  H  H17  1  0.25384400  0.28636100  0.47343500  1
  H  H18  1  0.26518100  0.23793400  0.85464100  1
  H  H19  1  0.76206600  0.73481900  0.64535900  1
  H  H20  1  0.73481900  0.76206600  0.14535900  1
  H  H21  1  0.23793400  0.26518100  0.35464100  1
  H  H22  1  0.09007900  0.46776400  0.74318800  1
  H  H23  1  0.53223600  0.90992100  0.75681200  1
  H  H24  1  0.90992100  0.53223600  0.25681200  1
  H  H25  1  0.46776400  0.09007900  0.24318800  1
  H  H26  1  0.25812000  0.39599200  0.69885100  1
  H  H27  1  0.60400800  0.74188000  0.80114900  1
  H  H28  1  0.74188000  0.60400800  0.30114900  1
  H  H29  1  0.39599200  0.25812000  0.19885100  1
  H  H30  1  0.09178100  0.43387400  0.58059000  1
  H  H31  1  0.56612600  0.90821900  0.91941000  1
  H  H32  1  0.90821900  0.56612600  0.41941000  1
  H  H33  1  0.43387400  0.09178100  0.08059000  1
  H  H34  1  0.26243500  0.55503800  0.54015600  1
  H  H35  1  0.44496200  0.73756500  0.95984400  1
  H  H36  1  0.73756500  0.44496200  0.45984400  1
  H  H37  1  0.55503800  0.26243500  0.04015600  1
  H  H38  1  0.08282000  0.63313100  0.58824300  1
  H  H39  1  0.36686900  0.91718000  0.91175700  1
  H  H40  1  0.91718000  0.36686900  0.41175700  1
  H  H41  1  0.63313100  0.08282000  0.08824300  1
  H  H42  1  0.04700000  0.61955900  0.87829100  1
  H  H43  1  0.38044100  0.95300000  0.62170900  1
  H  H44  1  0.95300000  0.38044100  0.12170900  1
  H  H45  1  0.61955900  0.04700000  0.37829100  1
  H  H46  1  0.17588000  0.66099300  0.93848500  1
  H  H47  1  0.33900700  0.82412000  0.56151500  1
  H  H48  1  0.82412000  0.33900700  0.06151500  1
  H  H49  1  0.66099300  0.17588000  0.43848500  1
  H  H50  1  0.15451000  0.94514700  0.84684100  1
  H  H51  1  0.05485300  0.84549000  0.65315900  1
  H  H52  1  0.84549000  0.05485300  0.15315900  1
  H  H53  1  0.94514700  0.15451000  0.34684100  1
  H  H54  1  0.97806200  0.86982000  0.83065000  1
  H  H55  1  0.13018000  0.02193800  0.66935000  1
  H  H56  1  0.02193800  0.13018000  0.16935000  1
  H  H57  1  0.86982000  0.97806200  0.33065000  1
  H  H58  1  0.00987100  0.86591900  0.94991200  1
  H  H59  1  0.13408100  0.99012900  0.55008800  1
  H  H60  1  0.99012900  0.13408100  0.05008800  1
  H  H61  1  0.86591900  0.00987100  0.44991200  1
  C  C62  1  0.15544900  0.52994900  0.59556000  1
  C  C63  1  0.47005100  0.84455100  0.90444000  1
  C  C64  1  0.84455100  0.47005100  0.40444000  1
  C  C65  1  0.52994900  0.15544900  0.09556000  1
  C  C66  1  0.06584300  0.85260900  0.87640100  1
  C  C67  1  0.14739100  0.93415700  0.62359900  1
  C  C68  1  0.93415700  0.14739100  0.12359900  1
  C  C69  1  0.85260900  0.06584300  0.37640100  1
  C  C70  1  0.26567600  0.31971300  0.90349200  1
  C  C71  1  0.68028700  0.73432400  0.59650800  1
  C  C72  1  0.73432400  0.68028700  0.09650800  1
  C  C73  1  0.31971300  0.26567600  0.40349200  1
  Se  Se74  1  0.80172000  0.48537300  0.86061100  1
  Se  Se75  1  0.51462700  0.19828000  0.63938900  1
  Se  Se76  1  0.19828000  0.51462700  0.13938900  1
  Se  Se77  1  0.48537300  0.80172000  0.36061100  1
  Se  Se78  1  0.78981500  0.22855600  0.83060800  1
  Se  Se79  1  0.77144400  0.21018500  0.66939200  1
  Se  Se80  1  0.21018500  0.77144400  0.16939200  1
  Se  Se81  1  0.22855600  0.78981500  0.33060800  1
  N  N82  1  0.19239900  0.49480100  0.69358400  1
  N  N83  1  0.50519900  0.80760100  0.80641600  1
  N  N84  1  0.80760100  0.50519900  0.30641600  1
  N  N85  1  0.49480100  0.19239900  0.19358400  1
  N  N86  1  0.13524400  0.69784700  0.87526700  1
  N  N87  1  0.30215300  0.86475600  0.62473300  1
  N  N88  1  0.86475600  0.30215300  0.12473300  1
  N  N89  1  0.69784700  0.13524400  0.37526700  1
  N  N90  1  0.38733500  0.44037600  0.85819600  1
  N  N91  1  0.55962400  0.61266500  0.64180400  1
  N  N92  1  0.61266500  0.55962400  0.14180400  1
  N  N93  1  0.44037600  0.38733500  0.35819600  1
