# generated using pymatgen
data_Mn5(AsO8)2
_symmetry_space_group_name_H-M   'P 1'
_cell_length_a   16.80229900
_cell_length_b   5.23756100
_cell_length_c   6.54090662
_cell_angle_alpha   79.98459852
_cell_angle_beta   90.00000000
_cell_angle_gamma   90.00000000
_symmetry_Int_Tables_number   1
_chemical_formula_structural   Mn5(AsO8)2
_chemical_formula_sum   'Mn10 As4 O32'
_cell_volume   566.84798851
_cell_formula_units_Z   2
loop_
 _symmetry_equiv_pos_site_id
 _symmetry_equiv_pos_as_xyz
  1  'x, y, z'
loop_
 _atom_site_type_symbol
 _atom_site_label
 _atom_site_symmetry_multiplicity
 _atom_site_fract_x
 _atom_site_fract_y
 _atom_site_fract_z
 _atom_site_occupancy
  Mn  Mn0  1  0.00000000  0.00000000  0.00000000  1
  Mn  Mn1  1  0.50000000  0.00000000  0.50000000  1
  Mn  Mn2  1  0.06708700  0.52910100  0.81703200  1
  Mn  Mn3  1  0.56708700  0.47089900  0.68296800  1
  Mn  Mn4  1  0.93291300  0.47089900  0.18296800  1
  Mn  Mn5  1  0.43291300  0.52910100  0.31703200  1
  Mn  Mn6  1  0.12952300  0.03306500  0.67332700  1
  Mn  Mn7  1  0.62952300  0.96693500  0.82667300  1
  Mn  Mn8  1  0.87047700  0.96693500  0.32667300  1
  Mn  Mn9  1  0.37047700  0.03306500  0.17332700  1
  As  As10  1  0.12859500  0.62632400  0.32397300  1
  As  As11  1  0.62859500  0.37367600  0.17602700  1
  As  As12  1  0.87140500  0.37367600  0.67602700  1
  As  As13  1  0.37140500  0.62632400  0.82397300  1
  O  O14  1  0.04282900  0.65612800  0.14553600  1
  O  O15  1  0.54282900  0.34387200  0.35446400  1
  O  O16  1  0.95717100  0.34387200  0.85446400  1
  O  O17  1  0.45717100  0.65612800  0.64553600  1
  O  O18  1  0.09532900  0.39327800  0.53079400  1
  O  O19  1  0.59532900  0.60672200  0.96920600  1
  O  O20  1  0.90467100  0.60672200  0.46920600  1
  O  O21  1  0.40467100  0.39327800  0.03079400  1
  O  O22  1  0.12990000  0.91863500  0.40456300  1
  O  O23  1  0.62990000  0.08136500  0.09543700  1
  O  O24  1  0.87010000  0.08136500  0.59543700  1
  O  O25  1  0.37010000  0.91863500  0.90456300  1
  O  O26  1  0.20410900  0.55111100  0.17685700  1
  O  O27  1  0.70410900  0.44888900  0.32314300  1
  O  O28  1  0.79589100  0.44888900  0.82314300  1
  O  O29  1  0.29589100  0.55111100  0.67685700  1
  O  O30  1  0.02135100  0.86829900  0.74624500  1
  O  O31  1  0.52135100  0.13170100  0.75375500  1
  O  O32  1  0.97864900  0.13170100  0.25375500  1
  O  O33  1  0.47864900  0.86829900  0.24624500  1
  O  O34  1  0.10106900  0.17239100  0.92214900  1
  O  O35  1  0.60106900  0.82760900  0.57785100  1
  O  O36  1  0.89893100  0.82760900  0.07785100  1
  O  O37  1  0.39893100  0.17239100  0.42214900  1
  O  O38  1  0.16388400  0.71732800  0.81106100  1
  O  O39  1  0.66388400  0.28267200  0.68893900  1
  O  O40  1  0.83611600  0.28267200  0.18893900  1
  O  O41  1  0.33611600  0.71732800  0.31106100  1
  O  O42  1  0.26479100  0.13070600  0.15972300  1
  O  O43  1  0.76479100  0.86929400  0.34027700  1
  O  O44  1  0.73520900  0.86929400  0.84027700  1
  O  O45  1  0.23520900  0.13070600  0.65972300  1
