# generated using pymatgen
data_Si3PH27C9(NCl)2
_symmetry_space_group_name_H-M   'P 1'
_cell_length_a   9.88730596
_cell_length_b   14.53533496
_cell_length_c   15.80193257
_cell_angle_alpha   90.00000000
_cell_angle_beta   93.17163769
_cell_angle_gamma   90.00000000
_symmetry_Int_Tables_number   1
_chemical_formula_structural   Si3PH27C9(NCl)2
_chemical_formula_sum   'Si12 P4 H108 C36 N8 Cl8'
_cell_volume   2267.50102613
_cell_formula_units_Z   4
loop_
 _symmetry_equiv_pos_site_id
 _symmetry_equiv_pos_as_xyz
  1  'x, y, z'
loop_
 _atom_site_type_symbol
 _atom_site_label
 _atom_site_symmetry_multiplicity
 _atom_site_fract_x
 _atom_site_fract_y
 _atom_site_fract_z
 _atom_site_occupancy
  Si  Si0  1  0.10982995  0.34566244  0.31167235  1
  Si  Si1  1  0.39017005  0.84566244  0.18832765  1
  Si  Si2  1  0.89017005  0.65433756  0.68832765  1
  Si  Si3  1  0.60982995  0.15433756  0.81167235  1
  Si  Si4  1  0.89630777  0.11006208  0.28780081  1
  Si  Si5  1  0.60369223  0.61006208  0.21219919  1
  Si  Si6  1  0.10369223  0.88993792  0.71219919  1
  Si  Si7  1  0.39630777  0.38993792  0.78780081  1
  Si  Si8  1  0.83246617  0.23616025  0.44660591  1
  Si  Si9  1  0.66753383  0.73616025  0.05339409  1
  Si  Si10  1  0.16753383  0.76383975  0.55339409  1
  Si  Si11  1  0.33246617  0.26383975  0.94660591  1
  P  P12  1  0.17320192  0.17093454  0.42962390  1
  P  P13  1  0.32679808  0.67093454  0.07037610  1
  P  P14  1  0.82679808  0.82906546  0.57037610  1
  P  P15  1  0.67320192  0.32906546  0.92962390  1
  H  H16  1  0.36287664  0.33855672  0.31340656  1
  H  H17  1  0.13712336  0.83855672  0.18659344  1
  H  H18  1  0.63712336  0.66144328  0.68659344  1
  H  H19  1  0.86287664  0.16144328  0.81340656  1
  H  H20  1  0.28808762  0.27720085  0.22522545  1
  H  H21  1  0.21191238  0.77720085  0.27477455  1
  H  H22  1  0.71191238  0.72279915  0.77477455  1
  H  H23  1  0.78808762  0.22279915  0.72522545  1
  H  H24  1  0.28991870  0.39979206  0.22458914  1
  H  H25  1  0.21008130  0.89979206  0.27541086  1
  H  H26  1  0.71008130  0.60020794  0.77541086  1
  H  H27  1  0.78991870  0.10020794  0.72458914  1
  H  H28  1  0.01320335  0.45410562  0.41575923  1
  H  H29  1  0.48679665  0.95410562  0.08424077  1
  H  H30  1  0.98679665  0.54589438  0.58424077  1
  H  H31  1  0.51320335  0.04589438  0.91575923  1
  H  H32  1  0.19124867  0.44018488  0.43658966  1
  H  H33  1  0.30875133  0.94018488  0.06341034  1
  H  H34  1  0.80875133  0.55981512  0.56341034  1
  H  H35  1  0.69124867  0.05981512  0.93658966  1
  H  H36  1  0.12855818  0.50932841  0.35012288  1
  H  H37  1  0.37144182  0.00932841  0.14987712  1
  H  H38  1  0.87144182  0.49067159  0.64987712  1
  H  H39  1  0.62855818  0.99067159  0.85012288  1
  H  H40  1  0.97331860  0.31055718  0.17773483  1
  H  H41  1  0.52668140  0.81055718  0.32226517  1
  H  H42  1  0.02668140  0.68944282  0.82226517  1
  H  H43  1  0.47331860  0.18944282  0.67773483  1
  H  H44  1  0.87264737  0.36601482  0.25219815  1
  H  H45  1  0.62735263  0.86601482  0.24780185  1
  H  H46  1  0.12735263  0.63398518  0.74780185  1
  H  H47  1  0.37264737  0.13398518  0.75219815  1
  H  H48  1  0.99145923  0.43032188  0.19556359  1
  H  H49  1  0.50854077  0.93032188  0.30443641  1
  H  H50  1  0.00854077  0.56967812  0.80443641  1
  H  H51  1  0.49145923  0.06967812  0.69556359  1
  H  H52  1  0.77846476  0.39664593  0.39662178  1
  H  H53  1  0.72153524  0.89664593  0.10337822  1
  H  H54  1  0.22153524  0.60335407  0.60337822  1
  H  H55  1  0.27846476  0.10335407  0.89662178  1
  H  H56  1  0.65817681  0.31619747  0.35206735  1
  H  H57  1  0.84182319  0.81619747  0.14793265  1
  H  H58  1  0.34182319  0.68380253  0.64793265  1
  H  H59  1  0.15817681  0.18380253  0.85206735  1
  H  H60  1  0.65063560  0.35120376  0.45935240  1
  H  H61  1  0.84936440  0.85120376  0.04064760  1
  H  H62  1  0.34936440  0.64879624  0.54064760  1
  H  H63  1  0.15063560  0.14879624  0.95935240  1
  H  H64  1  0.99422667  0.21756644  0.57355448  1
  H  H65  1  0.50577333  0.71756644  0.92644552  1
  H  H66  1  0.00577333  0.78243356  0.42644552  1
  H  H67  1  0.49422667  0.28243356  0.07355448  1
  H  H68  1  0.01018256  0.32926435  0.52909186  1
  H  H69  1  0.48981744  0.82926435  0.97090814  1
  H  H70  1  0.98981744  0.67073565  0.47090814  1
  H  H71  1  0.51018256  0.17073565  0.02909186  1
  H  H72  1  0.86932187  0.30249860  0.58904320  1
  H  H73  1  0.63067813  0.80249860  0.91095680  1
  H  H74  1  0.13067813  0.69750140  0.41095680  1
  H  H75  1  0.36932187  0.19750140  0.08904320  1
  H  H76  1  0.65726505  0.11014223  0.42695501  1
  H  H77  1  0.84273495  0.61014223  0.07304499  1
  H  H78  1  0.34273495  0.88985777  0.57304499  1
  H  H79  1  0.15726505  0.38985777  0.92695501  1
  H  H80  1  0.77879465  0.08435980  0.51127806  1
  H  H81  1  0.72120535  0.58435980  0.98872194  1
  H  H82  1  0.22120535  0.91564020  0.48872194  1
  H  H83  1  0.27879465  0.41564020  0.01127806  1
  H  H84  1  0.65026488  0.16770932  0.52470719  1
  H  H85  1  0.84973512  0.66770932  0.97529281  1
  H  H86  1  0.34973512  0.83229068  0.47529281  1
  H  H87  1  0.15026488  0.33229068  0.02470719  1
  H  H88  1  0.01143325  0.17520500  0.16379619  1
  H  H89  1  0.48856675  0.67520500  0.33620381  1
  H  H90  1  0.98856675  0.82479500  0.83620381  1
  H  H91  1  0.51143325  0.32479500  0.66379619  1
  H  H92  1  0.12091489  0.09758629  0.22230725  1
  H  H93  1  0.37908511  0.59758629  0.27769275  1
  H  H94  1  0.87908511  0.90241371  0.77769275  1
  H  H95  1  0.62091489  0.40241371  0.72230725  1
  H  H96  1  0.98378050  0.05510845  0.15576655  1
  H  H97  1  0.51621950  0.55510845  0.34423345  1
  H  H98  1  0.01621950  0.94489155  0.84423345  1
  H  H99  1  0.48378050  0.44489155  0.65576655  1
  H  H100  1  0.64207616  0.12786230  0.28675485  1
  H  H101  1  0.85792384  0.62786230  0.21324515  1
  H  H102  1  0.35792384  0.87213770  0.71324515  1
  H  H103  1  0.14207616  0.37213770  0.78675485  1
  H  H104  1  0.71354655  0.19760464  0.20796580  1
  H  H105  1  0.78645345  0.69760464  0.29203420  1
  H  H106  1  0.28645345  0.80239536  0.79203420  1
  H  H107  1  0.21354655  0.30239536  0.70796580  1
  H  H108  1  0.69617656  0.07727436  0.19244688  1
  H  H109  1  0.80382344  0.57727436  0.30755312  1
  H  H110  1  0.30382344  0.92272564  0.80755312  1
  H  H111  1  0.19617656  0.42272564  0.69244688  1
  H  H112  1  0.00370744  0.97942561  0.36975011  1
  H  H113  1  0.49629256  0.47942561  0.13024989  1
  H  H114  1  0.99629256  0.02057439  0.63024989  1
  H  H115  1  0.50370744  0.52057439  0.86975011  1
  H  H116  1  0.82574646  0.98097234  0.38156230  1
  H  H117  1  0.67425354  0.48097234  0.11843770  1
  H  H118  1  0.17425354  0.01902766  0.61843770  1
  H  H119  1  0.32574646  0.51902766  0.88156230  1
  H  H120  1  0.89110860  0.93962587  0.28621370  1
  H  H121  1  0.60889140  0.43962587  0.21378630  1
  H  H122  1  0.10889140  0.06037413  0.71378630  1
  H  H123  1  0.39110860  0.56037413  0.78621370  1
  C  C124  1  0.27921027  0.33846078  0.26473490  1
  C  C125  1  0.22078973  0.83846078  0.23526510  1
  C  C126  1  0.72078973  0.66153922  0.73526510  1
  C  C127  1  0.77921027  0.16153922  0.76473490  1
  C  C128  1  0.11044952  0.44611578  0.38645723  1
  C  C129  1  0.38955048  0.94611578  0.11354277  1
  C  C130  1  0.88955048  0.55388422  0.61354277  1
  C  C131  1  0.61044952  0.05388422  0.88645723  1
  C  C132  1  0.97340843  0.36386149  0.22664263  1
  C  C133  1  0.52659157  0.86386149  0.27335737  1
  C  C134  1  0.02659157  0.63613851  0.77335737  1
  C  C135  1  0.47340843  0.13613851  0.72664263  1
  C  C136  1  0.72023695  0.33444922  0.40946096  1
  C  C137  1  0.77976305  0.83444922  0.09053904  1
  C  C138  1  0.27976305  0.66555078  0.59053904  1
  C  C139  1  0.22023695  0.16555078  0.90946096  1
  C  C140  1  0.93806737  0.27477852  0.54266384  1
  C  C141  1  0.56193263  0.77477852  0.95733616  1
  C  C142  1  0.06193263  0.72522148  0.45733616  1
  C  C143  1  0.43806737  0.22522148  0.04266384  1
  C  C144  1  0.72036290  0.13967304  0.47930140  1
  C  C145  1  0.77963710  0.63967304  0.02069860  1
  C  C146  1  0.27963710  0.86032696  0.52069860  1
  C  C147  1  0.22036290  0.36032696  0.97930140  1
  C  C148  1  0.01583856  0.11090532  0.19975028  1
  C  C149  1  0.48416144  0.61090532  0.30024972  1
  C  C150  1  0.98416144  0.88909468  0.80024972  1
  C  C151  1  0.51583856  0.38909468  0.69975028  1
  C  C152  1  0.72038109  0.13082824  0.24036609  1
  C  C153  1  0.77961891  0.63082824  0.25963391  1
  C  C154  1  0.27961891  0.86917176  0.75963391  1
  C  C155  1  0.22038109  0.36917176  0.74036609  1
  C  C156  1  0.90473274  0.99183697  0.33661877  1
  C  C157  1  0.59526726  0.49183697  0.16338123  1
  C  C158  1  0.09526726  0.00816303  0.66338123  1
  C  C159  1  0.40473274  0.50816303  0.83661877  1
  N  N160  1  0.07473835  0.23852205  0.36594920  1
  N  N161  1  0.42526165  0.73852205  0.13405080  1
  N  N162  1  0.92526165  0.76147795  0.63405080  1
  N  N163  1  0.57473835  0.26147795  0.86594920  1
  N  N164  1  0.93823463  0.19838101  0.36455322  1
  N  N165  1  0.56176537  0.69838101  0.13544678  1
  N  N166  1  0.06176537  0.80161899  0.63544678  1
  N  N167  1  0.43823463  0.30161899  0.86455322  1
  Cl  Cl168  1  0.31547377  0.26436692  0.48663107  1
  Cl  Cl169  1  0.18452623  0.76436692  0.01336893  1
  Cl  Cl170  1  0.68452623  0.73563308  0.51336893  1
  Cl  Cl171  1  0.81547377  0.23563308  0.98663107  1
  Cl  Cl172  1  0.31811775  0.10585242  0.35084482  1
  Cl  Cl173  1  0.18188225  0.60585242  0.14915518  1
  Cl  Cl174  1  0.68188225  0.89414758  0.64915518  1
  Cl  Cl175  1  0.81811775  0.39414758  0.85084482  1
