# generated using pymatgen
data_NdCO4
_symmetry_space_group_name_H-M   'P 1'
_cell_length_a   12.58602492
_cell_length_b   12.58602492
_cell_length_c   9.93310000
_cell_angle_alpha   90.00000000
_cell_angle_beta   90.00000000
_cell_angle_gamma   119.99999432
_symmetry_Int_Tables_number   1
_chemical_formula_structural   NdCO4
_chemical_formula_sum   'Nd18 C18 O72'
_cell_volume   1362.67609964
_cell_formula_units_Z   18
loop_
 _symmetry_equiv_pos_site_id
 _symmetry_equiv_pos_as_xyz
  1  'x, y, z'
loop_
 _atom_site_type_symbol
 _atom_site_label
 _atom_site_symmetry_multiplicity
 _atom_site_fract_x
 _atom_site_fract_y
 _atom_site_fract_z
 _atom_site_occupancy
  Nd  Nd0  1  0.12017400  0.89039200  0.25194600  1
  Nd  Nd1  1  0.77021800  0.87982600  0.25194600  1
  Nd  Nd2  1  0.10960800  0.22978200  0.25194600  1
  Nd  Nd3  1  0.12017400  0.89039200  0.74805400  1
  Nd  Nd4  1  0.77021800  0.87982600  0.74805400  1
  Nd  Nd5  1  0.10960800  0.22978200  0.74805400  1
  Nd  Nd6  1  0.43771900  0.22011600  0.24254500  1
  Nd  Nd7  1  0.78239700  0.56228100  0.24254500  1
  Nd  Nd8  1  0.77988400  0.21760300  0.24254500  1
  Nd  Nd9  1  0.43771900  0.22011600  0.75745500  1
  Nd  Nd10  1  0.78239700  0.56228100  0.75745500  1
  Nd  Nd11  1  0.77988400  0.21760300  0.75745500  1
  Nd  Nd12  1  0.10074100  0.55316300  0.25320700  1
  Nd  Nd13  1  0.45242200  0.89925900  0.25320700  1
  Nd  Nd14  1  0.44683700  0.54757800  0.25320700  1
  Nd  Nd15  1  0.10074100  0.55316300  0.74679300  1
  Nd  Nd16  1  0.45242200  0.89925900  0.74679300  1
  Nd  Nd17  1  0.44683700  0.54757800  0.74679300  1
  C  C18  1  0.64556300  0.13938400  0.50000000  1
  C  C19  1  0.49382100  0.35443700  0.50000000  1
  C  C20  1  0.86061600  0.50617900  0.50000000  1
  C  C21  1  0.19188700  0.16314800  0.50000000  1
  C  C22  1  0.97126000  0.80811300  0.50000000  1
  C  C23  1  0.83685200  0.02874000  0.50000000  1
  C  C24  1  0.17168000  0.70149700  0.50000000  1
  C  C25  1  0.52981600  0.82832000  0.50000000  1
  C  C26  1  0.29850300  0.47018400  0.50000000  1
  C  C27  1  0.57736400  0.13108900  0.00000000  1
  C  C28  1  0.55372500  0.42263600  0.00000000  1
  C  C29  1  0.86891100  0.44627500  0.00000000  1
  C  C30  1  0.31218500  0.84179200  0.00000000  1
  C  C31  1  0.52960600  0.68781500  0.00000000  1
  C  C32  1  0.15820800  0.47039400  0.00000000  1
  C  C33  1  0.19953000  0.03277800  0.00000000  1
  C  C34  1  0.83324800  0.80047000  0.00000000  1
  C  C35  1  0.96722200  0.16675200  0.00000000  1
  O  O36  1  0.75040200  0.23993600  0.50000000  1
  O  O37  1  0.48953400  0.24959800  0.50000000  1
  O  O38  1  0.76006400  0.51046600  0.50000000  1
  O  O39  1  0.59613300  0.08996400  0.38583600  1
  O  O40  1  0.49383100  0.40386700  0.38583600  1
  O  O41  1  0.91003600  0.50616900  0.38583600  1
  O  O42  1  0.59613300  0.08996400  0.61416400  1
  O  O43  1  0.49383100  0.40386700  0.61416400  1
  O  O44  1  0.91003600  0.50616900  0.61416400  1
  O  O45  1  0.09348700  0.17297200  0.50000000  1
  O  O46  1  0.07948500  0.90651300  0.50000000  1
  O  O47  1  0.82702800  0.92051500  0.50000000  1
  O  O48  1  0.23881300  0.16071700  0.38511500  1
  O  O49  1  0.92190500  0.76118700  0.38511500  1
  O  O50  1  0.83928300  0.07809500  0.38511500  1
  O  O51  1  0.23881300  0.16071700  0.61488500  1
  O  O52  1  0.92190500  0.76118700  0.61488500  1
  O  O53  1  0.83928300  0.07809500  0.61488500  1
  O  O54  1  0.16077500  0.59298800  0.50000000  1
  O  O55  1  0.43221300  0.83922500  0.50000000  1
  O  O56  1  0.40701200  0.56778700  0.50000000  1
  O  O57  1  0.17467700  0.75120000  0.38547200  1
  O  O58  1  0.57652300  0.82532300  0.38547200  1
  O  O59  1  0.24880000  0.42347700  0.38547200  1
  O  O60  1  0.17467700  0.75120000  0.61452800  1
  O  O61  1  0.57652300  0.82532300  0.61452800  1
  O  O62  1  0.24880000  0.42347700  0.61452800  1
  O  O63  1  0.69594700  0.19106500  0.00000000  1
  O  O64  1  0.49511800  0.30405300  0.00000000  1
  O  O65  1  0.80893500  0.50488200  0.00000000  1
  O  O66  1  0.51917700  0.10152500  0.88615000  1
  O  O67  1  0.58234700  0.48082300  0.88615000  1
  O  O68  1  0.89847500  0.41765300  0.88615000  1
  O  O69  1  0.51917700  0.10152500  0.11385000  1
  O  O70  1  0.58234700  0.48082300  0.11385000  1
  O  O71  1  0.89847500  0.41765300  0.11385000  1
  O  O72  1  0.41925900  0.84933700  0.00000000  1
  O  O73  1  0.43007900  0.58074100  0.00000000  1
  O  O74  1  0.15066300  0.56992100  0.00000000  1
  O  O75  1  0.26240400  0.83962400  0.88565100  1
  O  O76  1  0.57722000  0.73759600  0.88565100  1
  O  O77  1  0.16037600  0.42278000  0.88565100  1
  O  O78  1  0.26240400  0.83962400  0.11434900  1
  O  O79  1  0.57722000  0.73759600  0.11434900  1
  O  O80  1  0.16037600  0.42278000  0.11434900  1
  O  O81  1  0.09973800  0.92688200  0.00000000  1
  O  O82  1  0.82714400  0.90026200  0.00000000  1
  O  O83  1  0.07311800  0.17285600  0.00000000  1
  O  O84  1  0.24812500  0.08232000  0.88607000  1
  O  O85  1  0.83419400  0.75187500  0.88607000  1
  O  O86  1  0.91768000  0.16580600  0.88607000  1
  O  O87  1  0.24812500  0.08232000  0.11393000  1
  O  O88  1  0.83419400  0.75187500  0.11393000  1
  O  O89  1  0.91768000  0.16580600  0.11393000  1
  O  O90  1  0.00000000  0.00000000  0.24586200  1
  O  O91  1  0.00000000  0.00000000  0.75413800  1
  O  O92  1  0.66666700  0.33333300  0.25266100  1
  O  O93  1  0.66666700  0.33333300  0.74733900  1
  O  O94  1  0.33333300  0.66666700  0.24939400  1
  O  O95  1  0.33333300  0.66666700  0.75060600  1
  O  O96  1  0.00474500  0.67346900  0.19166200  1
  O  O97  1  0.66872400  0.99525500  0.19166200  1
  O  O98  1  0.32653100  0.33127600  0.19166200  1
  O  O99  1  0.00474500  0.67346900  0.80833800  1
  O  O100  1  0.66872400  0.99525500  0.80833800  1
  O  O101  1  0.32653100  0.33127600  0.80833800  1
  O  O102  1  0.99520200  0.33579700  0.30652400  1
  O  O103  1  0.34059500  0.00479800  0.30652400  1
  O  O104  1  0.66420300  0.65940500  0.30652400  1
  O  O105  1  0.99520200  0.33579700  0.69347600  1
  O  O106  1  0.34059500  0.00479800  0.69347600  1
  O  O107  1  0.66420300  0.65940500  0.69347600  1
