# generated using pymatgen
data_MnSe3O8
_symmetry_space_group_name_H-M   'P 1'
_cell_length_a   13.01829300
_cell_length_b   7.20357600
_cell_length_c   10.25053305
_cell_angle_alpha   47.81984161
_cell_angle_beta   90.00000000
_cell_angle_gamma   90.00000000
_symmetry_Int_Tables_number   1
_chemical_formula_structural   MnSe3O8
_chemical_formula_sum   'Mn4 Se12 O32'
_cell_volume   712.34212410
_cell_formula_units_Z   4
loop_
 _symmetry_equiv_pos_site_id
 _symmetry_equiv_pos_as_xyz
  1  'x, y, z'
loop_
 _atom_site_type_symbol
 _atom_site_label
 _atom_site_symmetry_multiplicity
 _atom_site_fract_x
 _atom_site_fract_y
 _atom_site_fract_z
 _atom_site_occupancy
  Mn  Mn0  1  0.82773000  0.87375800  0.93862700  1
  Mn  Mn1  1  0.67227000  0.87375800  0.43862700  1
  Mn  Mn2  1  0.17227000  0.12624200  0.06137300  1
  Mn  Mn3  1  0.32773000  0.12624200  0.56137300  1
  Se  Se4  1  0.69530700  0.33232900  0.55507900  1
  Se  Se5  1  0.80469300  0.33232900  0.05507900  1
  Se  Se6  1  0.30469300  0.66767100  0.44492100  1
  Se  Se7  1  0.19530700  0.66767100  0.94492100  1
  Se  Se8  1  0.86312000  0.99585400  0.56556700  1
  Se  Se9  1  0.63688000  0.99585400  0.06556700  1
  Se  Se10  1  0.13688000  0.00414600  0.43443300  1
  Se  Se11  1  0.36312000  0.00414600  0.93443300  1
  Se  Se12  1  0.99183200  0.68294000  0.24496500  1
  Se  Se13  1  0.50816800  0.68294000  0.74496500  1
  Se  Se14  1  0.00816800  0.31706000  0.75503500  1
  Se  Se15  1  0.49183200  0.31706000  0.25503500  1
  O  O16  1  0.75012700  0.57855700  0.01798800  1
  O  O17  1  0.74987300  0.57855700  0.51798800  1
  O  O18  1  0.24987300  0.42144300  0.98201200  1
  O  O19  1  0.25012700  0.42144300  0.48201200  1
  O  O20  1  0.70958000  0.07711400  0.77612200  1
  O  O21  1  0.79042000  0.07711400  0.27612200  1
  O  O22  1  0.29042000  0.92288600  0.22387800  1
  O  O23  1  0.20958000  0.92288600  0.72387800  1
  O  O24  1  0.90319200  0.89010800  0.76605600  1
  O  O25  1  0.59680800  0.89010800  0.26605600  1
  O  O26  1  0.09680800  0.10989200  0.23394400  1
  O  O27  1  0.40319200  0.10989200  0.73394400  1
  O  O28  1  0.74885100  0.82955000  0.12256300  1
  O  O29  1  0.75114900  0.82955000  0.62256300  1
  O  O30  1  0.25114900  0.17045000  0.87743700  1
  O  O31  1  0.24885100  0.17045000  0.37743700  1
  O  O32  1  0.43219600  0.34703000  0.39769600  1
  O  O33  1  0.06780400  0.34703000  0.89769600  1
  O  O34  1  0.56780400  0.65297000  0.60230400  1
  O  O35  1  0.93219600  0.65297000  0.10230400  1
  O  O36  1  0.10624700  0.84490600  0.11520400  1
  O  O37  1  0.39375300  0.84490600  0.61520400  1
  O  O38  1  0.89375300  0.15509400  0.88479600  1
  O  O39  1  0.60624700  0.15509400  0.38479600  1
  O  O40  1  0.53331100  0.61018600  0.10520000  1
  O  O41  1  0.96668900  0.61018600  0.60520000  1
  O  O42  1  0.46668900  0.38981400  0.89480000  1
  O  O43  1  0.03331100  0.38981400  0.39480000  1
  O  O44  1  0.30837200  0.69982600  0.03548700  1
  O  O45  1  0.19162800  0.69982600  0.53548700  1
  O  O46  1  0.69162800  0.30017400  0.96451300  1
  O  O47  1  0.80837200  0.30017400  0.46451300  1
