# generated using pymatgen
data_FeP2O9
_symmetry_space_group_name_H-M   'P 1'
_cell_length_a   9.26045587
_cell_length_b   9.26045587
_cell_length_c   17.12525800
_cell_angle_alpha   90.00000000
_cell_angle_beta   90.00000000
_cell_angle_gamma   119.99999909
_symmetry_Int_Tables_number   1
_chemical_formula_structural   FeP2O9
_chemical_formula_sum   'Fe6 P12 O54'
_cell_volume   1271.84003613
_cell_formula_units_Z   6
loop_
 _symmetry_equiv_pos_site_id
 _symmetry_equiv_pos_as_xyz
  1  'x, y, z'
loop_
 _atom_site_type_symbol
 _atom_site_label
 _atom_site_symmetry_multiplicity
 _atom_site_fract_x
 _atom_site_fract_y
 _atom_site_fract_z
 _atom_site_occupancy
  Fe  Fe0  1  0.00000000  0.00000000  0.49716700  1
  Fe  Fe1  1  0.00000000  0.00000000  0.99716700  1
  Fe  Fe2  1  0.66666700  0.33333300  0.29405700  1
  Fe  Fe3  1  0.33333300  0.66666700  0.79405700  1
  Fe  Fe4  1  0.66666700  0.33333300  0.57576600  1
  Fe  Fe5  1  0.33333300  0.66666700  0.07576600  1
  P  P6  1  0.89021300  0.26844000  0.43802600  1
  P  P7  1  0.37822700  0.10978700  0.43802600  1
  P  P8  1  0.73156000  0.62177300  0.43802600  1
  P  P9  1  0.62177300  0.73156000  0.93802600  1
  P  P10  1  0.26844000  0.89021300  0.93802600  1
  P  P11  1  0.10978700  0.37822700  0.93802600  1
  P  P12  1  0.56273500  0.53324300  0.16353600  1
  P  P13  1  0.97050800  0.43726500  0.16353600  1
  P  P14  1  0.46675700  0.02949200  0.16353600  1
  P  P15  1  0.02949200  0.46675700  0.66353600  1
  P  P16  1  0.53324300  0.56273500  0.66353600  1
  P  P17  1  0.43726500  0.97050800  0.66353600  1
  O  O18  1  0.78587500  0.24185800  0.51152500  1
  O  O19  1  0.45598300  0.21412500  0.51152500  1
  O  O20  1  0.75814200  0.54401700  0.51152500  1
  O  O21  1  0.54401700  0.75814200  0.01152500  1
  O  O22  1  0.24185800  0.78587500  0.01152500  1
  O  O23  1  0.21412500  0.45598300  0.01152500  1
  O  O24  1  0.95174600  0.14110300  0.43174500  1
  O  O25  1  0.18935700  0.04825400  0.43174500  1
  O  O26  1  0.85889700  0.81064300  0.43174500  1
  O  O27  1  0.81064300  0.85889700  0.93174500  1
  O  O28  1  0.14110300  0.95174600  0.93174500  1
  O  O29  1  0.04825400  0.18935700  0.93174500  1
  O  O30  1  0.04008200  0.44982800  0.43719400  1
  O  O31  1  0.40974600  0.95991800  0.43719400  1
  O  O32  1  0.55017200  0.59025400  0.43719400  1
  O  O33  1  0.59025400  0.55017200  0.93719400  1
  O  O34  1  0.44982800  0.04008200  0.93719400  1
  O  O35  1  0.95991800  0.40974600  0.93719400  1
  O  O36  1  0.79755700  0.26003400  0.36217200  1
  O  O37  1  0.46247700  0.20244300  0.36217200  1
  O  O38  1  0.73996600  0.53752300  0.36217200  1
  O  O39  1  0.53752300  0.73996600  0.86217200  1
  O  O40  1  0.26003400  0.79755700  0.86217200  1
  O  O41  1  0.20244300  0.46247700  0.86217200  1
  O  O42  1  0.53916500  0.40945600  0.22834300  1
  O  O43  1  0.87029200  0.46083500  0.22834300  1
  O  O44  1  0.59054400  0.12970800  0.22834300  1
  O  O45  1  0.12970800  0.59054400  0.72834300  1
  O  O46  1  0.40945600  0.53916500  0.72834300  1
  O  O47  1  0.46083500  0.87029200  0.72834300  1
  O  O48  1  0.70650800  0.71165200  0.18382900  1
  O  O49  1  0.00514400  0.29349200  0.18382900  1
  O  O50  1  0.28834800  0.99485600  0.18382900  1
  O  O51  1  0.99485600  0.28834800  0.68382900  1
  O  O52  1  0.71165200  0.70650800  0.68382900  1
  O  O53  1  0.29349200  0.00514400  0.68382900  1
  O  O54  1  0.40177600  0.53649700  0.14859200  1
  O  O55  1  0.13472100  0.59822400  0.14859200  1
  O  O56  1  0.46350300  0.86527900  0.14859200  1
  O  O57  1  0.86527900  0.46350300  0.64859200  1
  O  O58  1  0.53649700  0.40177600  0.64859200  1
  O  O59  1  0.59822400  0.13472100  0.64859200  1
  O  O60  1  0.63331900  0.49911300  0.08802900  1
  O  O61  1  0.86579400  0.36668100  0.08802900  1
  O  O62  1  0.50088700  0.13420600  0.08802900  1
  O  O63  1  0.13420600  0.50088700  0.58802900  1
  O  O64  1  0.49911300  0.63331900  0.58802900  1
  O  O65  1  0.36668100  0.86579400  0.58802900  1
  O  O66  1  0.11924900  0.14868100  0.56862800  1
  O  O67  1  0.02943200  0.88075100  0.56862800  1
  O  O68  1  0.85131900  0.97056800  0.56862800  1
  O  O69  1  0.97056800  0.85131900  0.06862800  1
  O  O70  1  0.14868100  0.11924900  0.06862800  1
  O  O71  1  0.88075100  0.02943200  0.06862800  1
