# generated using pymatgen
data_GeH10Se3N4
_symmetry_space_group_name_H-M   'P 1'
_cell_length_a   14.34010958
_cell_length_b   14.34010958
_cell_length_c   14.34010958
_cell_angle_alpha   126.36483443
_cell_angle_beta   126.36483443
_cell_angle_gamma   79.28933387
_symmetry_Int_Tables_number   1
_chemical_formula_structural   GeH10Se3N4
_chemical_formula_sum   'Ge8 H80 Se24 N32'
_cell_volume   1848.68058972
_cell_formula_units_Z   8
loop_
 _symmetry_equiv_pos_site_id
 _symmetry_equiv_pos_as_xyz
  1  'x, y, z'
loop_
 _atom_site_type_symbol
 _atom_site_label
 _atom_site_symmetry_multiplicity
 _atom_site_fract_x
 _atom_site_fract_y
 _atom_site_fract_z
 _atom_site_occupancy
  Ge  Ge0  1  0.53937100  0.03937100  0.50000000  1
  Ge  Ge1  1  0.03937100  0.53937100  0.50000000  1
  Ge  Ge2  1  0.78937100  0.78937100  0.00000000  1
  Ge  Ge3  1  0.28937100  0.28937100  0.00000000  1
  Ge  Ge4  1  0.68865300  0.18865300  0.50000000  1
  Ge  Ge5  1  0.18865300  0.68865300  0.50000000  1
  Ge  Ge6  1  0.93865300  0.93865300  0.00000000  1
  Ge  Ge7  1  0.43865300  0.43865300  0.00000000  1
  H  H8  1  0.43157400  0.42899900  0.53247300  1
  H  H9  1  0.39652600  0.92899900  0.99742400  1
  H  H10  1  0.64910200  0.68157400  0.50257600  1
  H  H11  1  0.14910200  0.64652600  0.96752700  1
  H  H12  1  0.89652600  0.89910200  0.46752700  1
  H  H13  1  0.93157400  0.39910200  0.00257600  1
  H  H14  1  0.17899900  0.14652600  0.49742400  1
  H  H15  1  0.67899900  0.18157400  0.03247300  1
  H  H16  1  0.66401000  0.65932500  0.17594800  1
  H  H17  1  0.98337700  0.15932500  0.99531600  1
  H  H18  1  0.23806100  0.91401000  0.50468400  1
  H  H19  1  0.73806100  0.23337700  0.32405200  1
  H  H20  1  0.48337700  0.48806100  0.82405200  1
  H  H21  1  0.16401000  0.98806100  0.00468400  1
  H  H22  1  0.40932500  0.73337700  0.49531600  1
  H  H23  1  0.90932500  0.41401000  0.67594800  1
  H  H24  1  0.29187300  0.24944600  0.35718900  1
  H  H25  1  0.39225700  0.74944600  0.95757300  1
  H  H26  1  0.68468400  0.54187300  0.54242700  1
  H  H27  1  0.18468400  0.64225700  0.14281100  1
  H  H28  1  0.89225700  0.93468400  0.64281100  1
  H  H29  1  0.79187300  0.43468400  0.04242700  1
  H  H30  1  0.99944600  0.14225700  0.45757300  1
  H  H31  1  0.49944600  0.04187300  0.85718900  1
  H  H32  1  0.72528400  0.73200000  0.15591200  1
  H  H33  1  0.07608800  0.23200000  0.00671600  1
  H  H34  1  0.31937200  0.97528400  0.49328400  1
  H  H35  1  0.81937200  0.32608800  0.34408800  1
  H  H36  1  0.57608800  0.56937200  0.84408800  1
  H  H37  1  0.22528400  0.06937200  0.99328400  1
  H  H38  1  0.48200000  0.82608800  0.50671600  1
  H  H39  1  0.98200000  0.47528400  0.65591200  1
  H  H40  1  0.67774600  0.84093600  0.36235800  1
  H  H41  1  0.97857800  0.34093600  0.16319000  1
  H  H42  1  0.06538800  0.92774600  0.33681000  1
  H  H43  1  0.56538800  0.22857800  0.13764200  1
  H  H44  1  0.47857800  0.31538800  0.63764200  1
  H  H45  1  0.17774600  0.81538800  0.83681000  1
  H  H46  1  0.59093600  0.72857800  0.66319000  1
  H  H47  1  0.09093600  0.42774600  0.86235800  1
  H  H48  1  0.23508100  0.36384300  0.42053500  1
  H  H49  1  0.44330700  0.86384300  0.12876100  1
  H  H50  1  0.56454600  0.48508100  0.37123900  1
  H  H51  1  0.06454600  0.69330700  0.07946500  1
  H  H52  1  0.94330700  0.81454600  0.57946500  1
  H  H53  1  0.73508100  0.31454600  0.87123900  1
  H  H54  1  0.11384300  0.19330700  0.62876100  1
  H  H55  1  0.61384300  0.98508100  0.92053500  1
  H  H56  1  0.33739100  0.47586400  0.42367800  1
  H  H57  1  0.55218600  0.97586400  0.13847300  1
  H  H58  1  0.66371400  0.58739100  0.36152700  1
  H  H59  1  0.16371400  0.80218600  0.07632200  1
  H  H60  1  0.05218600  0.91371400  0.57632200  1
  H  H61  1  0.83739100  0.41371400  0.86152700  1
  H  H62  1  0.22586400  0.30218600  0.63847300  1
  H  H63  1  0.72586400  0.08739100  0.92367800  1
  H  H64  1  0.71959600  0.91478400  0.33209600  1
  H  H65  1  0.08268800  0.41478400  0.19518800  1
  H  H66  1  0.13750000  0.96959600  0.30481200  1
  H  H67  1  0.63750000  0.33268800  0.16790400  1
  H  H68  1  0.58268800  0.38750000  0.66790400  1
  H  H69  1  0.21959600  0.88750000  0.80481200  1
  H  H70  1  0.66478400  0.83268800  0.69518800  1
  H  H71  1  0.16478400  0.46959600  0.83209600  1
  H  H72  1  0.39430800  0.35903600  0.36069300  1
  H  H73  1  0.49834400  0.85903600  0.96472800  1
  H  H74  1  0.78361500  0.64430800  0.53527200  1
  H  H75  1  0.28361500  0.74834400  0.13930700  1
  H  H76  1  0.99834400  0.03361500  0.63930700  1
  H  H77  1  0.89430800  0.53361500  0.03527200  1
  H  H78  1  0.10903600  0.24834400  0.46472800  1
  H  H79  1  0.60903600  0.14430800  0.86069300  1
  H  H80  1  0.58455400  0.74363300  0.11582800  1
  H  H81  1  0.12780500  0.24363300  0.15907900  1
  H  H82  1  0.21872600  0.83455400  0.34092100  1
  H  H83  1  0.71872600  0.37780500  0.38417200  1
  H  H84  1  0.62780500  0.46872600  0.88417200  1
  H  H85  1  0.08455400  0.96872600  0.84092100  1
  H  H86  1  0.49363300  0.87780500  0.65907900  1
  H  H87  1  0.99363300  0.33455400  0.61582800  1
  Se  Se88  1  0.75467900  0.12079000  0.64722400  1
  Se  Se89  1  0.97356700  0.62079000  0.36611100  1
  Se  Se90  1  0.85745500  0.00467900  0.13388900  1
  Se  Se91  1  0.35745500  0.22356700  0.85277600  1
  Se  Se92  1  0.47356700  0.10745500  0.35277600  1
  Se  Se93  1  0.25467900  0.60745500  0.63388900  1
  Se  Se94  1  0.87079000  0.72356700  0.86611100  1
  Se  Se95  1  0.37079000  0.50467900  0.14722400  1
  Se  Se96  1  0.74987600  0.09035400  0.35118200  1
  Se  Se97  1  0.23917200  0.59035400  0.34047800  1
  Se  Se98  1  0.14869400  0.99987600  0.15952200  1
  Se  Se99  1  0.64869400  0.48917200  0.14881800  1
  Se  Se100  1  0.73917200  0.39869400  0.64881800  1
  Se  Se101  1  0.24987600  0.89869400  0.65952200  1
  Se  Se102  1  0.84035400  0.98917200  0.84047800  1
  Se  Se103  1  0.34035400  0.49987600  0.85118200  1
  Se  Se104  1  0.47602700  0.13884600  0.64667300  1
  Se  Se105  1  0.99217200  0.63884600  0.66281900  1
  Se  Se106  1  0.57935300  0.72602700  0.83718100  1
  Se  Se107  1  0.07935300  0.24217200  0.85332700  1
  Se  Se108  1  0.49217200  0.82935300  0.35332700  1
  Se  Se109  1  0.97602700  0.32935300  0.33718100  1
  Se  Se110  1  0.88884600  0.74217200  0.16281900  1
  Se  Se111  1  0.38884600  0.22602700  0.14667300  1
  N  N112  1  0.72888600  0.84195100  0.33394000  1
  N  N113  1  0.00801100  0.34195100  0.11306400  1
  N  N114  1  0.14494700  0.97888600  0.38693600  1
  N  N115  1  0.64494700  0.25801100  0.16606000  1
  N  N116  1  0.50801100  0.39494700  0.66606000  1
  N  N117  1  0.22888600  0.89494700  0.88693600  1
  N  N118  1  0.59195100  0.75801100  0.61306400  1
  N  N119  1  0.09195100  0.47888600  0.83394000  1
  N  N120  1  0.26178600  0.31973400  0.35490300  1
  N  N121  1  0.46483100  0.81973400  0.05794700  1
  N  N122  1  0.65688400  0.51178600  0.44205300  1
  N  N123  1  0.15688400  0.71483100  0.14509700  1
  N  N124  1  0.96483100  0.90688400  0.64509700  1
  N  N125  1  0.76178600  0.40688400  0.94205300  1
  N  N126  1  0.06973400  0.21483100  0.55794700  1
  N  N127  1  0.56973400  0.01178600  0.85490300  1
  N  N128  1  0.67005200  0.73677800  0.18400000  1
  N  N129  1  0.05277800  0.23677800  0.06672600  1
  N  N130  1  0.23605200  0.92005200  0.43327400  1
  N  N131  1  0.73605200  0.30277800  0.31600000  1
  N  N132  1  0.55277800  0.48605200  0.81600000  1
  N  N133  1  0.17005200  0.98605200  0.93327400  1
  N  N134  1  0.48677800  0.80277800  0.56672600  1
  N  N135  1  0.98677800  0.42005200  0.68400000  1
  N  N136  1  0.36509400  0.40292900  0.42560900  1
  N  N137  1  0.47732000  0.90292900  0.03783500  1
  N  N138  1  0.68948500  0.61509400  0.46216500  1
  N  N139  1  0.18948500  0.72732000  0.07439100  1
  N  N140  1  0.97732000  0.93948500  0.57439100  1
  N  N141  1  0.86509400  0.43948500  0.96216500  1
  N  N142  1  0.15292900  0.22732000  0.53783500  1
  N  N143  1  0.65292900  0.11509400  0.92560900  1
