# generated using pymatgen
data_LaB5IO11
_symmetry_space_group_name_H-M   'P 1'
_cell_length_a   15.89062800
_cell_length_b   6.56171100
_cell_length_c   11.84333552
_cell_angle_alpha   58.41039889
_cell_angle_beta   90.00000000
_cell_angle_gamma   90.00000000
_symmetry_Int_Tables_number   1
_chemical_formula_structural   LaB5IO11
_chemical_formula_sum   'La4 B20 I4 O44'
_cell_volume   1051.91598746
_cell_formula_units_Z   4
loop_
 _symmetry_equiv_pos_site_id
 _symmetry_equiv_pos_as_xyz
  1  'x, y, z'
loop_
 _atom_site_type_symbol
 _atom_site_label
 _atom_site_symmetry_multiplicity
 _atom_site_fract_x
 _atom_site_fract_y
 _atom_site_fract_z
 _atom_site_occupancy
  La  La0  1  0.83489800  0.54841300  0.30041300  1
  La  La1  1  0.66510200  0.54841300  0.80041300  1
  La  La2  1  0.16510200  0.45158700  0.69958700  1
  La  La3  1  0.33489800  0.45158700  0.19958700  1
  B  B4  1  0.04688900  0.43595500  0.36702100  1
  B  B5  1  0.45311100  0.43595500  0.86702100  1
  B  B6  1  0.95311100  0.56404500  0.63297900  1
  B  B7  1  0.54688900  0.56404500  0.13297900  1
  B  B8  1  0.84286300  0.83366800  0.49736500  1
  B  B9  1  0.65713700  0.83366800  0.99736500  1
  B  B10  1  0.15713700  0.16633200  0.50263500  1
  B  B11  1  0.34286300  0.16633200  0.00263500  1
  B  B12  1  0.77910800  0.11751200  0.27338900  1
  B  B13  1  0.72089200  0.11751200  0.77338900  1
  B  B14  1  0.22089200  0.88248800  0.72661100  1
  B  B15  1  0.27910800  0.88248800  0.22661100  1
  B  B16  1  0.71373700  0.01003700  0.12685100  1
  B  B17  1  0.78626300  0.01003700  0.62685100  1
  B  B18  1  0.28626300  0.98996300  0.87314900  1
  B  B19  1  0.21373700  0.98996300  0.37314900  1
  B  B20  1  0.17904500  0.59489700  0.39987200  1
  B  B21  1  0.32095500  0.59489700  0.89987200  1
  B  B22  1  0.82095500  0.40510300  0.60012800  1
  B  B23  1  0.67904500  0.40510300  0.10012800  1
  I  I24  1  0.54345700  0.31020000  0.45257900  1
  I  I25  1  0.95654300  0.31020000  0.95257900  1
  I  I26  1  0.45654300  0.68980000  0.54742100  1
  I  I27  1  0.04345700  0.68980000  0.04742100  1
  O  O28  1  0.75271600  0.94344900  0.24785600  1
  O  O29  1  0.74728400  0.94344900  0.74785600  1
  O  O30  1  0.24728400  0.05655100  0.75214400  1
  O  O31  1  0.25271600  0.05655100  0.25214400  1
  O  O32  1  0.75217400  0.35010800  0.19473800  1
  O  O33  1  0.74782600  0.35010800  0.69473800  1
  O  O34  1  0.24782600  0.64989200  0.80526200  1
  O  O35  1  0.25217400  0.64989200  0.30526200  1
  O  O36  1  0.81355000  0.63847700  0.48006700  1
  O  O37  1  0.68645000  0.63847700  0.98006700  1
  O  O38  1  0.18645000  0.36152300  0.51993300  1
  O  O39  1  0.31355000  0.36152300  0.01993300  1
  O  O40  1  0.83181300  0.07099800  0.37402100  1
  O  O41  1  0.66818700  0.07099800  0.87402100  1
  O  O42  1  0.16818700  0.92900200  0.62597900  1
  O  O43  1  0.33181300  0.92900200  0.12597900  1
  O  O44  1  0.71430800  0.83236700  0.10115200  1
  O  O45  1  0.78569200  0.83236700  0.60115200  1
  O  O46  1  0.28569200  0.16763300  0.89884800  1
  O  O47  1  0.21430800  0.16763300  0.39884800  1
  O  O48  1  0.10163600  0.62773000  0.32819000  1
  O  O49  1  0.39836400  0.62773000  0.82819000  1
  O  O50  1  0.89836400  0.37227000  0.67181000  1
  O  O51  1  0.60163600  0.37227000  0.17181000  1
  O  O52  1  0.81542400  0.23857900  0.54793700  1
  O  O53  1  0.68457600  0.23857900  0.04793700  1
  O  O54  1  0.18457600  0.76142100  0.45206300  1
  O  O55  1  0.31542400  0.76142100  0.95206300  1
  O  O56  1  0.07138500  0.20567300  0.45609100  1
  O  O57  1  0.42861500  0.20567300  0.95609100  1
  O  O58  1  0.92861500  0.79432700  0.54390900  1
  O  O59  1  0.57138500  0.79432700  0.04390900  1
  O  O60  1  0.96952100  0.48851100  0.30450500  1
  O  O61  1  0.53047900  0.48851100  0.80450500  1
  O  O62  1  0.03047900  0.51148900  0.69549500  1
  O  O63  1  0.46952100  0.51148900  0.19549500  1
  O  O64  1  0.93675100  0.64952500  0.00034400  1
  O  O65  1  0.56324900  0.64952500  0.50034400  1
  O  O66  1  0.06324900  0.35047500  0.99965600  1
  O  O67  1  0.43675100  0.35047500  0.49965600  1
  O  O68  1  0.90832400  0.06592200  0.10419000  1
  O  O69  1  0.59167600  0.06592200  0.60419000  1
  O  O70  1  0.09167600  0.93407800  0.89581000  1
  O  O71  1  0.40832400  0.93407800  0.39581000  1
