# generated using pymatgen
data_Cu6MoC20S4N5Cl9
_symmetry_space_group_name_H-M   'P 1'
_cell_length_a   10.61632171
_cell_length_b   10.61632171
_cell_length_c   19.60376300
_cell_angle_alpha   90.00000000
_cell_angle_beta   90.00000000
_cell_angle_gamma   120.65248964
_symmetry_Int_Tables_number   1
_chemical_formula_structural   Cu6MoC20S4N5Cl9
_chemical_formula_sum   'Cu12 Mo2 C40 S8 N10 Cl18'
_cell_volume   1900.75022505
_cell_formula_units_Z   2
loop_
 _symmetry_equiv_pos_site_id
 _symmetry_equiv_pos_as_xyz
  1  'x, y, z'
loop_
 _atom_site_type_symbol
 _atom_site_label
 _atom_site_symmetry_multiplicity
 _atom_site_fract_x
 _atom_site_fract_y
 _atom_site_fract_z
 _atom_site_occupancy
  Cu  Cu0  1  0.00094900  0.24132200  0.06027000  1
  Cu  Cu1  1  0.24132200  0.00094900  0.06027000  1
  Cu  Cu2  1  0.76041000  0.76041000  0.05954100  1
  Cu  Cu3  1  0.99905100  0.75867800  0.56027000  1
  Cu  Cu4  1  0.75867800  0.99905100  0.56027000  1
  Cu  Cu5  1  0.23959000  0.23959000  0.55954100  1
  Cu  Cu6  1  0.79529800  0.00094800  0.20231800  1
  Cu  Cu7  1  0.20673700  0.20673700  0.20195400  1
  Cu  Cu8  1  0.00094800  0.79529800  0.20231800  1
  Cu  Cu9  1  0.20470200  0.99905200  0.70231800  1
  Cu  Cu10  1  0.79326300  0.79326300  0.70195400  1
  Cu  Cu11  1  0.99905200  0.20470200  0.70231800  1
  Mo  Mo12  1  0.99996000  0.99996000  0.12201700  1
  Mo  Mo13  1  0.00004000  0.00004000  0.62201700  1
  C  C14  1  0.98581900  0.33382800  0.43052100  1
  C  C15  1  0.33382800  0.98581900  0.43052100  1
  C  C16  1  0.63580200  0.63580200  0.42892700  1
  C  C17  1  0.01418100  0.66617200  0.93052100  1
  C  C18  1  0.66617200  0.01418100  0.93052100  1
  C  C19  1  0.36419800  0.36419800  0.92892700  1
  C  C20  1  0.99796200  0.23508600  0.37944300  1
  C  C21  1  0.23508600  0.99796200  0.37944300  1
  C  C22  1  0.76030000  0.76030000  0.39091400  1
  C  C23  1  0.00203800  0.76491400  0.87944300  1
  C  C24  1  0.76491400  0.00203800  0.87944300  1
  C  C25  1  0.23970000  0.23970000  0.89091400  1
  C  C26  1  0.89922400  0.33520200  0.37086900  1
  C  C27  1  0.43655100  0.10128400  0.38162500  1
  C  C28  1  0.66405200  0.56375800  0.37021700  1
  C  C29  1  0.33520200  0.89922400  0.37086900  1
  C  C30  1  0.10128400  0.43655100  0.38162500  1
  C  C31  1  0.56375800  0.66405200  0.37021700  1
  C  C32  1  0.10077600  0.66479800  0.87086900  1
  C  C33  1  0.56344900  0.89871600  0.88162500  1
  C  C34  1  0.33594800  0.43624200  0.87021700  1
  C  C35  1  0.66479800  0.10077600  0.87086900  1
  C  C36  1  0.89871600  0.56344900  0.88162500  1
  C  C37  1  0.43624200  0.33594800  0.87021700  1
  C  C38  1  0.34019600  0.57023000  0.12300600  1
  C  C39  1  0.22984000  0.65782900  0.13029100  1
  C  C40  1  0.43131200  0.77076400  0.12751200  1
  C  C41  1  0.57023000  0.34019600  0.12300600  1
  C  C42  1  0.65782900  0.22984000  0.13029100  1
  C  C43  1  0.77076400  0.43131200  0.12751200  1
  C  C44  1  0.65980400  0.42977000  0.62300600  1
  C  C45  1  0.77016000  0.34217100  0.63029100  1
  C  C46  1  0.56868800  0.22923600  0.62751200  1
  C  C47  1  0.42977000  0.65980400  0.62300600  1
  C  C48  1  0.34217100  0.77016000  0.63029100  1
  C  C49  1  0.22923600  0.56868800  0.62751200  1
  C  C50  1  0.33765300  0.66164800  0.18046700  1
  C  C51  1  0.66164800  0.33765300  0.18046700  1
  C  C52  1  0.66234700  0.33835200  0.68046700  1
  C  C53  1  0.33835200  0.66234700  0.68046700  1
  S  S54  1  0.00009800  0.00009800  0.23821900  1
  S  S55  1  0.99990200  0.99990200  0.73821900  1
  S  S56  1  0.79857900  0.99998400  0.08503400  1
  S  S57  1  0.20297500  0.20297500  0.08481900  1
  S  S58  1  0.99998400  0.79857900  0.08503400  1
  S  S59  1  0.20142100  0.00001600  0.58503400  1
  S  S60  1  0.79702500  0.79702500  0.58481900  1
  S  S61  1  0.00001600  0.20142100  0.58503400  1
  N  N62  1  0.01196300  0.33961800  0.32488200  1
  N  N63  1  0.33961800  0.01196300  0.32488200  1
  N  N64  1  0.68684900  0.68684900  0.32585400  1
  N  N65  1  0.98803700  0.66038200  0.82488200  1
  N  N66  1  0.66038200  0.98803700  0.82488200  1
  N  N67  1  0.31315100  0.31315100  0.82585400  1
  N  N68  1  0.33010400  0.67181000  0.07391600  1
  N  N69  1  0.67181000  0.33010400  0.07391600  1
  N  N70  1  0.66989600  0.32819000  0.57391600  1
  N  N71  1  0.32819000  0.66989600  0.57391600  1
  Cl  Cl72  1  0.99525200  0.32866800  0.96446200  1
  Cl  Cl73  1  0.32866800  0.99525200  0.96446200  1
  Cl  Cl74  1  0.66615700  0.66615700  0.96437200  1
  Cl  Cl75  1  0.00474800  0.67133200  0.46446200  1
  Cl  Cl76  1  0.67133200  0.00474800  0.46446200  1
  Cl  Cl77  1  0.33384300  0.33384300  0.46437200  1
  Cl  Cl78  1  0.64806300  0.99979300  0.27359100  1
  Cl  Cl79  1  0.35728300  0.35728300  0.27179000  1
  Cl  Cl80  1  0.99979300  0.64806300  0.27359100  1
  Cl  Cl81  1  0.35193700  0.00020700  0.77359100  1
  Cl  Cl82  1  0.64271700  0.64271700  0.77179000  1
  Cl  Cl83  1  0.00020700  0.35193700  0.77359100  1
  Cl  Cl84  1  0.99953500  0.32086400  0.16453800  1
  Cl  Cl85  1  0.32086400  0.99953500  0.16453800  1
  Cl  Cl86  1  0.67869900  0.67869900  0.16376700  1
  Cl  Cl87  1  0.00046500  0.67913600  0.66453800  1
  Cl  Cl88  1  0.67913600  0.00046500  0.66453800  1
  Cl  Cl89  1  0.32130100  0.32130100  0.66376700  1
