# generated using pymatgen
data_Sr2NiTeO6
_symmetry_space_group_name_H-M   'P 1'
_cell_length_a   8.00964441
_cell_length_b   8.00964158
_cell_length_c   9.79405254
_cell_angle_alpha   114.07764223
_cell_angle_beta   65.92238602
_cell_angle_gamma   89.97482518
_symmetry_Int_Tables_number   1
_chemical_formula_structural   Sr2NiTeO6
_chemical_formula_sum   'Sr8 Ni4 Te4 O24'
_cell_volume   513.14634147
_cell_formula_units_Z   4
loop_
 _symmetry_equiv_pos_site_id
 _symmetry_equiv_pos_as_xyz
  1  'x, y, z'
loop_
 _atom_site_type_symbol
 _atom_site_label
 _atom_site_symmetry_multiplicity
 _atom_site_fract_x
 _atom_site_fract_y
 _atom_site_fract_z
 _atom_site_occupancy
  Sr  Sr0  1  0.37478500  0.12520100  0.75004400  1
  Sr  Sr1  1  0.87481500  0.62519900  0.75004400  1
  Sr  Sr2  1  0.12479900  0.87518500  0.25004400  1
  Sr  Sr3  1  0.62480000  0.37521400  0.25004500  1
  Sr  Sr4  1  0.62520100  0.87478500  0.24995600  1
  Sr  Sr5  1  0.12519900  0.37481500  0.24995600  1
  Sr  Sr6  1  0.37518500  0.62479900  0.74995600  1
  Sr  Sr7  1  0.87521500  0.12480000  0.74995500  1
  Ni  Ni8  1  0.49999900  0.99999700  0.99999800  1
  Ni  Ni9  1  0.75000800  0.25000400  0.49999900  1
  Ni  Ni10  1  0.99998900  0.50000300  0.99999800  1
  Ni  Ni11  1  0.25000800  0.75000100  0.50000100  1
  Te  Te12  1  0.75002800  0.74997300  0.49994500  1
  Te  Te13  1  0.24997300  0.25002800  0.50005500  1
  Te  Te14  1  0.49997400  0.50002300  0.00004900  1
  Te  Te15  1  0.00002400  0.99997500  0.99995100  1
  O  O16  1  0.25883600  0.49928000  0.99838800  1
  O  O17  1  0.75882900  0.99927200  0.99837600  1
  O  O18  1  0.00874800  0.24935900  0.49854700  1
  O  O19  1  0.50875300  0.74935800  0.49854500  1
  O  O20  1  0.00064100  0.24124600  0.99854500  1
  O  O21  1  0.50064200  0.74125300  0.99854600  1
  O  O22  1  0.75072700  0.99117000  0.49837600  1
  O  O23  1  0.25072000  0.49116400  0.49838700  1
  O  O24  1  0.74124700  0.50064100  0.00145400  1
  O  O25  1  0.24125300  0.00064200  0.00145400  1
  O  O26  1  0.49117000  0.25072700  0.50162400  1
  O  O27  1  0.99116400  0.75072000  0.50161200  1
  O  O28  1  0.99927900  0.75883600  0.00161300  1
  O  O29  1  0.49927200  0.25882900  0.00162400  1
  O  O30  1  0.74935900  0.50874800  0.50145400  1
  O  O31  1  0.24935800  0.00875300  0.50145600  1
  O  O32  1  0.12791600  0.37208700  0.74220900  1
  O  O33  1  0.62790500  0.87210200  0.74222700  1
  O  O34  1  0.87789800  0.12209500  0.24222600  1
  O  O35  1  0.37791400  0.62208400  0.24221000  1
  O  O36  1  0.87208600  0.62791600  0.25779100  1
  O  O37  1  0.37210200  0.12790400  0.25777300  1
  O  O38  1  0.62209400  0.37789800  0.75777400  1
  O  O39  1  0.12208400  0.87791300  0.75779100  1
