# generated using pymatgen
data_PtS
_symmetry_space_group_name_H-M   'P 1'
_cell_length_a   6.49939300
_cell_length_b   6.49939300
_cell_length_c   6.66246700
_cell_angle_alpha   90.00000000
_cell_angle_beta   90.00000000
_cell_angle_gamma   90.00000000
_symmetry_Int_Tables_number   1
_chemical_formula_structural   PtS
_chemical_formula_sum   'Pt8 S8'
_cell_volume   281.43665968
_cell_formula_units_Z   8
loop_
 _symmetry_equiv_pos_site_id
 _symmetry_equiv_pos_as_xyz
  1  'x, y, z'
loop_
 _atom_site_type_symbol
 _atom_site_label
 _atom_site_symmetry_multiplicity
 _atom_site_fract_x
 _atom_site_fract_y
 _atom_site_fract_z
 _atom_site_occupancy
  Pt  Pt0  1  0.00000000  0.00000000  0.25000000  1
  Pt  Pt1  1  0.00000000  0.00000000  0.75000000  1
  Pt  Pt2  1  0.00000000  0.50000000  0.50000000  1
  Pt  Pt3  1  0.50000000  0.00000000  0.00000000  1
  Pt  Pt4  1  0.52929700  0.25646100  0.50000000  1
  Pt  Pt5  1  0.47070300  0.74353900  0.50000000  1
  Pt  Pt6  1  0.25646100  0.47070300  0.00000000  1
  Pt  Pt7  1  0.74353900  0.52929700  0.00000000  1
  S  S8  1  0.80675900  0.30757800  0.27325800  1
  S  S9  1  0.19324100  0.69242200  0.27325800  1
  S  S10  1  0.30757800  0.19324100  0.77325800  1
  S  S11  1  0.69242200  0.80675900  0.77325800  1
  S  S12  1  0.19324100  0.69242200  0.72674200  1
  S  S13  1  0.80675900  0.30757800  0.72674200  1
  S  S14  1  0.69242200  0.80675900  0.22674200  1
  S  S15  1  0.30757800  0.19324100  0.22674200  1
