# generated using pymatgen
data_AgSbS2
_symmetry_space_group_name_H-M   'P 1'
_cell_length_a   6.91275892
_cell_length_b   6.91275892
_cell_length_c   13.30338084
_cell_angle_alpha   82.29743722
_cell_angle_beta   82.29743722
_cell_angle_gamma   38.48792084
_symmetry_Int_Tables_number   1
_chemical_formula_structural   AgSbS2
_chemical_formula_sum   'Ag4 Sb4 S8'
_cell_volume   391.63213236
_cell_formula_units_Z   4
loop_
 _symmetry_equiv_pos_site_id
 _symmetry_equiv_pos_as_xyz
  1  'x, y, z'
loop_
 _atom_site_type_symbol
 _atom_site_label
 _atom_site_symmetry_multiplicity
 _atom_site_fract_x
 _atom_site_fract_y
 _atom_site_fract_z
 _atom_site_occupancy
  Ag  Ag0  1  0.01119200  0.99688400  0.25426000  1
  Ag  Ag1  1  0.99688400  0.01119200  0.75426000  1
  Ag  Ag2  1  0.51770900  0.49580000  0.00416000  1
  Ag  Ag3  1  0.49580000  0.51770900  0.50416000  1
  Sb  Sb4  1  0.23187200  0.28939600  0.88161100  1
  Sb  Sb5  1  0.28939600  0.23187200  0.38161100  1
  Sb  Sb6  1  0.78152300  0.71644400  0.13455600  1
  Sb  Sb7  1  0.71644400  0.78152300  0.63455600  1
  S  S8  1  0.49567900  0.80142800  0.80840300  1
  S  S9  1  0.80142800  0.49567900  0.30840300  1
  S  S10  1  0.50527000  0.21071000  0.20595800  1
  S  S11  1  0.21071000  0.50527000  0.70595800  1
  S  S12  1  0.30524000  0.92220600  0.08981700  1
  S  S13  1  0.92220700  0.30524000  0.58981700  1
  S  S14  1  0.71741300  0.07283400  0.92123400  1
  S  S15  1  0.07283400  0.71741300  0.42123400  1
