# generated using pymatgen
data_Dy4CrGa12
_symmetry_space_group_name_H-M   'P 1'
_cell_length_a   7.46162638
_cell_length_b   7.46162638
_cell_length_c   7.46162638
_cell_angle_alpha   109.47122063
_cell_angle_beta   109.47122063
_cell_angle_gamma   109.47122063
_symmetry_Int_Tables_number   1
_chemical_formula_structural   Dy4CrGa12
_chemical_formula_sum   'Dy4 Cr1 Ga12'
_cell_volume   319.80010871
_cell_formula_units_Z   1
loop_
 _symmetry_equiv_pos_site_id
 _symmetry_equiv_pos_as_xyz
  1  'x, y, z'
loop_
 _atom_site_type_symbol
 _atom_site_label
 _atom_site_symmetry_multiplicity
 _atom_site_fract_x
 _atom_site_fract_y
 _atom_site_fract_z
 _atom_site_occupancy
  Dy  Dy0  1  0.00000000  0.00000000  0.50000000  1
  Dy  Dy1  1  0.00000000  0.50000000  0.00000000  1
  Dy  Dy2  1  0.50000000  0.00000000  0.00000000  1
  Dy  Dy3  1  0.50000000  0.50000000  0.50000000  1
  Cr  Cr4  1  0.00000000  0.00000000  0.00000000  1
  Ga  Ga5  1  0.71438100  0.71438100  0.00000000  1
  Ga  Ga6  1  0.28561900  0.00000000  0.28561900  1
  Ga  Ga7  1  0.00000000  0.28561900  0.28561900  1
  Ga  Ga8  1  0.28561900  0.28561900  0.00000000  1
  Ga  Ga9  1  0.71438100  0.00000000  0.71438100  1
  Ga  Ga10  1  0.00000000  0.71438100  0.71438100  1
  Ga  Ga11  1  0.75000000  0.25000000  0.50000000  1
  Ga  Ga12  1  0.75000000  0.50000000  0.25000000  1
  Ga  Ga13  1  0.50000000  0.25000000  0.75000000  1
  Ga  Ga14  1  0.25000000  0.50000000  0.75000000  1
  Ga  Ga15  1  0.25000000  0.75000000  0.50000000  1
  Ga  Ga16  1  0.50000000  0.75000000  0.25000000  1
