# generated using pymatgen
data_BaMg(CO3)2
_symmetry_space_group_name_H-M   'P 1'
_cell_length_a   11.58602670
_cell_length_b   11.58602670
_cell_length_c   11.58602740
_cell_angle_alpha   25.39835076
_cell_angle_beta   25.39835076
_cell_angle_gamma   25.39834749
_symmetry_Int_Tables_number   1
_chemical_formula_structural   BaMg(CO3)2
_chemical_formula_sum   'Ba2 Mg2 C4 O12'
_cell_volume   251.83359431
_cell_formula_units_Z   2
loop_
 _symmetry_equiv_pos_site_id
 _symmetry_equiv_pos_as_xyz
  1  'x, y, z'
loop_
 _atom_site_type_symbol
 _atom_site_label
 _atom_site_symmetry_multiplicity
 _atom_site_fract_x
 _atom_site_fract_y
 _atom_site_fract_z
 _atom_site_occupancy
  Ba  Ba0  1  0.25000000  0.25000000  0.25000000  1
  Ba  Ba1  1  0.75000000  0.75000000  0.75000000  1
  Mg  Mg2  1  0.50000000  0.50000000  0.50000000  1
  Mg  Mg3  1  0.00000000  0.00000000  0.00000000  1
  C  C4  1  0.36999500  0.36999500  0.36999500  1
  C  C5  1  0.86999500  0.86999500  0.86999500  1
  C  C6  1  0.63000500  0.63000500  0.63000500  1
  C  C7  1  0.13000500  0.13000500  0.13000500  1
  O  O8  1  0.25399400  0.66334900  0.19583000  1
  O  O9  1  0.19583000  0.25399400  0.66334900  1
  O  O10  1  0.66334900  0.19583000  0.25399400  1
  O  O11  1  0.69583000  0.16334900  0.75399400  1
  O  O12  1  0.75399400  0.69583000  0.16334900  1
  O  O13  1  0.16334900  0.75399400  0.69583000  1
  O  O14  1  0.74600600  0.33665100  0.80417000  1
  O  O15  1  0.80417000  0.74600600  0.33665100  1
  O  O16  1  0.33665100  0.80417000  0.74600600  1
  O  O17  1  0.30417000  0.83665100  0.24600600  1
  O  O18  1  0.24600600  0.30417000  0.83665100  1
  O  O19  1  0.83665100  0.24600600  0.30417000  1
