# generated using pymatgen
data_NaMn2O4
_symmetry_space_group_name_H-M   'P 1'
_cell_length_a   10.37708300
_cell_length_b   10.37708300
_cell_length_c   5.90861900
_cell_angle_alpha   90.00000000
_cell_angle_beta   90.00000000
_cell_angle_gamma   90.00000000
_symmetry_Int_Tables_number   1
_chemical_formula_structural   NaMn2O4
_chemical_formula_sum   'Na8 Mn16 O32'
_cell_volume   636.26285149
_cell_formula_units_Z   8
loop_
 _symmetry_equiv_pos_site_id
 _symmetry_equiv_pos_as_xyz
  1  'x, y, z'
loop_
 _atom_site_type_symbol
 _atom_site_label
 _atom_site_symmetry_multiplicity
 _atom_site_fract_x
 _atom_site_fract_y
 _atom_site_fract_z
 _atom_site_occupancy
  Na  Na0  1  0.36974300  0.97276700  0.36881600  1
  Na  Na1  1  0.47276700  0.13025700  0.86881600  1
  Na  Na2  1  0.86974300  0.47276700  0.13118400  1
  Na  Na3  1  0.97276700  0.63025700  0.63118400  1
  Na  Na4  1  0.63025700  0.02723300  0.36881600  1
  Na  Na5  1  0.52723300  0.86974300  0.86881600  1
  Na  Na6  1  0.02723300  0.36974300  0.63118400  1
  Na  Na7  1  0.13025700  0.52723300  0.13118400  1
  Mn  Mn8  1  0.16347900  0.15060200  0.37318600  1
  Mn  Mn9  1  0.16739600  0.14544400  0.87628400  1
  Mn  Mn10  1  0.35455600  0.66739600  0.37628400  1
  Mn  Mn11  1  0.34939800  0.66347900  0.87318600  1
  Mn  Mn12  1  0.65060200  0.33652100  0.87318600  1
  Mn  Mn13  1  0.64544400  0.33260400  0.37628400  1
  Mn  Mn14  1  0.83260400  0.85455600  0.87628400  1
  Mn  Mn15  1  0.83652100  0.84939800  0.37318600  1
  Mn  Mn16  1  0.66739600  0.64544400  0.62371600  1
  Mn  Mn17  1  0.66347900  0.65060200  0.12681400  1
  Mn  Mn18  1  0.84939800  0.16347900  0.62681400  1
  Mn  Mn19  1  0.85455600  0.16739600  0.12371600  1
  Mn  Mn20  1  0.15060200  0.83652100  0.62681400  1
  Mn  Mn21  1  0.14544400  0.83260400  0.12371600  1
  Mn  Mn22  1  0.33260400  0.35455600  0.62371600  1
  Mn  Mn23  1  0.33652100  0.34939800  0.12681400  1
  O  O24  1  0.95589000  0.84070400  0.62729200  1
  O  O25  1  0.95445400  0.83300300  0.12268000  1
  O  O26  1  0.66699700  0.45445400  0.62268000  1
  O  O27  1  0.65929600  0.45589000  0.12729200  1
  O  O28  1  0.33300300  0.54554600  0.62268000  1
  O  O29  1  0.34070400  0.54411000  0.12729200  1
  O  O30  1  0.04411000  0.15929600  0.62729200  1
  O  O31  1  0.04554600  0.16699700  0.12268000  1
  O  O32  1  0.45589000  0.34070400  0.87270800  1
  O  O33  1  0.45445400  0.33300300  0.37732000  1
  O  O34  1  0.16699700  0.95445400  0.87732000  1
  O  O35  1  0.15929600  0.95589000  0.37270800  1
  O  O36  1  0.84070400  0.04411000  0.37270800  1
  O  O37  1  0.83300300  0.04554600  0.87732000  1
  O  O38  1  0.54554600  0.66699700  0.37732000  1
  O  O39  1  0.54411000  0.65929600  0.87270800  1
  O  O40  1  0.79855200  0.64968200  0.37433400  1
  O  O41  1  0.79587900  0.65171900  0.87697000  1
  O  O42  1  0.85031800  0.29855200  0.87433400  1
  O  O43  1  0.84828100  0.29587900  0.37697000  1
  O  O44  1  0.20412100  0.34828100  0.87697000  1
  O  O45  1  0.20144800  0.35031800  0.37433400  1
  O  O46  1  0.15171900  0.70412100  0.37697000  1
  O  O47  1  0.14968200  0.70144800  0.87433400  1
  O  O48  1  0.29587900  0.15171900  0.62303000  1
  O  O49  1  0.29855200  0.14968200  0.12566600  1
  O  O50  1  0.35031800  0.79855200  0.62566600  1
  O  O51  1  0.34828100  0.79587900  0.12303000  1
  O  O52  1  0.70412100  0.84828100  0.62303000  1
  O  O53  1  0.70144800  0.85031800  0.12566600  1
  O  O54  1  0.64968200  0.20144800  0.62566600  1
  O  O55  1  0.65171900  0.20412100  0.12303000  1
