# generated using pymatgen
data_RbTa(CuTe2)2
_symmetry_space_group_name_H-M   'P 1'
_cell_length_a   6.10409400
_cell_length_b   8.43955000
_cell_length_c   10.89666733
_cell_angle_alpha   90.00000000
_cell_angle_beta   106.26556776
_cell_angle_gamma   90.00000000
_symmetry_Int_Tables_number   1
_chemical_formula_structural   RbTa(CuTe2)2
_chemical_formula_sum   'Rb2 Ta2 Cu4 Te8'
_cell_volume   538.88186682
_cell_formula_units_Z   2
loop_
 _symmetry_equiv_pos_site_id
 _symmetry_equiv_pos_as_xyz
  1  'x, y, z'
loop_
 _atom_site_type_symbol
 _atom_site_label
 _atom_site_symmetry_multiplicity
 _atom_site_fract_x
 _atom_site_fract_y
 _atom_site_fract_z
 _atom_site_occupancy
  Rb  Rb0  1  0.82103900  0.75000000  0.12700300  1
  Rb  Rb1  1  0.19403600  0.25000000  0.87299700  1
  Ta  Ta2  1  0.35477500  0.75000000  0.70881700  1
  Ta  Ta3  1  0.14595800  0.25000000  0.29118300  1
  Cu  Cu4  1  0.26138600  0.50000000  0.50000000  1
  Cu  Cu5  1  0.26138600  0.00000000  0.50000000  1
  Cu  Cu6  1  0.85487200  0.75000000  0.71014000  1
  Cu  Cu7  1  0.64473100  0.25000000  0.28986000  1
  Te  Te8  1  0.99776900  0.75000000  0.50126800  1
  Te  Te9  1  0.99650100  0.25000000  0.49873200  1
  Te  Te10  1  0.21090100  0.75000000  0.91610400  1
  Te  Te11  1  0.79479700  0.25000000  0.08389600  1
  Te  Te12  1  0.60506900  0.49314400  0.71121400  1
  Te  Te13  1  0.39385500  0.50685600  0.28878600  1
  Te  Te14  1  0.60506900  0.00685600  0.71121400  1
  Te  Te15  1  0.39385500  0.99314400  0.28878600  1
