# generated using pymatgen
data_Fe2O3
_symmetry_space_group_name_H-M   'P 1'
_cell_length_a   5.03646200
_cell_length_b   5.26540500
_cell_length_c   7.77423900
_cell_angle_alpha   90.00000000
_cell_angle_beta   90.00000000
_cell_angle_gamma   90.00000000
_symmetry_Int_Tables_number   1
_chemical_formula_structural   Fe2O3
_chemical_formula_sum   'Fe8 O12'
_cell_volume   206.16513886
_cell_formula_units_Z   4
loop_
 _symmetry_equiv_pos_site_id
 _symmetry_equiv_pos_as_xyz
  1  'x, y, z'
loop_
 _atom_site_type_symbol
 _atom_site_label
 _atom_site_symmetry_multiplicity
 _atom_site_fract_x
 _atom_site_fract_y
 _atom_site_fract_z
 _atom_site_occupancy
  Fe  Fe0  1  0.50000000  0.50000000  0.50000000  1
  Fe  Fe1  1  0.00000000  0.00000000  0.00000000  1
  Fe  Fe2  1  0.50000000  0.50000000  0.00000000  1
  Fe  Fe3  1  0.00000000  0.00000000  0.50000000  1
  Fe  Fe4  1  0.97650100  0.56160100  0.75000000  1
  Fe  Fe5  1  0.47650100  0.93839900  0.25000000  1
  Fe  Fe6  1  0.02349900  0.43839900  0.25000000  1
  Fe  Fe7  1  0.52349900  0.06160100  0.75000000  1
  O  O8  1  0.18075300  0.68394800  0.42101400  1
  O  O9  1  0.68075300  0.81605200  0.92101400  1
  O  O10  1  0.81924700  0.31605200  0.57898600  1
  O  O11  1  0.31924700  0.18394800  0.07898600  1
  O  O12  1  0.18075300  0.68394800  0.07898600  1
  O  O13  1  0.68075300  0.81605200  0.57898600  1
  O  O14  1  0.81924700  0.31605200  0.92101400  1
  O  O15  1  0.31924700  0.18394800  0.42101400  1
  O  O16  1  0.65313800  0.58162700  0.25000000  1
  O  O17  1  0.15313800  0.91837300  0.75000000  1
  O  O18  1  0.34686200  0.41837300  0.75000000  1
  O  O19  1  0.84686200  0.08162700  0.25000000  1
