# generated using pymatgen
data_ZnBi6P2(O7F)2
_symmetry_space_group_name_H-M   'P 1'
_cell_length_a   8.90963125
_cell_length_b   8.90963125
_cell_length_c   16.81807798
_cell_angle_alpha   70.23812646
_cell_angle_beta   70.23812646
_cell_angle_gamma   36.89849396
_symmetry_Int_Tables_number   1
_chemical_formula_structural   ZnBi6P2(O7F)2
_chemical_formula_sum   'Zn2 Bi12 P4 O28 F4'
_cell_volume   748.91475692
_cell_formula_units_Z   2
loop_
 _symmetry_equiv_pos_site_id
 _symmetry_equiv_pos_as_xyz
  1  'x, y, z'
loop_
 _atom_site_type_symbol
 _atom_site_label
 _atom_site_symmetry_multiplicity
 _atom_site_fract_x
 _atom_site_fract_y
 _atom_site_fract_z
 _atom_site_occupancy
  Zn  Zn0  1  0.00000000  0.00000000  0.50000000  1
  Zn  Zn1  1  0.00000000  0.00000000  0.00000000  1
  Bi  Bi2  1  0.82863400  0.77230800  0.66432900  1
  Bi  Bi3  1  0.22769200  0.17136600  0.83567100  1
  Bi  Bi4  1  0.17136600  0.22769200  0.33567100  1
  Bi  Bi5  1  0.77230800  0.82863400  0.16432900  1
  Bi  Bi6  1  0.54404900  0.57455700  0.82817400  1
  Bi  Bi7  1  0.42544300  0.45595100  0.67182600  1
  Bi  Bi8  1  0.45595100  0.42544300  0.17182600  1
  Bi  Bi9  1  0.57455700  0.54404900  0.32817400  1
  Bi  Bi10  1  0.87928700  0.89646100  0.82674800  1
  Bi  Bi11  1  0.10353900  0.12071300  0.67325200  1
  Bi  Bi12  1  0.12071300  0.10353900  0.17325200  1
  Bi  Bi13  1  0.89646100  0.87928700  0.32674800  1
  P  P14  1  0.34364900  0.35985700  0.50355800  1
  P  P15  1  0.64014300  0.65635100  0.99644200  1
  P  P16  1  0.65635100  0.64014300  0.49644200  1
  P  P17  1  0.35985700  0.34364900  0.00355800  1
  O  O18  1  0.27841900  0.72158100  0.75000000  1
  O  O19  1  0.72158100  0.27841900  0.25000000  1
  O  O20  1  0.77590100  0.22409900  0.75000000  1
  O  O21  1  0.22409900  0.77590100  0.25000000  1
  O  O22  1  0.59257600  0.07458000  0.75414800  1
  O  O23  1  0.92542000  0.40742400  0.74585200  1
  O  O24  1  0.40742400  0.92542000  0.24585200  1
  O  O25  1  0.07458000  0.59257600  0.25414800  1
  O  O26  1  0.09092400  0.57169000  0.75740400  1
  O  O27  1  0.42831000  0.90907600  0.74259600  1
  O  O28  1  0.90907600  0.42831000  0.24259600  1
  O  O29  1  0.57169000  0.09092400  0.25740400  1
  O  O30  1  0.05144900  0.82903900  0.60966100  1
  O  O31  1  0.17096100  0.94855100  0.89033900  1
  O  O32  1  0.94855100  0.17096100  0.39033900  1
  O  O33  1  0.82903900  0.05144900  0.10966100  1
  O  O34  1  0.22203700  0.60143200  0.44429100  1
  O  O35  1  0.39856800  0.77796300  0.05570900  1
  O  O36  1  0.77796300  0.39856800  0.55570900  1
  O  O37  1  0.60143200  0.22203700  0.94429100  1
  O  O38  1  0.17837100  0.39148800  0.58430700  1
  O  O39  1  0.60851200  0.82162900  0.91569300  1
  O  O40  1  0.82162900  0.60851200  0.41569300  1
  O  O41  1  0.39148800  0.17837100  0.08430700  1
  O  O42  1  0.60803500  0.18050600  0.52127800  1
  O  O43  1  0.81949400  0.39196500  0.97872200  1
  O  O44  1  0.39196500  0.81949400  0.47872200  1
  O  O45  1  0.18050600  0.60803500  0.02127800  1
  F  F46  1  0.38050900  0.21507000  0.44628500  1
  F  F47  1  0.78493000  0.61949100  0.05371500  1
  F  F48  1  0.61949100  0.78493000  0.55371500  1
  F  F49  1  0.21507000  0.38050900  0.94628500  1
