# generated using pymatgen
data_Ba8CaY2U4O24
_symmetry_space_group_name_H-M   'P 1'
_cell_length_a   10.78155793
_cell_length_b   10.78155793
_cell_length_c   10.78155793
_cell_angle_alpha   132.00743051
_cell_angle_beta   132.00743051
_cell_angle_gamma   70.21729146
_symmetry_Int_Tables_number   1
_chemical_formula_structural   Ba8CaY2U4O24
_chemical_formula_sum   'Ba8 Ca1 Y2 U4 O24'
_cell_volume   678.25243316
_cell_formula_units_Z   1
loop_
 _symmetry_equiv_pos_site_id
 _symmetry_equiv_pos_as_xyz
  1  'x, y, z'
loop_
 _atom_site_type_symbol
 _atom_site_label
 _atom_site_symmetry_multiplicity
 _atom_site_fract_x
 _atom_site_fract_y
 _atom_site_fract_z
 _atom_site_occupancy
  Ba  Ba0  1  0.87904800  0.35665800  0.00000000  1
  Ba  Ba1  1  0.35665800  0.87904800  0.00000000  1
  Ba  Ba2  1  0.12095200  0.64334200  0.00000000  1
  Ba  Ba3  1  0.64334200  0.12095200  0.00000000  1
  Ba  Ba4  1  0.35665800  0.35665800  0.47761000  1
  Ba  Ba5  1  0.87904800  0.87904800  0.52239000  1
  Ba  Ba6  1  0.12095200  0.12095200  0.47761000  1
  Ba  Ba7  1  0.64334200  0.64334200  0.52239000  1
  Ca  Ca8  1  0.50000000  0.50000000  0.00000000  1
  Y  Y9  1  0.25000000  0.75000000  0.50000000  1
  Y  Y10  1  0.75000000  0.25000000  0.50000000  1
  U  U11  1  0.25296800  0.25296800  0.00000000  1
  U  U12  1  0.74703200  0.74703200  0.00000000  1
  U  U13  1  0.50000000  0.00000000  0.50000000  1
  U  U14  1  0.00000000  0.50000000  0.50000000  1
  O  O15  1  0.13912000  0.13912000  0.00000000  1
  O  O16  1  0.86088000  0.86088000  0.00000000  1
  O  O17  1  0.36822300  0.36822300  0.00000000  1
  O  O18  1  0.63177700  0.63177700  0.00000000  1
  O  O19  1  0.00000000  0.27089800  0.27089800  1
  O  O20  1  0.00000000  0.72910200  0.72910200  1
  O  O21  1  0.27089800  0.00000000  0.27089800  1
  O  O22  1  0.72910200  0.00000000  0.72910200  1
  O  O23  1  0.50000000  0.76094700  0.26094700  1
  O  O24  1  0.50000000  0.23905300  0.73905300  1
  O  O25  1  0.76094700  0.50000000  0.26094700  1
  O  O26  1  0.23905300  0.50000000  0.73905300  1
  O  O27  1  0.12259800  0.62259800  0.50000000  1
  O  O28  1  0.37740200  0.87740200  0.50000000  1
  O  O29  1  0.87740200  0.37740200  0.50000000  1
  O  O30  1  0.62259800  0.12259800  0.50000000  1
  O  O31  1  0.24921500  0.49226800  0.24305300  1
  O  O32  1  0.24921500  0.00616200  0.75694700  1
  O  O33  1  0.99383800  0.75078500  0.24305300  1
  O  O34  1  0.50773200  0.75078500  0.75694700  1
  O  O35  1  0.75078500  0.50773200  0.75694700  1
  O  O36  1  0.75078500  0.99383800  0.24305300  1
  O  O37  1  0.00616200  0.24921500  0.75694700  1
  O  O38  1  0.49226800  0.24921500  0.24305300  1
