# generated using pymatgen
data_BaZn2H16O11
_symmetry_space_group_name_H-M   'P 1'
_cell_length_a   6.27099679
_cell_length_b   11.25998453
_cell_length_c   16.29710400
_cell_angle_alpha   90.00000000
_cell_angle_beta   90.00000000
_cell_angle_gamma   99.38700259
_symmetry_Int_Tables_number   1
_chemical_formula_structural   BaZn2H16O11
_chemical_formula_sum   'Ba4 Zn8 H64 O44'
_cell_volume   1135.35052181
_cell_formula_units_Z   4
loop_
 _symmetry_equiv_pos_site_id
 _symmetry_equiv_pos_as_xyz
  1  'x, y, z'
loop_
 _atom_site_type_symbol
 _atom_site_label
 _atom_site_symmetry_multiplicity
 _atom_site_fract_x
 _atom_site_fract_y
 _atom_site_fract_z
 _atom_site_occupancy
  Ba  Ba0  1  0.71015900  0.34605000  0.02190800  1
  Ba  Ba1  1  0.78984100  0.65395000  0.52190800  1
  Ba  Ba2  1  0.28984100  0.65395000  0.97809200  1
  Ba  Ba3  1  0.21015900  0.34605000  0.47809200  1
  Zn  Zn4  1  0.54016600  0.72789400  0.20769500  1
  Zn  Zn5  1  0.95983400  0.27210600  0.70769500  1
  Zn  Zn6  1  0.45983400  0.27210600  0.79230500  1
  Zn  Zn7  1  0.04016600  0.72789400  0.29230500  1
  Zn  Zn8  1  0.50318300  0.24891200  0.29167800  1
  Zn  Zn9  1  0.99681700  0.75108800  0.79167800  1
  Zn  Zn10  1  0.49681700  0.75108800  0.70832200  1
  Zn  Zn11  1  0.00318300  0.24891200  0.20832200  1
  H  H12  1  0.66670700  0.10552200  0.75829600  1
  H  H13  1  0.83329300  0.89447800  0.25829600  1
  H  H14  1  0.33329300  0.89447800  0.24170400  1
  H  H15  1  0.16670700  0.10552200  0.74170400  1
  H  H16  1  0.60613500  0.53457900  0.25041400  1
  H  H17  1  0.89386500  0.46542100  0.75041400  1
  H  H18  1  0.39386500  0.46542100  0.74958600  1
  H  H19  1  0.10613500  0.53457900  0.24958600  1
  H  H20  1  0.68746300  0.80837500  0.08159200  1
  H  H21  1  0.81253700  0.19162500  0.58159200  1
  H  H22  1  0.31253700  0.19162500  0.91840800  1
  H  H23  1  0.18746300  0.80837500  0.41840800  1
  H  H24  1  0.79668000  0.40700600  0.23183400  1
  H  H25  1  0.70332000  0.59299400  0.73183400  1
  H  H26  1  0.20332000  0.59299400  0.76816600  1
  H  H27  1  0.29668000  0.40700600  0.26816600  1
  H  H28  1  0.59497900  0.05636800  0.25561900  1
  H  H29  1  0.90502100  0.94363200  0.75561900  1
  H  H30  1  0.40502100  0.94363200  0.74438100  1
  H  H31  1  0.09497900  0.05636800  0.24438100  1
  H  H32  1  0.66073500  0.22474400  0.42622400  1
  H  H33  1  0.83926500  0.77525600  0.92622400  1
  H  H34  1  0.33926500  0.77525600  0.57377600  1
  H  H35  1  0.16073500  0.22474400  0.07377600  1
  H  H36  1  0.75190200  0.39989800  0.40838100  1
  H  H37  1  0.74809800  0.60010200  0.90838100  1
  H  H38  1  0.24809800  0.60010200  0.59161900  1
  H  H39  1  0.25190200  0.39989800  0.09161900  1
  H  H40  1  0.90892500  0.50023800  0.35652500  1
  H  H41  1  0.59107500  0.49976200  0.85652500  1
  H  H42  1  0.09107500  0.49976200  0.64347500  1
  H  H43  1  0.40892500  0.50023800  0.14347500  1
  H  H44  1  0.93855900  0.57165200  0.14323700  1
  H  H45  1  0.56144100  0.42834800  0.64323700  1
  H  H46  1  0.06144100  0.42834800  0.85676300  1
  H  H47  1  0.43855900  0.57165200  0.35676300  1
  H  H48  1  0.80318500  0.63664700  0.08117500  1
  H  H49  1  0.69681500  0.36335300  0.58117500  1
  H  H50  1  0.19681500  0.36335300  0.91882500  1
  H  H51  1  0.30318500  0.63664700  0.41882500  1
  H  H52  1  0.92921400  0.09098600  0.93280100  1
  H  H53  1  0.57078600  0.90901400  0.43280100  1
  H  H54  1  0.07078600  0.90901400  0.06719900  1
  H  H55  1  0.42921400  0.09098600  0.56719900  1
  H  H56  1  0.75523300  0.14464000  0.88196200  1
  H  H57  1  0.74476700  0.85536000  0.38196200  1
  H  H58  1  0.24476700  0.85536000  0.11803800  1
  H  H59  1  0.25523300  0.14464000  0.61803800  1
  H  H60  1  0.94197500  0.11492300  0.34845300  1
  H  H61  1  0.55802500  0.88507700  0.84845300  1
  H  H62  1  0.05802500  0.88507700  0.65154700  1
  H  H63  1  0.44197500  0.11492300  0.15154700  1
  H  H64  1  0.88538000  0.05365300  0.43239200  1
  H  H65  1  0.61462000  0.94634700  0.93239200  1
  H  H66  1  0.11462000  0.94634700  0.56760800  1
  H  H67  1  0.38538000  0.05365300  0.06760800  1
  H  H68  1  0.87554600  0.01452600  0.14571900  1
  H  H69  1  0.62445400  0.98547400  0.64571900  1
  H  H70  1  0.12445400  0.98547400  0.85428100  1
  H  H71  1  0.37554600  0.01452600  0.35428100  1
  H  H72  1  0.79158400  0.03414800  0.05574500  1
  H  H73  1  0.70841600  0.96585200  0.55574500  1
  H  H74  1  0.20841600  0.96585200  0.94425500  1
  H  H75  1  0.29158400  0.03414800  0.44425500  1
  O  O76  1  0.71697800  0.18746700  0.77872400  1
  O  O77  1  0.78302200  0.81253300  0.27872400  1
  O  O78  1  0.28302300  0.81253300  0.22127600  1
  O  O79  1  0.21697700  0.18746700  0.72127600  1
  O  O80  1  0.96385700  0.55929900  0.25205200  1
  O  O81  1  0.53614300  0.44070100  0.75205200  1
  O  O82  1  0.03614300  0.44070100  0.74794800  1
  O  O83  1  0.46385700  0.55929900  0.24794800  1
  O  O84  1  0.61340900  0.72572600  0.09068600  1
  O  O85  1  0.88659100  0.27427400  0.59068600  1
  O  O86  1  0.38659100  0.27427400  0.90931400  1
  O  O87  1  0.11340900  0.72572600  0.40931400  1
  O  O88  1  0.73603900  0.32382100  0.21545400  1
  O  O89  1  0.76396100  0.67617900  0.71545400  1
  O  O90  1  0.26396100  0.67617900  0.78454600  1
  O  O91  1  0.23603900  0.32382100  0.28454600  1
  O  O92  1  0.94811700  0.07515700  0.24063800  1
  O  O93  1  0.55188300  0.92484300  0.74063800  1
  O  O94  1  0.05188300  0.92484300  0.75936200  1
  O  O95  1  0.44811700  0.07515700  0.25936200  1
  O  O96  1  0.56990100  0.28201900  0.40772600  1
  O  O97  1  0.93009900  0.71798100  0.90772600  1
  O  O98  1  0.43009800  0.71798100  0.59227400  1
  O  O99  1  0.06990200  0.28201900  0.09227400  1
  O  O100  1  0.87747100  0.46951300  0.41315400  1
  O  O101  1  0.62252900  0.53048700  0.91315400  1
  O  O102  1  0.12252900  0.53048700  0.58684600  1
  O  O103  1  0.37747100  0.46951300  0.08684600  1
  O  O104  1  0.91177800  0.57897400  0.08319100  1
  O  O105  1  0.58822200  0.42102600  0.58319100  1
  O  O106  1  0.08822200  0.42102600  0.91680900  1
  O  O107  1  0.41177800  0.57897400  0.41680900  1
  O  O108  1  0.78604100  0.11736900  0.93866600  1
  O  O109  1  0.71395900  0.88263100  0.43866600  1
  O  O110  1  0.21395900  0.88263100  0.06133400  1
  O  O111  1  0.28604100  0.11736900  0.56133400  1
  O  O112  1  0.94164200  0.13281800  0.40847800  1
  O  O113  1  0.55835800  0.86718200  0.90847800  1
  O  O114  1  0.05835800  0.86718200  0.59152200  1
  O  O115  1  0.44164200  0.13281800  0.09152200  1
  O  O116  1  0.16088300  0.02638500  0.90864200  1
  O  O117  1  0.33911700  0.97361500  0.40864200  1
  O  O118  1  0.83911700  0.97361500  0.09135800  1
  O  O119  1  0.66088300  0.02638500  0.59135800  1
