# generated using pymatgen
data_K10Hf3Mo12PbO48
_symmetry_space_group_name_H-M   'P 1'
_cell_length_a   14.38065669
_cell_length_b   14.38065669
_cell_length_c   14.38065632
_cell_angle_alpha   44.40938433
_cell_angle_beta   44.40938433
_cell_angle_gamma   44.40938429
_symmetry_Int_Tables_number   1
_chemical_formula_structural   K10Hf3Mo12PbO48
_chemical_formula_sum   'K10 Hf3 Mo12 Pb1 O48'
_cell_volume   1323.87346326
_cell_formula_units_Z   1
loop_
 _symmetry_equiv_pos_site_id
 _symmetry_equiv_pos_as_xyz
  1  'x, y, z'
loop_
 _atom_site_type_symbol
 _atom_site_label
 _atom_site_symmetry_multiplicity
 _atom_site_fract_x
 _atom_site_fract_y
 _atom_site_fract_z
 _atom_site_occupancy
  K  K0  1  0.85061700  0.85061700  0.85061700  1
  K  K1  1  0.14938300  0.14938300  0.14938300  1
  K  K2  1  0.62827800  0.62827800  0.62827800  1
  K  K3  1  0.37172200  0.37172200  0.37172200  1
  K  K4  1  0.76382000  0.13515300  0.35919100  1
  K  K5  1  0.13515300  0.35919100  0.76382000  1
  K  K6  1  0.35919100  0.76382000  0.13515300  1
  K  K7  1  0.23618000  0.86484700  0.64080900  1
  K  K8  1  0.86484700  0.64080900  0.23618000  1
  K  K9  1  0.64080900  0.23618000  0.86484700  1
  Hf  Hf10  1  0.00000000  0.00000000  0.00000000  1
  Hf  Hf11  1  0.75056600  0.75056600  0.75056600  1
  Hf  Hf12  1  0.24943400  0.24943400  0.24943400  1
  Mo  Mo13  1  0.77011700  0.51047900  0.11316700  1
  Mo  Mo14  1  0.51047900  0.11316700  0.77011700  1
  Mo  Mo15  1  0.11316700  0.77011700  0.51047900  1
  Mo  Mo16  1  0.22988300  0.48952100  0.88683300  1
  Mo  Mo17  1  0.48952100  0.88683300  0.22988300  1
  Mo  Mo18  1  0.88683300  0.22988300  0.48952100  1
  Mo  Mo19  1  0.95316900  0.75211500  0.38644500  1
  Mo  Mo20  1  0.75211500  0.38644500  0.95316900  1
  Mo  Mo21  1  0.38644500  0.95316900  0.75211500  1
  Mo  Mo22  1  0.04683100  0.24788500  0.61355500  1
  Mo  Mo23  1  0.24788500  0.61355500  0.04683100  1
  Mo  Mo24  1  0.61355500  0.04683100  0.24788500  1
  Pb  Pb25  1  0.50000000  0.50000000  0.50000000  1
  O  O26  1  0.13674500  0.83654400  0.55541700  1
  O  O27  1  0.83654400  0.55541700  0.13674500  1
  O  O28  1  0.55541700  0.13674500  0.83654400  1
  O  O29  1  0.86325500  0.16345600  0.44458300  1
  O  O30  1  0.16345600  0.44458300  0.86325500  1
  O  O31  1  0.44458300  0.86325500  0.16345600  1
  O  O32  1  0.90374100  0.34721100  0.08505600  1
  O  O33  1  0.34721100  0.08505600  0.90374100  1
  O  O34  1  0.08505600  0.90374100  0.34721100  1
  O  O35  1  0.09625900  0.65278900  0.91494400  1
  O  O36  1  0.65278900  0.91494400  0.09625900  1
  O  O37  1  0.91494400  0.09625900  0.65278900  1
  O  O38  1  0.61345800  0.47756400  0.27787100  1
  O  O39  1  0.47756400  0.27787100  0.61345800  1
  O  O40  1  0.27787100  0.61345800  0.47756400  1
  O  O41  1  0.38654200  0.52243600  0.72212900  1
  O  O42  1  0.52243600  0.72212900  0.38654200  1
  O  O43  1  0.72212900  0.38654200  0.52243600  1
  O  O44  1  0.71434000  0.67105600  0.95748800  1
  O  O45  1  0.67105600  0.95748800  0.71434000  1
  O  O46  1  0.95748800  0.71434000  0.67105600  1
  O  O47  1  0.28566000  0.32894400  0.04251200  1
  O  O48  1  0.32894400  0.04251200  0.28566000  1
  O  O49  1  0.04251200  0.28566000  0.32894400  1
  O  O50  1  0.90198400  0.66748900  0.39255700  1
  O  O51  1  0.66748900  0.39255700  0.90198400  1
  O  O52  1  0.39255700  0.90198400  0.66748900  1
  O  O53  1  0.09801600  0.33251100  0.60744300  1
  O  O54  1  0.33251100  0.60744300  0.09801600  1
  O  O55  1  0.60744300  0.09801600  0.33251100  1
  O  O56  1  0.11863000  0.62739100  0.40541800  1
  O  O57  1  0.62739100  0.40541800  0.11863000  1
  O  O58  1  0.40541800  0.11863000  0.62739100  1
  O  O59  1  0.88137000  0.37260900  0.59458200  1
  O  O60  1  0.37260900  0.59458200  0.88137000  1
  O  O61  1  0.59458200  0.88137000  0.37260900  1
  O  O62  1  0.97758100  0.91006700  0.20637500  1
  O  O63  1  0.91006700  0.20637500  0.97758100  1
  O  O64  1  0.20637500  0.97758100  0.91006700  1
  O  O65  1  0.02241900  0.08993300  0.79362500  1
  O  O66  1  0.08993300  0.79362500  0.02241900  1
  O  O67  1  0.79362500  0.02241900  0.08993300  1
  O  O68  1  0.80820100  0.81160600  0.53705200  1
  O  O69  1  0.81160600  0.53705200  0.80820100  1
  O  O70  1  0.53705200  0.80820100  0.81160600  1
  O  O71  1  0.19179900  0.18839400  0.46294800  1
  O  O72  1  0.18839400  0.46294800  0.19179900  1
  O  O73  1  0.46294800  0.19179900  0.18839400  1
