# generated using pymatgen
data_CaHgH16(BrO2)4
_symmetry_space_group_name_H-M   'P 1'
_cell_length_a   11.13995947
_cell_length_b   11.13995947
_cell_length_c   13.99293000
_cell_angle_alpha   90.00000000
_cell_angle_beta   90.00000000
_cell_angle_gamma   110.55667608
_symmetry_Int_Tables_number   1
_chemical_formula_structural   CaHgH16(BrO2)4
_chemical_formula_sum   'Ca4 Hg4 H64 Br16 O32'
_cell_volume   1625.93300484
_cell_formula_units_Z   4
loop_
 _symmetry_equiv_pos_site_id
 _symmetry_equiv_pos_as_xyz
  1  'x, y, z'
loop_
 _atom_site_type_symbol
 _atom_site_label
 _atom_site_symmetry_multiplicity
 _atom_site_fract_x
 _atom_site_fract_y
 _atom_site_fract_z
 _atom_site_occupancy
  Ca  Ca0  1  0.75249400  0.24750600  0.50000000  1
  Ca  Ca1  1  0.25249400  0.74750600  0.00000000  1
  Ca  Ca2  1  0.24750600  0.75249400  0.50000000  1
  Ca  Ca3  1  0.74750600  0.25249400  0.00000000  1
  Hg  Hg4  1  0.75726100  0.75726100  0.19603200  1
  Hg  Hg5  1  0.24273900  0.24273900  0.80396800  1
  Hg  Hg6  1  0.74273900  0.74273900  0.69603200  1
  Hg  Hg7  1  0.25726100  0.25726100  0.30396800  1
  H  H8  1  0.57334400  0.94678500  0.52670500  1
  H  H9  1  0.05321500  0.42665600  0.47329500  1
  H  H10  1  0.55321500  0.92665600  0.02670500  1
  H  H11  1  0.07334400  0.44678500  0.97329500  1
  H  H12  1  0.42665600  0.05321500  0.47329500  1
  H  H13  1  0.94678500  0.57334400  0.52670500  1
  H  H14  1  0.44678500  0.07334400  0.97329500  1
  H  H15  1  0.92665600  0.55321500  0.02670500  1
  H  H16  1  0.64186600  0.00978100  0.61887600  1
  H  H17  1  0.99021900  0.35813400  0.38112400  1
  H  H18  1  0.49021900  0.85813400  0.11887600  1
  H  H19  1  0.14186600  0.50978100  0.88112400  1
  H  H20  1  0.35813400  0.99021900  0.38112400  1
  H  H21  1  0.00978100  0.64186600  0.61887600  1
  H  H22  1  0.50978100  0.14186600  0.88112400  1
  H  H23  1  0.85813400  0.49021900  0.11887600  1
  H  H24  1  0.47315900  0.23441300  0.56046200  1
  H  H25  1  0.76558700  0.52684100  0.43953800  1
  H  H26  1  0.26558700  0.02684100  0.06046200  1
  H  H27  1  0.97315900  0.73441300  0.93953800  1
  H  H28  1  0.52684100  0.76558700  0.43953800  1
  H  H29  1  0.23441300  0.47315900  0.56046200  1
  H  H30  1  0.73441300  0.97315900  0.93953800  1
  H  H31  1  0.02684100  0.26558700  0.06046200  1
  H  H32  1  0.50066500  0.29822100  0.45878200  1
  H  H33  1  0.70177900  0.49933500  0.54121800  1
  H  H34  1  0.20177900  0.99933500  0.95878200  1
  H  H35  1  0.00066500  0.79822100  0.04121800  1
  H  H36  1  0.49933500  0.70177900  0.54121800  1
  H  H37  1  0.29822100  0.50066500  0.45878200  1
  H  H38  1  0.79822100  0.00066500  0.04121800  1
  H  H39  1  0.99933500  0.20177900  0.95878200  1
  H  H40  1  0.75884400  0.38858500  0.70121700  1
  H  H41  1  0.61141500  0.24115600  0.29878300  1
  H  H42  1  0.11141500  0.74115600  0.20121700  1
  H  H43  1  0.25884400  0.88858500  0.79878300  1
  H  H44  1  0.24115600  0.61141500  0.29878300  1
  H  H45  1  0.38858500  0.75884400  0.70121700  1
  H  H46  1  0.88858500  0.25884400  0.79878300  1
  H  H47  1  0.74115600  0.11141500  0.20121700  1
  H  H48  1  0.62973000  0.27691300  0.69728200  1
  H  H49  1  0.72308700  0.37027000  0.30271800  1
  H  H50  1  0.22308700  0.87027000  0.19728200  1
  H  H51  1  0.12973000  0.77691300  0.80271800  1
  H  H52  1  0.37027000  0.72308700  0.30271800  1
  H  H53  1  0.27691300  0.62973000  0.69728200  1
  H  H54  1  0.77691300  0.12973000  0.80271800  1
  H  H55  1  0.87027000  0.22308700  0.19728200  1
  H  H56  1  0.78846600  0.03222000  0.37161100  1
  H  H57  1  0.96778000  0.21153400  0.62838900  1
  H  H58  1  0.46778000  0.71153400  0.87161100  1
  H  H59  1  0.28846600  0.53222000  0.12838900  1
  H  H60  1  0.21153400  0.96778000  0.62838900  1
  H  H61  1  0.03222000  0.78846600  0.37161100  1
  H  H62  1  0.53222000  0.28846600  0.12838900  1
  H  H63  1  0.71153400  0.46778000  0.87161100  1
  H  H64  1  0.92453400  0.11968000  0.40792900  1
  H  H65  1  0.88032000  0.07546600  0.59207100  1
  H  H66  1  0.38032000  0.57546600  0.90792900  1
  H  H67  1  0.42453400  0.61968000  0.09207100  1
  H  H68  1  0.07546600  0.88032000  0.59207100  1
  H  H69  1  0.11968000  0.92453400  0.40792900  1
  H  H70  1  0.61968000  0.42453400  0.09207100  1
  H  H71  1  0.57546600  0.38032000  0.90792900  1
  Br  Br72  1  0.86828700  0.60366200  0.27904500  1
  Br  Br73  1  0.39633800  0.13171300  0.72095500  1
  Br  Br74  1  0.89633800  0.63171300  0.77904500  1
  Br  Br75  1  0.36828700  0.10366200  0.22095500  1
  Br  Br76  1  0.13171300  0.39633800  0.72095500  1
  Br  Br77  1  0.60366200  0.86828700  0.27904500  1
  Br  Br78  1  0.10366200  0.36828700  0.22095500  1
  Br  Br79  1  0.63171300  0.89633800  0.77904500  1
  Br  Br80  1  0.96261000  0.96261000  0.15287300  1
  Br  Br81  1  0.03739000  0.03739000  0.84712700  1
  Br  Br82  1  0.53739000  0.53739000  0.65287300  1
  Br  Br83  1  0.46261000  0.46261000  0.34712700  1
  Br  Br84  1  0.63685700  0.63685700  0.04210000  1
  Br  Br85  1  0.36314300  0.36314300  0.95790000  1
  Br  Br86  1  0.86314300  0.86314300  0.54210000  1
  Br  Br87  1  0.13685700  0.13685700  0.45790000  1
  O  O88  1  0.62130600  0.03120200  0.55470300  1
  O  O89  1  0.96879800  0.37869400  0.44529700  1
  O  O90  1  0.46879800  0.87869400  0.05470300  1
  O  O91  1  0.12130600  0.53120200  0.94529700  1
  O  O92  1  0.37869400  0.96879800  0.44529700  1
  O  O93  1  0.03120200  0.62130600  0.55470300  1
  O  O94  1  0.53120200  0.12130600  0.94529700  1
  O  O95  1  0.87869400  0.46879800  0.05470300  1
  O  O96  1  0.51394100  0.23065000  0.49886000  1
  O  O97  1  0.76935000  0.48605900  0.50114000  1
  O  O98  1  0.26935000  0.98605900  0.99886000  1
  O  O99  1  0.01394100  0.73065000  0.00114000  1
  O  O100  1  0.48605900  0.76935000  0.50114000  1
  O  O101  1  0.23065000  0.51394100  0.49886000  1
  O  O102  1  0.73065000  0.01394100  0.00114000  1
  O  O103  1  0.98605900  0.26935000  0.99886000  1
  O  O104  1  0.81543200  0.21018300  0.83829800  1
  O  O105  1  0.78981700  0.18456800  0.16170200  1
  O  O106  1  0.28981700  0.68456800  0.33829800  1
  O  O107  1  0.31543200  0.71018300  0.66170200  1
  O  O108  1  0.18456800  0.78981700  0.16170200  1
  O  O109  1  0.21018300  0.81543200  0.83829800  1
  O  O110  1  0.71018300  0.31543200  0.66170200  1
  O  O111  1  0.68456800  0.28981700  0.33829800  1
  O  O112  1  0.83949200  0.12061500  0.38892700  1
  O  O113  1  0.87938500  0.16050800  0.61107300  1
  O  O114  1  0.37938500  0.66050800  0.88892700  1
  O  O115  1  0.33949200  0.62061500  0.11107300  1
  O  O116  1  0.16050800  0.87938500  0.61107300  1
  O  O117  1  0.12061500  0.83949200  0.38892700  1
  O  O118  1  0.62061500  0.33949200  0.11107300  1
  O  O119  1  0.66050800  0.37938500  0.88892700  1
