# generated using pymatgen
data_Hf3NiF6
_symmetry_space_group_name_H-M   'P 1'
_cell_length_a   6.13482375
_cell_length_b   7.53041979
_cell_length_c   8.76731292
_cell_angle_alpha   82.64463941
_cell_angle_beta   90.32541105
_cell_angle_gamma   114.47280429
_symmetry_Int_Tables_number   1
_chemical_formula_structural   Hf3NiF6
_chemical_formula_sum   'Hf3 Ni1 F6'
_cell_volume   365.10485775
_cell_formula_units_Z   1
loop_
 _symmetry_equiv_pos_site_id
 _symmetry_equiv_pos_as_xyz
  1  'x, y, z'
loop_
 _atom_site_type_symbol
 _atom_site_label
 _atom_site_symmetry_multiplicity
 _atom_site_fract_x
 _atom_site_fract_y
 _atom_site_fract_z
 _atom_site_occupancy
  Hf  Hf0  1  0.00000000  0.00000000  0.50000000  1
  Hf  Hf1  1  0.50000000  0.50000000  0.00000000  1
  Hf  Hf2  1  0.00000000  0.50000000  0.00000000  1
  Ni  Ni3  1  0.00000000  0.00000000  0.00000000  1
  F  F4  1  0.88754500  0.22683400  0.95917900  1
  F  F5  1  0.11245500  0.77316600  0.04082100  1
  F  F6  1  0.92040100  0.93840400  0.71824800  1
  F  F7  1  0.07959900  0.06159600  0.28175200  1
  F  F8  1  0.64631900  0.77432300  0.04117800  1
  F  F9  1  0.35368100  0.22567700  0.95882200  1
