# generated using pymatgen
data_TbPOs2C
_symmetry_space_group_name_H-M   'P 1'
_cell_length_a   5.88526145
_cell_length_b   5.88526145
_cell_length_c   7.04803800
_cell_angle_alpha   90.00000000
_cell_angle_beta   90.00000000
_cell_angle_gamma   141.89112230
_symmetry_Int_Tables_number   1
_chemical_formula_structural   TbPOs2C
_chemical_formula_sum   'Tb2 P2 Os4 C2'
_cell_volume   150.65931240
_cell_formula_units_Z   2
loop_
 _symmetry_equiv_pos_site_id
 _symmetry_equiv_pos_as_xyz
  1  'x, y, z'
loop_
 _atom_site_type_symbol
 _atom_site_label
 _atom_site_symmetry_multiplicity
 _atom_site_fract_x
 _atom_site_fract_y
 _atom_site_fract_z
 _atom_site_occupancy
  Tb  Tb0  1  0.54455600  0.45544400  0.25000000  1
  Tb  Tb1  1  0.45544400  0.54455600  0.75000000  1
  P  P2  1  0.26840400  0.73159600  0.25000000  1
  P  P3  1  0.73159600  0.26840400  0.75000000  1
  Os  Os4  1  0.83406500  0.16593500  0.05233200  1
  Os  Os5  1  0.16593500  0.83406500  0.94766800  1
  Os  Os6  1  0.16593500  0.83406500  0.55233200  1
  Os  Os7  1  0.83406500  0.16593500  0.44766800  1
  C  C8  1  0.00000000  0.00000000  0.00000000  1
  C  C9  1  0.00000000  0.00000000  0.50000000  1
