# generated using pymatgen
data_Sr2CoSbO6
_symmetry_space_group_name_H-M   'P 1'
_cell_length_a   7.95313401
_cell_length_b   9.85322717
_cell_length_c   7.94853204
_cell_angle_alpha   66.14547894
_cell_angle_beta   89.83728987
_cell_angle_gamma   66.11980637
_symmetry_Int_Tables_number   1
_chemical_formula_structural   Sr2CoSbO6
_chemical_formula_sum   'Sr8 Co4 Sb4 O24'
_cell_volume   511.17311850
_cell_formula_units_Z   4
loop_
 _symmetry_equiv_pos_site_id
 _symmetry_equiv_pos_as_xyz
  1  'x, y, z'
loop_
 _atom_site_type_symbol
 _atom_site_label
 _atom_site_symmetry_multiplicity
 _atom_site_fract_x
 _atom_site_fract_y
 _atom_site_fract_z
 _atom_site_occupancy
  Sr  Sr0  1  0.62780500  0.24986900  0.62477200  1
  Sr  Sr1  1  0.37528300  0.74987000  0.87778600  1
  Sr  Sr2  1  0.12229200  0.24991900  0.12540300  1
  Sr  Sr3  1  0.87488200  0.74988100  0.37227600  1
  Sr  Sr4  1  0.37494000  0.75011100  0.37256500  1
  Sr  Sr5  1  0.12257900  0.25007100  0.62490700  1
  Sr  Sr6  1  0.87494900  0.75015200  0.87723600  1
  Sr  Sr7  1  0.62727100  0.25014000  0.12505900  1
  Co  Co8  1  0.75068700  0.49865200  0.75067000  1
  Co  Co9  1  0.50078600  0.99845000  0.00080800  1
  Co  Co10  1  0.99922700  0.00158600  0.49918200  1
  Co  Co11  1  0.24930300  0.50136200  0.24937300  1
  Sb  Sb12  1  0.74996300  0.50005700  0.24996600  1
  Sb  Sb13  1  0.50001000  0.99999000  0.50002200  1
  Sb  Sb14  1  0.25002600  0.49995900  0.75004200  1
  Sb  Sb15  1  0.99998900  0.00003200  0.99996700  1
  O  O16  1  0.75324500  0.99873100  0.49980500  1
  O  O17  1  0.50316200  0.50125500  0.74921900  1
  O  O18  1  0.24906000  0.00027300  0.00057700  1
  O  O19  1  0.99991100  0.49964400  0.24963800  1
  O  O20  1  0.24806000  0.99863000  0.50150200  1
  O  O21  1  0.99555400  0.50132600  0.74948100  1
  O  O22  1  0.75066300  0.00030000  0.99915300  1
  O  O23  1  0.50035200  0.49981000  0.25065900  1
  O  O24  1  0.87393000  0.25197100  0.37403600  1
  O  O25  1  0.62224200  0.75559800  0.62215400  1
  O  O26  1  0.37207900  0.25581800  0.87218100  1
  O  O27  1  0.12394800  0.75220800  0.12371600  1
  O  O28  1  0.12794600  0.74421800  0.62783500  1
  O  O29  1  0.87607300  0.24775100  0.87615800  1
  O  O30  1  0.62603600  0.74798100  0.12591100  1
  O  O31  1  0.37771500  0.24443300  0.37794000  1
  O  O32  1  0.00107900  0.99965700  0.74998800  1
  O  O33  1  0.75007500  0.50018600  0.00071900  1
  O  O34  1  0.49859400  0.00149300  0.24552400  1
  O  O35  1  0.25117600  0.49863500  0.49759300  1
  O  O36  1  0.99931200  0.99958000  0.25035900  1
  O  O37  1  0.74974300  0.50019400  0.49908100  1
  O  O38  1  0.49999300  0.00132900  0.75309000  1
  O  O39  1  0.25006000  0.49887400  0.00364800  1
