# generated using pymatgen
data_Ho2CoGe6
_symmetry_space_group_name_H-M   'P 1'
_cell_length_a   4.06392800
_cell_length_b   3.99106000
_cell_length_c   10.92741272
_cell_angle_alpha   100.52222282
_cell_angle_beta   90.00000000
_cell_angle_gamma   90.00000000
_symmetry_Int_Tables_number   1
_chemical_formula_structural   Ho2CoGe6
_chemical_formula_sum   'Ho2 Co1 Ge6'
_cell_volume   174.25549311
_cell_formula_units_Z   1
loop_
 _symmetry_equiv_pos_site_id
 _symmetry_equiv_pos_as_xyz
  1  'x, y, z'
loop_
 _atom_site_type_symbol
 _atom_site_label
 _atom_site_symmetry_multiplicity
 _atom_site_fract_x
 _atom_site_fract_y
 _atom_site_fract_z
 _atom_site_occupancy
  Ho  Ho0  1  0.50000000  0.22219600  0.44439300  1
  Ho  Ho1  1  0.50000000  0.88651100  0.77302300  1
  Co  Co2  1  0.00000000  0.44519200  0.89038400  1
  Ge  Ge3  1  0.50000000  0.49975500  0.99950900  1
  Ge  Ge4  1  0.50000000  0.61646100  0.23292200  1
  Ge  Ge5  1  0.00000000  0.00083500  0.00167000  1
  Ge  Ge6  1  0.00000000  0.11848800  0.23697600  1
  Ge  Ge7  1  0.00000000  0.33906700  0.67813400  1
  Ge  Ge8  1  0.00000000  0.76449500  0.52899000  1
