# generated using pymatgen
data_KRb2PdF6
_symmetry_space_group_name_H-M   'P 1'
_cell_length_a   6.38303300
_cell_length_b   6.38303300
_cell_length_c   6.53945419
_cell_angle_alpha   119.21184546
_cell_angle_beta   119.21184546
_cell_angle_gamma   90.00000000
_symmetry_Int_Tables_number   1
_chemical_formula_structural   KRb2PdF6
_chemical_formula_sum   'K1 Rb2 Pd1 F6'
_cell_volume   192.80108330
_cell_formula_units_Z   1
loop_
 _symmetry_equiv_pos_site_id
 _symmetry_equiv_pos_as_xyz
  1  'x, y, z'
loop_
 _atom_site_type_symbol
 _atom_site_label
 _atom_site_symmetry_multiplicity
 _atom_site_fract_x
 _atom_site_fract_y
 _atom_site_fract_z
 _atom_site_occupancy
  K  K0  1  0.50000000  0.50000000  0.00000000  1
  Rb  Rb1  1  0.25000000  0.75000000  0.50000000  1
  Rb  Rb2  1  0.75000000  0.25000000  0.50000000  1
  Pd  Pd3  1  0.00000000  0.00000000  0.00000000  1
  F  F4  1  0.22119700  0.22119700  0.00000000  1
  F  F5  1  0.77880300  0.77880300  0.00000000  1
  F  F6  1  0.77880300  0.22119700  0.00000000  1
  F  F7  1  0.22119700  0.77880300  0.00000000  1
  F  F8  1  0.23315200  0.23315200  0.46630400  1
  F  F9  1  0.76684800  0.76684800  0.53369600  1
