# generated using pymatgen
data_Ce(PPt)2
_symmetry_space_group_name_H-M   'P 1'
_cell_length_a   10.10030178
_cell_length_b   10.10030178
_cell_length_c   10.10030178
_cell_angle_alpha   155.41687402
_cell_angle_beta   155.41687402
_cell_angle_gamma   35.04340061
_symmetry_Int_Tables_number   1
_chemical_formula_structural   Ce(PPt)2
_chemical_formula_sum   'Ce2 P4 Pt4'
_cell_volume   178.12584299
_cell_formula_units_Z   2
loop_
 _symmetry_equiv_pos_site_id
 _symmetry_equiv_pos_as_xyz
  1  'x, y, z'
loop_
 _atom_site_type_symbol
 _atom_site_label
 _atom_site_symmetry_multiplicity
 _atom_site_fract_x
 _atom_site_fract_y
 _atom_site_fract_z
 _atom_site_occupancy
  Ce  Ce0  1  0.37280800  0.37280800  0.00000000  1
  Ce  Ce1  1  0.62719200  0.62719200  0.00000000  1
  P  P2  1  0.07038700  0.07038700  0.00000000  1
  P  P3  1  0.92961300  0.92961300  0.00000000  1
  P  P4  1  0.75000000  0.25000000  0.50000000  1
  P  P5  1  0.25000000  0.75000000  0.50000000  1
  Pt  Pt6  1  0.19282600  0.19282600  0.00000000  1
  Pt  Pt7  1  0.80717400  0.80717400  0.00000000  1
  Pt  Pt8  1  0.50000000  0.00000000  0.50000000  1
  Pt  Pt9  1  0.00000000  0.50000000  0.50000000  1
