# generated using pymatgen
data_Hf2Ni7
_symmetry_space_group_name_H-M   'P 1'
_cell_length_a   4.70323283
_cell_length_b   4.70323283
_cell_length_c   6.25100435
_cell_angle_alpha   82.10468876
_cell_angle_beta   82.10468876
_cell_angle_gamma   120.72131759
_symmetry_Int_Tables_number   1
_chemical_formula_structural   Hf2Ni7
_chemical_formula_sum   'Hf2 Ni7'
_cell_volume   114.19206509
_cell_formula_units_Z   1
loop_
 _symmetry_equiv_pos_site_id
 _symmetry_equiv_pos_as_xyz
  1  'x, y, z'
loop_
 _atom_site_type_symbol
 _atom_site_label
 _atom_site_symmetry_multiplicity
 _atom_site_fract_x
 _atom_site_fract_y
 _atom_site_fract_z
 _atom_site_occupancy
  Hf  Hf0  1  0.10586700  0.10586700  0.22926800  1
  Hf  Hf1  1  0.89413300  0.89413300  0.77073200  1
  Ni  Ni2  1  0.00000000  0.50000000  0.50000000  1
  Ni  Ni3  1  0.50000000  0.00000000  0.50000000  1
  Ni  Ni4  1  0.46275800  0.79265500  0.15521000  1
  Ni  Ni5  1  0.53724200  0.20734500  0.84479000  1
  Ni  Ni6  1  0.20734500  0.53724200  0.84479000  1
  Ni  Ni7  1  0.79265500  0.46275800  0.15521000  1
  Ni  Ni8  1  0.50000000  0.50000000  0.50000000  1
