# generated using pymatgen
data_MnCd3F6
_symmetry_space_group_name_H-M   'P 1'
_cell_length_a   5.80057982
_cell_length_b   7.52509172
_cell_length_c   12.42136165
_cell_angle_alpha   83.04465456
_cell_angle_beta   95.57984895
_cell_angle_gamma   109.96318741
_symmetry_Int_Tables_number   1
_chemical_formula_structural   MnCd3F6
_chemical_formula_sum   'Mn1 Cd3 F6'
_cell_volume   504.95331545
_cell_formula_units_Z   1
loop_
 _symmetry_equiv_pos_site_id
 _symmetry_equiv_pos_as_xyz
  1  'x, y, z'
loop_
 _atom_site_type_symbol
 _atom_site_label
 _atom_site_symmetry_multiplicity
 _atom_site_fract_x
 _atom_site_fract_y
 _atom_site_fract_z
 _atom_site_occupancy
  Mn  Mn0  1  0.00000000  0.00000000  0.00000000  1
  Cd  Cd1  1  0.00000000  0.00000000  0.50000000  1
  Cd  Cd2  1  0.50000000  0.50000000  0.00000000  1
  Cd  Cd3  1  0.00000000  0.50000000  0.00000000  1
  F  F4  1  0.91559500  0.22512700  0.92202700  1
  F  F5  1  0.08440500  0.77487300  0.07797300  1
  F  F6  1  0.92637000  0.97376900  0.65310500  1
  F  F7  1  0.07363000  0.02623100  0.34689500  1
  F  F8  1  0.69858000  0.80530200  0.93576100  1
  F  F9  1  0.30142000  0.19469800  0.06423900  1
