# generated using pymatgen
data_Ba2FeF6
_symmetry_space_group_name_H-M   'P 1'
_cell_length_a   4.24925600
_cell_length_b   4.24925600
_cell_length_c   8.64745699
_cell_angle_alpha   104.22285547
_cell_angle_beta   104.22285547
_cell_angle_gamma   90.00000000
_symmetry_Int_Tables_number   1
_chemical_formula_structural   Ba2FeF6
_chemical_formula_sum   'Ba2 Fe1 F6'
_cell_volume   146.41145074
_cell_formula_units_Z   1
loop_
 _symmetry_equiv_pos_site_id
 _symmetry_equiv_pos_as_xyz
  1  'x, y, z'
loop_
 _atom_site_type_symbol
 _atom_site_label
 _atom_site_symmetry_multiplicity
 _atom_site_fract_x
 _atom_site_fract_y
 _atom_site_fract_z
 _atom_site_occupancy
  Ba  Ba0  1  0.34714700  0.34714700  0.69429300  1
  Ba  Ba1  1  0.65285300  0.65285300  0.30570700  1
  Fe  Fe2  1  0.00000000  0.00000000  0.00000000  1
  F  F3  1  0.12233300  0.12233300  0.24466600  1
  F  F4  1  0.87766700  0.87766700  0.75533400  1
  F  F5  1  0.25000000  0.75000000  0.50000000  1
  F  F6  1  0.75000000  0.25000000  0.50000000  1
  F  F7  1  0.00000000  0.50000000  0.00000000  1
  F  F8  1  0.50000000  0.00000000  0.00000000  1
