# generated using pymatgen
data_La2CdP2O
_symmetry_space_group_name_H-M   'P 1'
_cell_length_a   3.53045400
_cell_length_b   3.53045400
_cell_length_c   14.82463800
_cell_angle_alpha   90.00000000
_cell_angle_beta   90.00000000
_cell_angle_gamma   90.00000000
_symmetry_Int_Tables_number   1
_chemical_formula_structural   La2CdP2O
_chemical_formula_sum   'La2 Cd1 P2 O1'
_cell_volume   184.77585123
_cell_formula_units_Z   1
loop_
 _symmetry_equiv_pos_site_id
 _symmetry_equiv_pos_as_xyz
  1  'x, y, z'
loop_
 _atom_site_type_symbol
 _atom_site_label
 _atom_site_symmetry_multiplicity
 _atom_site_fract_x
 _atom_site_fract_y
 _atom_site_fract_z
 _atom_site_occupancy
  La  La0  1  0.50000000  0.50000000  0.64249400  1
  La  La1  1  0.50000000  0.50000000  0.35750600  1
  Cd  Cd2  1  0.50000000  0.50000000  0.00000000  1
  P  P3  1  0.50000000  0.50000000  0.16260700  1
  P  P4  1  0.50000000  0.50000000  0.83739300  1
  O  O5  1  0.50000000  0.50000000  0.50000000  1
