# generated using pymatgen
data_Na2PtO6
_symmetry_space_group_name_H-M   'P 1'
_cell_length_a   5.85525648
_cell_length_b   5.85525648
_cell_length_c   3.95393600
_cell_angle_alpha   90.00000000
_cell_angle_beta   90.00000000
_cell_angle_gamma   120.00000546
_symmetry_Int_Tables_number   1
_chemical_formula_structural   Na2PtO6
_chemical_formula_sum   'Na2 Pt1 O6'
_cell_volume   117.39567316
_cell_formula_units_Z   1
loop_
 _symmetry_equiv_pos_site_id
 _symmetry_equiv_pos_as_xyz
  1  'x, y, z'
loop_
 _atom_site_type_symbol
 _atom_site_label
 _atom_site_symmetry_multiplicity
 _atom_site_fract_x
 _atom_site_fract_y
 _atom_site_fract_z
 _atom_site_occupancy
  Na  Na0  1  0.33333300  0.66666700  0.00000000  1
  Na  Na1  1  0.66666700  0.33333300  0.00000000  1
  Pt  Pt2  1  0.00000000  0.00000000  0.00000000  1
  O  O3  1  0.26509400  0.00000000  0.28339000  1
  O  O4  1  0.73490600  0.00000000  0.71661000  1
  O  O5  1  0.00000000  0.26509400  0.28339000  1
  O  O6  1  0.00000000  0.73490600  0.71661000  1
  O  O7  1  0.73490600  0.73490600  0.28339000  1
  O  O8  1  0.26509400  0.26509400  0.71661000  1
