# generated using pymatgen
data_Hf3ZnF6
_symmetry_space_group_name_H-M   'P 1'
_cell_length_a   6.05371485
_cell_length_b   5.55538029
_cell_length_c   15.80301626
_cell_angle_alpha   112.62579703
_cell_angle_beta   47.61128707
_cell_angle_gamma   123.07716958
_symmetry_Int_Tables_number   1
_chemical_formula_structural   Hf3ZnF6
_chemical_formula_sum   'Hf3 Zn1 F6'
_cell_volume   328.79819224
_cell_formula_units_Z   1
loop_
 _symmetry_equiv_pos_site_id
 _symmetry_equiv_pos_as_xyz
  1  'x, y, z'
loop_
 _atom_site_type_symbol
 _atom_site_label
 _atom_site_symmetry_multiplicity
 _atom_site_fract_x
 _atom_site_fract_y
 _atom_site_fract_z
 _atom_site_occupancy
  Hf  Hf0  1  0.00000000  0.00000000  0.50000000  1
  Hf  Hf1  1  0.50000000  0.50000000  0.00000000  1
  Hf  Hf2  1  0.00000000  0.50000000  0.00000000  1
  Zn  Zn3  1  0.00000000  0.00000000  0.00000000  1
  F  F4  1  0.88247300  0.36215000  0.88507900  1
  F  F5  1  0.11752700  0.63785000  0.11492100  1
  F  F6  1  0.93614000  0.97724400  0.63361500  1
  F  F7  1  0.06386000  0.02275600  0.36638500  1
  F  F8  1  0.51394500  0.63475500  0.88791300  1
  F  F9  1  0.48605500  0.36524500  0.11208700  1
