# generated using pymatgen
data_Er2Ge6Pt
_symmetry_space_group_name_H-M   'P 1'
_cell_length_a   4.06163600
_cell_length_b   4.08531500
_cell_length_c   11.14971629
_cell_angle_alpha   90.00000000
_cell_angle_beta   100.49447897
_cell_angle_gamma   90.00000000
_symmetry_Int_Tables_number   1
_chemical_formula_structural   Er2Ge6Pt
_chemical_formula_sum   'Er2 Ge6 Pt1'
_cell_volume   181.91321187
_cell_formula_units_Z   1
loop_
 _symmetry_equiv_pos_site_id
 _symmetry_equiv_pos_as_xyz
  1  'x, y, z'
loop_
 _atom_site_type_symbol
 _atom_site_label
 _atom_site_symmetry_multiplicity
 _atom_site_fract_x
 _atom_site_fract_y
 _atom_site_fract_z
 _atom_site_occupancy
  Er  Er0  1  0.77781300  0.50000000  0.55562500  1
  Er  Er1  1  0.11704900  0.50000000  0.23409700  1
  Ge  Ge2  1  0.49306000  0.50000000  0.98611900  1
  Ge  Ge3  1  0.37878300  0.50000000  0.75756600  1
  Ge  Ge4  1  0.99207500  0.00000000  0.98415000  1
  Ge  Ge5  1  0.87754500  0.00000000  0.75509000  1
  Ge  Ge6  1  0.67011300  0.00000000  0.34022600  1
  Ge  Ge7  1  0.24086000  0.00000000  0.48172000  1
  Pt  Pt8  1  0.55970300  0.00000000  0.11940700  1
