# generated using pymatgen
data_KSb3
_symmetry_space_group_name_H-M   'P 1'
_cell_length_a   5.53307791
_cell_length_b   5.53307791
_cell_length_c   9.79887300
_cell_angle_alpha   90.00000000
_cell_angle_beta   90.00000000
_cell_angle_gamma   119.99999887
_symmetry_Int_Tables_number   1
_chemical_formula_structural   KSb3
_chemical_formula_sum   'K2 Sb6'
_cell_volume   259.80071132
_cell_formula_units_Z   2
loop_
 _symmetry_equiv_pos_site_id
 _symmetry_equiv_pos_as_xyz
  1  'x, y, z'
loop_
 _atom_site_type_symbol
 _atom_site_label
 _atom_site_symmetry_multiplicity
 _atom_site_fract_x
 _atom_site_fract_y
 _atom_site_fract_z
 _atom_site_occupancy
  K  K0  1  0.33333300  0.66666700  0.25000000  1
  K  K1  1  0.66666700  0.33333300  0.75000000  1
  Sb  Sb2  1  0.33333300  0.66666700  0.59856000  1
  Sb  Sb3  1  0.66666700  0.33333300  0.40144000  1
  Sb  Sb4  1  0.66666700  0.33333300  0.09856000  1
  Sb  Sb5  1  0.33333300  0.66666700  0.90144000  1
  Sb  Sb6  1  0.00000000  0.00000000  0.25000000  1
  Sb  Sb7  1  0.00000000  0.00000000  0.75000000  1
