# generated using pymatgen
data_CeSiPt2
_symmetry_space_group_name_H-M   'P 1'
_cell_length_a   3.99302900
_cell_length_b   4.13296000
_cell_length_c   9.59891982
_cell_angle_alpha   90.00000000
_cell_angle_beta   102.00480472
_cell_angle_gamma   90.00000000
_symmetry_Int_Tables_number   1
_chemical_formula_structural   CeSiPt2
_chemical_formula_sum   'Ce2 Si2 Pt4'
_cell_volume   154.94682504
_cell_formula_units_Z   2
loop_
 _symmetry_equiv_pos_site_id
 _symmetry_equiv_pos_as_xyz
  1  'x, y, z'
loop_
 _atom_site_type_symbol
 _atom_site_label
 _atom_site_symmetry_multiplicity
 _atom_site_fract_x
 _atom_site_fract_y
 _atom_site_fract_z
 _atom_site_occupancy
  Ce  Ce0  1  0.60083900  0.25000000  0.20167900  1
  Ce  Ce1  1  0.39916100  0.75000000  0.79832100  1
  Si  Si2  1  0.82474200  0.25000000  0.64948400  1
  Si  Si3  1  0.17525800  0.75000000  0.35051600  1
  Pt  Pt4  1  0.95110200  0.25000000  0.90220400  1
  Pt  Pt5  1  0.04889800  0.75000000  0.09779600  1
  Pt  Pt6  1  0.25115900  0.25000000  0.50231800  1
  Pt  Pt7  1  0.74884100  0.75000000  0.49768200  1
