# generated using pymatgen
data_KYb3O6
_symmetry_space_group_name_H-M   'P 1'
_cell_length_a   9.28334021
_cell_length_b   9.28334021
_cell_length_c   53.75258500
_cell_angle_alpha   90.00000000
_cell_angle_beta   90.00000000
_cell_angle_gamma   114.11240381
_symmetry_Int_Tables_number   1
_chemical_formula_structural   KYb3O6
_chemical_formula_sum   'K1 Yb3 O6'
_cell_volume   4228.22130878
_cell_formula_units_Z   1
loop_
 _symmetry_equiv_pos_site_id
 _symmetry_equiv_pos_as_xyz
  1  'x, y, z'
loop_
 _atom_site_type_symbol
 _atom_site_label
 _atom_site_symmetry_multiplicity
 _atom_site_fract_x
 _atom_site_fract_y
 _atom_site_fract_z
 _atom_site_occupancy
  K  K0  1  0.00000000  0.00000000  0.00000000  1
  Yb  Yb1  1  0.00000000  0.00000000  0.50000000  1
  Yb  Yb2  1  0.50000000  0.00000000  0.00000000  1
  Yb  Yb3  1  0.00000000  0.50000000  0.00000000  1
  O  O4  1  0.00000000  0.00000000  0.23097500  1
  O  O5  1  0.00000000  0.00000000  0.76902500  1
  O  O6  1  0.28332200  0.99779400  0.00000000  1
  O  O7  1  0.71667800  0.00220600  0.00000000  1
  O  O8  1  0.99779400  0.28332200  0.00000000  1
  O  O9  1  0.00220600  0.71667800  0.00000000  1
