# generated using pymatgen
data_ZnI6
_symmetry_space_group_name_H-M   'P 1'
_cell_length_a   10.57697908
_cell_length_b   10.57697908
_cell_length_c   54.87183400
_cell_angle_alpha   90.00000000
_cell_angle_beta   90.00000000
_cell_angle_gamma   110.59095462
_symmetry_Int_Tables_number   1
_chemical_formula_structural   ZnI6
_chemical_formula_sum   'Zn1 I6'
_cell_volume   5746.48137225
_cell_formula_units_Z   1
loop_
 _symmetry_equiv_pos_site_id
 _symmetry_equiv_pos_as_xyz
  1  'x, y, z'
loop_
 _atom_site_type_symbol
 _atom_site_label
 _atom_site_symmetry_multiplicity
 _atom_site_fract_x
 _atom_site_fract_y
 _atom_site_fract_z
 _atom_site_occupancy
  Zn  Zn0  1  0.00000000  0.00000000  0.00000000  1
  I  I1  1  0.00000000  0.00000000  0.24999400  1
  I  I2  1  0.00000000  0.00000000  0.75000600  1
  I  I3  1  0.25613700  0.01331000  0.00000000  1
  I  I4  1  0.74386300  0.98669000  0.00000000  1
  I  I5  1  0.01331000  0.25613700  0.00000000  1
  I  I6  1  0.98669000  0.74386300  0.00000000  1
