# generated using pymatgen
data_RbDyI3
_symmetry_space_group_name_H-M   'P 1'
_cell_length_a   8.28396059
_cell_length_b   8.28396059
_cell_length_c   11.75734000
_cell_angle_alpha   90.00000000
_cell_angle_beta   90.00000000
_cell_angle_gamma   148.64709074
_symmetry_Int_Tables_number   1
_chemical_formula_structural   RbDyI3
_chemical_formula_sum   'Rb2 Dy2 I6'
_cell_volume   419.80303309
_cell_formula_units_Z   2
loop_
 _symmetry_equiv_pos_site_id
 _symmetry_equiv_pos_as_xyz
  1  'x, y, z'
loop_
 _atom_site_type_symbol
 _atom_site_label
 _atom_site_symmetry_multiplicity
 _atom_site_fract_x
 _atom_site_fract_y
 _atom_site_fract_z
 _atom_site_occupancy
  Rb  Rb0  1  0.24628400  0.75371600  0.25000000  1
  Rb  Rb1  1  0.75371600  0.24628400  0.75000000  1
  Dy  Dy2  1  0.00000000  0.00000000  0.00000000  1
  Dy  Dy3  1  0.00000000  0.00000000  0.50000000  1
  I  I4  1  0.63052100  0.36947900  0.04951100  1
  I  I5  1  0.36947900  0.63052100  0.95048900  1
  I  I6  1  0.36947900  0.63052100  0.54951100  1
  I  I7  1  0.63052100  0.36947900  0.45048900  1
  I  I8  1  0.93378300  0.06621700  0.25000000  1
  I  I9  1  0.06621700  0.93378300  0.75000000  1
