# generated using pymatgen
data_Cu2BiSO2
_symmetry_space_group_name_H-M   'P 1'
_cell_length_a   3.35555000
_cell_length_b   3.35555000
_cell_length_c   11.86404100
_cell_angle_alpha   90.00000000
_cell_angle_beta   90.00000000
_cell_angle_gamma   90.00000000
_symmetry_Int_Tables_number   1
_chemical_formula_structural   Cu2BiSO2
_chemical_formula_sum   'Cu2 Bi1 S1 O2'
_cell_volume   133.58572993
_cell_formula_units_Z   1
loop_
 _symmetry_equiv_pos_site_id
 _symmetry_equiv_pos_as_xyz
  1  'x, y, z'
loop_
 _atom_site_type_symbol
 _atom_site_label
 _atom_site_symmetry_multiplicity
 _atom_site_fract_x
 _atom_site_fract_y
 _atom_site_fract_z
 _atom_site_occupancy
  Cu  Cu0  1  0.50000000  0.50000000  0.17206700  1
  Cu  Cu1  1  0.50000000  0.50000000  0.82793300  1
  Bi  Bi2  1  0.50000000  0.50000000  0.50000000  1
  S  S3  1  0.50000000  0.50000000  0.00000000  1
  O  O4  1  0.50000000  0.50000000  0.68168400  1
  O  O5  1  0.50000000  0.50000000  0.31831600  1
