# generated using pymatgen
data_InFeNi
_symmetry_space_group_name_H-M   'P 1'
_cell_length_a   4.40732353
_cell_length_b   4.40732353
_cell_length_c   5.23582200
_cell_angle_alpha   90.00000000
_cell_angle_beta   90.00000000
_cell_angle_gamma   119.99999289
_symmetry_Int_Tables_number   1
_chemical_formula_structural   InFeNi
_chemical_formula_sum   'In2 Fe2 Ni2'
_cell_volume   88.07758535
_cell_formula_units_Z   2
loop_
 _symmetry_equiv_pos_site_id
 _symmetry_equiv_pos_as_xyz
  1  'x, y, z'
loop_
 _atom_site_type_symbol
 _atom_site_label
 _atom_site_symmetry_multiplicity
 _atom_site_fract_x
 _atom_site_fract_y
 _atom_site_fract_z
 _atom_site_occupancy
  In  In0  1  0.66666700  0.33333300  0.75000000  1
  In  In1  1  0.33333300  0.66666700  0.25000000  1
  Fe  Fe2  1  0.66666700  0.33333300  0.25000000  1
  Fe  Fe3  1  0.33333300  0.66666700  0.75000000  1
  Ni  Ni4  1  0.00000000  0.00000000  0.00000000  1
  Ni  Ni5  1  0.00000000  0.00000000  0.50000000  1
