# generated using pymatgen
data_Mg2Sb3
_symmetry_space_group_name_H-M   'P 1'
_cell_length_a   4.69536220
_cell_length_b   4.69536220
_cell_length_c   7.49032500
_cell_angle_alpha   90.00000000
_cell_angle_beta   90.00000000
_cell_angle_gamma   120.00000278
_symmetry_Int_Tables_number   1
_chemical_formula_structural   Mg2Sb3
_chemical_formula_sum   'Mg2 Sb3'
_cell_volume   143.01101190
_cell_formula_units_Z   1
loop_
 _symmetry_equiv_pos_site_id
 _symmetry_equiv_pos_as_xyz
  1  'x, y, z'
loop_
 _atom_site_type_symbol
 _atom_site_label
 _atom_site_symmetry_multiplicity
 _atom_site_fract_x
 _atom_site_fract_y
 _atom_site_fract_z
 _atom_site_occupancy
  Mg  Mg0  1  0.33333300  0.66666700  0.16483300  1
  Mg  Mg1  1  0.66666700  0.33333300  0.83516700  1
  Sb  Sb2  1  0.33333300  0.66666700  0.58027500  1
  Sb  Sb3  1  0.66666700  0.33333300  0.41972500  1
  Sb  Sb4  1  0.00000000  0.00000000  0.00000000  1
