# generated using pymatgen
data_ZrCd
_symmetry_space_group_name_H-M   'P 1'
_cell_length_a   2.92356500
_cell_length_b   2.92356500
_cell_length_c   12.01582700
_cell_angle_alpha   90.00000000
_cell_angle_beta   90.00000000
_cell_angle_gamma   90.00000000
_symmetry_Int_Tables_number   1
_chemical_formula_structural   ZrCd
_chemical_formula_sum   'Zr2 Cd2'
_cell_volume   102.70206476
_cell_formula_units_Z   2
loop_
 _symmetry_equiv_pos_site_id
 _symmetry_equiv_pos_as_xyz
  1  'x, y, z'
loop_
 _atom_site_type_symbol
 _atom_site_label
 _atom_site_symmetry_multiplicity
 _atom_site_fract_x
 _atom_site_fract_y
 _atom_site_fract_z
 _atom_site_occupancy
  Zr  Zr0  1  0.50000000  0.50000000  0.62388000  1
  Zr  Zr1  1  0.50000000  0.50000000  0.37612000  1
  Cd  Cd2  1  0.50000000  0.50000000  0.12406400  1
  Cd  Cd3  1  0.50000000  0.50000000  0.87593600  1
