# generated using pymatgen
data_Sm2Br2F
_symmetry_space_group_name_H-M   'P 1'
_cell_length_a   3.95903600
_cell_length_b   3.95903600
_cell_length_c   13.76107900
_cell_angle_alpha   90.00000000
_cell_angle_beta   90.00000000
_cell_angle_gamma   90.00000000
_symmetry_Int_Tables_number   1
_chemical_formula_structural   Sm2Br2F
_chemical_formula_sum   'Sm2 Br2 F1'
_cell_volume   215.69068505
_cell_formula_units_Z   1
loop_
 _symmetry_equiv_pos_site_id
 _symmetry_equiv_pos_as_xyz
  1  'x, y, z'
loop_
 _atom_site_type_symbol
 _atom_site_label
 _atom_site_symmetry_multiplicity
 _atom_site_fract_x
 _atom_site_fract_y
 _atom_site_fract_z
 _atom_site_occupancy
  Sm  Sm0  1  0.50000000  0.50000000  0.16677500  1
  Sm  Sm1  1  0.50000000  0.50000000  0.83322500  1
  Br  Br2  1  0.50000000  0.50000000  0.64342700  1
  Br  Br3  1  0.50000000  0.50000000  0.35657300  1
  F  F4  1  0.50000000  0.50000000  0.00000000  1
