# generated using pymatgen
data_EuO3
_symmetry_space_group_name_H-M   'P 1'
_cell_length_a   7.11652884
_cell_length_b   7.11652884
_cell_length_c   3.53725000
_cell_angle_alpha   90.00000000
_cell_angle_beta   90.00000000
_cell_angle_gamma   120.00000777
_symmetry_Int_Tables_number   1
_chemical_formula_structural   EuO3
_chemical_formula_sum   'Eu2 O6'
_cell_volume   155.14321244
_cell_formula_units_Z   2
loop_
 _symmetry_equiv_pos_site_id
 _symmetry_equiv_pos_as_xyz
  1  'x, y, z'
loop_
 _atom_site_type_symbol
 _atom_site_label
 _atom_site_symmetry_multiplicity
 _atom_site_fract_x
 _atom_site_fract_y
 _atom_site_fract_z
 _atom_site_occupancy
  Eu  Eu0  1  0.33333300  0.66666700  0.25000000  1
  Eu  Eu1  1  0.66666700  0.33333300  0.75000000  1
  O  O2  1  0.48409400  0.03443100  0.25000000  1
  O  O3  1  0.51590600  0.96556900  0.75000000  1
  O  O4  1  0.96556900  0.44966300  0.25000000  1
  O  O5  1  0.03443100  0.55033700  0.75000000  1
  O  O6  1  0.55033700  0.51590600  0.25000000  1
  O  O7  1  0.44966300  0.48409400  0.75000000  1
