# generated using pymatgen
data_U2Tc
_symmetry_space_group_name_H-M   'P 1'
_cell_length_a   3.04755600
_cell_length_b   4.91434365
_cell_length_c   7.69785948
_cell_angle_alpha   89.92528532
_cell_angle_beta   101.41700528
_cell_angle_gamma   90.00000000
_symmetry_Int_Tables_number   1
_chemical_formula_structural   U2Tc
_chemical_formula_sum   'U4 Tc2'
_cell_volume   113.00743916
_cell_formula_units_Z   2
loop_
 _symmetry_equiv_pos_site_id
 _symmetry_equiv_pos_as_xyz
  1  'x, y, z'
loop_
 _atom_site_type_symbol
 _atom_site_label
 _atom_site_symmetry_multiplicity
 _atom_site_fract_x
 _atom_site_fract_y
 _atom_site_fract_z
 _atom_site_occupancy
  U  U0  1  0.16864600  0.50021800  0.33729200  1
  U  U1  1  0.83135400  0.49978200  0.66270800  1
  U  U2  1  0.50000000  0.50000000  0.00000000  1
  U  U3  1  0.00000000  0.00000000  0.00000000  1
  Tc  Tc4  1  0.32442000  0.99965900  0.64884100  1
  Tc  Tc5  1  0.67558000  0.00034100  0.35115900  1
