# generated using pymatgen
data_PrLuS3
_symmetry_space_group_name_H-M   'P 1'
_cell_length_a   6.67472846
_cell_length_b   6.67472846
_cell_length_c   9.99275100
_cell_angle_alpha   90.00000000
_cell_angle_beta   90.00000000
_cell_angle_gamma   146.93324867
_symmetry_Int_Tables_number   1
_chemical_formula_structural   PrLuS3
_chemical_formula_sum   'Pr2 Lu2 S6'
_cell_volume   242.90651494
_cell_formula_units_Z   2
loop_
 _symmetry_equiv_pos_site_id
 _symmetry_equiv_pos_as_xyz
  1  'x, y, z'
loop_
 _atom_site_type_symbol
 _atom_site_label
 _atom_site_symmetry_multiplicity
 _atom_site_fract_x
 _atom_site_fract_y
 _atom_site_fract_z
 _atom_site_occupancy
  Pr  Pr0  1  0.00000000  0.00000000  0.00000000  1
  Pr  Pr1  1  0.00000000  0.00000000  0.50000000  1
  Lu  Lu2  1  0.24380400  0.75619600  0.25000000  1
  Lu  Lu3  1  0.75619600  0.24380400  0.75000000  1
  S  S4  1  0.88992100  0.11007900  0.25000000  1
  S  S5  1  0.11007900  0.88992100  0.75000000  1
  S  S6  1  0.64869000  0.35131000  0.08429300  1
  S  S7  1  0.35131000  0.64869000  0.58429300  1
  S  S8  1  0.64869000  0.35131000  0.41570700  1
  S  S9  1  0.35131000  0.64869000  0.91570700  1
