# generated using pymatgen
data_Cs3SbF6
_symmetry_space_group_name_H-M   'P 1'
_cell_length_a   9.58932707
_cell_length_b   7.66270807
_cell_length_c   7.63692519
_cell_angle_alpha   77.17697986
_cell_angle_beta   110.67089396
_cell_angle_gamma   128.72164735
_symmetry_Int_Tables_number   1
_chemical_formula_structural   Cs3SbF6
_chemical_formula_sum   'Cs3 Sb1 F6'
_cell_volume   409.63043449
_cell_formula_units_Z   1
loop_
 _symmetry_equiv_pos_site_id
 _symmetry_equiv_pos_as_xyz
  1  'x, y, z'
loop_
 _atom_site_type_symbol
 _atom_site_label
 _atom_site_symmetry_multiplicity
 _atom_site_fract_x
 _atom_site_fract_y
 _atom_site_fract_z
 _atom_site_occupancy
  Cs  Cs0  1  0.00000000  0.00000000  0.50000000  1
  Cs  Cs1  1  0.50000000  0.50000000  0.00000000  1
  Cs  Cs2  1  0.00000000  0.50000000  0.00000000  1
  Sb  Sb3  1  0.00000000  0.00000000  0.00000000  1
  F  F4  1  0.05581000  0.26760700  0.78487800  1
  F  F5  1  0.94419000  0.73239300  0.21512200  1
  F  F6  1  0.78907000  0.72211500  0.79355200  1
  F  F7  1  0.21093000  0.27788500  0.20644800  1
  F  F8  1  0.79362300  0.00214100  0.06697100  1
  F  F9  1  0.20637700  0.99785900  0.93302900  1
