# generated using pymatgen
data_Tb2CdNi2
_symmetry_space_group_name_H-M   'P 1'
_cell_length_a   7.34118000
_cell_length_b   7.34118000
_cell_length_c   3.68989200
_cell_angle_alpha   90.00000000
_cell_angle_beta   90.00000000
_cell_angle_gamma   90.00000000
_symmetry_Int_Tables_number   1
_chemical_formula_structural   Tb2CdNi2
_chemical_formula_sum   'Tb4 Cd2 Ni4'
_cell_volume   198.85906836
_cell_formula_units_Z   2
loop_
 _symmetry_equiv_pos_site_id
 _symmetry_equiv_pos_as_xyz
  1  'x, y, z'
loop_
 _atom_site_type_symbol
 _atom_site_label
 _atom_site_symmetry_multiplicity
 _atom_site_fract_x
 _atom_site_fract_y
 _atom_site_fract_z
 _atom_site_occupancy
  Tb  Tb0  1  0.67932400  0.17932400  0.50000000  1
  Tb  Tb1  1  0.32067600  0.82067600  0.50000000  1
  Tb  Tb2  1  0.17932400  0.32067600  0.50000000  1
  Tb  Tb3  1  0.82067600  0.67932400  0.50000000  1
  Cd  Cd4  1  0.00000000  0.00000000  0.00000000  1
  Cd  Cd5  1  0.50000000  0.50000000  0.00000000  1
  Ni  Ni6  1  0.11569600  0.61569600  0.00000000  1
  Ni  Ni7  1  0.88430400  0.38430400  0.00000000  1
  Ni  Ni8  1  0.61569600  0.88430400  0.00000000  1
  Ni  Ni9  1  0.38430400  0.11569600  0.00000000  1
