# generated using pymatgen
data_Pr2CoO4
_symmetry_space_group_name_H-M   'P 1'
_cell_length_a   6.89427015
_cell_length_b   6.89427015
_cell_length_c   6.89427015
_cell_angle_alpha   147.33044935
_cell_angle_beta   147.33044935
_cell_angle_gamma   46.87474594
_symmetry_Int_Tables_number   1
_chemical_formula_structural   Pr2CoO4
_chemical_formula_sum   'Pr2 Co1 O4'
_cell_volume   95.12865919
_cell_formula_units_Z   1
loop_
 _symmetry_equiv_pos_site_id
 _symmetry_equiv_pos_as_xyz
  1  'x, y, z'
loop_
 _atom_site_type_symbol
 _atom_site_label
 _atom_site_symmetry_multiplicity
 _atom_site_fract_x
 _atom_site_fract_y
 _atom_site_fract_z
 _atom_site_occupancy
  Pr  Pr0  1  0.36296200  0.36296200  0.00000000  1
  Pr  Pr1  1  0.63703800  0.63703800  0.00000000  1
  Co  Co2  1  0.00000000  0.00000000  0.00000000  1
  O  O3  1  0.18051000  0.18051000  0.00000000  1
  O  O4  1  0.81949000  0.81949000  0.00000000  1
  O  O5  1  0.50000000  0.00000000  0.50000000  1
  O  O6  1  0.00000000  0.50000000  0.50000000  1
