# generated using pymatgen
data_Rb(YbS2)3
_symmetry_space_group_name_H-M   'P 1'
_cell_length_a   11.71132199
_cell_length_b   11.71132199
_cell_length_c   36.64033900
_cell_angle_alpha   90.00000000
_cell_angle_beta   90.00000000
_cell_angle_gamma   129.67828395
_symmetry_Int_Tables_number   1
_chemical_formula_structural   Rb(YbS2)3
_chemical_formula_sum   'Rb1 Yb3 S6'
_cell_volume   3867.76306644
_cell_formula_units_Z   1
loop_
 _symmetry_equiv_pos_site_id
 _symmetry_equiv_pos_as_xyz
  1  'x, y, z'
loop_
 _atom_site_type_symbol
 _atom_site_label
 _atom_site_symmetry_multiplicity
 _atom_site_fract_x
 _atom_site_fract_y
 _atom_site_fract_z
 _atom_site_occupancy
  Rb  Rb0  1  0.00000000  0.00000000  0.00000000  1
  Yb  Yb1  1  0.00000000  0.00000000  0.50000000  1
  Yb  Yb2  1  0.50000000  0.00000000  0.00000000  1
  Yb  Yb3  1  0.00000000  0.50000000  0.00000000  1
  S  S4  1  0.00000000  0.00000000  0.23069900  1
  S  S5  1  0.00000000  0.00000000  0.76930100  1
  S  S6  1  0.25231400  0.95850800  0.00000000  1
  S  S7  1  0.74768600  0.04149200  0.00000000  1
  S  S8  1  0.95850800  0.25231400  0.00000000  1
  S  S9  1  0.04149200  0.74768600  0.00000000  1
