# generated using pymatgen
data_SmZn2AsO2
_symmetry_space_group_name_H-M   'P 1'
_cell_length_a   3.57595500
_cell_length_b   3.57595500
_cell_length_c   12.35328400
_cell_angle_alpha   90.00000000
_cell_angle_beta   90.00000000
_cell_angle_gamma   90.00000000
_symmetry_Int_Tables_number   1
_chemical_formula_structural   SmZn2AsO2
_chemical_formula_sum   'Sm1 Zn2 As1 O2'
_cell_volume   157.96705290
_cell_formula_units_Z   1
loop_
 _symmetry_equiv_pos_site_id
 _symmetry_equiv_pos_as_xyz
  1  'x, y, z'
loop_
 _atom_site_type_symbol
 _atom_site_label
 _atom_site_symmetry_multiplicity
 _atom_site_fract_x
 _atom_site_fract_y
 _atom_site_fract_z
 _atom_site_occupancy
  Sm  Sm0  1  0.50000000  0.50000000  0.50000000  1
  Zn  Zn1  1  0.50000000  0.50000000  0.18463100  1
  Zn  Zn2  1  0.50000000  0.50000000  0.81536900  1
  As  As3  1  0.50000000  0.50000000  0.00000000  1
  O  O4  1  0.50000000  0.50000000  0.67360500  1
  O  O5  1  0.50000000  0.50000000  0.32639500  1
