# generated using pymatgen
data_Tl2SI2
_symmetry_space_group_name_H-M   'P 1'
_cell_length_a   5.54971700
_cell_length_b   5.54971700
_cell_length_c   13.83042800
_cell_angle_alpha   90.00000000
_cell_angle_beta   90.00000000
_cell_angle_gamma   90.00000000
_symmetry_Int_Tables_number   1
_chemical_formula_structural   Tl2SI2
_chemical_formula_sum   'Tl2 S1 I2'
_cell_volume   425.96831405
_cell_formula_units_Z   1
loop_
 _symmetry_equiv_pos_site_id
 _symmetry_equiv_pos_as_xyz
  1  'x, y, z'
loop_
 _atom_site_type_symbol
 _atom_site_label
 _atom_site_symmetry_multiplicity
 _atom_site_fract_x
 _atom_site_fract_y
 _atom_site_fract_z
 _atom_site_occupancy
  Tl  Tl0  1  0.50000000  0.50000000  0.18055000  1
  Tl  Tl1  1  0.50000000  0.50000000  0.81945000  1
  S  S2  1  0.50000000  0.50000000  0.00000000  1
  I  I3  1  0.50000000  0.50000000  0.61033600  1
  I  I4  1  0.50000000  0.50000000  0.38966400  1
