# generated using pymatgen
data_Rb3Bi2
_symmetry_space_group_name_H-M   'P 1'
_cell_length_a   7.13414056
_cell_length_b   7.13414056
_cell_length_c   9.93833568
_cell_angle_alpha   78.80141104
_cell_angle_beta   78.80141104
_cell_angle_gamma   91.92147410
_symmetry_Int_Tables_number   1
_chemical_formula_structural   Rb3Bi2
_chemical_formula_sum   'Rb6 Bi4'
_cell_volume   485.40681628
_cell_formula_units_Z   2
loop_
 _symmetry_equiv_pos_site_id
 _symmetry_equiv_pos_as_xyz
  1  'x, y, z'
loop_
 _atom_site_type_symbol
 _atom_site_label
 _atom_site_symmetry_multiplicity
 _atom_site_fract_x
 _atom_site_fract_y
 _atom_site_fract_z
 _atom_site_occupancy
  Rb  Rb0  1  0.66031800  0.75464600  0.52462400  1
  Rb  Rb1  1  0.33968200  0.24535400  0.47537600  1
  Rb  Rb2  1  0.24535400  0.33968200  0.97537600  1
  Rb  Rb3  1  0.75464600  0.66031800  0.02462400  1
  Rb  Rb4  1  0.83260700  0.16739300  0.75000000  1
  Rb  Rb5  1  0.16739300  0.83260700  0.25000000  1
  Bi  Bi6  1  0.30774400  0.88243900  0.84231700  1
  Bi  Bi7  1  0.69225600  0.11756100  0.15768300  1
  Bi  Bi8  1  0.11756100  0.69225600  0.65768300  1
  Bi  Bi9  1  0.88243900  0.30774400  0.34231700  1
