# generated using pymatgen
data_RbTm3O6
_symmetry_space_group_name_H-M   'P 1'
_cell_length_a   9.51444701
_cell_length_b   9.51444701
_cell_length_c   49.78338200
_cell_angle_alpha   90.00000000
_cell_angle_beta   90.00000000
_cell_angle_gamma   101.33830283
_symmetry_Int_Tables_number   1
_chemical_formula_structural   RbTm3O6
_chemical_formula_sum   'Rb1 Tm3 O6'
_cell_volume   4418.67201213
_cell_formula_units_Z   1
loop_
 _symmetry_equiv_pos_site_id
 _symmetry_equiv_pos_as_xyz
  1  'x, y, z'
loop_
 _atom_site_type_symbol
 _atom_site_label
 _atom_site_symmetry_multiplicity
 _atom_site_fract_x
 _atom_site_fract_y
 _atom_site_fract_z
 _atom_site_occupancy
  Rb  Rb0  1  0.00000000  0.00000000  0.00000000  1
  Tm  Tm1  1  0.00000000  0.00000000  0.50000000  1
  Tm  Tm2  1  0.50000000  0.00000000  0.00000000  1
  Tm  Tm3  1  0.00000000  0.50000000  0.00000000  1
  O  O4  1  0.00000000  0.00000000  0.23106500  1
  O  O5  1  0.00000000  0.00000000  0.76893500  1
  O  O6  1  0.29823200  0.01430800  0.00000000  1
  O  O7  1  0.70176800  0.98569200  0.00000000  1
  O  O8  1  0.01430800  0.29823200  0.00000000  1
  O  O9  1  0.98569200  0.70176800  0.00000000  1
