# generated using pymatgen
data_Pa2P3
_symmetry_space_group_name_H-M   'P 1'
_cell_length_a   9.66986959
_cell_length_b   9.66986959
_cell_length_c   34.45648851
_cell_angle_alpha   90.00000000
_cell_angle_beta   90.00000000
_cell_angle_gamma   90.00000000
_symmetry_Int_Tables_number   1
_chemical_formula_structural   Pa2P3
_chemical_formula_sum   'Pa2 P3'
_cell_volume   3221.90143530
_cell_formula_units_Z   1
loop_
 _symmetry_equiv_pos_site_id
 _symmetry_equiv_pos_as_xyz
  1  'x, y, z'
loop_
 _atom_site_type_symbol
 _atom_site_label
 _atom_site_symmetry_multiplicity
 _atom_site_fract_x
 _atom_site_fract_y
 _atom_site_fract_z
 _atom_site_occupancy
  Pa  Pa0  1  0.50000000  0.50000000  0.28727120  1
  Pa  Pa1  1  0.50000000  0.50000000  0.71272880  1
  P  P2  1  0.50000000  0.50000000  0.64535522  1
  P  P3  1  0.50000000  0.50000000  0.35464478  1
  P  P4  1  0.50000000  0.50000000  -0.00000000  1
