# generated using pymatgen
data_Y3TlS6
_symmetry_space_group_name_H-M   'P 1'
_cell_length_a   11.18787629
_cell_length_b   11.18787629
_cell_length_c   52.59240000
_cell_angle_alpha   90.00000000
_cell_angle_beta   90.00000000
_cell_angle_gamma   120.17098192
_symmetry_Int_Tables_number   1
_chemical_formula_structural   Y3TlS6
_chemical_formula_sum   'Y3 Tl1 S6'
_cell_volume   5691.12459050
_cell_formula_units_Z   1
loop_
 _symmetry_equiv_pos_site_id
 _symmetry_equiv_pos_as_xyz
  1  'x, y, z'
loop_
 _atom_site_type_symbol
 _atom_site_label
 _atom_site_symmetry_multiplicity
 _atom_site_fract_x
 _atom_site_fract_y
 _atom_site_fract_z
 _atom_site_occupancy
  Y  Y0  1  0.00000000  0.00000000  0.50000000  1
  Y  Y1  1  0.50000000  0.00000000  0.00000000  1
  Y  Y2  1  0.00000000  0.50000000  0.00000000  1
  Tl  Tl3  1  0.00000000  0.00000000  0.00000000  1
  S  S4  1  0.00000000  0.00000000  0.23103900  1
  S  S5  1  0.00000000  0.00000000  0.76896100  1
  S  S6  1  0.28047800  0.99713300  0.00000000  1
  S  S7  1  0.71952200  0.00286700  0.00000000  1
  S  S8  1  0.99713300  0.28047800  0.00000000  1
  S  S9  1  0.00286700  0.71952200  0.00000000  1
