# generated using pymatgen
data_FeCl6
_symmetry_space_group_name_H-M   'P 1'
_cell_length_a   8.06923095
_cell_length_b   8.06923095
_cell_length_c   40.13617700
_cell_angle_alpha   90.00000000
_cell_angle_beta   90.00000000
_cell_angle_gamma   106.32146236
_symmetry_Int_Tables_number   1
_chemical_formula_structural   FeCl6
_chemical_formula_sum   'Fe1 Cl6'
_cell_volume   2508.04792149
_cell_formula_units_Z   1
loop_
 _symmetry_equiv_pos_site_id
 _symmetry_equiv_pos_as_xyz
  1  'x, y, z'
loop_
 _atom_site_type_symbol
 _atom_site_label
 _atom_site_symmetry_multiplicity
 _atom_site_fract_x
 _atom_site_fract_y
 _atom_site_fract_z
 _atom_site_occupancy
  Fe  Fe0  1  0.00000000  0.00000000  0.00000000  1
  Cl  Cl1  1  0.00000000  0.00000000  0.24996600  1
  Cl  Cl2  1  0.00000000  0.00000000  0.75003400  1
  Cl  Cl3  1  0.27673800  0.04052200  0.00000000  1
  Cl  Cl4  1  0.72326200  0.95947800  0.00000000  1
  Cl  Cl5  1  0.04052200  0.27673800  0.00000000  1
  Cl  Cl6  1  0.95947800  0.72326200  0.00000000  1
