# generated using pymatgen
data_Zr2Ag3F14
_symmetry_space_group_name_H-M   'P 1'
_cell_length_a   5.86446647
_cell_length_b   5.86446647
_cell_length_c   9.34201368
_cell_angle_alpha   89.11659592
_cell_angle_beta   89.11659592
_cell_angle_gamma   71.34736516
_symmetry_Int_Tables_number   1
_chemical_formula_structural   Zr2Ag3F14
_chemical_formula_sum   'Zr2 Ag3 F14'
_cell_volume   304.35962554
_cell_formula_units_Z   1
loop_
 _symmetry_equiv_pos_site_id
 _symmetry_equiv_pos_as_xyz
  1  'x, y, z'
loop_
 _atom_site_type_symbol
 _atom_site_label
 _atom_site_symmetry_multiplicity
 _atom_site_fract_x
 _atom_site_fract_y
 _atom_site_fract_z
 _atom_site_occupancy
  Zr  Zr0  1  0.90892600  0.90892600  0.21438300  1
  Zr  Zr1  1  0.09107400  0.09107400  0.78561700  1
  Ag  Ag2  1  0.68822100  0.68822100  0.60249900  1
  Ag  Ag3  1  0.31177900  0.31177900  0.39750100  1
  Ag  Ag4  1  0.50000000  0.50000000  0.00000000  1
  F  F5  1  0.64180200  0.23276500  0.15982500  1
  F  F6  1  0.35819800  0.76723500  0.84017500  1
  F  F7  1  0.76723500  0.35819800  0.84017500  1
  F  F8  1  0.23276500  0.64180200  0.15982500  1
  F  F9  1  0.72523100  0.72523100  0.12016300  1
  F  F10  1  0.27476900  0.27476900  0.87983700  1
  F  F11  1  0.89049400  0.89049400  0.70429600  1
  F  F12  1  0.10950600  0.10950600  0.29570400  1
  F  F13  1  0.50000000  0.50000000  0.50000000  1
  F  F14  1  0.64814300  0.00652800  0.38368600  1
  F  F15  1  0.35185700  0.99347200  0.61631400  1
  F  F16  1  0.99347200  0.35185700  0.61631400  1
  F  F17  1  0.00652800  0.64814300  0.38368600  1
  F  F18  1  0.00000000  0.00000000  0.00000000  1
