# generated using pymatgen
data_Zr4Fe
_symmetry_space_group_name_H-M   'P 1'
_cell_length_a   6.88396170
_cell_length_b   6.88396170
_cell_length_c   6.88396170
_cell_angle_alpha   60.00000000
_cell_angle_beta   60.00000000
_cell_angle_gamma   60.00000000
_symmetry_Int_Tables_number   1
_chemical_formula_structural   Zr4Fe
_chemical_formula_sum   'Zr8 Fe2'
_cell_volume   230.67489866
_cell_formula_units_Z   2
loop_
 _symmetry_equiv_pos_site_id
 _symmetry_equiv_pos_as_xyz
  1  'x, y, z'
loop_
 _atom_site_type_symbol
 _atom_site_label
 _atom_site_symmetry_multiplicity
 _atom_site_fract_x
 _atom_site_fract_y
 _atom_site_fract_z
 _atom_site_occupancy
  Zr  Zr0  1  0.61119900  0.61119900  0.61119900  1
  Zr  Zr1  1  0.16640400  0.61119900  0.61119900  1
  Zr  Zr2  1  0.61119900  0.16640400  0.61119900  1
  Zr  Zr3  1  0.58359600  0.13880100  0.13880100  1
  Zr  Zr4  1  0.13880100  0.13880100  0.13880100  1
  Zr  Zr5  1  0.61119900  0.61119900  0.16640400  1
  Zr  Zr6  1  0.13880100  0.58359600  0.13880100  1
  Zr  Zr7  1  0.13880100  0.13880100  0.58359600  1
  Fe  Fe8  1  0.00000000  0.00000000  0.00000000  1
  Fe  Fe9  1  0.75000000  0.75000000  0.75000000  1
