# generated using pymatgen
data_ZnAgPO4
_symmetry_space_group_name_H-M   'P 1'
_cell_length_a   8.30905400
_cell_length_b   8.86807674
_cell_length_c   15.71996908
_cell_angle_alpha   89.55385478
_cell_angle_beta   90.00000000
_cell_angle_gamma   90.00000000
_symmetry_Int_Tables_number   1
_chemical_formula_structural   ZnAgPO4
_chemical_formula_sum   'Zn12 Ag12 P12 O48'
_cell_volume   1158.29596997
_cell_formula_units_Z   12
loop_
 _symmetry_equiv_pos_site_id
 _symmetry_equiv_pos_as_xyz
  1  'x, y, z'
loop_
 _atom_site_type_symbol
 _atom_site_label
 _atom_site_symmetry_multiplicity
 _atom_site_fract_x
 _atom_site_fract_y
 _atom_site_fract_z
 _atom_site_occupancy
  Zn  Zn0  1  0.20936100  0.08206800  0.73666500  1
  Zn  Zn1  1  0.79063900  0.91793200  0.26333500  1
  Zn  Zn2  1  0.70936100  0.41793200  0.76333500  1
  Zn  Zn3  1  0.29063900  0.58206800  0.23666500  1
  Zn  Zn4  1  0.71212800  0.93326800  0.90905500  1
  Zn  Zn5  1  0.28787200  0.06673200  0.09094500  1
  Zn  Zn6  1  0.21212800  0.56673200  0.59094500  1
  Zn  Zn7  1  0.78787200  0.43326800  0.40905500  1
  Zn  Zn8  1  0.70650800  0.89374600  0.58098600  1
  Zn  Zn9  1  0.29349200  0.10625400  0.41901400  1
  Zn  Zn10  1  0.20650800  0.60625400  0.91901400  1
  Zn  Zn11  1  0.79349200  0.39374600  0.08098600  1
  Ag  Ag12  1  0.52166700  0.26946800  0.58976100  1
  Ag  Ag13  1  0.47833300  0.73053200  0.41023900  1
  Ag  Ag14  1  0.02166700  0.23053200  0.91023900  1
  Ag  Ag15  1  0.97833300  0.76946800  0.08976100  1
  Ag  Ag16  1  0.99030200  0.21608900  0.56427200  1
  Ag  Ag17  1  0.00969800  0.78391100  0.43572800  1
  Ag  Ag18  1  0.49030200  0.28391100  0.93572800  1
  Ag  Ag19  1  0.50969800  0.71608900  0.06427200  1
  Ag  Ag20  1  0.50000500  0.79058300  0.75413900  1
  Ag  Ag21  1  0.49999500  0.20941700  0.24586100  1
  Ag  Ag22  1  0.00000500  0.70941700  0.74586100  1
  Ag  Ag23  1  0.99999500  0.29058300  0.25413900  1
  P  P24  1  0.81857900  0.07646400  0.73554000  1
  P  P25  1  0.18142100  0.92353600  0.26446000  1
  P  P26  1  0.31857900  0.42353600  0.76446000  1
  P  P27  1  0.68142100  0.57646400  0.23554000  1
  P  P28  1  0.81803200  0.59932400  0.92088400  1
  P  P29  1  0.18196800  0.40067600  0.07911600  1
  P  P30  1  0.31803200  0.90067600  0.57911600  1
  P  P31  1  0.68196800  0.09932400  0.42088400  1
  P  P32  1  0.32066600  0.94009500  0.90980900  1
  P  P33  1  0.67933400  0.05990500  0.09019100  1
  P  P34  1  0.82066600  0.55990500  0.59019100  1
  P  P35  1  0.17933400  0.44009500  0.40980900  1
  O  O36  1  0.34069100  0.78035400  0.95053800  1
  O  O37  1  0.65930900  0.21964600  0.04946200  1
  O  O38  1  0.84069100  0.71964600  0.54946200  1
  O  O39  1  0.15930900  0.28035400  0.45053800  1
  O  O40  1  0.22797000  0.92236000  0.82474000  1
  O  O41  1  0.77203000  0.07764000  0.17526000  1
  O  O42  1  0.72797000  0.57764000  0.67526000  1
  O  O43  1  0.27203000  0.42236000  0.32474000  1
  O  O44  1  0.72635200  0.45451100  0.52909000  1
  O  O45  1  0.27364800  0.54548900  0.47091000  1
  O  O46  1  0.22635200  0.04548900  0.97091000  1
  O  O47  1  0.77364800  0.95451100  0.02909000  1
  O  O48  1  0.72990700  0.22245400  0.70771700  1
  O  O49  1  0.27009300  0.77754600  0.29228300  1
  O  O50  1  0.22990700  0.27754600  0.79228300  1
  O  O51  1  0.77009300  0.72245400  0.20771700  1
  O  O52  1  0.98632700  0.06992700  0.69189600  1
  O  O53  1  0.01367300  0.93007300  0.30810400  1
  O  O54  1  0.48632700  0.43007300  0.80810400  1
  O  O55  1  0.51367300  0.56992700  0.19189600  1
  O  O56  1  0.77676300  0.05676900  0.50349900  1
  O  O57  1  0.22323700  0.94323100  0.49650100  1
  O  O58  1  0.27676300  0.44323100  0.99650100  1
  O  O59  1  0.72323700  0.55676900  0.00349900  1
  O  O60  1  0.48962900  0.00931600  0.89150600  1
  O  O61  1  0.51037100  0.99068400  0.10849400  1
  O  O62  1  0.98962900  0.49068400  0.60849400  1
  O  O63  1  0.01037100  0.50931600  0.39150600  1
  O  O64  1  0.84262200  0.45835500  0.86416500  1
  O  O65  1  0.15737800  0.54164500  0.13583500  1
  O  O66  1  0.34262200  0.04164500  0.63583500  1
  O  O67  1  0.65737800  0.95835500  0.36416500  1
  O  O68  1  0.72435300  0.72251900  0.86996500  1
  O  O69  1  0.27564700  0.27748100  0.13003500  1
  O  O70  1  0.22435300  0.77748100  0.63003500  1
  O  O71  1  0.77564700  0.22251900  0.36996500  1
  O  O72  1  0.98477200  0.66514700  0.94702700  1
  O  O73  1  0.01522800  0.33485300  0.05297300  1
  O  O74  1  0.48477200  0.83485300  0.55297300  1
  O  O75  1  0.51522800  0.16514700  0.44702700  1
  O  O76  1  0.72133700  0.93634100  0.70398000  1
  O  O77  1  0.27866300  0.06365900  0.29602000  1
  O  O78  1  0.22133700  0.56365900  0.79602000  1
  O  O79  1  0.77866300  0.43634100  0.20398000  1
  O  O80  1  0.83782700  0.06797200  0.83379100  1
  O  O81  1  0.16217300  0.93202800  0.16620900  1
  O  O82  1  0.33782700  0.43202800  0.66620900  1
  O  O83  1  0.66217300  0.56797200  0.33379100  1
