# generated using pymatgen
data_YbTa5Ag2O15
_symmetry_space_group_name_H-M   'P 1'
_cell_length_a   12.59706100
_cell_length_b   12.59706100
_cell_length_c   3.93361600
_cell_angle_alpha   90.00000000
_cell_angle_beta   90.00000000
_cell_angle_gamma   90.00000000
_symmetry_Int_Tables_number   1
_chemical_formula_structural   YbTa5Ag2O15
_chemical_formula_sum   'Yb2 Ta10 Ag4 O30'
_cell_volume   624.20957552
_cell_formula_units_Z   2
loop_
 _symmetry_equiv_pos_site_id
 _symmetry_equiv_pos_as_xyz
  1  'x, y, z'
loop_
 _atom_site_type_symbol
 _atom_site_label
 _atom_site_symmetry_multiplicity
 _atom_site_fract_x
 _atom_site_fract_y
 _atom_site_fract_z
 _atom_site_occupancy
  Yb  Yb0  1  0.00000000  0.00000000  0.50000000  1
  Yb  Yb1  1  0.50000000  0.50000000  0.50000000  1
  Ta  Ta2  1  0.50000000  0.00000000  0.00000000  1
  Ta  Ta3  1  0.00000000  0.50000000  0.00000000  1
  Ta  Ta4  1  0.20918000  0.07910500  0.00000000  1
  Ta  Ta5  1  0.79082000  0.92089500  0.00000000  1
  Ta  Ta6  1  0.07910500  0.79082000  0.00000000  1
  Ta  Ta7  1  0.70918000  0.42089500  0.00000000  1
  Ta  Ta8  1  0.92089500  0.20918000  0.00000000  1
  Ta  Ta9  1  0.29082000  0.57910500  0.00000000  1
  Ta  Ta10  1  0.57910500  0.70918000  0.00000000  1
  Ta  Ta11  1  0.42089500  0.29082000  0.00000000  1
  Ag  Ag12  1  0.67298100  0.17298100  0.50000000  1
  Ag  Ag13  1  0.32701900  0.82701900  0.50000000  1
  Ag  Ag14  1  0.17298100  0.32701900  0.50000000  1
  Ag  Ag15  1  0.82701900  0.67298100  0.50000000  1
  O  O16  1  0.19179400  0.07987600  0.50000000  1
  O  O17  1  0.80820600  0.92012400  0.50000000  1
  O  O18  1  0.07987600  0.80820600  0.50000000  1
  O  O19  1  0.69179400  0.42012400  0.50000000  1
  O  O20  1  0.92012400  0.19179400  0.50000000  1
  O  O21  1  0.30820600  0.57987600  0.50000000  1
  O  O22  1  0.57987600  0.69179400  0.50000000  1
  O  O23  1  0.42012400  0.30820600  0.50000000  1
  O  O24  1  0.22532800  0.72532800  0.00000000  1
  O  O25  1  0.77467200  0.27467200  0.00000000  1
  O  O26  1  0.72532800  0.77467200  0.00000000  1
  O  O27  1  0.27467200  0.22532800  0.00000000  1
  O  O28  1  0.50000000  0.00000000  0.50000000  1
  O  O29  1  0.00000000  0.50000000  0.50000000  1
  O  O30  1  0.05851700  0.13296200  0.00000000  1
  O  O31  1  0.94148300  0.86703800  0.00000000  1
  O  O32  1  0.13296200  0.94148300  0.00000000  1
  O  O33  1  0.55851700  0.36703800  0.00000000  1
  O  O34  1  0.86703800  0.05851700  0.00000000  1
  O  O35  1  0.44148300  0.63296200  0.00000000  1
  O  O36  1  0.63296200  0.55851700  0.00000000  1
  O  O37  1  0.36703800  0.44148300  0.00000000  1
  O  O38  1  0.34158000  0.00064300  0.00000000  1
  O  O39  1  0.65842000  0.99935700  0.00000000  1
  O  O40  1  0.00064300  0.65842000  0.00000000  1
  O  O41  1  0.84158000  0.49935700  0.00000000  1
  O  O42  1  0.99935700  0.34158000  0.00000000  1
  O  O43  1  0.15842000  0.50064300  0.00000000  1
  O  O44  1  0.50064300  0.84158000  0.00000000  1
  O  O45  1  0.49935700  0.15842000  0.00000000  1
