# generated using pymatgen
data_Zr2Cu3Sb
_symmetry_space_group_name_H-M   'P 1'
_cell_length_a   2.79532500
_cell_length_b   2.79532500
_cell_length_c   16.11179000
_cell_angle_alpha   90.00000000
_cell_angle_beta   90.00000000
_cell_angle_gamma   90.00000000
_symmetry_Int_Tables_number   1
_chemical_formula_structural   Zr2Cu3Sb
_chemical_formula_sum   'Zr2 Cu3 Sb1'
_cell_volume   125.89497907
_cell_formula_units_Z   1
loop_
 _symmetry_equiv_pos_site_id
 _symmetry_equiv_pos_as_xyz
  1  'x, y, z'
loop_
 _atom_site_type_symbol
 _atom_site_label
 _atom_site_symmetry_multiplicity
 _atom_site_fract_x
 _atom_site_fract_y
 _atom_site_fract_z
 _atom_site_occupancy
  Zr  Zr0  1  0.50000000  0.50000000  0.17195000  1
  Zr  Zr1  1  0.50000000  0.50000000  0.82805000  1
  Cu  Cu2  1  0.50000000  0.50000000  0.66502600  1
  Cu  Cu3  1  0.50000000  0.50000000  0.33497400  1
  Cu  Cu4  1  0.50000000  0.50000000  0.00000000  1
  Sb  Sb5  1  0.50000000  0.50000000  0.50000000  1
