# generated using pymatgen
data_ZrTe7SeCl6
_symmetry_space_group_name_H-M   'P 1'
_cell_length_a   11.98506700
_cell_length_b   11.77793900
_cell_length_c   15.67931440
_cell_angle_alpha   69.71581069
_cell_angle_beta   90.00000000
_cell_angle_gamma   90.00000000
_symmetry_Int_Tables_number   1
_chemical_formula_structural   ZrTe7SeCl6
_chemical_formula_sum   'Zr4 Te28 Se4 Cl24'
_cell_volume   2076.02490885
_cell_formula_units_Z   4
loop_
 _symmetry_equiv_pos_site_id
 _symmetry_equiv_pos_as_xyz
  1  'x, y, z'
loop_
 _atom_site_type_symbol
 _atom_site_label
 _atom_site_symmetry_multiplicity
 _atom_site_fract_x
 _atom_site_fract_y
 _atom_site_fract_z
 _atom_site_occupancy
  Zr  Zr0  1  0.71484900  0.79412900  0.09897500  1
  Zr  Zr1  1  0.28515100  0.20587100  0.90102500  1
  Zr  Zr2  1  0.21484900  0.20587100  0.40102500  1
  Zr  Zr3  1  0.78515100  0.79412900  0.59897500  1
  Te  Te4  1  0.21302100  0.84472300  0.16314400  1
  Te  Te5  1  0.78697900  0.15527700  0.83685600  1
  Te  Te6  1  0.71302100  0.15527700  0.33685600  1
  Te  Te7  1  0.28697900  0.84472300  0.66314400  1
  Te  Te8  1  0.98521000  0.73167700  0.35109500  1
  Te  Te9  1  0.01479000  0.26832300  0.64890500  1
  Te  Te10  1  0.48521000  0.26832300  0.14890500  1
  Te  Te11  1  0.51479000  0.73167700  0.85109500  1
  Te  Te12  1  0.33949400  0.87417100  0.30194700  1
  Te  Te13  1  0.66050600  0.12582900  0.69805300  1
  Te  Te14  1  0.83949400  0.12582900  0.19805300  1
  Te  Te15  1  0.16050600  0.87417100  0.80194700  1
  Te  Te16  1  0.63211100  0.37824200  0.23136500  1
  Te  Te17  1  0.36788900  0.62175800  0.76863500  1
  Te  Te18  1  0.13211100  0.62175800  0.26863500  1
  Te  Te19  1  0.86788900  0.37824200  0.73136500  1
  Te  Te20  1  0.64898100  0.19726000  0.05104200  1
  Te  Te21  1  0.35101900  0.80274000  0.94895800  1
  Te  Te22  1  0.14898100  0.80274000  0.44895800  1
  Te  Te23  1  0.85101900  0.19726000  0.55104200  1
  Te  Te24  1  0.94985100  0.34658000  0.14259500  1
  Te  Te25  1  0.05014900  0.65342000  0.85740500  1
  Te  Te26  1  0.44985100  0.65342000  0.35740500  1
  Te  Te27  1  0.55014900  0.34658000  0.64259500  1
  Te  Te28  1  0.43692100  0.64689200  0.53571300  1
  Te  Te29  1  0.56307900  0.35310800  0.46428700  1
  Te  Te30  1  0.93692100  0.35310800  0.96428700  1
  Te  Te31  1  0.06307900  0.64689200  0.03571300  1
  Se  Se32  1  0.77217600  0.40657700  0.46522100  1
  Se  Se33  1  0.22782400  0.59342300  0.53477900  1
  Se  Se34  1  0.27217600  0.59342300  0.03477900  1
  Se  Se35  1  0.72782400  0.40657700  0.96522100  1
  Cl  Cl36  1  0.88228400  0.92946100  0.45871800  1
  Cl  Cl37  1  0.11771600  0.07053900  0.54128200  1
  Cl  Cl38  1  0.38228400  0.07053900  0.04128200  1
  Cl  Cl39  1  0.61771600  0.92946100  0.95871800  1
  Cl  Cl40  1  0.70542300  0.68645100  0.50232700  1
  Cl  Cl41  1  0.29457700  0.31354900  0.49767300  1
  Cl  Cl42  1  0.20542300  0.31354900  0.99767300  1
  Cl  Cl43  1  0.79457700  0.68645100  0.00232700  1
  Cl  Cl44  1  0.87887400  0.92680500  0.07011500  1
  Cl  Cl45  1  0.12112600  0.07319500  0.92988500  1
  Cl  Cl46  1  0.37887400  0.07319500  0.42988500  1
  Cl  Cl47  1  0.62112600  0.92680500  0.57011500  1
  Cl  Cl48  1  0.63919300  0.91355200  0.19145400  1
  Cl  Cl49  1  0.36080700  0.08644800  0.80854600  1
  Cl  Cl50  1  0.13919300  0.08644800  0.30854600  1
  Cl  Cl51  1  0.86080700  0.91355200  0.69145400  1
  Cl  Cl52  1  0.80096600  0.64144100  0.23547600  1
  Cl  Cl53  1  0.19903400  0.35855900  0.76452400  1
  Cl  Cl54  1  0.30096600  0.35855900  0.26452400  1
  Cl  Cl55  1  0.69903400  0.64144100  0.73547600  1
  Cl  Cl56  1  0.54085000  0.66638600  0.13375600  1
  Cl  Cl57  1  0.45915000  0.33361400  0.86624400  1
  Cl  Cl58  1  0.04085000  0.33361400  0.36624400  1
  Cl  Cl59  1  0.95915000  0.66638600  0.63375600  1
