# generated using pymatgen
data_YbMoO5
_symmetry_space_group_name_H-M   'P 1'
_cell_length_a   12.78424800
_cell_length_b   5.38296300
_cell_length_c   7.12676942
_cell_angle_alpha   62.27406468
_cell_angle_beta   90.00000000
_cell_angle_gamma   90.00000000
_symmetry_Int_Tables_number   1
_chemical_formula_structural   YbMoO5
_chemical_formula_sum   'Yb4 Mo4 O20'
_cell_volume   434.13261436
_cell_formula_units_Z   4
loop_
 _symmetry_equiv_pos_site_id
 _symmetry_equiv_pos_as_xyz
  1  'x, y, z'
loop_
 _atom_site_type_symbol
 _atom_site_label
 _atom_site_symmetry_multiplicity
 _atom_site_fract_x
 _atom_site_fract_y
 _atom_site_fract_z
 _atom_site_occupancy
  Yb  Yb0  1  0.55848300  0.65956200  0.22933500  1
  Yb  Yb1  1  0.44151700  0.34043800  0.77066500  1
  Yb  Yb2  1  0.05848300  0.34043800  0.27066500  1
  Yb  Yb3  1  0.94151700  0.65956200  0.72933500  1
  Mo  Mo4  1  0.85916100  0.91113700  0.13793000  1
  Mo  Mo5  1  0.14083900  0.08886300  0.86207000  1
  Mo  Mo6  1  0.35916100  0.08886300  0.36207000  1
  Mo  Mo7  1  0.64083900  0.91113700  0.63793000  1
  O  O8  1  0.92627400  0.52308700  0.44774700  1
  O  O9  1  0.07372600  0.47691300  0.55225300  1
  O  O10  1  0.42627400  0.47691300  0.05225300  1
  O  O11  1  0.57372600  0.52308700  0.94774700  1
  O  O12  1  0.42801200  0.01799700  0.15643900  1
  O  O13  1  0.57198800  0.98200300  0.84356100  1
  O  O14  1  0.92801200  0.98200300  0.34356100  1
  O  O15  1  0.07198800  0.01799700  0.65643900  1
  O  O16  1  0.93326200  0.69969800  0.04276900  1
  O  O17  1  0.06673800  0.30030200  0.95723100  1
  O  O18  1  0.43326200  0.30030200  0.45723100  1
  O  O19  1  0.56673800  0.69969800  0.54276900  1
  O  O20  1  0.73000300  0.79247100  0.20913100  1
  O  O21  1  0.26999700  0.20752900  0.79086900  1
  O  O22  1  0.23000300  0.20752900  0.29086900  1
  O  O23  1  0.76999700  0.79247100  0.70913100  1
  O  O24  1  0.15267700  0.75571700  0.08339700  1
  O  O25  1  0.84732300  0.24428300  0.91660300  1
  O  O26  1  0.65267700  0.24428300  0.41660300  1
  O  O27  1  0.34732300  0.75571700  0.58339700  1
