# generated using pymatgen
data_Zn(PO5)2
_symmetry_space_group_name_H-M   'P 1'
_cell_length_a   9.31908600
_cell_length_b   5.81239500
_cell_length_c   9.08786860
_cell_angle_alpha   51.25675206
_cell_angle_beta   90.00000000
_cell_angle_gamma   90.00000000
_symmetry_Int_Tables_number   1
_chemical_formula_structural   Zn(PO5)2
_chemical_formula_sum   'Zn2 P4 O20'
_cell_volume   383.93864674
_cell_formula_units_Z   2
loop_
 _symmetry_equiv_pos_site_id
 _symmetry_equiv_pos_as_xyz
  1  'x, y, z'
loop_
 _atom_site_type_symbol
 _atom_site_label
 _atom_site_symmetry_multiplicity
 _atom_site_fract_x
 _atom_site_fract_y
 _atom_site_fract_z
 _atom_site_occupancy
  Zn  Zn0  1  0.00000000  0.00000000  0.00000000  1
  Zn  Zn1  1  0.50000000  0.00000000  0.50000000  1
  P  P2  1  0.21739700  0.86097000  0.33695200  1
  P  P3  1  0.78260300  0.13903000  0.66304800  1
  P  P4  1  0.71739700  0.13903000  0.16304800  1
  P  P5  1  0.28260300  0.86097000  0.83695200  1
  O  O6  1  0.62101900  0.70435900  0.18011600  1
  O  O7  1  0.37898100  0.29564100  0.81988400  1
  O  O8  1  0.12101900  0.29564100  0.31988400  1
  O  O9  1  0.87898100  0.70435900  0.68011600  1
  O  O10  1  0.63197700  0.36768600  0.99736600  1
  O  O11  1  0.36802300  0.63231400  0.00263400  1
  O  O12  1  0.13197700  0.63231400  0.50263400  1
  O  O13  1  0.86802300  0.36768600  0.49736600  1
  O  O14  1  0.66818700  0.99091800  0.36198400  1
  O  O15  1  0.33181300  0.00908200  0.63801600  1
  O  O16  1  0.16818700  0.00908200  0.13801600  1
  O  O17  1  0.83181300  0.99091800  0.86198400  1
  O  O18  1  0.00840200  0.40852600  0.23115700  1
  O  O19  1  0.99159800  0.59147400  0.76884300  1
  O  O20  1  0.50840200  0.59147400  0.26884300  1
  O  O21  1  0.49159800  0.40852600  0.73115700  1
  O  O22  1  0.36532900  0.94551800  0.35295100  1
  O  O23  1  0.63467100  0.05448200  0.64704900  1
  O  O24  1  0.86532900  0.05448200  0.14704900  1
  O  O25  1  0.13467100  0.94551800  0.85295100  1
