# generated using pymatgen
data_YbNb5Ag2O15
_symmetry_space_group_name_H-M   'P 1'
_cell_length_a   12.67193700
_cell_length_b   12.67193700
_cell_length_c   3.94700500
_cell_angle_alpha   90.00000000
_cell_angle_beta   90.00000000
_cell_angle_gamma   90.00000000
_symmetry_Int_Tables_number   1
_chemical_formula_structural   YbNb5Ag2O15
_chemical_formula_sum   'Yb2 Nb10 Ag4 O30'
_cell_volume   633.80211889
_cell_formula_units_Z   2
loop_
 _symmetry_equiv_pos_site_id
 _symmetry_equiv_pos_as_xyz
  1  'x, y, z'
loop_
 _atom_site_type_symbol
 _atom_site_label
 _atom_site_symmetry_multiplicity
 _atom_site_fract_x
 _atom_site_fract_y
 _atom_site_fract_z
 _atom_site_occupancy
  Yb  Yb0  1  0.00000000  0.00000000  0.50000000  1
  Yb  Yb1  1  0.50000000  0.50000000  0.50000000  1
  Nb  Nb2  1  0.50000000  0.00000000  0.00000000  1
  Nb  Nb3  1  0.00000000  0.50000000  0.00000000  1
  Nb  Nb4  1  0.21058300  0.07888400  0.00000000  1
  Nb  Nb5  1  0.78941700  0.92111600  0.00000000  1
  Nb  Nb6  1  0.07888400  0.78941700  0.00000000  1
  Nb  Nb7  1  0.71058300  0.42111600  0.00000000  1
  Nb  Nb8  1  0.92111600  0.21058300  0.00000000  1
  Nb  Nb9  1  0.28941700  0.57888400  0.00000000  1
  Nb  Nb10  1  0.57888400  0.71058300  0.00000000  1
  Nb  Nb11  1  0.42111600  0.28941700  0.00000000  1
  Ag  Ag12  1  0.67586300  0.17586300  0.50000000  1
  Ag  Ag13  1  0.32413700  0.82413700  0.50000000  1
  Ag  Ag14  1  0.17586300  0.32413700  0.50000000  1
  Ag  Ag15  1  0.82413700  0.67586300  0.50000000  1
  O  O16  1  0.19211000  0.08364800  0.50000000  1
  O  O17  1  0.80789000  0.91635200  0.50000000  1
  O  O18  1  0.08364800  0.80789000  0.50000000  1
  O  O19  1  0.69211000  0.41635200  0.50000000  1
  O  O20  1  0.91635200  0.19211000  0.50000000  1
  O  O21  1  0.30789000  0.58364800  0.50000000  1
  O  O22  1  0.58364800  0.69211000  0.50000000  1
  O  O23  1  0.41635200  0.30789000  0.50000000  1
  O  O24  1  0.22758500  0.72758500  0.00000000  1
  O  O25  1  0.77241500  0.27241500  0.00000000  1
  O  O26  1  0.72758500  0.77241500  0.00000000  1
  O  O27  1  0.27241500  0.22758500  0.00000000  1
  O  O28  1  0.50000000  0.00000000  0.50000000  1
  O  O29  1  0.00000000  0.50000000  0.50000000  1
  O  O30  1  0.05558900  0.13100400  0.00000000  1
  O  O31  1  0.94441100  0.86899600  0.00000000  1
  O  O32  1  0.13100400  0.94441100  0.00000000  1
  O  O33  1  0.55558900  0.36899600  0.00000000  1
  O  O34  1  0.86899600  0.05558900  0.00000000  1
  O  O35  1  0.44441100  0.63100400  0.00000000  1
  O  O36  1  0.63100400  0.55558900  0.00000000  1
  O  O37  1  0.36899600  0.44441100  0.00000000  1
  O  O38  1  0.34091300  0.99910300  0.00000000  1
  O  O39  1  0.65908700  0.00089700  0.00000000  1
  O  O40  1  0.99910300  0.65908700  0.00000000  1
  O  O41  1  0.84091300  0.50089700  0.00000000  1
  O  O42  1  0.00089700  0.34091300  0.00000000  1
  O  O43  1  0.15908700  0.49910300  0.00000000  1
  O  O44  1  0.49910300  0.84091300  0.00000000  1
  O  O45  1  0.50089700  0.15908700  0.00000000  1
