# generated using pymatgen
data_Y2Mn17C3
_symmetry_space_group_name_H-M   'P 1'
_cell_length_a   8.27258000
_cell_length_b   8.53725910
_cell_length_c   8.53725910
_cell_angle_alpha   119.99999303
_cell_angle_beta   90.00000000
_cell_angle_gamma   90.00000000
_symmetry_Int_Tables_number   1
_chemical_formula_structural   Y2Mn17C3
_chemical_formula_sum   'Y4 Mn34 C6'
_cell_volume   522.16596664
_cell_formula_units_Z   2
loop_
 _symmetry_equiv_pos_site_id
 _symmetry_equiv_pos_as_xyz
  1  'x, y, z'
loop_
 _atom_site_type_symbol
 _atom_site_label
 _atom_site_symmetry_multiplicity
 _atom_site_fract_x
 _atom_site_fract_y
 _atom_site_fract_z
 _atom_site_occupancy
  Y  Y0  1  0.75000000  0.66666700  0.33333300  1
  Y  Y1  1  0.25000000  0.33333300  0.66666700  1
  Y  Y2  1  0.75000000  0.00000000  0.00000000  1
  Y  Y3  1  0.25000000  0.00000000  0.00000000  1
  Mn  Mn4  1  0.75000000  0.61280700  0.67163500  1
  Mn  Mn5  1  0.25000000  0.38719300  0.32836500  1
  Mn  Mn6  1  0.75000000  0.05882800  0.38719300  1
  Mn  Mn7  1  0.25000000  0.94117200  0.32836500  1
  Mn  Mn8  1  0.25000000  0.94117200  0.61280700  1
  Mn  Mn9  1  0.75000000  0.05882800  0.67163500  1
  Mn  Mn10  1  0.75000000  0.32836500  0.94117200  1
  Mn  Mn11  1  0.25000000  0.67163500  0.61280700  1
  Mn  Mn12  1  0.25000000  0.67163500  0.05882800  1
  Mn  Mn13  1  0.75000000  0.32836500  0.38719300  1
  Mn  Mn14  1  0.25000000  0.38719300  0.05882800  1
  Mn  Mn15  1  0.75000000  0.61280700  0.94117200  1
  Mn  Mn16  1  0.39041100  0.66666700  0.33333300  1
  Mn  Mn17  1  0.60958900  0.33333300  0.66666700  1
  Mn  Mn18  1  0.89041100  0.33333300  0.66666700  1
  Mn  Mn19  1  0.10958900  0.66666700  0.33333300  1
  Mn  Mn20  1  0.97697300  0.82860800  0.17139200  1
  Mn  Mn21  1  0.02302700  0.17139200  0.82860800  1
  Mn  Mn22  1  0.97697300  0.34278400  0.17139200  1
  Mn  Mn23  1  0.47697300  0.17139200  0.82860800  1
  Mn  Mn24  1  0.02302700  0.65721600  0.82860800  1
  Mn  Mn25  1  0.52302700  0.82860800  0.17139200  1
  Mn  Mn26  1  0.97697300  0.82860800  0.65721600  1
  Mn  Mn27  1  0.47697300  0.65721600  0.82860800  1
  Mn  Mn28  1  0.02302700  0.17139200  0.34278400  1
  Mn  Mn29  1  0.52302700  0.34278400  0.17139200  1
  Mn  Mn30  1  0.47697300  0.17139200  0.34278400  1
  Mn  Mn31  1  0.52302700  0.82860800  0.65721600  1
  Mn  Mn32  1  0.00000000  0.50000000  0.50000000  1
  Mn  Mn33  1  0.00000000  0.00000000  0.50000000  1
  Mn  Mn34  1  0.50000000  0.50000000  0.50000000  1
  Mn  Mn35  1  0.00000000  0.50000000  0.00000000  1
  Mn  Mn36  1  0.50000000  0.00000000  0.50000000  1
  Mn  Mn37  1  0.50000000  0.50000000  0.00000000  1
  C  C38  1  0.75000000  0.83560100  0.16439900  1
  C  C39  1  0.25000000  0.16439900  0.83560100  1
  C  C40  1  0.75000000  0.32879900  0.16439900  1
  C  C41  1  0.25000000  0.67120100  0.83560100  1
  C  C42  1  0.75000000  0.83560100  0.67120100  1
  C  C43  1  0.25000000  0.16439900  0.32879900  1
