# generated using pymatgen
data_YbCrB4
_symmetry_space_group_name_H-M   'P 1'
_cell_length_a   3.37851400
_cell_length_b   5.95358900
_cell_length_c   11.54256700
_cell_angle_alpha   90.00000000
_cell_angle_beta   90.00000000
_cell_angle_gamma   90.00000000
_symmetry_Int_Tables_number   1
_chemical_formula_structural   YbCrB4
_chemical_formula_sum   'Yb4 Cr4 B16'
_cell_volume   232.17046827
_cell_formula_units_Z   4
loop_
 _symmetry_equiv_pos_site_id
 _symmetry_equiv_pos_as_xyz
  1  'x, y, z'
loop_
 _atom_site_type_symbol
 _atom_site_label
 _atom_site_symmetry_multiplicity
 _atom_site_fract_x
 _atom_site_fract_y
 _atom_site_fract_z
 _atom_site_occupancy
  Yb  Yb0  1  0.50000000  0.37780700  0.15156100  1
  Yb  Yb1  1  0.50000000  0.62219300  0.84843900  1
  Yb  Yb2  1  0.50000000  0.12219300  0.65156100  1
  Yb  Yb3  1  0.50000000  0.87780700  0.34843900  1
  Cr  Cr4  1  0.50000000  0.37972800  0.42049600  1
  Cr  Cr5  1  0.50000000  0.62027200  0.57950400  1
  Cr  Cr6  1  0.50000000  0.12027200  0.92049600  1
  Cr  Cr7  1  0.50000000  0.87972800  0.07950400  1
  B  B8  1  0.00000000  0.11427200  0.04700900  1
  B  B9  1  0.00000000  0.88572800  0.95299100  1
  B  B10  1  0.00000000  0.38572800  0.54700900  1
  B  B11  1  0.00000000  0.61427200  0.45299100  1
  B  B12  1  0.00000000  0.13762000  0.46593900  1
  B  B13  1  0.00000000  0.86238000  0.53406100  1
  B  B14  1  0.00000000  0.36238000  0.96593900  1
  B  B15  1  0.00000000  0.63762000  0.03406100  1
  B  B16  1  0.00000000  0.02139400  0.19154300  1
  B  B17  1  0.00000000  0.97860600  0.80845700  1
  B  B18  1  0.00000000  0.47860600  0.69154300  1
  B  B19  1  0.00000000  0.52139400  0.30845700  1
  B  B20  1  0.00000000  0.21766000  0.31587200  1
  B  B21  1  0.00000000  0.78234000  0.68412800  1
  B  B22  1  0.00000000  0.28234000  0.81587200  1
  B  B23  1  0.00000000  0.71766000  0.18412800  1
