# generated using pymatgen
data_YGa3(BO3)4
_symmetry_space_group_name_H-M   'P 1'
_cell_length_a   6.06271332
_cell_length_b   6.06271332
_cell_length_c   6.06271345
_cell_angle_alpha   104.09610176
_cell_angle_beta   104.09610176
_cell_angle_gamma   104.09610409
_symmetry_Int_Tables_number   1
_chemical_formula_structural   YGa3(BO3)4
_chemical_formula_sum   'Y1 Ga3 B4 O12'
_cell_volume   198.46374777
_cell_formula_units_Z   1
loop_
 _symmetry_equiv_pos_site_id
 _symmetry_equiv_pos_as_xyz
  1  'x, y, z'
loop_
 _atom_site_type_symbol
 _atom_site_label
 _atom_site_symmetry_multiplicity
 _atom_site_fract_x
 _atom_site_fract_y
 _atom_site_fract_z
 _atom_site_occupancy
  Y  Y0  1  0.50000000  0.50000000  0.50000000  1
  Ga  Ga1  1  0.04639800  0.95360200  0.50000000  1
  Ga  Ga2  1  0.95360200  0.50000000  0.04639800  1
  Ga  Ga3  1  0.50000000  0.04639800  0.95360200  1
  B  B4  1  0.45170000  0.54830000  0.00000000  1
  B  B5  1  0.54830000  0.00000000  0.45170000  1
  B  B6  1  0.00000000  0.45170000  0.54830000  1
  B  B7  1  0.00000000  0.00000000  0.00000000  1
  O  O8  1  0.29418900  0.52391800  0.12974100  1
  O  O9  1  0.52391800  0.12974100  0.29418900  1
  O  O10  1  0.70581100  0.87025900  0.47608200  1
  O  O11  1  0.12974100  0.29418900  0.52391800  1
  O  O12  1  0.47608200  0.70581100  0.87025900  1
  O  O13  1  0.87025900  0.47608200  0.70581100  1
  O  O14  1  0.85506300  0.14493700  0.00000000  1
  O  O15  1  0.14493700  0.00000000  0.85506300  1
  O  O16  1  0.00000000  0.85506300  0.14493700  1
  O  O17  1  0.59572300  0.40427700  0.00000000  1
  O  O18  1  0.40427700  0.00000000  0.59572300  1
  O  O19  1  0.00000000  0.59572300  0.40427700  1
