# generated using pymatgen
data_YCrTeO6
_symmetry_space_group_name_H-M   'P 1'
_cell_length_a   5.41748060
_cell_length_b   5.41748060
_cell_length_c   8.61880600
_cell_angle_alpha   90.00000000
_cell_angle_beta   90.00000000
_cell_angle_gamma   120.00000736
_symmetry_Int_Tables_number   1
_chemical_formula_structural   YCrTeO6
_chemical_formula_sum   'Y2 Cr2 Te2 O12'
_cell_volume   219.06471696
_cell_formula_units_Z   2
loop_
 _symmetry_equiv_pos_site_id
 _symmetry_equiv_pos_as_xyz
  1  'x, y, z'
loop_
 _atom_site_type_symbol
 _atom_site_label
 _atom_site_symmetry_multiplicity
 _atom_site_fract_x
 _atom_site_fract_y
 _atom_site_fract_z
 _atom_site_occupancy
  Y  Y0  1  0.33333300  0.66666700  0.75000000  1
  Y  Y1  1  0.66666700  0.33333300  0.25000000  1
  Cr  Cr2  1  0.00000000  0.00000000  0.00000000  1
  Cr  Cr3  1  0.00000000  0.00000000  0.50000000  1
  Te  Te4  1  0.66666700  0.33333300  0.75000000  1
  Te  Te5  1  0.33333300  0.66666700  0.25000000  1
  O  O6  1  0.95696500  0.31091400  0.87638400  1
  O  O7  1  0.04303500  0.68908600  0.12361600  1
  O  O8  1  0.35394900  0.04303500  0.87638400  1
  O  O9  1  0.35394900  0.31091400  0.62361600  1
  O  O10  1  0.64605100  0.95696500  0.12361600  1
  O  O11  1  0.64605100  0.68908600  0.37638400  1
  O  O12  1  0.68908600  0.64605100  0.87638400  1
  O  O13  1  0.68908600  0.04303500  0.62361600  1
  O  O14  1  0.31091400  0.35394900  0.12361600  1
  O  O15  1  0.31091400  0.95696500  0.37638400  1
  O  O16  1  0.95696500  0.64605100  0.62361600  1
  O  O17  1  0.04303500  0.35394900  0.37638400  1
