# generated using pymatgen
data_Yb2B6Rh
_symmetry_space_group_name_H-M   'P 1'
_cell_length_a   3.67994000
_cell_length_b   9.07109400
_cell_length_c   11.43611000
_cell_angle_alpha   90.00000000
_cell_angle_beta   90.00000000
_cell_angle_gamma   90.00000000
_symmetry_Int_Tables_number   1
_chemical_formula_structural   Yb2B6Rh
_chemical_formula_sum   'Yb8 B24 Rh4'
_cell_volume   381.74972172
_cell_formula_units_Z   4
loop_
 _symmetry_equiv_pos_site_id
 _symmetry_equiv_pos_as_xyz
  1  'x, y, z'
loop_
 _atom_site_type_symbol
 _atom_site_label
 _atom_site_symmetry_multiplicity
 _atom_site_fract_x
 _atom_site_fract_y
 _atom_site_fract_z
 _atom_site_occupancy
  Yb  Yb0  1  0.50000000  0.32433500  0.41406000  1
  Yb  Yb1  1  0.50000000  0.67566500  0.58594000  1
  Yb  Yb2  1  0.50000000  0.17566500  0.91406000  1
  Yb  Yb3  1  0.50000000  0.82433500  0.08594000  1
  Yb  Yb4  1  0.50000000  0.44305600  0.13384800  1
  Yb  Yb5  1  0.50000000  0.55694400  0.86615200  1
  Yb  Yb6  1  0.50000000  0.05694400  0.63384800  1
  Yb  Yb7  1  0.50000000  0.94305600  0.36615200  1
  B  B8  1  0.00000000  0.09441000  0.47447000  1
  B  B9  1  0.00000000  0.90559000  0.52553000  1
  B  B10  1  0.00000000  0.40559000  0.97447000  1
  B  B11  1  0.00000000  0.59441000  0.02553000  1
  B  B12  1  0.00000000  0.13070700  0.31463700  1
  B  B13  1  0.00000000  0.86929300  0.68536300  1
  B  B14  1  0.00000000  0.36929300  0.81463700  1
  B  B15  1  0.00000000  0.63070700  0.18536300  1
  B  B16  1  0.00000000  0.05545900  0.06784700  1
  B  B17  1  0.00000000  0.94454100  0.93215300  1
  B  B18  1  0.00000000  0.44454100  0.56784700  1
  B  B19  1  0.00000000  0.55545900  0.43215300  1
  B  B20  1  0.00000000  0.48494800  0.28870200  1
  B  B21  1  0.00000000  0.51505200  0.71129800  1
  B  B22  1  0.00000000  0.01505200  0.78870200  1
  B  B23  1  0.00000000  0.98494800  0.21129800  1
  B  B24  1  0.00000000  0.25131400  0.08180600  1
  B  B25  1  0.00000000  0.74868600  0.91819400  1
  B  B26  1  0.00000000  0.24868600  0.58180600  1
  B  B27  1  0.00000000  0.75131400  0.41819400  1
  B  B28  1  0.00000000  0.29161800  0.23505600  1
  B  B29  1  0.00000000  0.70838200  0.76494400  1
  B  B30  1  0.00000000  0.20838200  0.73505600  1
  B  B31  1  0.00000000  0.79161800  0.26494400  1
  Rh  Rh32  1  0.50000000  0.14035400  0.17971200  1
  Rh  Rh33  1  0.50000000  0.85964600  0.82028800  1
  Rh  Rh34  1  0.50000000  0.35964600  0.67971200  1
  Rh  Rh35  1  0.50000000  0.64035400  0.32028800  1
