# generated using pymatgen
data_Zn2Hg2H3(SeO5)2
_symmetry_space_group_name_H-M   'P 1'
_cell_length_a   6.40192800
_cell_length_b   11.67883700
_cell_length_c   14.58351300
_cell_angle_alpha   90.00000000
_cell_angle_beta   90.00000000
_cell_angle_gamma   90.00000000
_symmetry_Int_Tables_number   1
_chemical_formula_structural   Zn2Hg2H3(SeO5)2
_chemical_formula_sum   'Zn8 Hg8 H12 Se8 O40'
_cell_volume   1090.36658978
_cell_formula_units_Z   4
loop_
 _symmetry_equiv_pos_site_id
 _symmetry_equiv_pos_as_xyz
  1  'x, y, z'
loop_
 _atom_site_type_symbol
 _atom_site_label
 _atom_site_symmetry_multiplicity
 _atom_site_fract_x
 _atom_site_fract_y
 _atom_site_fract_z
 _atom_site_occupancy
  Zn  Zn0  1  0.50471000  0.15112900  0.14452200  1
  Zn  Zn1  1  0.49529000  0.84887100  0.85547800  1
  Zn  Zn2  1  0.49529000  0.84887100  0.64452200  1
  Zn  Zn3  1  0.49529000  0.65112900  0.35547800  1
  Zn  Zn4  1  0.50471000  0.15112900  0.35547800  1
  Zn  Zn5  1  0.50471000  0.34887100  0.64452200  1
  Zn  Zn6  1  0.50471000  0.34887100  0.85547800  1
  Zn  Zn7  1  0.49529000  0.65112900  0.14452200  1
  Hg  Hg8  1  0.00938000  0.14840100  0.25000000  1
  Hg  Hg9  1  0.99062000  0.85159900  0.75000000  1
  Hg  Hg10  1  0.99062000  0.64840100  0.25000000  1
  Hg  Hg11  1  0.00938000  0.35159900  0.75000000  1
  Hg  Hg12  1  0.69037900  0.40114400  0.25000000  1
  Hg  Hg13  1  0.30962100  0.59885600  0.75000000  1
  Hg  Hg14  1  0.30962100  0.90114400  0.25000000  1
  Hg  Hg15  1  0.69037900  0.09885600  0.75000000  1
  H  H16  1  0.09453100  0.80045900  0.03530800  1
  H  H17  1  0.90546900  0.19954100  0.96469200  1
  H  H18  1  0.90546900  0.19954100  0.53530800  1
  H  H19  1  0.90546900  0.30045900  0.46469200  1
  H  H20  1  0.09453100  0.80045900  0.46469200  1
  H  H21  1  0.09453100  0.69954100  0.53530800  1
  H  H22  1  0.09453100  0.69954100  0.96469200  1
  H  H23  1  0.90546900  0.30045900  0.03530800  1
  H  H24  1  0.80654300  0.25000000  0.00000000  1
  H  H25  1  0.19345700  0.75000000  0.00000000  1
  H  H26  1  0.19345700  0.75000000  0.50000000  1
  H  H27  1  0.80654300  0.25000000  0.50000000  1
  Se  Se28  1  0.24650600  0.40572100  0.06714000  1
  Se  Se29  1  0.75349400  0.59427900  0.93286000  1
  Se  Se30  1  0.75349400  0.59427900  0.56714000  1
  Se  Se31  1  0.75349400  0.90572100  0.43286000  1
  Se  Se32  1  0.24650600  0.40572100  0.43286000  1
  Se  Se33  1  0.24650600  0.09427900  0.56714000  1
  Se  Se34  1  0.24650600  0.09427900  0.93286000  1
  Se  Se35  1  0.75349400  0.90572100  0.06714000  1
  O  O36  1  0.32560600  0.08743200  0.25000000  1
  O  O37  1  0.67439400  0.91256800  0.75000000  1
  O  O38  1  0.67439400  0.58743200  0.25000000  1
  O  O39  1  0.32560600  0.41256800  0.75000000  1
  O  O40  1  0.41565100  0.32401000  0.12869500  1
  O  O41  1  0.58434900  0.67599000  0.87130500  1
  O  O42  1  0.58434900  0.67599000  0.62869500  1
  O  O43  1  0.58434900  0.82401000  0.37130500  1
  O  O44  1  0.41565100  0.32401000  0.37130500  1
  O  O45  1  0.41565100  0.17599000  0.62869500  1
  O  O46  1  0.41565100  0.17599000  0.87130500  1
  O  O47  1  0.58434900  0.82401000  0.12869500  1
  O  O48  1  0.69892200  0.21424400  0.25000000  1
  O  O49  1  0.30107800  0.78575600  0.75000000  1
  O  O50  1  0.30107800  0.71424400  0.25000000  1
  O  O51  1  0.69892200  0.28575600  0.75000000  1
  O  O52  1  0.99590400  0.36211800  0.09024800  1
  O  O53  1  0.00409600  0.63788200  0.90975200  1
  O  O54  1  0.00409600  0.63788200  0.59024800  1
  O  O55  1  0.00409600  0.86211800  0.40975200  1
  O  O56  1  0.99590400  0.36211800  0.40975200  1
  O  O57  1  0.99590400  0.13788200  0.59024800  1
  O  O58  1  0.99590400  0.13788200  0.90975200  1
  O  O59  1  0.00409600  0.86211800  0.09024800  1
  O  O60  1  0.25654500  0.54016000  0.10907800  1
  O  O61  1  0.74345500  0.45984000  0.89092200  1
  O  O62  1  0.74345500  0.45984000  0.60907800  1
  O  O63  1  0.74345500  0.04016000  0.39092200  1
  O  O64  1  0.25654500  0.54016000  0.39092200  1
  O  O65  1  0.25654500  0.95984000  0.60907800  1
  O  O66  1  0.25654500  0.95984000  0.89092200  1
  O  O67  1  0.74345500  0.04016000  0.10907800  1
  O  O68  1  0.28734500  0.10174700  0.04631000  1
  O  O69  1  0.71265500  0.89825300  0.95369000  1
  O  O70  1  0.71265500  0.89825300  0.54631000  1
  O  O71  1  0.71265500  0.60174700  0.45369000  1
  O  O72  1  0.28734500  0.10174700  0.45369000  1
  O  O73  1  0.28734500  0.39825300  0.54631000  1
  O  O74  1  0.28734500  0.39825300  0.95369000  1
  O  O75  1  0.71265500  0.60174700  0.04631000  1
