# generated using pymatgen
data_Zn10Sn(B4Rh9)2
_symmetry_space_group_name_H-M   'P 1'
_cell_length_a   17.99310000
_cell_length_b   17.99310000
_cell_length_c   2.89900100
_cell_angle_alpha   90.00000000
_cell_angle_beta   90.00000000
_cell_angle_gamma   90.00000000
_symmetry_Int_Tables_number   1
_chemical_formula_structural   Zn10Sn(B4Rh9)2
_chemical_formula_sum   'Zn20 Sn2 B16 Rh36'
_cell_volume   938.55635017
_cell_formula_units_Z   2
loop_
 _symmetry_equiv_pos_site_id
 _symmetry_equiv_pos_as_xyz
  1  'x, y, z'
loop_
 _atom_site_type_symbol
 _atom_site_label
 _atom_site_symmetry_multiplicity
 _atom_site_fract_x
 _atom_site_fract_y
 _atom_site_fract_z
 _atom_site_occupancy
  Zn  Zn0  1  0.55020400  0.05020400  0.00000000  1
  Zn  Zn1  1  0.44979600  0.94979600  0.00000000  1
  Zn  Zn2  1  0.05020400  0.44979600  0.00000000  1
  Zn  Zn3  1  0.94979600  0.55020400  0.00000000  1
  Zn  Zn4  1  0.03278200  0.19204400  0.00000000  1
  Zn  Zn5  1  0.96721800  0.80795600  0.00000000  1
  Zn  Zn6  1  0.19204400  0.96721800  0.00000000  1
  Zn  Zn7  1  0.53278200  0.30795600  0.00000000  1
  Zn  Zn8  1  0.80795600  0.03278200  0.00000000  1
  Zn  Zn9  1  0.46721800  0.69204400  0.00000000  1
  Zn  Zn10  1  0.69204400  0.53278200  0.00000000  1
  Zn  Zn11  1  0.30795600  0.46721800  0.00000000  1
  Zn  Zn12  1  0.21010100  0.71010100  0.00000000  1
  Zn  Zn13  1  0.78989900  0.28989900  0.00000000  1
  Zn  Zn14  1  0.71010100  0.78989900  0.00000000  1
  Zn  Zn15  1  0.28989900  0.21010100  0.00000000  1
  Zn  Zn16  1  0.66741500  0.16741500  0.00000000  1
  Zn  Zn17  1  0.33258500  0.83258500  0.00000000  1
  Zn  Zn18  1  0.16741500  0.33258500  0.00000000  1
  Zn  Zn19  1  0.83258500  0.66741500  0.00000000  1
  Sn  Sn20  1  0.00000000  0.00000000  0.00000000  1
  Sn  Sn21  1  0.50000000  0.50000000  0.00000000  1
  B  B22  1  0.33554700  0.03912400  0.00000000  1
  B  B23  1  0.66445300  0.96087600  0.00000000  1
  B  B24  1  0.03912400  0.66445300  0.00000000  1
  B  B25  1  0.83554700  0.46087600  0.00000000  1
  B  B26  1  0.96087600  0.33554700  0.00000000  1
  B  B27  1  0.16445300  0.53912400  0.00000000  1
  B  B28  1  0.53912400  0.83554700  0.00000000  1
  B  B29  1  0.46087600  0.16445300  0.00000000  1
  B  B30  1  0.17187900  0.12722400  0.00000000  1
  B  B31  1  0.82812100  0.87277600  0.00000000  1
  B  B32  1  0.12722400  0.82812100  0.00000000  1
  B  B33  1  0.67187900  0.37277600  0.00000000  1
  B  B34  1  0.87277600  0.17187900  0.00000000  1
  B  B35  1  0.32812100  0.62722400  0.00000000  1
  B  B36  1  0.62722400  0.67187900  0.00000000  1
  B  B37  1  0.37277600  0.32812100  0.00000000  1
  Rh  Rh38  1  0.25820100  0.08959300  0.50000000  1
  Rh  Rh39  1  0.74179900  0.91040700  0.50000000  1
  Rh  Rh40  1  0.08959300  0.74179900  0.50000000  1
  Rh  Rh41  1  0.75820100  0.41040700  0.50000000  1
  Rh  Rh42  1  0.91040700  0.25820100  0.50000000  1
  Rh  Rh43  1  0.24179900  0.58959300  0.50000000  1
  Rh  Rh44  1  0.58959300  0.75820100  0.50000000  1
  Rh  Rh45  1  0.41040700  0.24179900  0.50000000  1
  Rh  Rh46  1  0.04681500  0.32591300  0.50000000  1
  Rh  Rh47  1  0.95318500  0.67408700  0.50000000  1
  Rh  Rh48  1  0.32591300  0.95318500  0.50000000  1
  Rh  Rh49  1  0.54681500  0.17408700  0.50000000  1
  Rh  Rh50  1  0.67408700  0.04681500  0.50000000  1
  Rh  Rh51  1  0.45318500  0.82591300  0.50000000  1
  Rh  Rh52  1  0.82591300  0.54681500  0.50000000  1
  Rh  Rh53  1  0.17408700  0.45318500  0.50000000  1
  Rh  Rh54  1  0.16067400  0.21257200  0.50000000  1
  Rh  Rh55  1  0.83932600  0.78742800  0.50000000  1
  Rh  Rh56  1  0.21257200  0.83932600  0.50000000  1
  Rh  Rh57  1  0.66067400  0.28742800  0.50000000  1
  Rh  Rh58  1  0.78742800  0.16067400  0.50000000  1
  Rh  Rh59  1  0.33932600  0.71257200  0.50000000  1
  Rh  Rh60  1  0.71257200  0.66067400  0.50000000  1
  Rh  Rh61  1  0.28742800  0.33932600  0.50000000  1
  Rh  Rh62  1  0.10437300  0.06873600  0.50000000  1
  Rh  Rh63  1  0.89562700  0.93126400  0.50000000  1
  Rh  Rh64  1  0.06873600  0.89562700  0.50000000  1
  Rh  Rh65  1  0.60437300  0.43126400  0.50000000  1
  Rh  Rh66  1  0.93126400  0.10437300  0.50000000  1
  Rh  Rh67  1  0.39562700  0.56873600  0.50000000  1
  Rh  Rh68  1  0.56873600  0.60437300  0.50000000  1
  Rh  Rh69  1  0.43126400  0.39562700  0.50000000  1
  Rh  Rh70  1  0.08115900  0.58115900  0.50000000  1
  Rh  Rh71  1  0.91884100  0.41884100  0.50000000  1
  Rh  Rh72  1  0.58115900  0.91884100  0.50000000  1
  Rh  Rh73  1  0.41884100  0.08115900  0.50000000  1
