# generated using pymatgen
data_YBeNF6
_symmetry_space_group_name_H-M   'P 1'
_cell_length_a   5.92944700
_cell_length_b   6.60807300
_cell_length_c   7.47028917
_cell_angle_alpha   66.46248318
_cell_angle_beta   90.00000000
_cell_angle_gamma   90.00000000
_symmetry_Int_Tables_number   1
_chemical_formula_structural   YBeNF6
_chemical_formula_sum   'Y2 Be2 N2 F12'
_cell_volume   268.34929818
_cell_formula_units_Z   2
loop_
 _symmetry_equiv_pos_site_id
 _symmetry_equiv_pos_as_xyz
  1  'x, y, z'
loop_
 _atom_site_type_symbol
 _atom_site_label
 _atom_site_symmetry_multiplicity
 _atom_site_fract_x
 _atom_site_fract_y
 _atom_site_fract_z
 _atom_site_occupancy
  Y  Y0  1  0.25000000  0.37115100  0.22183200  1
  Y  Y1  1  0.75000000  0.62884900  0.77816800  1
  Be  Be2  1  0.25000000  0.77998000  0.45395800  1
  Be  Be3  1  0.75000000  0.22002000  0.54604200  1
  N  N4  1  0.25000000  0.21719700  0.85005900  1
  N  N5  1  0.75000000  0.78280300  0.14994100  1
  F  F6  1  0.46136800  0.75370900  0.58647600  1
  F  F7  1  0.53863200  0.24629100  0.41352400  1
  F  F8  1  0.96136800  0.24629100  0.41352400  1
  F  F9  1  0.03863200  0.75370900  0.58647600  1
  F  F10  1  0.25000000  0.59778400  0.37207200  1
  F  F11  1  0.75000000  0.40221600  0.62792800  1
  F  F12  1  0.54563800  0.64410300  0.05009300  1
  F  F13  1  0.45436200  0.35589700  0.94990700  1
  F  F14  1  0.04563800  0.35589700  0.94990700  1
  F  F15  1  0.95436200  0.64410300  0.05009300  1
  F  F16  1  0.25000000  0.01261100  0.28060600  1
  F  F17  1  0.75000000  0.98738900  0.71939400  1
