# generated using pymatgen
data_YbBeNF6
_symmetry_space_group_name_H-M   'P 1'
_cell_length_a   6.62682100
_cell_length_b   6.72848600
_cell_length_c   7.02247839
_cell_angle_alpha   70.97451072
_cell_angle_beta   90.00000000
_cell_angle_gamma   90.00000000
_symmetry_Int_Tables_number   1
_chemical_formula_structural   YbBeNF6
_chemical_formula_sum   'Yb2 Be2 N2 F12'
_cell_volume   296.01689290
_cell_formula_units_Z   2
loop_
 _symmetry_equiv_pos_site_id
 _symmetry_equiv_pos_as_xyz
  1  'x, y, z'
loop_
 _atom_site_type_symbol
 _atom_site_label
 _atom_site_symmetry_multiplicity
 _atom_site_fract_x
 _atom_site_fract_y
 _atom_site_fract_z
 _atom_site_occupancy
  Yb  Yb0  1  0.25000000  0.28828100  0.30682100  1
  Yb  Yb1  1  0.75000000  0.71171900  0.69317900  1
  Be  Be2  1  0.25000000  0.76337900  0.46497700  1
  Be  Be3  1  0.75000000  0.23662100  0.53502300  1
  N  N4  1  0.25000000  0.25891700  0.85570300  1
  N  N5  1  0.75000000  0.74108300  0.14429700  1
  F  F6  1  0.44215500  0.75771600  0.59679000  1
  F  F7  1  0.55784500  0.24228400  0.40321000  1
  F  F8  1  0.94215500  0.24228400  0.40321000  1
  F  F9  1  0.05784500  0.75771600  0.59679000  1
  F  F10  1  0.25000000  0.57128700  0.38789100  1
  F  F11  1  0.75000000  0.42871300  0.61210900  1
  F  F12  1  0.58723900  0.68228600  0.04875100  1
  F  F13  1  0.41276100  0.31771400  0.95124900  1
  F  F14  1  0.08723900  0.31771400  0.95124900  1
  F  F15  1  0.91276100  0.68228600  0.04875100  1
  F  F16  1  0.25000000  0.97378900  0.28391900  1
  F  F17  1  0.75000000  0.02621100  0.71608100  1
