# generated using pymatgen
data_Yb3Sc2Al3O12
_symmetry_space_group_name_H-M   'P 1'
_cell_length_a   10.80385224
_cell_length_b   10.80385224
_cell_length_c   10.80385224
_cell_angle_alpha   109.47122063
_cell_angle_beta   109.47122063
_cell_angle_gamma   109.47122063
_symmetry_Int_Tables_number   1
_chemical_formula_structural   Yb3Sc2Al3O12
_chemical_formula_sum   'Yb12 Sc8 Al12 O48'
_cell_volume   970.76479262
_cell_formula_units_Z   4
loop_
 _symmetry_equiv_pos_site_id
 _symmetry_equiv_pos_as_xyz
  1  'x, y, z'
loop_
 _atom_site_type_symbol
 _atom_site_label
 _atom_site_symmetry_multiplicity
 _atom_site_fract_x
 _atom_site_fract_y
 _atom_site_fract_z
 _atom_site_occupancy
  Yb  Yb0  1  0.25000000  0.37500000  0.12500000  1
  Yb  Yb1  1  0.75000000  0.62500000  0.87500000  1
  Yb  Yb2  1  0.75000000  0.12500000  0.37500000  1
  Yb  Yb3  1  0.12500000  0.25000000  0.37500000  1
  Yb  Yb4  1  0.37500000  0.75000000  0.12500000  1
  Yb  Yb5  1  0.25000000  0.87500000  0.62500000  1
  Yb  Yb6  1  0.87500000  0.75000000  0.62500000  1
  Yb  Yb7  1  0.62500000  0.25000000  0.87500000  1
  Yb  Yb8  1  0.37500000  0.12500000  0.25000000  1
  Yb  Yb9  1  0.62500000  0.87500000  0.75000000  1
  Yb  Yb10  1  0.12500000  0.37500000  0.75000000  1
  Yb  Yb11  1  0.87500000  0.62500000  0.25000000  1
  Sc  Sc12  1  0.00000000  0.00000000  0.00000000  1
  Sc  Sc13  1  0.50000000  0.00000000  0.50000000  1
  Sc  Sc14  1  0.00000000  0.50000000  0.50000000  1
  Sc  Sc15  1  0.50000000  0.00000000  0.00000000  1
  Sc  Sc16  1  0.50000000  0.50000000  0.00000000  1
  Sc  Sc17  1  0.50000000  0.50000000  0.50000000  1
  Sc  Sc18  1  0.00000000  0.00000000  0.50000000  1
  Sc  Sc19  1  0.00000000  0.50000000  0.00000000  1
  Al  Al20  1  0.25000000  0.62500000  0.37500000  1
  Al  Al21  1  0.75000000  0.37500000  0.62500000  1
  Al  Al22  1  0.75000000  0.87500000  0.12500000  1
  Al  Al23  1  0.37500000  0.25000000  0.62500000  1
  Al  Al24  1  0.62500000  0.75000000  0.37500000  1
  Al  Al25  1  0.25000000  0.12500000  0.87500000  1
  Al  Al26  1  0.12500000  0.75000000  0.87500000  1
  Al  Al27  1  0.87500000  0.25000000  0.12500000  1
  Al  Al28  1  0.62500000  0.37500000  0.25000000  1
  Al  Al29  1  0.37500000  0.62500000  0.75000000  1
  Al  Al30  1  0.87500000  0.12500000  0.75000000  1
  Al  Al31  1  0.12500000  0.87500000  0.25000000  1
  O  O32  1  0.47787100  0.37716000  0.28887800  1
  O  O33  1  0.52212900  0.62284000  0.71112200  1
  O  O34  1  0.58828200  0.18899300  0.21112200  1
  O  O35  1  0.91171800  0.12284000  0.60071100  1
  O  O36  1  0.28887800  0.47787100  0.37716000  1
  O  O37  1  0.31100700  0.91171800  0.28887800  1
  O  O38  1  0.41171800  0.81100700  0.78887800  1
  O  O39  1  0.08828200  0.87716000  0.39928900  1
  O  O40  1  0.71112200  0.52212900  0.62284000  1
  O  O41  1  0.68899300  0.08828200  0.71112200  1
  O  O42  1  0.02212900  0.31100700  0.89928900  1
  O  O43  1  0.21112200  0.58828200  0.18899300  1
  O  O44  1  0.12284000  0.02212900  0.21112200  1
  O  O45  1  0.97787100  0.68899300  0.10071100  1
  O  O46  1  0.78887800  0.41171800  0.81100700  1
  O  O47  1  0.87716000  0.97787100  0.78887800  1
  O  O48  1  0.60071100  0.91171800  0.12284000  1
  O  O49  1  0.18899300  0.47787100  0.60071100  1
  O  O50  1  0.39928900  0.08828200  0.87716000  1
  O  O51  1  0.81100700  0.52212900  0.39928900  1
  O  O52  1  0.89928900  0.02212900  0.31100700  1
  O  O53  1  0.37716000  0.58828200  0.89928900  1
  O  O54  1  0.10071100  0.97787100  0.68899300  1
  O  O55  1  0.62284000  0.41171800  0.10071100  1
  O  O56  1  0.37716000  0.28887800  0.47787100  1
  O  O57  1  0.58828200  0.89928900  0.37716000  1
  O  O58  1  0.62284000  0.71112200  0.52212900  1
  O  O59  1  0.41171800  0.10071100  0.62284000  1
  O  O60  1  0.12284000  0.60071100  0.91171800  1
  O  O61  1  0.02212900  0.21112200  0.12284000  1
  O  O62  1  0.87716000  0.39928900  0.08828200  1
  O  O63  1  0.97787100  0.78887800  0.87716000  1
  O  O64  1  0.31100700  0.89928900  0.02212900  1
  O  O65  1  0.91171800  0.28887800  0.31100700  1
  O  O66  1  0.68899300  0.10071100  0.97787100  1
  O  O67  1  0.08828200  0.71112200  0.68899300  1
  O  O68  1  0.18899300  0.21112200  0.58828200  1
  O  O69  1  0.47787100  0.60071100  0.18899300  1
  O  O70  1  0.81100700  0.78887800  0.41171800  1
  O  O71  1  0.52212900  0.39928900  0.81100700  1
  O  O72  1  0.28887800  0.31100700  0.91171800  1
  O  O73  1  0.71112200  0.68899300  0.08828200  1
  O  O74  1  0.21112200  0.12284000  0.02212900  1
  O  O75  1  0.78887800  0.87716000  0.97787100  1
  O  O76  1  0.89928900  0.37716000  0.58828200  1
  O  O77  1  0.10071100  0.62284000  0.41171800  1
  O  O78  1  0.60071100  0.18899300  0.47787100  1
  O  O79  1  0.39928900  0.81100700  0.52212900  1
