# generated using pymatgen
data_Yb3(Co2Sn)4
_symmetry_space_group_name_H-M   'P 1'
_cell_length_a   7.52873300
_cell_length_b   8.86550118
_cell_length_c   8.86550118
_cell_angle_alpha   119.99999386
_cell_angle_beta   90.00000000
_cell_angle_gamma   90.00000000
_symmetry_Int_Tables_number   1
_chemical_formula_structural   Yb3(Co2Sn)4
_chemical_formula_sum   'Yb6 Co16 Sn8'
_cell_volume   512.45901532
_cell_formula_units_Z   2
loop_
 _symmetry_equiv_pos_site_id
 _symmetry_equiv_pos_as_xyz
  1  'x, y, z'
loop_
 _atom_site_type_symbol
 _atom_site_label
 _atom_site_symmetry_multiplicity
 _atom_site_fract_x
 _atom_site_fract_y
 _atom_site_fract_z
 _atom_site_occupancy
  Yb  Yb0  1  0.78222300  0.47461500  0.94923000  1
  Yb  Yb1  1  0.78222300  0.47461500  0.52538500  1
  Yb  Yb2  1  0.28222300  0.52538500  0.05077000  1
  Yb  Yb3  1  0.78222300  0.05077000  0.52538500  1
  Yb  Yb4  1  0.28222300  0.52538500  0.47461500  1
  Yb  Yb5  1  0.28222300  0.94923000  0.47461500  1
  Co  Co6  1  0.94530300  0.84178100  0.68356200  1
  Co  Co7  1  0.94530300  0.84178100  0.15821900  1
  Co  Co8  1  0.44530300  0.15821900  0.31643800  1
  Co  Co9  1  0.94530300  0.31643800  0.15821900  1
  Co  Co10  1  0.44530300  0.15821900  0.84178100  1
  Co  Co11  1  0.44530300  0.68356200  0.84178100  1
  Co  Co12  1  0.74926500  0.09645200  0.19290300  1
  Co  Co13  1  0.74926500  0.09645200  0.90354800  1
  Co  Co14  1  0.24926500  0.90354800  0.80709700  1
  Co  Co15  1  0.74926500  0.80709700  0.90354800  1
  Co  Co16  1  0.24926500  0.90354800  0.09645200  1
  Co  Co17  1  0.24926500  0.19290300  0.09645200  1
  Co  Co18  1  0.62576700  0.66666700  0.33333300  1
  Co  Co19  1  0.12576700  0.33333300  0.66666700  1
  Co  Co20  1  0.99617300  0.00000000  0.00000000  1
  Co  Co21  1  0.49617300  0.00000000  0.00000000  1
  Sn  Sn22  1  0.57040500  0.82750900  0.65501900  1
  Sn  Sn23  1  0.57040500  0.82750900  0.17249100  1
  Sn  Sn24  1  0.07040500  0.17249100  0.34498100  1
  Sn  Sn25  1  0.57040500  0.34498100  0.17249100  1
  Sn  Sn26  1  0.07040500  0.17249100  0.82750900  1
  Sn  Sn27  1  0.07040500  0.65501900  0.82750900  1
  Sn  Sn28  1  0.96587100  0.66666700  0.33333300  1
  Sn  Sn29  1  0.46587100  0.33333300  0.66666700  1
