# generated using pymatgen
data_Yb3CrS6
_symmetry_space_group_name_H-M   'P 1'
_cell_length_a   3.69455600
_cell_length_b   13.64220300
_cell_length_c   15.69726800
_cell_angle_alpha   90.00000000
_cell_angle_beta   90.00000000
_cell_angle_gamma   90.00000000
_symmetry_Int_Tables_number   1
_chemical_formula_structural   Yb3CrS6
_chemical_formula_sum   'Yb12 Cr4 S24'
_cell_volume   791.17186432
_cell_formula_units_Z   4
loop_
 _symmetry_equiv_pos_site_id
 _symmetry_equiv_pos_as_xyz
  1  'x, y, z'
loop_
 _atom_site_type_symbol
 _atom_site_label
 _atom_site_symmetry_multiplicity
 _atom_site_fract_x
 _atom_site_fract_y
 _atom_site_fract_z
 _atom_site_occupancy
  Yb  Yb0  1  0.00000000  0.54927800  0.28442400  1
  Yb  Yb1  1  0.00000000  0.45072200  0.71557600  1
  Yb  Yb2  1  0.50000000  0.95072200  0.78442400  1
  Yb  Yb3  1  0.50000000  0.04927800  0.21557600  1
  Yb  Yb4  1  0.00000000  0.75538900  0.09944200  1
  Yb  Yb5  1  0.00000000  0.24461100  0.90055800  1
  Yb  Yb6  1  0.50000000  0.74461100  0.59944200  1
  Yb  Yb7  1  0.50000000  0.25538900  0.40055800  1
  Yb  Yb8  1  0.00000000  0.31897200  0.15326500  1
  Yb  Yb9  1  0.00000000  0.68102800  0.84673500  1
  Yb  Yb10  1  0.50000000  0.18102800  0.65326500  1
  Yb  Yb11  1  0.50000000  0.81897200  0.34673500  1
  Cr  Cr12  1  0.00000000  0.00000000  0.50000000  1
  Cr  Cr13  1  0.50000000  0.50000000  0.00000000  1
  Cr  Cr14  1  0.00000000  0.00000000  0.00000000  1
  Cr  Cr15  1  0.50000000  0.50000000  0.50000000  1
  S  S16  1  0.00000000  0.12752900  0.09165000  1
  S  S17  1  0.00000000  0.87247100  0.90835000  1
  S  S18  1  0.50000000  0.37247100  0.59165000  1
  S  S19  1  0.50000000  0.62752900  0.40835000  1
  S  S20  1  0.00000000  0.17789900  0.28867400  1
  S  S21  1  0.00000000  0.82210100  0.71132600  1
  S  S22  1  0.50000000  0.32210100  0.78867400  1
  S  S23  1  0.50000000  0.67789900  0.21132600  1
  S  S24  1  0.00000000  0.17251600  0.52062900  1
  S  S25  1  0.00000000  0.82748400  0.47937100  1
  S  S26  1  0.50000000  0.32748400  0.02062900  1
  S  S27  1  0.50000000  0.67251600  0.97937100  1
  S  S28  1  0.00000000  0.51970000  0.09473300  1
  S  S29  1  0.00000000  0.48030000  0.90526700  1
  S  S30  1  0.50000000  0.98030000  0.59473300  1
  S  S31  1  0.50000000  0.01970000  0.40526700  1
  S  S32  1  0.00000000  0.09842000  0.76005100  1
  S  S33  1  0.00000000  0.90158000  0.23994900  1
  S  S34  1  0.50000000  0.40158000  0.26005100  1
  S  S35  1  0.50000000  0.59842000  0.73994900  1
  S  S36  1  0.00000000  0.41999300  0.43080400  1
  S  S37  1  0.00000000  0.58000700  0.56919600  1
  S  S38  1  0.50000000  0.08000700  0.93080400  1
  S  S39  1  0.50000000  0.91999300  0.06919600  1
