# generated using pymatgen
data_Yb2Mo4O15
_symmetry_space_group_name_H-M   'P 1'
_cell_length_a   9.99409800
_cell_length_b   6.76609100
_cell_length_c   10.91177023
_cell_angle_alpha   74.75074658
_cell_angle_beta   90.00000000
_cell_angle_gamma   90.00000000
_symmetry_Int_Tables_number   1
_chemical_formula_structural   Yb2Mo4O15
_chemical_formula_sum   'Yb4 Mo8 O30'
_cell_volume   711.88490200
_cell_formula_units_Z   2
loop_
 _symmetry_equiv_pos_site_id
 _symmetry_equiv_pos_as_xyz
  1  'x, y, z'
loop_
 _atom_site_type_symbol
 _atom_site_label
 _atom_site_symmetry_multiplicity
 _atom_site_fract_x
 _atom_site_fract_y
 _atom_site_fract_z
 _atom_site_occupancy
  Yb  Yb0  1  0.52100600  0.71032600  0.22460500  1
  Yb  Yb1  1  0.47899400  0.28967400  0.77539500  1
  Yb  Yb2  1  0.02100600  0.28967400  0.27539500  1
  Yb  Yb3  1  0.97899400  0.71032600  0.72460500  1
  Mo  Mo4  1  0.74350200  0.41838600  0.01029300  1
  Mo  Mo5  1  0.25649800  0.58161400  0.98970700  1
  Mo  Mo6  1  0.24350200  0.58161400  0.48970700  1
  Mo  Mo7  1  0.75649800  0.41838600  0.51029300  1
  Mo  Mo8  1  0.90727100  0.88795000  0.15559000  1
  Mo  Mo9  1  0.09272900  0.11205000  0.84441000  1
  Mo  Mo10  1  0.40727100  0.11205000  0.34441000  1
  Mo  Mo11  1  0.59272900  0.88795000  0.65559000  1
  O  O12  1  0.72506600  0.88318800  0.14912500  1
  O  O13  1  0.27493400  0.11681200  0.85087500  1
  O  O14  1  0.22506600  0.11681200  0.35087500  1
  O  O15  1  0.77493400  0.88318800  0.64912500  1
  O  O16  1  0.63156600  0.53298400  0.10104100  1
  O  O17  1  0.36843400  0.46701600  0.89895900  1
  O  O18  1  0.13156600  0.46701600  0.39895900  1
  O  O19  1  0.86843400  0.53298400  0.60104100  1
  O  O20  1  0.34972700  0.71595100  0.07960100  1
  O  O21  1  0.65027300  0.28404900  0.92039900  1
  O  O22  1  0.84972700  0.28404900  0.42039900  1
  O  O23  1  0.15027300  0.71595100  0.57960100  1
  O  O24  1  0.00000000  0.00000000  0.00000000  1
  O  O25  1  0.50000000  0.00000000  0.50000000  1
  O  O26  1  0.66372600  0.61354800  0.40268300  1
  O  O27  1  0.33627400  0.38645200  0.59731700  1
  O  O28  1  0.16372600  0.38645200  0.09731700  1
  O  O29  1  0.83627400  0.61354800  0.90268300  1
  O  O30  1  0.97362500  0.94358100  0.29150900  1
  O  O31  1  0.02637500  0.05641900  0.70849100  1
  O  O32  1  0.47362500  0.05641900  0.20849100  1
  O  O33  1  0.52637500  0.94358100  0.79150900  1
  O  O34  1  0.94234000  0.62403900  0.18052400  1
  O  O35  1  0.05766000  0.37596100  0.81947600  1
  O  O36  1  0.44234000  0.37596100  0.31947600  1
  O  O37  1  0.55766000  0.62403900  0.68052400  1
  O  O38  1  0.85967300  0.23900200  0.11651700  1
  O  O39  1  0.14032700  0.76099800  0.88348300  1
  O  O40  1  0.35967300  0.76099800  0.38348300  1
  O  O41  1  0.64032700  0.23900200  0.61651700  1
