# generated using pymatgen
data_TmI3O11
_symmetry_space_group_name_H-M   'P 1'
_cell_length_a   6.99191500
_cell_length_b   7.51469565
_cell_length_c   10.59334278
_cell_angle_alpha   94.47759755
_cell_angle_beta   105.36717809
_cell_angle_gamma   110.54698399
_symmetry_Int_Tables_number   1
_chemical_formula_structural   TmI3O11
_chemical_formula_sum   'Tm2 I6 O22'
_cell_volume   493.45109105
_cell_formula_units_Z   2
loop_
 _symmetry_equiv_pos_site_id
 _symmetry_equiv_pos_as_xyz
  1  'x, y, z'
loop_
 _atom_site_type_symbol
 _atom_site_label
 _atom_site_symmetry_multiplicity
 _atom_site_fract_x
 _atom_site_fract_y
 _atom_site_fract_z
 _atom_site_occupancy
  Tm  Tm0  1  0.10102200  0.92372200  0.28911900  1
  Tm  Tm1  1  0.89897800  0.07627800  0.71088100  1
  I  I2  1  0.72237800  0.13981000  0.33916300  1
  I  I3  1  0.27762200  0.86019000  0.66083700  1
  I  I4  1  0.31801300  0.35583500  0.57483900  1
  I  I5  1  0.68198700  0.64416500  0.42516100  1
  I  I6  1  0.26513200  0.22685400  0.04291000  1
  I  I7  1  0.73486800  0.77314600  0.95709000  1
  O  O8  1  0.74290200  0.28106200  0.10915000  1
  O  O9  1  0.25709800  0.71893800  0.89085000  1
  O  O10  1  0.70845100  0.03564500  0.48918600  1
  O  O11  1  0.29154900  0.96435500  0.51081400  1
  O  O12  1  0.06796300  0.12217800  0.13095400  1
  O  O13  1  0.93203700  0.87782200  0.86904600  1
  O  O14  1  0.62396300  0.39960000  0.46466700  1
  O  O15  1  0.37603700  0.60040000  0.53533300  1
  O  O16  1  0.42941800  0.04316100  0.24990400  1
  O  O17  1  0.57058200  0.95683900  0.75009600  1
  O  O18  1  0.09173100  0.29458900  0.90844400  1
  O  O19  1  0.90826900  0.70541100  0.09155600  1
  O  O20  1  0.14122500  0.22039700  0.40573200  1
  O  O21  1  0.85877500  0.77960300  0.59426800  1
  O  O22  1  0.23515300  0.06029500  0.74659200  1
  O  O23  1  0.76484700  0.93970500  0.25340800  1
  O  O24  1  0.09582100  0.34446500  0.63966900  1
  O  O25  1  0.90417900  0.65553500  0.36033100  1
  O  O26  1  0.43903100  0.45853200  0.15117700  1
  O  O27  1  0.56096900  0.54146800  0.84882300  1
  O  O28  1  0.22061200  0.66645700  0.27623500  1
  O  O29  1  0.77938800  0.33354300  0.72376500  1
