# generated using pymatgen
data_Y2Fe17C3
_symmetry_space_group_name_H-M   'P 1'
_cell_length_a   8.34147200
_cell_length_b   8.64763200
_cell_length_c   8.64763200
_cell_angle_alpha   120.00000004
_cell_angle_beta   90.00000000
_cell_angle_gamma   90.00000000
_symmetry_Int_Tables_number   1
_chemical_formula_structural   Y2Fe17C3
_chemical_formula_sum   'Y4 Fe34 C6'
_cell_volume   540.21635492
_cell_formula_units_Z   2
loop_
 _symmetry_equiv_pos_site_id
 _symmetry_equiv_pos_as_xyz
  1  'x, y, z'
loop_
 _atom_site_type_symbol
 _atom_site_label
 _atom_site_symmetry_multiplicity
 _atom_site_fract_x
 _atom_site_fract_y
 _atom_site_fract_z
 _atom_site_occupancy
  Y  Y0  1  0.75000000  0.66666700  0.33333300  1
  Y  Y1  1  0.25000000  0.33333300  0.66666700  1
  Y  Y2  1  0.75000000  0.00000000  0.00000000  1
  Y  Y3  1  0.25000000  0.00000000  0.00000000  1
  Fe  Fe4  1  0.75000000  0.62155900  0.67377000  1
  Fe  Fe5  1  0.25000000  0.37844100  0.32623000  1
  Fe  Fe6  1  0.75000000  0.05221100  0.37844100  1
  Fe  Fe7  1  0.25000000  0.94778900  0.32623000  1
  Fe  Fe8  1  0.25000000  0.94778900  0.62155900  1
  Fe  Fe9  1  0.75000000  0.05221100  0.67377000  1
  Fe  Fe10  1  0.75000000  0.32623000  0.94778900  1
  Fe  Fe11  1  0.25000000  0.67377000  0.62155900  1
  Fe  Fe12  1  0.25000000  0.67377000  0.05221100  1
  Fe  Fe13  1  0.75000000  0.32623000  0.37844100  1
  Fe  Fe14  1  0.25000000  0.37844100  0.05221100  1
  Fe  Fe15  1  0.75000000  0.62155900  0.94778900  1
  Fe  Fe16  1  0.39218900  0.66666700  0.33333300  1
  Fe  Fe17  1  0.60781100  0.33333300  0.66666700  1
  Fe  Fe18  1  0.89218900  0.33333300  0.66666700  1
  Fe  Fe19  1  0.10781100  0.66666700  0.33333300  1
  Fe  Fe20  1  0.97986600  0.83167600  0.16832400  1
  Fe  Fe21  1  0.02013400  0.16832400  0.83167600  1
  Fe  Fe22  1  0.97986600  0.33664700  0.16832400  1
  Fe  Fe23  1  0.47986600  0.16832400  0.83167600  1
  Fe  Fe24  1  0.02013400  0.66335300  0.83167600  1
  Fe  Fe25  1  0.52013400  0.83167600  0.16832400  1
  Fe  Fe26  1  0.97986600  0.83167600  0.66335300  1
  Fe  Fe27  1  0.47986600  0.66335300  0.83167600  1
  Fe  Fe28  1  0.02013400  0.16832400  0.33664700  1
  Fe  Fe29  1  0.52013400  0.33664700  0.16832400  1
  Fe  Fe30  1  0.47986600  0.16832400  0.33664700  1
  Fe  Fe31  1  0.52013400  0.83167600  0.66335300  1
  Fe  Fe32  1  0.00000000  0.50000000  0.50000000  1
  Fe  Fe33  1  0.00000000  0.00000000  0.50000000  1
  Fe  Fe34  1  0.50000000  0.50000000  0.50000000  1
  Fe  Fe35  1  0.00000000  0.50000000  0.00000000  1
  Fe  Fe36  1  0.50000000  0.00000000  0.50000000  1
  Fe  Fe37  1  0.50000000  0.50000000  0.00000000  1
  C  C38  1  0.75000000  0.83432600  0.16567400  1
  C  C39  1  0.25000000  0.16567400  0.83432600  1
  C  C40  1  0.75000000  0.33134900  0.16567400  1
  C  C41  1  0.25000000  0.66865100  0.83432600  1
  C  C42  1  0.75000000  0.83432600  0.66865100  1
  C  C43  1  0.25000000  0.16567400  0.33134900  1
