# generated using pymatgen
data_Y3CrS6
_symmetry_space_group_name_H-M   'P 1'
_cell_length_a   3.78227500
_cell_length_b   13.29505200
_cell_length_c   16.01330300
_cell_angle_alpha   90.00000000
_cell_angle_beta   90.00000000
_cell_angle_gamma   90.00000000
_symmetry_Int_Tables_number   1
_chemical_formula_structural   Y3CrS6
_chemical_formula_sum   'Y12 Cr4 S24'
_cell_volume   805.23763343
_cell_formula_units_Z   4
loop_
 _symmetry_equiv_pos_site_id
 _symmetry_equiv_pos_as_xyz
  1  'x, y, z'
loop_
 _atom_site_type_symbol
 _atom_site_label
 _atom_site_symmetry_multiplicity
 _atom_site_fract_x
 _atom_site_fract_y
 _atom_site_fract_z
 _atom_site_occupancy
  Y  Y0  1  0.00000000  0.54978100  0.28067200  1
  Y  Y1  1  0.00000000  0.45021900  0.71932800  1
  Y  Y2  1  0.50000000  0.95021900  0.78067200  1
  Y  Y3  1  0.50000000  0.04978100  0.21932800  1
  Y  Y4  1  0.00000000  0.75424500  0.09750900  1
  Y  Y5  1  0.00000000  0.24575500  0.90249100  1
  Y  Y6  1  0.50000000  0.74575500  0.59750900  1
  Y  Y7  1  0.50000000  0.25424500  0.40249100  1
  Y  Y8  1  0.00000000  0.31970800  0.14838700  1
  Y  Y9  1  0.00000000  0.68029200  0.85161300  1
  Y  Y10  1  0.50000000  0.18029200  0.64838700  1
  Y  Y11  1  0.50000000  0.81970800  0.35161300  1
  Cr  Cr12  1  0.00000000  0.00000000  0.50000000  1
  Cr  Cr13  1  0.50000000  0.50000000  0.00000000  1
  Cr  Cr14  1  0.00000000  0.00000000  0.00000000  1
  Cr  Cr15  1  0.50000000  0.50000000  0.50000000  1
  S  S16  1  0.00000000  0.12097600  0.10747700  1
  S  S17  1  0.00000000  0.87902400  0.89252300  1
  S  S18  1  0.50000000  0.37902400  0.60747700  1
  S  S19  1  0.50000000  0.62097600  0.39252300  1
  S  S20  1  0.00000000  0.18763400  0.28943200  1
  S  S21  1  0.00000000  0.81236600  0.71056800  1
  S  S22  1  0.50000000  0.31236600  0.78943200  1
  S  S23  1  0.50000000  0.68763400  0.21056800  1
  S  S24  1  0.00000000  0.17921900  0.52125600  1
  S  S25  1  0.00000000  0.82078100  0.47874400  1
  S  S26  1  0.50000000  0.32078100  0.02125600  1
  S  S27  1  0.50000000  0.67921900  0.97874400  1
  S  S28  1  0.00000000  0.52371100  0.09662500  1
  S  S29  1  0.00000000  0.47628900  0.90337500  1
  S  S30  1  0.50000000  0.97628900  0.59662500  1
  S  S31  1  0.50000000  0.02371100  0.40337500  1
  S  S32  1  0.00000000  0.10387500  0.75465400  1
  S  S33  1  0.00000000  0.89612500  0.24534600  1
  S  S34  1  0.50000000  0.39612500  0.25465400  1
  S  S35  1  0.50000000  0.60387500  0.74534600  1
  S  S36  1  0.00000000  0.41759500  0.42581700  1
  S  S37  1  0.00000000  0.58240500  0.57418300  1
  S  S38  1  0.50000000  0.08240500  0.92581700  1
  S  S39  1  0.50000000  0.91759500  0.07418300  1
