# generated using pymatgen
data_Y4Si2NO8
_symmetry_space_group_name_H-M   'P 1'
_cell_length_a   10.48062100
_cell_length_b   7.70705700
_cell_length_c   10.86555951
_cell_angle_alpha   70.43759949
_cell_angle_beta   90.00000000
_cell_angle_gamma   90.00000000
_symmetry_Int_Tables_number   1
_chemical_formula_structural   Y4Si2NO8
_chemical_formula_sum   'Y16 Si8 N4 O32'
_cell_volume   827.00179079
_cell_formula_units_Z   4
loop_
 _symmetry_equiv_pos_site_id
 _symmetry_equiv_pos_as_xyz
  1  'x, y, z'
loop_
 _atom_site_type_symbol
 _atom_site_label
 _atom_site_symmetry_multiplicity
 _atom_site_fract_x
 _atom_site_fract_y
 _atom_site_fract_z
 _atom_site_occupancy
  Y  Y0  1  0.87844800  0.65913000  0.42239300  1
  Y  Y1  1  0.12155200  0.34087000  0.57760700  1
  Y  Y2  1  0.37844800  0.34087000  0.07760700  1
  Y  Y3  1  0.62155200  0.65913000  0.92239300  1
  Y  Y4  1  0.38091500  0.83135200  0.06681300  1
  Y  Y5  1  0.61908500  0.16864800  0.93318700  1
  Y  Y6  1  0.88091500  0.16864800  0.43318700  1
  Y  Y7  1  0.11908500  0.83135200  0.56681300  1
  Y  Y8  1  0.60388900  0.98244800  0.28054700  1
  Y  Y9  1  0.39611100  0.01755200  0.71945300  1
  Y  Y10  1  0.10388900  0.01755200  0.21945300  1
  Y  Y11  1  0.89611100  0.98244800  0.78054700  1
  Y  Y12  1  0.58251500  0.47631800  0.31245000  1
  Y  Y13  1  0.41748500  0.52368200  0.68755000  1
  Y  Y14  1  0.08251500  0.52368200  0.18755000  1
  Y  Y15  1  0.91748500  0.47631800  0.81245000  1
  Si  Si16  1  0.81717100  0.85067100  0.12080500  1
  Si  Si17  1  0.18282900  0.14932900  0.87919500  1
  Si  Si18  1  0.31717100  0.14932900  0.37919500  1
  Si  Si19  1  0.68282900  0.85067100  0.62080500  1
  Si  Si20  1  0.81256100  0.26544600  0.13173700  1
  Si  Si21  1  0.18743900  0.73455400  0.86826300  1
  Si  Si22  1  0.31256100  0.73455400  0.36826300  1
  Si  Si23  1  0.68743900  0.26544600  0.63173700  1
  N  N24  1  0.26693100  0.93673300  0.38701000  1
  N  N25  1  0.73306900  0.06326700  0.61299000  1
  N  N26  1  0.76693100  0.06326700  0.11299000  1
  N  N27  1  0.23306900  0.93673300  0.88701000  1
  O  O28  1  0.96622200  0.80024800  0.17284000  1
  O  O29  1  0.03377800  0.19975200  0.82716000  1
  O  O30  1  0.46622200  0.19975200  0.32716000  1
  O  O31  1  0.53377800  0.80024800  0.67284000  1
  O  O32  1  0.97663800  0.93045400  0.39655300  1
  O  O33  1  0.02336200  0.06954600  0.60344700  1
  O  O34  1  0.47663800  0.06954600  0.10344700  1
  O  O35  1  0.52336200  0.93045400  0.89655300  1
  O  O36  1  0.46168600  0.73293300  0.31928700  1
  O  O37  1  0.53831400  0.26706700  0.68071300  1
  O  O38  1  0.96168600  0.26706700  0.18071300  1
  O  O39  1  0.03831400  0.73293300  0.81928700  1
  O  O40  1  0.50017700  0.57020000  0.10989100  1
  O  O41  1  0.49982300  0.42980000  0.89010900  1
  O  O42  1  0.00017700  0.42980000  0.39010900  1
  O  O43  1  0.99982300  0.57020000  0.60989100  1
  O  O44  1  0.72561100  0.27372700  0.25963300  1
  O  O45  1  0.27438900  0.72627300  0.74036700  1
  O  O46  1  0.22561100  0.72627300  0.24036700  1
  O  O47  1  0.77438900  0.27372700  0.75963300  1
  O  O48  1  0.71158900  0.83307300  0.47678000  1
  O  O49  1  0.28841100  0.16692700  0.52322000  1
  O  O50  1  0.21158900  0.16692700  0.02322000  1
  O  O51  1  0.78841100  0.83307300  0.97678000  1
  O  O52  1  0.72626000  0.42254900  0.49135100  1
  O  O53  1  0.27374000  0.57745100  0.50864900  1
  O  O54  1  0.22626000  0.57745100  0.00864900  1
  O  O55  1  0.77374000  0.42254900  0.99135100  1
  O  O56  1  0.72807400  0.71531400  0.24312300  1
  O  O57  1  0.27192600  0.28468600  0.75687700  1
  O  O58  1  0.22807400  0.28468600  0.25687700  1
  O  O59  1  0.77192600  0.71531400  0.74312300  1
