# generated using pymatgen
data_Yb9(Ni13P6)2
_symmetry_space_group_name_H-M   'P 1'
_cell_length_a   3.75423700
_cell_length_b   14.02399754
_cell_length_c   14.02399754
_cell_angle_alpha   119.99999783
_cell_angle_beta   90.00000000
_cell_angle_gamma   90.00000000
_symmetry_Int_Tables_number   1
_chemical_formula_structural   Yb9(Ni13P6)2
_chemical_formula_sum   'Yb9 Ni26 P12'
_cell_volume   639.43437654
_cell_formula_units_Z   1
loop_
 _symmetry_equiv_pos_site_id
 _symmetry_equiv_pos_as_xyz
  1  'x, y, z'
loop_
 _atom_site_type_symbol
 _atom_site_label
 _atom_site_symmetry_multiplicity
 _atom_site_fract_x
 _atom_site_fract_y
 _atom_site_fract_z
 _atom_site_occupancy
  Yb  Yb0  1  0.50000000  0.81023400  0.62046700  1
  Yb  Yb1  1  0.50000000  0.81023400  0.18976600  1
  Yb  Yb2  1  0.50000000  0.37953300  0.18976600  1
  Yb  Yb3  1  0.50000000  0.08906500  0.17813100  1
  Yb  Yb4  1  0.50000000  0.08906500  0.91093500  1
  Yb  Yb5  1  0.50000000  0.82186900  0.91093500  1
  Yb  Yb6  1  0.00000000  0.42497900  0.84995700  1
  Yb  Yb7  1  0.00000000  0.42497900  0.57502100  1
  Yb  Yb8  1  0.00000000  0.15004300  0.57502100  1
  Ni  Ni9  1  0.00000000  0.19078400  0.38156800  1
  Ni  Ni10  1  0.00000000  0.19078400  0.80921600  1
  Ni  Ni11  1  0.00000000  0.61843200  0.80921600  1
  Ni  Ni12  1  0.50000000  0.60088000  0.20176100  1
  Ni  Ni13  1  0.50000000  0.60088000  0.39912000  1
  Ni  Ni14  1  0.50000000  0.79823900  0.39912000  1
  Ni  Ni15  1  0.00000000  0.72301000  0.44602000  1
  Ni  Ni16  1  0.00000000  0.72301000  0.27699000  1
  Ni  Ni17  1  0.00000000  0.55398000  0.27699000  1
  Ni  Ni18  1  0.00000000  0.90662600  0.81325300  1
  Ni  Ni19  1  0.00000000  0.90662600  0.09337400  1
  Ni  Ni20  1  0.00000000  0.18674700  0.09337400  1
  Ni  Ni21  1  0.50000000  0.62223300  0.67634300  1
  Ni  Ni22  1  0.50000000  0.05410900  0.37776700  1
  Ni  Ni23  1  0.50000000  0.05410900  0.67634300  1
  Ni  Ni24  1  0.50000000  0.32365700  0.94589100  1
  Ni  Ni25  1  0.50000000  0.32365700  0.37776700  1
  Ni  Ni26  1  0.50000000  0.62223300  0.94589100  1
  Ni  Ni27  1  0.00000000  0.92503900  0.37590600  1
  Ni  Ni28  1  0.00000000  0.45086700  0.07496100  1
  Ni  Ni29  1  0.00000000  0.45086700  0.37590600  1
  Ni  Ni30  1  0.00000000  0.62409400  0.54913300  1
  Ni  Ni31  1  0.00000000  0.62409400  0.07496100  1
  Ni  Ni32  1  0.00000000  0.92503900  0.54913300  1
  Ni  Ni33  1  0.50000000  0.33333300  0.66666700  1
  Ni  Ni34  1  0.00000000  0.00000000  0.00000000  1
  P  P35  1  0.50000000  0.51295000  0.02590100  1
  P  P36  1  0.50000000  0.51295000  0.48705000  1
  P  P37  1  0.50000000  0.97409900  0.48705000  1
  P  P38  1  0.00000000  0.00194300  0.27481500  1
  P  P39  1  0.00000000  0.27287300  0.99805700  1
  P  P40  1  0.00000000  0.27287300  0.27481500  1
  P  P41  1  0.00000000  0.72518500  0.72712700  1
  P  P42  1  0.00000000  0.72518500  0.99805700  1
  P  P43  1  0.00000000  0.00194300  0.72712700  1
  P  P44  1  0.50000000  0.24209700  0.48419300  1
  P  P45  1  0.50000000  0.24209700  0.75790300  1
  P  P46  1  0.50000000  0.51580700  0.75790300  1
