# generated using pymatgen
data_VCo2BO5
_symmetry_space_group_name_H-M   'P 1'
_cell_length_a   3.07611200
_cell_length_b   9.42146600
_cell_length_c   12.39998300
_cell_angle_alpha   90.00000000
_cell_angle_beta   90.00000000
_cell_angle_gamma   90.00000000
_symmetry_Int_Tables_number   1
_chemical_formula_structural   VCo2BO5
_chemical_formula_sum   'V4 Co8 B4 O20'
_cell_volume   359.36991661
_cell_formula_units_Z   4
loop_
 _symmetry_equiv_pos_site_id
 _symmetry_equiv_pos_as_xyz
  1  'x, y, z'
loop_
 _atom_site_type_symbol
 _atom_site_label
 _atom_site_symmetry_multiplicity
 _atom_site_fract_x
 _atom_site_fract_y
 _atom_site_fract_z
 _atom_site_occupancy
  V  V0  1  0.00000000  0.24165700  0.38636700  1
  V  V1  1  0.00000000  0.75834300  0.61363300  1
  V  V2  1  0.00000000  0.25834300  0.88636700  1
  V  V3  1  0.00000000  0.74165700  0.11363300  1
  Co  Co4  1  0.50000000  0.00000000  0.50000000  1
  Co  Co5  1  0.50000000  0.50000000  0.00000000  1
  Co  Co6  1  0.50000000  0.00170100  0.21950600  1
  Co  Co7  1  0.50000000  0.99829900  0.78049400  1
  Co  Co8  1  0.50000000  0.49829900  0.71950600  1
  Co  Co9  1  0.50000000  0.50170100  0.28049400  1
  Co  Co10  1  0.00000000  0.00000000  0.00000000  1
  Co  Co11  1  0.00000000  0.50000000  0.50000000  1
  B  B12  1  0.00000000  0.27389900  0.13927800  1
  B  B13  1  0.00000000  0.72610100  0.86072200  1
  B  B14  1  0.00000000  0.22610100  0.63927800  1
  B  B15  1  0.00000000  0.77389900  0.36072200  1
  O  O16  1  0.50000000  0.10974000  0.35769800  1
  O  O17  1  0.50000000  0.89026000  0.64230200  1
  O  O18  1  0.50000000  0.39026000  0.85769800  1
  O  O19  1  0.50000000  0.60974000  0.14230200  1
  O  O20  1  0.00000000  0.12620600  0.13993500  1
  O  O21  1  0.00000000  0.87379400  0.86006500  1
  O  O22  1  0.00000000  0.37379400  0.63993500  1
  O  O23  1  0.00000000  0.62620600  0.36006500  1
  O  O24  1  0.50000000  0.38286400  0.42165900  1
  O  O25  1  0.50000000  0.61713600  0.57834100  1
  O  O26  1  0.50000000  0.11713600  0.92165900  1
  O  O27  1  0.50000000  0.88286400  0.07834100  1
  O  O28  1  0.00000000  0.34737500  0.23624700  1
  O  O29  1  0.00000000  0.65262500  0.76375300  1
  O  O30  1  0.00000000  0.15262500  0.73624700  1
  O  O31  1  0.00000000  0.84737500  0.26375300  1
  O  O32  1  0.00000000  0.34868400  0.04267200  1
  O  O33  1  0.00000000  0.65131600  0.95732800  1
  O  O34  1  0.00000000  0.15131600  0.54267200  1
  O  O35  1  0.00000000  0.84868400  0.45732800  1
