# generated using pymatgen
data_Y3Al6Si6B3H3O31
_symmetry_space_group_name_H-M   'P 1'
_cell_length_a   9.90985231
_cell_length_b   9.90985231
_cell_length_c   9.90985173
_cell_angle_alpha   114.08176826
_cell_angle_beta   114.08176826
_cell_angle_gamma   114.08177561
_symmetry_Int_Tables_number   1
_chemical_formula_structural   Y3Al6Si6B3H3O31
_chemical_formula_sum   'Y3 Al6 Si6 B3 H3 O31'
_cell_volume   587.66654692
_cell_formula_units_Z   1
loop_
 _symmetry_equiv_pos_site_id
 _symmetry_equiv_pos_as_xyz
  1  'x, y, z'
loop_
 _atom_site_type_symbol
 _atom_site_label
 _atom_site_symmetry_multiplicity
 _atom_site_fract_x
 _atom_site_fract_y
 _atom_site_fract_z
 _atom_site_occupancy
  Y  Y0  1  0.76085600  0.76085600  0.95784900  1
  Y  Y1  1  0.95784900  0.76085600  0.76085600  1
  Y  Y2  1  0.76085600  0.95784900  0.76085600  1
  Al  Al3  1  0.14756200  0.81105800  0.57511500  1
  Al  Al4  1  0.57511500  0.14756200  0.81105800  1
  Al  Al5  1  0.81105800  0.14756200  0.57511500  1
  Al  Al6  1  0.81105800  0.57511500  0.14756200  1
  Al  Al7  1  0.14756200  0.57511500  0.81105800  1
  Al  Al8  1  0.57511500  0.81105800  0.14756200  1
  Si  Si9  1  0.03234300  0.41315600  0.22143700  1
  Si  Si10  1  0.22143700  0.03234300  0.41315600  1
  Si  Si11  1  0.41315600  0.03234300  0.22143700  1
  Si  Si12  1  0.41315600  0.22143700  0.03234300  1
  Si  Si13  1  0.03234300  0.22143700  0.41315600  1
  Si  Si14  1  0.22143700  0.41315600  0.03234300  1
  B  B15  1  0.79519100  0.79519100  0.44543200  1
  B  B16  1  0.44543200  0.79519100  0.79519100  1
  B  B17  1  0.79519100  0.44543200  0.79519100  1
  H  H18  1  0.46534300  0.46534300  0.90033400  1
  H  H19  1  0.90033400  0.46534300  0.46534300  1
  H  H20  1  0.46534300  0.90033400  0.46534300  1
  O  O21  1  0.20508100  0.99473100  0.80467900  1
  O  O22  1  0.80467900  0.20508100  0.99473100  1
  O  O23  1  0.99473100  0.20508100  0.80467900  1
  O  O24  1  0.99473100  0.80467900  0.20508100  1
  O  O25  1  0.20508100  0.80467900  0.99473100  1
  O  O26  1  0.80467900  0.99473100  0.20508100  1
  O  O27  1  0.60028700  0.60028700  0.02790800  1
  O  O28  1  0.02790800  0.60028700  0.60028700  1
  O  O29  1  0.60028700  0.02790800  0.60028700  1
  O  O30  1  0.74943900  0.74943900  0.54130400  1
  O  O31  1  0.54130400  0.74943900  0.74943900  1
  O  O32  1  0.74943900  0.54130400  0.74943900  1
  O  O33  1  0.37305500  0.37305500  0.09301700  1
  O  O34  1  0.09301700  0.37305500  0.37305500  1
  O  O35  1  0.37305500  0.09301700  0.37305500  1
  O  O36  1  0.02417200  0.58972500  0.31231000  1
  O  O37  1  0.31231000  0.02417200  0.58972500  1
  O  O38  1  0.58972500  0.02417200  0.31231000  1
  O  O39  1  0.58972500  0.31231000  0.02417200  1
  O  O40  1  0.02417200  0.31231000  0.58972500  1
  O  O41  1  0.31231000  0.58972500  0.02417200  1
  O  O42  1  0.96734900  0.96734900  0.96734900  1
  O  O43  1  0.20208900  0.20208900  0.48482100  1
  O  O44  1  0.48482100  0.20208900  0.20208900  1
  O  O45  1  0.20208900  0.48482100  0.20208900  1
  O  O46  1  0.40031900  0.89294800  0.74290000  1
  O  O47  1  0.74290000  0.40031900  0.89294800  1
  O  O48  1  0.89294800  0.40031900  0.74290000  1
  O  O49  1  0.89294800  0.74290000  0.40031900  1
  O  O50  1  0.40031900  0.74290000  0.89294800  1
  O  O51  1  0.74290000  0.89294800  0.40031900  1
