# generated using pymatgen
data_VRu(NF)6
_symmetry_space_group_name_H-M   'P 1'
_cell_length_a   9.62632100
_cell_length_b   9.62632100
_cell_length_c   9.62632100
_cell_angle_alpha   90.00000000
_cell_angle_beta   90.00000000
_cell_angle_gamma   90.00000000
_symmetry_Int_Tables_number   1
_chemical_formula_structural   VRu(NF)6
_chemical_formula_sum   'V4 Ru4 N24 F24'
_cell_volume   892.03320081
_cell_formula_units_Z   4
loop_
 _symmetry_equiv_pos_site_id
 _symmetry_equiv_pos_as_xyz
  1  'x, y, z'
loop_
 _atom_site_type_symbol
 _atom_site_label
 _atom_site_symmetry_multiplicity
 _atom_site_fract_x
 _atom_site_fract_y
 _atom_site_fract_z
 _atom_site_occupancy
  V  V0  1  0.50000000  0.50000000  0.50000000  1
  V  V1  1  0.00000000  0.50000000  0.00000000  1
  V  V2  1  0.50000000  0.00000000  0.00000000  1
  V  V3  1  0.00000000  0.00000000  0.50000000  1
  Ru  Ru4  1  0.00000000  0.00000000  0.00000000  1
  Ru  Ru5  1  0.50000000  0.00000000  0.50000000  1
  Ru  Ru6  1  0.00000000  0.50000000  0.50000000  1
  Ru  Ru7  1  0.50000000  0.50000000  0.00000000  1
  N  N8  1  0.11465300  0.34442400  0.44229700  1
  N  N9  1  0.88534700  0.65557600  0.55770300  1
  N  N10  1  0.38534700  0.65557600  0.94229700  1
  N  N11  1  0.88534700  0.84442400  0.05770300  1
  N  N12  1  0.44229700  0.11465300  0.34442400  1
  N  N13  1  0.61465300  0.34442400  0.05770300  1
  N  N14  1  0.11465300  0.15557600  0.94229700  1
  N  N15  1  0.55770300  0.88534700  0.65557600  1
  N  N16  1  0.61465300  0.15557600  0.55770300  1
  N  N17  1  0.94229700  0.38534700  0.65557600  1
  N  N18  1  0.38534700  0.84442400  0.44229700  1
  N  N19  1  0.05770300  0.61465300  0.34442400  1
  N  N20  1  0.05770300  0.88534700  0.84442400  1
  N  N21  1  0.94229700  0.11465300  0.15557600  1
  N  N22  1  0.55770300  0.61465300  0.15557600  1
  N  N23  1  0.44229700  0.38534700  0.84442400  1
  N  N24  1  0.34442400  0.44229700  0.11465300  1
  N  N25  1  0.65557600  0.55770300  0.88534700  1
  N  N26  1  0.84442400  0.05770300  0.88534700  1
  N  N27  1  0.15557600  0.94229700  0.11465300  1
  N  N28  1  0.15557600  0.55770300  0.61465300  1
  N  N29  1  0.84442400  0.44229700  0.38534700  1
  N  N30  1  0.65557600  0.94229700  0.38534700  1
  N  N31  1  0.34442400  0.05770300  0.61465300  1
  F  F32  1  0.06193800  0.37832900  0.13046300  1
  F  F33  1  0.93806200  0.62167100  0.86953700  1
  F  F34  1  0.43806200  0.62167100  0.63046300  1
  F  F35  1  0.93806200  0.87832900  0.36953700  1
  F  F36  1  0.13046300  0.06193800  0.37832900  1
  F  F37  1  0.56193800  0.37832900  0.36953700  1
  F  F38  1  0.06193800  0.12167100  0.63046300  1
  F  F39  1  0.86953700  0.93806200  0.62167100  1
  F  F40  1  0.56193800  0.12167100  0.86953700  1
  F  F41  1  0.63046300  0.43806200  0.62167100  1
  F  F42  1  0.43806200  0.87832900  0.13046300  1
  F  F43  1  0.36953700  0.56193800  0.37832900  1
  F  F44  1  0.36953700  0.93806200  0.87832900  1
  F  F45  1  0.63046300  0.06193800  0.12167100  1
  F  F46  1  0.86953700  0.56193800  0.12167100  1
  F  F47  1  0.13046300  0.43806200  0.87832900  1
  F  F48  1  0.37832900  0.13046300  0.06193800  1
  F  F49  1  0.62167100  0.86953700  0.93806200  1
  F  F50  1  0.87832900  0.36953700  0.93806200  1
  F  F51  1  0.12167100  0.63046300  0.06193800  1
  F  F52  1  0.12167100  0.86953700  0.56193800  1
  F  F53  1  0.87832900  0.13046300  0.43806200  1
  F  F54  1  0.62167100  0.63046300  0.43806200  1
  F  F55  1  0.37832900  0.36953700  0.56193800  1
