# generated using pymatgen
data_Y2Mg3(SiO4)3
_symmetry_space_group_name_H-M   'P 1'
_cell_length_a   10.65661753
_cell_length_b   10.65661753
_cell_length_c   10.65661753
_cell_angle_alpha   109.47122063
_cell_angle_beta   109.47122063
_cell_angle_gamma   109.47122063
_symmetry_Int_Tables_number   1
_chemical_formula_structural   Y2Mg3(SiO4)3
_chemical_formula_sum   'Y8 Mg12 Si12 O48'
_cell_volume   931.61451521
_cell_formula_units_Z   4
loop_
 _symmetry_equiv_pos_site_id
 _symmetry_equiv_pos_as_xyz
  1  'x, y, z'
loop_
 _atom_site_type_symbol
 _atom_site_label
 _atom_site_symmetry_multiplicity
 _atom_site_fract_x
 _atom_site_fract_y
 _atom_site_fract_z
 _atom_site_occupancy
  Y  Y0  1  0.00000000  0.00000000  0.00000000  1
  Y  Y1  1  0.50000000  0.00000000  0.50000000  1
  Y  Y2  1  0.00000000  0.50000000  0.50000000  1
  Y  Y3  1  0.50000000  0.00000000  0.00000000  1
  Y  Y4  1  0.50000000  0.50000000  0.00000000  1
  Y  Y5  1  0.50000000  0.50000000  0.50000000  1
  Y  Y6  1  0.00000000  0.00000000  0.50000000  1
  Y  Y7  1  0.00000000  0.50000000  0.00000000  1
  Mg  Mg8  1  0.25000000  0.37500000  0.12500000  1
  Mg  Mg9  1  0.75000000  0.62500000  0.87500000  1
  Mg  Mg10  1  0.75000000  0.12500000  0.37500000  1
  Mg  Mg11  1  0.12500000  0.25000000  0.37500000  1
  Mg  Mg12  1  0.37500000  0.75000000  0.12500000  1
  Mg  Mg13  1  0.25000000  0.87500000  0.62500000  1
  Mg  Mg14  1  0.87500000  0.75000000  0.62500000  1
  Mg  Mg15  1  0.62500000  0.25000000  0.87500000  1
  Mg  Mg16  1  0.37500000  0.12500000  0.25000000  1
  Mg  Mg17  1  0.62500000  0.87500000  0.75000000  1
  Mg  Mg18  1  0.12500000  0.37500000  0.75000000  1
  Mg  Mg19  1  0.87500000  0.62500000  0.25000000  1
  Si  Si20  1  0.25000000  0.62500000  0.37500000  1
  Si  Si21  1  0.75000000  0.37500000  0.62500000  1
  Si  Si22  1  0.75000000  0.87500000  0.12500000  1
  Si  Si23  1  0.37500000  0.25000000  0.62500000  1
  Si  Si24  1  0.62500000  0.75000000  0.37500000  1
  Si  Si25  1  0.25000000  0.12500000  0.87500000  1
  Si  Si26  1  0.12500000  0.75000000  0.87500000  1
  Si  Si27  1  0.87500000  0.25000000  0.12500000  1
  Si  Si28  1  0.62500000  0.37500000  0.25000000  1
  Si  Si29  1  0.37500000  0.62500000  0.75000000  1
  Si  Si30  1  0.87500000  0.12500000  0.75000000  1
  Si  Si31  1  0.12500000  0.87500000  0.25000000  1
  O  O32  1  0.47748200  0.37063800  0.27371000  1
  O  O33  1  0.52251800  0.62936200  0.72629000  1
  O  O34  1  0.59692800  0.20377200  0.22629000  1
  O  O35  1  0.90307200  0.12936200  0.60684400  1
  O  O36  1  0.27371000  0.47748200  0.37063800  1
  O  O37  1  0.29622800  0.90307200  0.27371000  1
  O  O38  1  0.40307200  0.79622800  0.77371000  1
  O  O39  1  0.09692800  0.87063800  0.39315600  1
  O  O40  1  0.72629000  0.52251800  0.62936200  1
  O  O41  1  0.70377200  0.09692800  0.72629000  1
  O  O42  1  0.02251800  0.29622800  0.89315600  1
  O  O43  1  0.22629000  0.59692800  0.20377200  1
  O  O44  1  0.12936200  0.02251800  0.22629000  1
  O  O45  1  0.97748200  0.70377200  0.10684400  1
  O  O46  1  0.77371000  0.40307200  0.79622800  1
  O  O47  1  0.87063800  0.97748200  0.77371000  1
  O  O48  1  0.60684400  0.90307200  0.12936200  1
  O  O49  1  0.20377200  0.47748200  0.60684400  1
  O  O50  1  0.39315600  0.09692800  0.87063800  1
  O  O51  1  0.79622800  0.52251800  0.39315600  1
  O  O52  1  0.89315600  0.02251800  0.29622800  1
  O  O53  1  0.37063800  0.59692800  0.89315600  1
  O  O54  1  0.10684400  0.97748200  0.70377200  1
  O  O55  1  0.62936200  0.40307200  0.10684400  1
  O  O56  1  0.37063800  0.27371000  0.47748200  1
  O  O57  1  0.59692800  0.89315600  0.37063800  1
  O  O58  1  0.62936200  0.72629000  0.52251800  1
  O  O59  1  0.40307200  0.10684400  0.62936200  1
  O  O60  1  0.12936200  0.60684400  0.90307200  1
  O  O61  1  0.02251800  0.22629000  0.12936200  1
  O  O62  1  0.87063800  0.39315600  0.09692800  1
  O  O63  1  0.97748200  0.77371000  0.87063800  1
  O  O64  1  0.29622800  0.89315600  0.02251800  1
  O  O65  1  0.90307200  0.27371000  0.29622800  1
  O  O66  1  0.70377200  0.10684400  0.97748200  1
  O  O67  1  0.09692800  0.72629000  0.70377200  1
  O  O68  1  0.20377200  0.22629000  0.59692800  1
  O  O69  1  0.47748200  0.60684400  0.20377200  1
  O  O70  1  0.79622800  0.77371000  0.40307200  1
  O  O71  1  0.52251800  0.39315600  0.79622800  1
  O  O72  1  0.27371000  0.29622800  0.90307200  1
  O  O73  1  0.72629000  0.70377200  0.09692800  1
  O  O74  1  0.22629000  0.12936200  0.02251800  1
  O  O75  1  0.77371000  0.87063800  0.97748200  1
  O  O76  1  0.89315600  0.37063800  0.59692800  1
  O  O77  1  0.10684400  0.62936200  0.40307200  1
  O  O78  1  0.60684400  0.20377200  0.47748200  1
  O  O79  1  0.39315600  0.79622800  0.52251800  1
