# generated using pymatgen
data_VAsNO4F
_symmetry_space_group_name_H-M   'P 1'
_cell_length_a   6.59736100
_cell_length_b   10.88854900
_cell_length_c   13.36139600
_cell_angle_alpha   90.00000000
_cell_angle_beta   90.00000000
_cell_angle_gamma   90.00000000
_symmetry_Int_Tables_number   1
_chemical_formula_structural   VAsNO4F
_chemical_formula_sum   'V8 As8 N8 O32 F8'
_cell_volume   959.82508124
_cell_formula_units_Z   8
loop_
 _symmetry_equiv_pos_site_id
 _symmetry_equiv_pos_as_xyz
  1  'x, y, z'
loop_
 _atom_site_type_symbol
 _atom_site_label
 _atom_site_symmetry_multiplicity
 _atom_site_fract_x
 _atom_site_fract_y
 _atom_site_fract_z
 _atom_site_occupancy
  V  V0  1  0.24483800  0.12780100  0.25188500  1
  V  V1  1  0.75516200  0.62780100  0.74811500  1
  V  V2  1  0.25516200  0.12780100  0.75188500  1
  V  V3  1  0.74483800  0.62780100  0.24811500  1
  V  V4  1  0.49363000  0.37736300  0.39188100  1
  V  V5  1  0.50637000  0.87736300  0.60811900  1
  V  V6  1  0.00637000  0.37736300  0.89188100  1
  V  V7  1  0.99363000  0.87736300  0.10811900  1
  As  As8  1  0.99594700  0.37980100  0.31605100  1
  As  As9  1  0.00405300  0.87980100  0.68394900  1
  As  As10  1  0.50405300  0.37980100  0.81605100  1
  As  As11  1  0.49594700  0.87980100  0.18394900  1
  As  As12  1  0.17905500  0.12515800  0.00129000  1
  As  As13  1  0.82094500  0.62515800  0.99871000  1
  As  As14  1  0.32094500  0.12515800  0.50129000  1
  As  As15  1  0.67905500  0.62515800  0.49871000  1
  N  N16  1  0.31340200  0.44591800  0.10703500  1
  N  N17  1  0.68659800  0.94591800  0.89296500  1
  N  N18  1  0.18659800  0.44591800  0.60703500  1
  N  N19  1  0.81340200  0.94591800  0.39296500  1
  N  N20  1  0.71807300  0.20095100  0.10953500  1
  N  N21  1  0.28192700  0.70095100  0.89046500  1
  N  N22  1  0.78192700  0.20095100  0.60953500  1
  N  N23  1  0.21807300  0.70095100  0.39046500  1
  O  O24  1  0.17492700  0.11048100  0.39613700  1
  O  O25  1  0.82507300  0.61048100  0.60386300  1
  O  O26  1  0.32507300  0.11048100  0.89613700  1
  O  O27  1  0.67492700  0.61048100  0.10386300  1
  O  O28  1  0.05113500  0.25377200  0.24110600  1
  O  O29  1  0.94886500  0.75377200  0.75889400  1
  O  O30  1  0.44886500  0.25377200  0.74110600  1
  O  O31  1  0.55113500  0.75377200  0.25889400  1
  O  O32  1  0.00831600  0.00767000  0.01425600  1
  O  O33  1  0.99168400  0.50767000  0.98574400  1
  O  O34  1  0.49168400  0.00767000  0.51425600  1
  O  O35  1  0.50831600  0.50767000  0.48574400  1
  O  O36  1  0.47392100  0.25465500  0.48329000  1
  O  O37  1  0.52607900  0.75465500  0.51671000  1
  O  O38  1  0.02607900  0.25465500  0.98329000  1
  O  O39  1  0.97392100  0.75465500  0.01671000  1
  O  O40  1  0.31751000  0.14650100  0.10809900  1
  O  O41  1  0.68249000  0.64650100  0.89190100  1
  O  O42  1  0.18249000  0.14650100  0.60809900  1
  O  O43  1  0.81751000  0.64650100  0.39190100  1
  O  O44  1  0.44036200  0.00156500  0.26329100  1
  O  O45  1  0.55963800  0.50156500  0.73670900  1
  O  O46  1  0.05963800  0.00156500  0.76329100  1
  O  O47  1  0.94036200  0.50156500  0.23670900  1
  O  O48  1  0.29222900  0.85336000  0.10929500  1
  O  O49  1  0.70777100  0.35336000  0.89070500  1
  O  O50  1  0.20777100  0.85336000  0.60929500  1
  O  O51  1  0.79222900  0.35336000  0.39070500  1
  O  O52  1  0.20432900  0.41403300  0.38695800  1
  O  O53  1  0.79567100  0.91403300  0.61304200  1
  O  O54  1  0.29567100  0.41403300  0.88695800  1
  O  O55  1  0.70432900  0.91403300  0.11304200  1
  F  F56  1  0.04335600  0.99932100  0.21830900  1
  F  F57  1  0.95664400  0.49932100  0.78169100  1
  F  F58  1  0.45664400  0.99932100  0.71830900  1
  F  F59  1  0.54335600  0.49932100  0.28169100  1
  F  F60  1  0.44943200  0.25394900  0.28221200  1
  F  F61  1  0.55056800  0.75394900  0.71778800  1
  F  F62  1  0.05056800  0.25394900  0.78221200  1
  F  F63  1  0.94943200  0.75394900  0.21778800  1
