# generated using pymatgen
data_Y10B7C10
_symmetry_space_group_name_H-M   'P 1'
_cell_length_a   8.00184447
_cell_length_b   8.00184447
_cell_length_c   23.73265225
_cell_angle_alpha   84.11627296
_cell_angle_beta   84.11627296
_cell_angle_gamma   88.70378532
_symmetry_Int_Tables_number   1
_chemical_formula_structural   Y10B7C10
_chemical_formula_sum   'Y40 B28 C40'
_cell_volume   1503.50922508
_cell_formula_units_Z   4
loop_
 _symmetry_equiv_pos_site_id
 _symmetry_equiv_pos_as_xyz
  1  'x, y, z'
loop_
 _atom_site_type_symbol
 _atom_site_label
 _atom_site_symmetry_multiplicity
 _atom_site_fract_x
 _atom_site_fract_y
 _atom_site_fract_z
 _atom_site_occupancy
  Y  Y0  1  0.77627300  0.82662500  0.07555700  1
  Y  Y1  1  0.22372700  0.17337500  0.92444300  1
  Y  Y2  1  0.17337500  0.22372700  0.42444300  1
  Y  Y3  1  0.82662500  0.77627300  0.57555700  1
  Y  Y4  1  0.64635400  0.08620900  0.18198200  1
  Y  Y5  1  0.35364600  0.91379100  0.81801800  1
  Y  Y6  1  0.91379100  0.35364600  0.31801800  1
  Y  Y7  1  0.08620900  0.64635400  0.68198200  1
  Y  Y8  1  0.37483100  0.82236400  0.42263700  1
  Y  Y9  1  0.62516900  0.17763600  0.57736300  1
  Y  Y10  1  0.17763600  0.62516900  0.07736300  1
  Y  Y11  1  0.82236400  0.37483100  0.92263700  1
  Y  Y12  1  0.37489000  0.02779000  0.07752300  1
  Y  Y13  1  0.62511000  0.97221000  0.92247700  1
  Y  Y14  1  0.97221000  0.62511000  0.42247700  1
  Y  Y15  1  0.02779000  0.37489000  0.57752300  1
  Y  Y16  1  0.45490900  0.69651200  0.18127400  1
  Y  Y17  1  0.54509100  0.30348800  0.81872600  1
  Y  Y18  1  0.30348800  0.54509100  0.31872600  1
  Y  Y19  1  0.69651200  0.45490900  0.68127400  1
  Y  Y20  1  0.70855000  0.75816400  0.30455300  1
  Y  Y21  1  0.29145000  0.24183600  0.69544700  1
  Y  Y22  1  0.24183600  0.29145000  0.19544700  1
  Y  Y23  1  0.75816400  0.70855000  0.80455300  1
  Y  Y24  1  0.57359100  0.42417800  0.42298500  1
  Y  Y25  1  0.42640900  0.57582200  0.57701500  1
  Y  Y26  1  0.57582200  0.42640900  0.07701500  1
  Y  Y27  1  0.42417800  0.57359100  0.92298500  1
  Y  Y28  1  0.89368300  0.03638000  0.68175600  1
  Y  Y29  1  0.10631700  0.96362000  0.31824400  1
  Y  Y30  1  0.96362000  0.10631700  0.81824400  1
  Y  Y31  1  0.03638000  0.89368300  0.18175600  1
  Y  Y32  1  0.77267000  0.02200900  0.42252000  1
  Y  Y33  1  0.22733000  0.97799100  0.57748000  1
  Y  Y34  1  0.97799100  0.22733000  0.07748000  1
  Y  Y35  1  0.02200900  0.77267000  0.92252000  1
  Y  Y36  1  0.49555600  0.15535500  0.31838100  1
  Y  Y37  1  0.50444400  0.84464500  0.68161900  1
  Y  Y38  1  0.84464500  0.50444400  0.18161900  1
  Y  Y39  1  0.15535500  0.49555600  0.81838100  1
  B  B40  1  0.37918500  0.92935900  0.24975000  1
  B  B41  1  0.62081500  0.07064100  0.75025000  1
  B  B42  1  0.07064100  0.62081500  0.25025000  1
  B  B43  1  0.92935900  0.37918500  0.74975000  1
  B  B44  1  0.45856300  0.10198600  0.48026400  1
  B  B45  1  0.54143700  0.89801400  0.51973600  1
  B  B46  1  0.89801400  0.54143700  0.01973600  1
  B  B47  1  0.10198600  0.45856300  0.98026400  1
  B  B48  1  0.09079200  0.94529800  0.02043200  1
  B  B49  1  0.90920800  0.05470200  0.97956800  1
  B  B50  1  0.05470200  0.90920800  0.47956800  1
  B  B51  1  0.94529800  0.09079200  0.52043200  1
  B  B52  1  0.68946800  0.14686200  0.02070600  1
  B  B53  1  0.31053200  0.85313800  0.97929400  1
  B  B54  1  0.85313800  0.31053200  0.47929400  1
  B  B55  1  0.14686200  0.68946800  0.52070600  1
  B  B56  1  0.48942900  0.74442900  0.01931200  1
  B  B57  1  0.51057100  0.25557100  0.98068800  1
  B  B58  1  0.25557100  0.51057100  0.48068800  1
  B  B59  1  0.74442900  0.48942900  0.51931200  1
  B  B60  1  0.57180400  0.42819600  0.25000000  1
  B  B61  1  0.42819600  0.57180400  0.75000000  1
  B  B62  1  0.87832000  0.12168000  0.25000000  1
  B  B63  1  0.12168000  0.87832000  0.75000000  1
  B  B64  1  0.29344400  0.34233400  0.02420500  1
  B  B65  1  0.70655600  0.65766600  0.97579500  1
  B  B66  1  0.65766600  0.70655600  0.47579500  1
  B  B67  1  0.34233400  0.29344400  0.52420500  1
  C  C68  1  0.54470700  0.39151600  0.19226300  1
  C  C69  1  0.45529300  0.60848400  0.80773700  1
  C  C70  1  0.60848400  0.45529300  0.30773700  1
  C  C71  1  0.39151600  0.54470700  0.69226300  1
  C  C72  1  0.67358600  0.12674900  0.08360000  1
  C  C73  1  0.32641400  0.87325100  0.91640000  1
  C  C74  1  0.87325100  0.32641400  0.41640000  1
  C  C75  1  0.12674900  0.67358600  0.58360000  1
  C  C76  1  0.40582100  0.85712300  0.30740200  1
  C  C77  1  0.59417900  0.14287700  0.69259800  1
  C  C78  1  0.14287700  0.59417900  0.19259800  1
  C  C79  1  0.85712300  0.40582100  0.80740200  1
  C  C80  1  0.80682400  0.05936900  0.30757600  1
  C  C81  1  0.19317600  0.94063100  0.69242400  1
  C  C82  1  0.94063100  0.19317600  0.19242400  1
  C  C83  1  0.05936900  0.80682400  0.80757600  1
  C  C84  1  0.34248100  0.99028800  0.19162800  1
  C  C85  1  0.65751900  0.00971200  0.80837200  1
  C  C86  1  0.00971200  0.65751900  0.30837200  1
  C  C87  1  0.99028800  0.34248100  0.69162800  1
  C  C88  1  0.47363400  0.72294000  0.08250200  1
  C  C89  1  0.52636600  0.27706000  0.91749800  1
  C  C90  1  0.27706000  0.52636600  0.41749800  1
  C  C91  1  0.72294000  0.47363400  0.58250200  1
  C  C92  1  0.92576700  0.07615500  0.58340300  1
  C  C93  1  0.07423300  0.92384500  0.41659700  1
  C  C94  1  0.92384500  0.07423300  0.91659700  1
  C  C95  1  0.07615500  0.92576700  0.08340300  1
  C  C96  1  0.74549400  0.79508000  0.18196300  1
  C  C97  1  0.25450600  0.20492000  0.81803700  1
  C  C98  1  0.20492000  0.25450600  0.31803700  1
  C  C99  1  0.79508000  0.74549400  0.68196300  1
  C  C100  1  0.67610600  0.72643500  0.41235800  1
  C  C101  1  0.32389400  0.27356500  0.58764200  1
  C  C102  1  0.27356500  0.32389400  0.08764200  1
  C  C103  1  0.72643500  0.67610600  0.91235800  1
  C  C104  1  0.47681100  0.12460000  0.41718700  1
  C  C105  1  0.52318900  0.87540000  0.58281300  1
  C  C106  1  0.87540000  0.52318900  0.08281300  1
  C  C107  1  0.12460000  0.47681100  0.91718700  1
