# generated using pymatgen
data_YCoC6N6O5
_symmetry_space_group_name_H-M   'P 1'
_cell_length_a   7.57012786
_cell_length_b   7.57012786
_cell_length_c   12.85938100
_cell_angle_alpha   90.00000000
_cell_angle_beta   90.00000000
_cell_angle_gamma   119.99999880
_symmetry_Int_Tables_number   1
_chemical_formula_structural   YCoC6N6O5
_chemical_formula_sum   'Y2 Co2 C12 N12 O10'
_cell_volume   638.20048635
_cell_formula_units_Z   2
loop_
 _symmetry_equiv_pos_site_id
 _symmetry_equiv_pos_as_xyz
  1  'x, y, z'
loop_
 _atom_site_type_symbol
 _atom_site_label
 _atom_site_symmetry_multiplicity
 _atom_site_fract_x
 _atom_site_fract_y
 _atom_site_fract_z
 _atom_site_occupancy
  Y  Y0  1  0.33333300  0.66666700  0.75000000  1
  Y  Y1  1  0.66666700  0.33333300  0.25000000  1
  Co  Co2  1  0.00000000  0.00000000  0.00000000  1
  Co  Co3  1  0.00000000  0.00000000  0.50000000  1
  C  C4  1  0.76573600  0.89610700  0.91756000  1
  C  C5  1  0.23426400  0.10389300  0.08244000  1
  C  C6  1  0.13037100  0.23426400  0.91756000  1
  C  C7  1  0.23426400  0.10389300  0.41756000  1
  C  C8  1  0.86962900  0.76573600  0.08244000  1
  C  C9  1  0.76573600  0.89610700  0.58244000  1
  C  C10  1  0.10389300  0.86962900  0.91756000  1
  C  C11  1  0.86962900  0.76573600  0.41756000  1
  C  C12  1  0.89610700  0.13037100  0.08244000  1
  C  C13  1  0.13037100  0.23426400  0.58244000  1
  C  C14  1  0.89610700  0.13037100  0.41756000  1
  C  C15  1  0.10389300  0.86962900  0.58244000  1
  N  N16  1  0.61596500  0.82697300  0.86776100  1
  N  N17  1  0.38403500  0.17302700  0.13223900  1
  N  N18  1  0.21100700  0.38403500  0.86776100  1
  N  N19  1  0.38403500  0.17302700  0.36776100  1
  N  N20  1  0.78899300  0.61596500  0.13223900  1
  N  N21  1  0.61596500  0.82697300  0.63223900  1
  N  N22  1  0.17302700  0.78899300  0.86776100  1
  N  N23  1  0.78899300  0.61596500  0.36776100  1
  N  N24  1  0.82697300  0.21100700  0.13223900  1
  N  N25  1  0.21100700  0.38403500  0.63223900  1
  N  N26  1  0.82697300  0.21100700  0.36776100  1
  N  N27  1  0.17302700  0.78899300  0.63223900  1
  O  O28  1  0.66666700  0.33333300  0.84337900  1
  O  O29  1  0.33333300  0.66666700  0.15662100  1
  O  O30  1  0.33333300  0.66666700  0.34337900  1
  O  O31  1  0.66666700  0.33333300  0.65662100  1
  O  O32  1  0.92694200  0.44066400  0.75000000  1
  O  O33  1  0.07305800  0.55933600  0.25000000  1
  O  O34  1  0.51372300  0.07305800  0.75000000  1
  O  O35  1  0.48627700  0.92694200  0.25000000  1
  O  O36  1  0.55933600  0.48627700  0.75000000  1
  O  O37  1  0.44066400  0.51372300  0.25000000  1
