# generated using pymatgen
data_Tm5Ga3
_symmetry_space_group_name_H-M   'P 1'
_cell_length_a   8.49834485
_cell_length_b   8.49834485
_cell_length_c   6.40211859
_cell_angle_alpha   89.16738235
_cell_angle_beta   89.16738235
_cell_angle_gamma   119.99089801
_symmetry_Int_Tables_number   1
_chemical_formula_structural   Tm5Ga3
_chemical_formula_sum   'Tm10 Ga6'
_cell_volume   400.29432443
_cell_formula_units_Z   2
loop_
 _symmetry_equiv_pos_site_id
 _symmetry_equiv_pos_as_xyz
  1  'x, y, z'
loop_
 _atom_site_type_symbol
 _atom_site_label
 _atom_site_symmetry_multiplicity
 _atom_site_fract_x
 _atom_site_fract_y
 _atom_site_fract_z
 _atom_site_occupancy
  Tm  Tm0  1  0.85281900  0.14718100  0.50000000  1
  Tm  Tm1  1  0.14718100  0.85281900  0.50000000  1
  Tm  Tm2  1  0.81719000  0.18281000  0.00000000  1
  Tm  Tm3  1  0.18281000  0.81719000  0.00000000  1
  Tm  Tm4  1  0.50184000  0.74356600  0.26237700  1
  Tm  Tm5  1  0.49816000  0.25643400  0.73762300  1
  Tm  Tm6  1  0.25643400  0.49816000  0.73762300  1
  Tm  Tm7  1  0.74356600  0.50184000  0.26237700  1
  Tm  Tm8  1  0.26581700  0.26581700  0.22906700  1
  Tm  Tm9  1  0.73418300  0.73418300  0.77093300  1
  Ga  Ga10  1  0.90483200  0.90483200  0.19261300  1
  Ga  Ga11  1  0.09516800  0.09516800  0.80738700  1
  Ga  Ga12  1  0.50053400  0.09708200  0.28571800  1
  Ga  Ga13  1  0.49946600  0.90291800  0.71428200  1
  Ga  Ga14  1  0.90291800  0.49946600  0.71428200  1
  Ga  Ga15  1  0.09708200  0.50053400  0.28571800  1
