# generated using pymatgen
data_TlS2NO8
_symmetry_space_group_name_H-M   'P 1'
_cell_length_a   9.06984043
_cell_length_b   9.06984043
_cell_length_c   9.06984016
_cell_angle_alpha   32.40509088
_cell_angle_beta   32.40509088
_cell_angle_gamma   32.40509415
_symmetry_Int_Tables_number   1
_chemical_formula_structural   TlS2NO8
_chemical_formula_sum   'Tl1 S2 N1 O8'
_cell_volume   190.50325187
_cell_formula_units_Z   1
loop_
 _symmetry_equiv_pos_site_id
 _symmetry_equiv_pos_as_xyz
  1  'x, y, z'
loop_
 _atom_site_type_symbol
 _atom_site_label
 _atom_site_symmetry_multiplicity
 _atom_site_fract_x
 _atom_site_fract_y
 _atom_site_fract_z
 _atom_site_occupancy
  Tl  Tl0  1  0.00000000  0.00000000  0.00000000  1
  S  S1  1  0.25951300  0.25951300  0.25951300  1
  S  S2  1  0.74048700  0.74048700  0.74048700  1
  N  N3  1  0.50000000  0.50000000  0.50000000  1
  O  O4  1  0.72948100  0.43713500  0.99439400  1
  O  O5  1  0.43713500  0.99439400  0.72948100  1
  O  O6  1  0.27051900  0.00560600  0.56286500  1
  O  O7  1  0.99439400  0.72948100  0.43713500  1
  O  O8  1  0.56286500  0.27051900  0.00560600  1
  O  O9  1  0.00560600  0.56286500  0.27051900  1
  O  O10  1  0.20276600  0.20276600  0.20276600  1
  O  O11  1  0.79723400  0.79723400  0.79723400  1
