# generated using pymatgen
data_UHg(MoO4)4
_symmetry_space_group_name_H-M   'P 1'
_cell_length_a   6.72688300
_cell_length_b   8.43922945
_cell_length_c   11.65404143
_cell_angle_alpha   90.55722550
_cell_angle_beta   90.00000000
_cell_angle_gamma   90.00000000
_symmetry_Int_Tables_number   1
_chemical_formula_structural   UHg(MoO4)4
_chemical_formula_sum   'U2 Hg2 Mo8 O32'
_cell_volume   661.56525449
_cell_formula_units_Z   2
loop_
 _symmetry_equiv_pos_site_id
 _symmetry_equiv_pos_as_xyz
  1  'x, y, z'
loop_
 _atom_site_type_symbol
 _atom_site_label
 _atom_site_symmetry_multiplicity
 _atom_site_fract_x
 _atom_site_fract_y
 _atom_site_fract_z
 _atom_site_occupancy
  U  U0  1  0.69746700  0.75000000  0.75000000  1
  U  U1  1  0.30253300  0.25000000  0.25000000  1
  Hg  Hg2  1  0.69423000  0.25000000  0.75000000  1
  Hg  Hg3  1  0.30577000  0.75000000  0.25000000  1
  Mo  Mo4  1  0.16865300  0.20342400  0.90378300  1
  Mo  Mo5  1  0.83134700  0.79657600  0.09621700  1
  Mo  Mo6  1  0.16865300  0.29657600  0.59621700  1
  Mo  Mo7  1  0.83134700  0.70342400  0.40378300  1
  Mo  Mo8  1  0.16630000  0.79608700  0.59342900  1
  Mo  Mo9  1  0.83370000  0.20391300  0.40657100  1
  Mo  Mo10  1  0.16630000  0.70391300  0.90657100  1
  Mo  Mo11  1  0.83370000  0.29608700  0.09342900  1
  O  O12  1  0.15038600  0.25277200  0.06727600  1
  O  O13  1  0.84961400  0.74722800  0.93272400  1
  O  O14  1  0.15038600  0.24722800  0.43272400  1
  O  O15  1  0.84961400  0.75277200  0.56727600  1
  O  O16  1  0.05907900  0.75000000  0.75000000  1
  O  O17  1  0.94092100  0.25000000  0.25000000  1
  O  O18  1  0.06637900  0.25000000  0.75000000  1
  O  O19  1  0.93362100  0.75000000  0.25000000  1
  O  O20  1  0.15658900  0.00183100  0.59724700  1
  O  O21  1  0.84341100  0.99816900  0.40275300  1
  O  O22  1  0.15658900  0.49816900  0.90275300  1
  O  O23  1  0.84341100  0.50183100  0.09724700  1
  O  O24  1  0.14594300  0.75086800  0.43718400  1
  O  O25  1  0.85405700  0.24913200  0.56281600  1
  O  O26  1  0.14594300  0.74913200  0.06281600  1
  O  O27  1  0.85405700  0.25086800  0.93718400  1
  O  O28  1  0.42202500  0.75720400  0.62924500  1
  O  O29  1  0.57797500  0.24279600  0.37075500  1
  O  O30  1  0.42202500  0.74279600  0.87075500  1
  O  O31  1  0.57797500  0.25720400  0.12924500  1
  O  O32  1  0.42068100  0.23964900  0.87654300  1
  O  O33  1  0.57931900  0.76035100  0.12345700  1
  O  O34  1  0.42068100  0.26035100  0.62345700  1
  O  O35  1  0.57931900  0.73964900  0.37654300  1
  O  O36  1  0.70074700  0.96732900  0.75321500  1
  O  O37  1  0.29925300  0.03267100  0.24678500  1
  O  O38  1  0.70074700  0.53267100  0.74678500  1
  O  O39  1  0.29925300  0.46732900  0.25321500  1
  O  O40  1  0.15306000  0.99747800  0.90314500  1
  O  O41  1  0.84694000  0.00252200  0.09685500  1
  O  O42  1  0.15306000  0.50252200  0.59685500  1
  O  O43  1  0.84694000  0.49747800  0.40314500  1
