# generated using pymatgen
data_Tm4MgGe4
_symmetry_space_group_name_H-M   'P 1'
_cell_length_a   7.14513100
_cell_length_b   7.68420600
_cell_length_c   14.38097600
_cell_angle_alpha   90.00000000
_cell_angle_beta   90.00000000
_cell_angle_gamma   90.00000000
_symmetry_Int_Tables_number   1
_chemical_formula_structural   Tm4MgGe4
_chemical_formula_sum   'Tm16 Mg4 Ge16'
_cell_volume   789.58257619
_cell_formula_units_Z   4
loop_
 _symmetry_equiv_pos_site_id
 _symmetry_equiv_pos_as_xyz
  1  'x, y, z'
loop_
 _atom_site_type_symbol
 _atom_site_label
 _atom_site_symmetry_multiplicity
 _atom_site_fract_x
 _atom_site_fract_y
 _atom_site_fract_z
 _atom_site_occupancy
  Tm  Tm0  1  0.00850900  0.18256600  0.09418500  1
  Tm  Tm1  1  0.99149100  0.81743400  0.90581500  1
  Tm  Tm2  1  0.49149100  0.68256600  0.90581500  1
  Tm  Tm3  1  0.99149100  0.81743400  0.59418500  1
  Tm  Tm4  1  0.50850900  0.31743400  0.09418500  1
  Tm  Tm5  1  0.00850900  0.18256600  0.40581500  1
  Tm  Tm6  1  0.50850900  0.31743400  0.40581500  1
  Tm  Tm7  1  0.49149100  0.68256600  0.59418500  1
  Tm  Tm8  1  0.33142700  0.17679200  0.62650900  1
  Tm  Tm9  1  0.66857300  0.82320800  0.37349100  1
  Tm  Tm10  1  0.16857300  0.67679200  0.37349100  1
  Tm  Tm11  1  0.66857300  0.82320800  0.12650900  1
  Tm  Tm12  1  0.83142700  0.32320800  0.62650900  1
  Tm  Tm13  1  0.33142700  0.17679200  0.87349100  1
  Tm  Tm14  1  0.83142700  0.32320800  0.87349100  1
  Tm  Tm15  1  0.16857300  0.67679200  0.12650900  1
  Mg  Mg16  1  0.16167100  0.51535800  0.75000000  1
  Mg  Mg17  1  0.83832900  0.48464200  0.25000000  1
  Mg  Mg18  1  0.33832900  0.01535800  0.25000000  1
  Mg  Mg19  1  0.66167100  0.98464200  0.75000000  1
  Ge  Ge20  1  0.17294800  0.46564500  0.53636500  1
  Ge  Ge21  1  0.82705200  0.53435500  0.46363500  1
  Ge  Ge22  1  0.32705200  0.96564500  0.46363500  1
  Ge  Ge23  1  0.82705200  0.53435500  0.03636500  1
  Ge  Ge24  1  0.67294800  0.03435500  0.53636500  1
  Ge  Ge25  1  0.17294800  0.46564500  0.96363500  1
  Ge  Ge26  1  0.67294800  0.03435500  0.96363500  1
  Ge  Ge27  1  0.32705200  0.96564500  0.03636500  1
  Ge  Ge28  1  0.02532800  0.09175200  0.75000000  1
  Ge  Ge29  1  0.97467200  0.90824800  0.25000000  1
  Ge  Ge30  1  0.47467200  0.59175200  0.25000000  1
  Ge  Ge31  1  0.52532800  0.40824800  0.75000000  1
  Ge  Ge32  1  0.28963400  0.86075400  0.75000000  1
  Ge  Ge33  1  0.71036600  0.13924600  0.25000000  1
  Ge  Ge34  1  0.21036600  0.36075400  0.25000000  1
  Ge  Ge35  1  0.78963400  0.63924600  0.75000000  1
