# generated using pymatgen
data_Tm3(GeRh)2
_symmetry_space_group_name_H-M   'P 1'
_cell_length_a   5.54360700
_cell_length_b   7.76675300
_cell_length_c   13.08765300
_cell_angle_alpha   90.00000000
_cell_angle_beta   90.00000000
_cell_angle_gamma   90.00000000
_symmetry_Int_Tables_number   1
_chemical_formula_structural   Tm3(GeRh)2
_chemical_formula_sum   'Tm12 Ge8 Rh8'
_cell_volume   563.49971422
_cell_formula_units_Z   4
loop_
 _symmetry_equiv_pos_site_id
 _symmetry_equiv_pos_as_xyz
  1  'x, y, z'
loop_
 _atom_site_type_symbol
 _atom_site_label
 _atom_site_symmetry_multiplicity
 _atom_site_fract_x
 _atom_site_fract_y
 _atom_site_fract_z
 _atom_site_occupancy
  Tm  Tm0  1  0.62702600  0.25372400  0.25000000  1
  Tm  Tm1  1  0.37297400  0.74627600  0.75000000  1
  Tm  Tm2  1  0.37297400  0.75372400  0.25000000  1
  Tm  Tm3  1  0.62702600  0.24627600  0.75000000  1
  Tm  Tm4  1  0.14756400  0.39434200  0.10016200  1
  Tm  Tm5  1  0.85243600  0.60565800  0.89983800  1
  Tm  Tm6  1  0.85243600  0.60565800  0.60016200  1
  Tm  Tm7  1  0.85243600  0.89434200  0.39983800  1
  Tm  Tm8  1  0.14756400  0.39434200  0.39983800  1
  Tm  Tm9  1  0.14756400  0.10565800  0.60016200  1
  Tm  Tm10  1  0.14756400  0.10565800  0.89983800  1
  Tm  Tm11  1  0.85243600  0.89434200  0.10016200  1
  Ge  Ge12  1  0.12063100  0.10974400  0.25000000  1
  Ge  Ge13  1  0.87936900  0.89025600  0.75000000  1
  Ge  Ge14  1  0.87936900  0.60974400  0.25000000  1
  Ge  Ge15  1  0.12063100  0.39025600  0.75000000  1
  Ge  Ge16  1  0.66106600  0.25000000  0.00000000  1
  Ge  Ge17  1  0.33893400  0.75000000  0.00000000  1
  Ge  Ge18  1  0.33893400  0.75000000  0.50000000  1
  Ge  Ge19  1  0.66106600  0.25000000  0.50000000  1
  Rh  Rh20  1  0.37213300  0.04014900  0.09382200  1
  Rh  Rh21  1  0.62786700  0.95985100  0.90617800  1
  Rh  Rh22  1  0.62786700  0.95985100  0.59382200  1
  Rh  Rh23  1  0.62786700  0.54014900  0.40617800  1
  Rh  Rh24  1  0.37213300  0.04014900  0.40617800  1
  Rh  Rh25  1  0.37213300  0.45985100  0.59382200  1
  Rh  Rh26  1  0.37213300  0.45985100  0.90617800  1
  Rh  Rh27  1  0.62786700  0.54014900  0.09382200  1
