# generated using pymatgen
data_Yb(AsO)2
_symmetry_space_group_name_H-M   'P 1'
_cell_length_a   7.75620544
_cell_length_b   7.75620544
_cell_length_c   7.75620544
_cell_angle_alpha   119.12764713
_cell_angle_beta   119.12764713
_cell_angle_gamma   91.51771945
_symmetry_Int_Tables_number   1
_chemical_formula_structural   Yb(AsO)2
_chemical_formula_sum   'Yb4 As8 O8'
_cell_volume   334.16200354
_cell_formula_units_Z   4
loop_
 _symmetry_equiv_pos_site_id
 _symmetry_equiv_pos_as_xyz
  1  'x, y, z'
loop_
 _atom_site_type_symbol
 _atom_site_label
 _atom_site_symmetry_multiplicity
 _atom_site_fract_x
 _atom_site_fract_y
 _atom_site_fract_z
 _atom_site_occupancy
  Yb  Yb0  1  0.87500000  0.12500000  0.75000000  1
  Yb  Yb1  1  0.37500000  0.12500000  0.25000000  1
  Yb  Yb2  1  0.87500000  0.62500000  0.75000000  1
  Yb  Yb3  1  0.87500000  0.12500000  0.25000000  1
  As  As4  1  0.72942100  0.49834200  0.23107900  1
  As  As5  1  0.26726300  0.49834200  0.76892100  1
  As  As6  1  0.24834200  0.51726300  0.26892100  1
  As  As7  1  0.48273700  0.75165800  0.73107900  1
  As  As8  1  0.02057900  0.75165800  0.26892100  1
  As  As9  1  0.24834200  0.97942100  0.73107900  1
  As  As10  1  0.50165800  0.73273700  0.23107900  1
  As  As11  1  0.50165800  0.27057900  0.76892100  1
  O  O12  1  0.65129000  0.34051000  0.31078000  1
  O  O13  1  0.02972900  0.34051000  0.68922000  1
  O  O14  1  0.09051000  0.27972900  0.18922000  1
  O  O15  1  0.72027100  0.90949000  0.81078000  1
  O  O16  1  0.09871000  0.90949000  0.18922000  1
  O  O17  1  0.09051000  0.90129000  0.81078000  1
  O  O18  1  0.65949000  0.97027100  0.31078000  1
  O  O19  1  0.65949000  0.34871000  0.68922000  1
