# generated using pymatgen
data_Tl4SnI6
_symmetry_space_group_name_H-M   'P 1'
_cell_length_a   4.65913300
_cell_length_b   10.08444800
_cell_length_c   19.47989000
_cell_angle_alpha   90.00000000
_cell_angle_beta   90.00000000
_cell_angle_gamma   90.00000000
_symmetry_Int_Tables_number   1
_chemical_formula_structural   Tl4SnI6
_chemical_formula_sum   'Tl8 Sn2 I12'
_cell_volume   915.25843302
_cell_formula_units_Z   2
loop_
 _symmetry_equiv_pos_site_id
 _symmetry_equiv_pos_as_xyz
  1  'x, y, z'
loop_
 _atom_site_type_symbol
 _atom_site_label
 _atom_site_symmetry_multiplicity
 _atom_site_fract_x
 _atom_site_fract_y
 _atom_site_fract_z
 _atom_site_occupancy
  Tl  Tl0  1  0.50000000  0.10639200  0.41923300  1
  Tl  Tl1  1  0.50000000  0.89360800  0.58076700  1
  Tl  Tl2  1  0.50000000  0.39360800  0.91923300  1
  Tl  Tl3  1  0.50000000  0.60639200  0.08076700  1
  Tl  Tl4  1  0.50000000  0.29242800  0.20483100  1
  Tl  Tl5  1  0.50000000  0.70757200  0.79516900  1
  Tl  Tl6  1  0.50000000  0.20757200  0.70483100  1
  Tl  Tl7  1  0.50000000  0.79242800  0.29516900  1
  Sn  Sn8  1  0.00000000  0.00000000  0.00000000  1
  Sn  Sn9  1  0.00000000  0.50000000  0.50000000  1
  I  I10  1  0.00000000  0.30018100  0.05321300  1
  I  I11  1  0.00000000  0.69981900  0.94678700  1
  I  I12  1  0.00000000  0.19981900  0.55321300  1
  I  I13  1  0.00000000  0.80018100  0.44678700  1
  I  I14  1  0.00000000  0.09233500  0.28645500  1
  I  I15  1  0.00000000  0.90766500  0.71354500  1
  I  I16  1  0.00000000  0.40766500  0.78645500  1
  I  I17  1  0.00000000  0.59233500  0.21354500  1
  I  I18  1  0.50000000  0.44085300  0.38869400  1
  I  I19  1  0.50000000  0.55914700  0.61130600  1
  I  I20  1  0.50000000  0.05914700  0.88869400  1
  I  I21  1  0.50000000  0.94085300  0.11130600  1
