# generated using pymatgen
data_Y5(SiO4)3
_symmetry_space_group_name_H-M   'P 1'
_cell_length_a   6.48972000
_cell_length_b   10.23423800
_cell_length_c   15.68412300
_cell_angle_alpha   90.00000000
_cell_angle_beta   90.00000000
_cell_angle_gamma   90.00000000
_symmetry_Int_Tables_number   1
_chemical_formula_structural   Y5(SiO4)3
_chemical_formula_sum   'Y20 Si12 O48'
_cell_volume   1041.69771473
_cell_formula_units_Z   4
loop_
 _symmetry_equiv_pos_site_id
 _symmetry_equiv_pos_as_xyz
  1  'x, y, z'
loop_
 _atom_site_type_symbol
 _atom_site_label
 _atom_site_symmetry_multiplicity
 _atom_site_fract_x
 _atom_site_fract_y
 _atom_site_fract_z
 _atom_site_occupancy
  Y  Y0  1  0.97663900  0.10036600  0.75000000  1
  Y  Y1  1  0.02336100  0.89963400  0.25000000  1
  Y  Y2  1  0.52336100  0.60036600  0.25000000  1
  Y  Y3  1  0.47663900  0.39963400  0.75000000  1
  Y  Y4  1  0.18674100  0.17553100  0.13006600  1
  Y  Y5  1  0.81325900  0.82446900  0.86993400  1
  Y  Y6  1  0.31325900  0.67553100  0.86993400  1
  Y  Y7  1  0.81325900  0.82446900  0.63006600  1
  Y  Y8  1  0.68674100  0.32446900  0.13006600  1
  Y  Y9  1  0.18674100  0.17553100  0.36993400  1
  Y  Y10  1  0.68674100  0.32446900  0.36993400  1
  Y  Y11  1  0.31325900  0.67553100  0.63006600  1
  Y  Y12  1  0.39073600  0.07955200  0.59775300  1
  Y  Y13  1  0.60926400  0.92044800  0.40224700  1
  Y  Y14  1  0.10926400  0.57955200  0.40224700  1
  Y  Y15  1  0.60926400  0.92044800  0.09775300  1
  Y  Y16  1  0.89073600  0.42044800  0.59775300  1
  Y  Y17  1  0.39073600  0.07955200  0.90224700  1
  Y  Y18  1  0.89073600  0.42044800  0.90224700  1
  Y  Y19  1  0.10926400  0.57955200  0.09775300  1
  Si  Si20  1  0.93467000  0.61714100  0.75000000  1
  Si  Si21  1  0.06533000  0.38285900  0.25000000  1
  Si  Si22  1  0.56533000  0.11714100  0.25000000  1
  Si  Si23  1  0.43467000  0.88285900  0.75000000  1
  Si  Si24  1  0.36415100  0.37775900  0.56293000  1
  Si  Si25  1  0.63584900  0.62224100  0.43707000  1
  Si  Si26  1  0.13584900  0.87775900  0.43707000  1
  Si  Si27  1  0.63584900  0.62224100  0.06293000  1
  Si  Si28  1  0.86415100  0.12224100  0.56293000  1
  Si  Si29  1  0.36415100  0.37775900  0.93707000  1
  Si  Si30  1  0.86415100  0.12224100  0.93707000  1
  Si  Si31  1  0.13584900  0.87775900  0.06293000  1
  O  O32  1  0.03964000  0.37905100  0.13695800  1
  O  O33  1  0.96036000  0.62094900  0.86304200  1
  O  O34  1  0.46036000  0.87905100  0.86304200  1
  O  O35  1  0.96036000  0.62094900  0.63695800  1
  O  O36  1  0.53964000  0.12094900  0.13695800  1
  O  O37  1  0.03964000  0.37905100  0.36304200  1
  O  O38  1  0.53964000  0.12094900  0.36304200  1
  O  O39  1  0.46036000  0.87905100  0.63695800  1
  O  O40  1  0.22851900  0.55149400  0.75000000  1
  O  O41  1  0.77148100  0.44850600  0.25000000  1
  O  O42  1  0.27148100  0.05149400  0.25000000  1
  O  O43  1  0.72851900  0.94850600  0.75000000  1
  O  O44  1  0.33322700  0.04625700  0.75000000  1
  O  O45  1  0.66677300  0.95374300  0.25000000  1
  O  O46  1  0.16677300  0.54625700  0.25000000  1
  O  O47  1  0.83322700  0.45374300  0.75000000  1
  O  O48  1  0.19740100  0.48703500  0.53125500  1
  O  O49  1  0.80259900  0.51296500  0.46874500  1
  O  O50  1  0.30259900  0.98703500  0.46874500  1
  O  O51  1  0.80259900  0.51296500  0.03125500  1
  O  O52  1  0.69740100  0.01296500  0.53125500  1
  O  O53  1  0.19740100  0.48703500  0.96874500  1
  O  O54  1  0.69740100  0.01296500  0.96874500  1
  O  O55  1  0.30259900  0.98703500  0.03125500  1
  O  O56  1  0.26015000  0.29144900  0.64339800  1
  O  O57  1  0.73985000  0.70855100  0.35660200  1
  O  O58  1  0.23985000  0.79144900  0.35660200  1
  O  O59  1  0.73985000  0.70855100  0.14339800  1
  O  O60  1  0.76015000  0.20855100  0.64339800  1
  O  O61  1  0.26015000  0.29144900  0.85660200  1
  O  O62  1  0.76015000  0.20855100  0.85660200  1
  O  O63  1  0.23985000  0.79144900  0.14339800  1
  O  O64  1  0.44476000  0.27422800  0.00779400  1
  O  O65  1  0.55524000  0.72577200  0.99220600  1
  O  O66  1  0.05524000  0.77422800  0.99220600  1
  O  O67  1  0.55524000  0.72577200  0.50779400  1
  O  O68  1  0.94476000  0.22577200  0.00779400  1
  O  O69  1  0.44476000  0.27422800  0.49220600  1
  O  O70  1  0.94476000  0.22577200  0.49220600  1
  O  O71  1  0.05524000  0.77422800  0.50779400  1
  O  O72  1  0.03986800  0.03199900  0.61305400  1
  O  O73  1  0.96013200  0.96800100  0.38694600  1
  O  O74  1  0.46013200  0.53199900  0.38694600  1
  O  O75  1  0.96013200  0.96800100  0.11305400  1
  O  O76  1  0.53986800  0.46800100  0.61305400  1
  O  O77  1  0.03986800  0.03199900  0.88694600  1
  O  O78  1  0.53986800  0.46800100  0.88694600  1
  O  O79  1  0.46013200  0.53199900  0.11305400  1
