# generated using pymatgen
data_VAg2HgO4
_symmetry_space_group_name_H-M   'P 1'
_cell_length_a   11.17030840
_cell_length_b   11.17030840
_cell_length_c   11.17030840
_cell_angle_alpha   108.94322421
_cell_angle_beta   108.94322421
_cell_angle_gamma   110.53245412
_symmetry_Int_Tables_number   1
_chemical_formula_structural   VAg2HgO4
_chemical_formula_sum   'V8 Ag16 Hg8 O32'
_cell_volume   1072.65881163
_cell_formula_units_Z   8
loop_
 _symmetry_equiv_pos_site_id
 _symmetry_equiv_pos_as_xyz
  1  'x, y, z'
loop_
 _atom_site_type_symbol
 _atom_site_label
 _atom_site_symmetry_multiplicity
 _atom_site_fract_x
 _atom_site_fract_y
 _atom_site_fract_z
 _atom_site_occupancy
  V  V0  1  0.37376300  0.12177600  0.45894100  1
  V  V1  1  0.66283400  0.91482200  0.54105900  1
  V  V2  1  0.08517800  0.62623700  0.74801300  1
  V  V3  1  0.87623700  0.83517800  0.24801300  1
  V  V4  1  0.87822400  0.33716600  0.25198700  1
  V  V5  1  0.58716600  0.62822400  0.75198700  1
  V  V6  1  0.16482200  0.41283400  0.04105900  1
  V  V7  1  0.37177600  0.12376300  0.95894100  1
  Ag  Ag8  1  0.18221200  0.14902300  0.15856500  1
  Ag  Ag9  1  0.99045800  0.02364800  0.84143500  1
  Ag  Ag10  1  0.97635200  0.81778800  0.96681000  1
  Ag  Ag11  1  0.06778800  0.72635200  0.46681000  1
  Ag  Ag12  1  0.85097700  0.00954200  0.03319000  1
  Ag  Ag13  1  0.25954200  0.60097700  0.53319000  1
  Ag  Ag14  1  0.27364800  0.74045800  0.34143500  1
  Ag  Ag15  1  0.39902300  0.93221200  0.65856500  1
  Ag  Ag16  1  0.46910500  0.52513400  0.36976300  1
  Ag  Ag17  1  0.15537100  0.09934300  0.63023700  1
  Ag  Ag18  1  0.90065700  0.53089500  0.05602800  1
  Ag  Ag19  1  0.78089500  0.65065700  0.55602800  1
  Ag  Ag20  1  0.47486600  0.84462900  0.94397200  1
  Ag  Ag21  1  0.09462900  0.22486600  0.44397200  1
  Ag  Ag22  1  0.34934300  0.90537100  0.13023700  1
  Ag  Ag23  1  0.77513400  0.21910500  0.86976300  1
  Hg  Hg24  1  0.59564400  0.34030000  0.36385200  1
  Hg  Hg25  1  0.97644800  0.23179200  0.63614800  1
  Hg  Hg26  1  0.76820800  0.40435600  0.74465600  1
  Hg  Hg27  1  0.65435600  0.51820800  0.24465600  1
  Hg  Hg28  1  0.65970000  0.02355200  0.25534400  1
  Hg  Hg29  1  0.27355200  0.40970000  0.75534400  1
  Hg  Hg30  1  0.48179200  0.72644800  0.13614800  1
  Hg  Hg31  1  0.59030000  0.34564400  0.86385200  1
  O  O32  1  0.51138600  0.75673300  0.37894100  1
  O  O33  1  0.37779200  0.13244500  0.62105900  1
  O  O34  1  0.86755500  0.48861400  0.24534700  1
  O  O35  1  0.73861400  0.61755500  0.74534700  1
  O  O36  1  0.24326700  0.62220800  0.75465300  1
  O  O37  1  0.87220800  0.99326700  0.25465300  1
  O  O38  1  0.38244500  0.12779200  0.12105900  1
  O  O39  1  0.00673300  0.26138600  0.87894100  1
  O  O40  1  0.23318000  0.36183900  0.16760300  1
  O  O41  1  0.19423600  0.06557700  0.83239700  1
  O  O42  1  0.93442300  0.76682000  0.12865900  1
  O  O43  1  0.01682000  0.68442300  0.62865900  1
  O  O44  1  0.63816100  0.80576400  0.87134100  1
  O  O45  1  0.05576400  0.38816100  0.37134100  1
  O  O46  1  0.31557700  0.94423600  0.33239700  1
  O  O47  1  0.61183900  0.98318000  0.66760300  1
  O  O48  1  0.25329400  0.17323500  0.37982600  1
  O  O49  1  0.79340900  0.87346800  0.62017400  1
  O  O50  1  0.12653200  0.74670600  0.91994100  1
  O  O51  1  0.99670600  0.87653200  0.41994100  1
  O  O52  1  0.82676500  0.20659100  0.08005900  1
  O  O53  1  0.45659100  0.57676500  0.58005900  1
  O  O54  1  0.12346800  0.54340900  0.12017400  1
  O  O55  1  0.42323500  0.00329400  0.87982600  1
  O  O56  1  0.55459500  0.24172400  0.49947400  1
  O  O57  1  0.74224900  0.05512000  0.50052600  1
  O  O58  1  0.94488000  0.44540500  0.68712900  1
  O  O59  1  0.69540500  0.69488000  0.18712900  1
  O  O60  1  0.75827600  0.25775100  0.31287100  1
  O  O61  1  0.50775100  0.50827600  0.81287100  1
  O  O62  1  0.30512000  0.49224900  0.00052600  1
  O  O63  1  0.49172400  0.30459500  0.99947400  1
