# generated using pymatgen
data_YZr6(PO4)9
_symmetry_space_group_name_H-M   'P 1'
_cell_length_a   8.94978374
_cell_length_b   8.94978374
_cell_length_c   22.96513200
_cell_angle_alpha   90.00000000
_cell_angle_beta   90.00000000
_cell_angle_gamma   119.99999806
_symmetry_Int_Tables_number   1
_chemical_formula_structural   YZr6(PO4)9
_chemical_formula_sum   'Y2 Zr12 P18 O72'
_cell_volume   1593.03261912
_cell_formula_units_Z   2
loop_
 _symmetry_equiv_pos_site_id
 _symmetry_equiv_pos_as_xyz
  1  'x, y, z'
loop_
 _atom_site_type_symbol
 _atom_site_label
 _atom_site_symmetry_multiplicity
 _atom_site_fract_x
 _atom_site_fract_y
 _atom_site_fract_z
 _atom_site_occupancy
  Y  Y0  1  0.00000000  0.00000000  0.50000000  1
  Y  Y1  1  0.00000000  0.00000000  0.00000000  1
  Zr  Zr2  1  0.33333300  0.66666700  0.52832300  1
  Zr  Zr3  1  0.66666700  0.33333300  0.47167700  1
  Zr  Zr4  1  0.66666700  0.33333300  0.97167700  1
  Zr  Zr5  1  0.33333300  0.66666700  0.02832300  1
  Zr  Zr6  1  0.00000000  0.00000000  0.64946200  1
  Zr  Zr7  1  0.00000000  0.00000000  0.35053800  1
  Zr  Zr8  1  0.00000000  0.00000000  0.85053800  1
  Zr  Zr9  1  0.00000000  0.00000000  0.14946200  1
  Zr  Zr10  1  0.33333300  0.66666700  0.81307200  1
  Zr  Zr11  1  0.66666700  0.33333300  0.18692800  1
  Zr  Zr12  1  0.66666700  0.33333300  0.68692800  1
  Zr  Zr13  1  0.33333300  0.66666700  0.31307200  1
  P  P14  1  0.37318900  0.31872000  0.57889900  1
  P  P15  1  0.62681100  0.68128000  0.42110100  1
  P  P16  1  0.68128000  0.05446900  0.57889900  1
  P  P17  1  0.31872000  0.37318900  0.92110100  1
  P  P18  1  0.31872000  0.94553100  0.42110100  1
  P  P19  1  0.68128000  0.62681100  0.07889900  1
  P  P20  1  0.94553100  0.62681100  0.57889900  1
  P  P21  1  0.05446900  0.68128000  0.92110100  1
  P  P22  1  0.05446900  0.37318900  0.42110100  1
  P  P23  1  0.94553100  0.31872000  0.07889900  1
  P  P24  1  0.62681100  0.94553100  0.92110100  1
  P  P25  1  0.37318900  0.05446900  0.07889900  1
  P  P26  1  0.29168800  0.00000000  0.75000000  1
  P  P27  1  0.70831200  0.00000000  0.25000000  1
  P  P28  1  0.00000000  0.29168800  0.75000000  1
  P  P29  1  0.00000000  0.70831200  0.25000000  1
  P  P30  1  0.70831200  0.70831200  0.75000000  1
  P  P31  1  0.29168800  0.29168800  0.25000000  1
  O  O32  1  0.45540800  0.28276400  0.52616700  1
  O  O33  1  0.54459200  0.71723600  0.47383300  1
  O  O34  1  0.71723600  0.17264500  0.52616700  1
  O  O35  1  0.28276400  0.45540800  0.97383300  1
  O  O36  1  0.28276400  0.82735500  0.47383300  1
  O  O37  1  0.71723600  0.54459200  0.02616700  1
  O  O38  1  0.82735500  0.54459200  0.52616700  1
  O  O39  1  0.17264500  0.71723600  0.97383300  1
  O  O40  1  0.17264500  0.45540800  0.47383300  1
  O  O41  1  0.82735500  0.28276400  0.02616700  1
  O  O42  1  0.54459200  0.82735500  0.97383300  1
  O  O43  1  0.45540800  0.17264500  0.02616700  1
  O  O44  1  0.37544200  0.49141000  0.57424200  1
  O  O45  1  0.62455800  0.50859000  0.42575800  1
  O  O46  1  0.50859000  0.88403200  0.57424200  1
  O  O47  1  0.49141000  0.37544200  0.92575800  1
  O  O48  1  0.49141000  0.11596800  0.42575800  1
  O  O49  1  0.50859000  0.62455800  0.07424200  1
  O  O50  1  0.11596800  0.62455800  0.57424200  1
  O  O51  1  0.88403200  0.50859000  0.92575800  1
  O  O52  1  0.88403200  0.37544200  0.42575800  1
  O  O53  1  0.11596800  0.49141000  0.07424200  1
  O  O54  1  0.62455800  0.11596800  0.92575800  1
  O  O55  1  0.37544200  0.88403200  0.07424200  1
  O  O56  1  0.17691100  0.16797100  0.57864700  1
  O  O57  1  0.82308900  0.83202900  0.42135300  1
  O  O58  1  0.83202900  0.00894000  0.57864700  1
  O  O59  1  0.16797100  0.17691100  0.92135300  1
  O  O60  1  0.16797100  0.99106000  0.42135300  1
  O  O61  1  0.83202900  0.82308900  0.07864700  1
  O  O62  1  0.99106000  0.82308900  0.57864700  1
  O  O63  1  0.00894000  0.83202900  0.92135300  1
  O  O64  1  0.00894000  0.17691100  0.42135300  1
  O  O65  1  0.99106000  0.16797100  0.07864700  1
  O  O66  1  0.82308900  0.99106000  0.92135300  1
  O  O67  1  0.17691100  0.00894000  0.07864700  1
  O  O68  1  0.03083700  0.20483600  0.69590900  1
  O  O69  1  0.96916300  0.79516400  0.30409100  1
  O  O70  1  0.79516400  0.82600100  0.69590900  1
  O  O71  1  0.20483600  0.03083700  0.80409100  1
  O  O72  1  0.20483600  0.17399900  0.30409100  1
  O  O73  1  0.79516400  0.96916300  0.19590900  1
  O  O74  1  0.17399900  0.96916300  0.69590900  1
  O  O75  1  0.82600100  0.79516400  0.80409100  1
  O  O76  1  0.82600100  0.03083700  0.30409100  1
  O  O77  1  0.17399900  0.20483600  0.19590900  1
  O  O78  1  0.96916300  0.17399900  0.80409100  1
  O  O79  1  0.03083700  0.82600100  0.19590900  1
  O  O80  1  0.46040200  0.31401400  0.63572800  1
  O  O81  1  0.53959800  0.68598600  0.36427200  1
  O  O82  1  0.68598600  0.14638800  0.63572800  1
  O  O83  1  0.31401400  0.46040200  0.86427200  1
  O  O84  1  0.31401400  0.85361200  0.36427200  1
  O  O85  1  0.68598600  0.53959800  0.13572800  1
  O  O86  1  0.85361200  0.53959800  0.63572800  1
  O  O87  1  0.14638800  0.68598600  0.86427200  1
  O  O88  1  0.14638800  0.46040200  0.36427200  1
  O  O89  1  0.85361200  0.31401400  0.13572800  1
  O  O90  1  0.53959800  0.85361200  0.86427200  1
  O  O91  1  0.46040200  0.14638800  0.13572800  1
  O  O92  1  0.46810800  0.15897700  0.73989600  1
  O  O93  1  0.53189200  0.84102300  0.26010400  1
  O  O94  1  0.84102300  0.30913100  0.73989600  1
  O  O95  1  0.15897700  0.46810800  0.76010400  1
  O  O96  1  0.15897700  0.69086900  0.26010400  1
  O  O97  1  0.84102300  0.53189200  0.23989600  1
  O  O98  1  0.69086900  0.53189200  0.73989600  1
  O  O99  1  0.30913100  0.84102300  0.76010400  1
  O  O100  1  0.30913100  0.46810800  0.26010400  1
  O  O101  1  0.69086900  0.15897700  0.23989600  1
  O  O102  1  0.53189200  0.69086900  0.76010400  1
  O  O103  1  0.46810800  0.30913100  0.23989600  1
