# generated using pymatgen
data_TlH2NCl2
_symmetry_space_group_name_H-M   'P 1'
_cell_length_a   8.64118400
_cell_length_b   8.64118400
_cell_length_c   8.84628913
_cell_angle_alpha   119.23595028
_cell_angle_beta   119.23595028
_cell_angle_gamma   90.00000000
_symmetry_Int_Tables_number   1
_chemical_formula_structural   TlH2NCl2
_chemical_formula_sum   'Tl4 H8 N4 Cl8'
_cell_volume   477.66549977
_cell_formula_units_Z   4
loop_
 _symmetry_equiv_pos_site_id
 _symmetry_equiv_pos_as_xyz
  1  'x, y, z'
loop_
 _atom_site_type_symbol
 _atom_site_label
 _atom_site_symmetry_multiplicity
 _atom_site_fract_x
 _atom_site_fract_y
 _atom_site_fract_z
 _atom_site_occupancy
  Tl  Tl0  1  0.12500000  0.37500000  0.25000000  1
  Tl  Tl1  1  0.12500000  0.87500000  0.25000000  1
  Tl  Tl2  1  0.12500000  0.87500000  0.75000000  1
  Tl  Tl3  1  0.62500000  0.87500000  0.75000000  1
  H  H4  1  0.54845000  0.78358800  0.08741700  1
  H  H5  1  0.53896600  0.30382900  0.08741700  1
  H  H6  1  0.55382900  0.29845000  0.58741700  1
  H  H7  1  0.70155000  0.96641200  0.41258300  1
  H  H8  1  0.03358800  0.28896600  0.58741700  1
  H  H9  1  0.71103400  0.44617100  0.41258300  1
  H  H10  1  0.69617100  0.45155000  0.91258300  1
  H  H11  1  0.21641200  0.46103400  0.91258300  1
  N  N12  1  0.62500000  0.87500000  0.25000000  1
  N  N13  1  0.62500000  0.37500000  0.25000000  1
  N  N14  1  0.62500000  0.37500000  0.75000000  1
  N  N15  1  0.12500000  0.37500000  0.75000000  1
  Cl  Cl16  1  0.39894800  0.13264800  0.25751500  1
  Cl  Cl17  1  0.85856600  0.12486700  0.25751500  1
  Cl  Cl18  1  0.37486700  0.14894800  0.75751500  1
  Cl  Cl19  1  0.85105200  0.61735200  0.24248500  1
  Cl  Cl20  1  0.38264800  0.60856600  0.75751500  1
  Cl  Cl21  1  0.39143400  0.62513300  0.24248500  1
  Cl  Cl22  1  0.87513300  0.60105200  0.74248500  1
  Cl  Cl23  1  0.86735200  0.14143400  0.74248500  1
