# generated using pymatgen
data_TlV3CdCu4O13
_symmetry_space_group_name_H-M   'P 1'
_cell_length_a   6.37214300
_cell_length_b   8.47384100
_cell_length_c   10.95284097
_cell_angle_alpha   82.79834951
_cell_angle_beta   90.00000000
_cell_angle_gamma   90.00000000
_symmetry_Int_Tables_number   1
_chemical_formula_structural   TlV3CdCu4O13
_chemical_formula_sum   'Tl2 V6 Cd2 Cu8 O26'
_cell_volume   586.74974665
_cell_formula_units_Z   2
loop_
 _symmetry_equiv_pos_site_id
 _symmetry_equiv_pos_as_xyz
  1  'x, y, z'
loop_
 _atom_site_type_symbol
 _atom_site_label
 _atom_site_symmetry_multiplicity
 _atom_site_fract_x
 _atom_site_fract_y
 _atom_site_fract_z
 _atom_site_occupancy
  Tl  Tl0  1  0.25000000  0.51033200  0.10171400  1
  Tl  Tl1  1  0.75000000  0.48966800  0.89828600  1
  V  V2  1  0.25000000  0.13947800  0.99229700  1
  V  V3  1  0.75000000  0.86052200  0.00770300  1
  V  V4  1  0.25000000  0.46266100  0.70119600  1
  V  V5  1  0.75000000  0.53733900  0.29880400  1
  V  V6  1  0.25000000  0.17485200  0.37895200  1
  V  V7  1  0.75000000  0.82514800  0.62104800  1
  Cd  Cd8  1  0.25000000  0.80322800  0.86151000  1
  Cd  Cd9  1  0.75000000  0.19677200  0.13849000  1
  Cu  Cu10  1  0.50134000  0.88995900  0.28100400  1
  Cu  Cu11  1  0.49866000  0.11004100  0.71899600  1
  Cu  Cu12  1  0.00134000  0.11004100  0.71899600  1
  Cu  Cu13  1  0.99866000  0.88995900  0.28100400  1
  Cu  Cu14  1  0.25000000  0.85452400  0.55913800  1
  Cu  Cu15  1  0.75000000  0.14547600  0.44086200  1
  Cu  Cu16  1  0.25000000  0.59920000  0.39156300  1
  Cu  Cu17  1  0.75000000  0.40080000  0.60843700  1
  O  O18  1  0.25000000  0.37539500  0.38013700  1
  O  O19  1  0.75000000  0.62460500  0.61986300  1
  O  O20  1  0.25000000  0.08617800  0.53120500  1
  O  O21  1  0.75000000  0.91382200  0.46879500  1
  O  O22  1  0.25000000  0.61957400  0.57825300  1
  O  O23  1  0.75000000  0.38042600  0.42174700  1
  O  O24  1  0.50972300  0.88334000  0.69265100  1
  O  O25  1  0.49027700  0.11666000  0.30734900  1
  O  O26  1  0.00972300  0.11666000  0.30734900  1
  O  O27  1  0.99027700  0.88334000  0.69265100  1
  O  O28  1  0.25000000  0.84105000  0.37762600  1
  O  O29  1  0.75000000  0.15895000  0.62237400  1
  O  O30  1  0.25000000  0.97580100  0.09717400  1
  O  O31  1  0.75000000  0.02419900  0.90282600  1
  O  O32  1  0.25000000  0.07775200  0.82768600  1
  O  O33  1  0.75000000  0.92224800  0.17231400  1
  O  O34  1  0.46646800  0.25400300  0.01816700  1
  O  O35  1  0.53353200  0.74599700  0.98183300  1
  O  O36  1  0.96646800  0.74599700  0.98183300  1
  O  O37  1  0.03353200  0.25400300  0.01816700  1
  O  O38  1  0.25000000  0.54516100  0.83474500  1
  O  O39  1  0.75000000  0.45483900  0.16525500  1
  O  O40  1  0.97723000  0.65950700  0.29847800  1
  O  O41  1  0.02277000  0.34049300  0.70152200  1
  O  O42  1  0.47723000  0.34049300  0.70152200  1
  O  O43  1  0.52277000  0.65950700  0.29847800  1
