# generated using pymatgen
data_Tm3Fe5O12
_symmetry_space_group_name_H-M   'P 1'
_cell_length_a   10.78449657
_cell_length_b   10.78449657
_cell_length_c   10.78449657
_cell_angle_alpha   109.47122063
_cell_angle_beta   109.47122063
_cell_angle_gamma   109.47122063
_symmetry_Int_Tables_number   1
_chemical_formula_structural   Tm3Fe5O12
_chemical_formula_sum   'Tm12 Fe20 O48'
_cell_volume   965.55660643
_cell_formula_units_Z   4
loop_
 _symmetry_equiv_pos_site_id
 _symmetry_equiv_pos_as_xyz
  1  'x, y, z'
loop_
 _atom_site_type_symbol
 _atom_site_label
 _atom_site_symmetry_multiplicity
 _atom_site_fract_x
 _atom_site_fract_y
 _atom_site_fract_z
 _atom_site_occupancy
  Tm  Tm0  1  0.25000000  0.37500000  0.12500000  1
  Tm  Tm1  1  0.75000000  0.62500000  0.87500000  1
  Tm  Tm2  1  0.75000000  0.12500000  0.37500000  1
  Tm  Tm3  1  0.12500000  0.25000000  0.37500000  1
  Tm  Tm4  1  0.37500000  0.75000000  0.12500000  1
  Tm  Tm5  1  0.25000000  0.87500000  0.62500000  1
  Tm  Tm6  1  0.87500000  0.75000000  0.62500000  1
  Tm  Tm7  1  0.62500000  0.25000000  0.87500000  1
  Tm  Tm8  1  0.37500000  0.12500000  0.25000000  1
  Tm  Tm9  1  0.62500000  0.87500000  0.75000000  1
  Tm  Tm10  1  0.12500000  0.37500000  0.75000000  1
  Tm  Tm11  1  0.87500000  0.62500000  0.25000000  1
  Fe  Fe12  1  0.25000000  0.62500000  0.37500000  1
  Fe  Fe13  1  0.75000000  0.37500000  0.62500000  1
  Fe  Fe14  1  0.75000000  0.87500000  0.12500000  1
  Fe  Fe15  1  0.37500000  0.25000000  0.62500000  1
  Fe  Fe16  1  0.62500000  0.75000000  0.37500000  1
  Fe  Fe17  1  0.25000000  0.12500000  0.87500000  1
  Fe  Fe18  1  0.12500000  0.75000000  0.87500000  1
  Fe  Fe19  1  0.87500000  0.25000000  0.12500000  1
  Fe  Fe20  1  0.62500000  0.37500000  0.25000000  1
  Fe  Fe21  1  0.37500000  0.62500000  0.75000000  1
  Fe  Fe22  1  0.87500000  0.12500000  0.75000000  1
  Fe  Fe23  1  0.12500000  0.87500000  0.25000000  1
  Fe  Fe24  1  0.00000000  0.00000000  0.00000000  1
  Fe  Fe25  1  0.50000000  0.00000000  0.50000000  1
  Fe  Fe26  1  0.00000000  0.50000000  0.50000000  1
  Fe  Fe27  1  0.50000000  0.00000000  0.00000000  1
  Fe  Fe28  1  0.50000000  0.50000000  0.00000000  1
  Fe  Fe29  1  0.50000000  0.50000000  0.50000000  1
  Fe  Fe30  1  0.00000000  0.00000000  0.50000000  1
  Fe  Fe31  1  0.00000000  0.50000000  0.00000000  1
  O  O32  1  0.46597800  0.37291900  0.28941400  1
  O  O33  1  0.53402200  0.62708100  0.71058600  1
  O  O34  1  0.58350500  0.17656400  0.21058600  1
  O  O35  1  0.91649500  0.12708100  0.59305900  1
  O  O36  1  0.28941400  0.46597800  0.37291900  1
  O  O37  1  0.32343600  0.91649500  0.28941400  1
  O  O38  1  0.41649500  0.82343600  0.78941400  1
  O  O39  1  0.08350500  0.87291900  0.40694100  1
  O  O40  1  0.71058600  0.53402200  0.62708100  1
  O  O41  1  0.67656400  0.08350500  0.71058600  1
  O  O42  1  0.03402200  0.32343600  0.90694100  1
  O  O43  1  0.21058600  0.58350500  0.17656400  1
  O  O44  1  0.12708100  0.03402200  0.21058600  1
  O  O45  1  0.96597800  0.67656400  0.09305900  1
  O  O46  1  0.78941400  0.41649500  0.82343600  1
  O  O47  1  0.87291900  0.96597800  0.78941400  1
  O  O48  1  0.59305900  0.91649500  0.12708100  1
  O  O49  1  0.17656400  0.46597800  0.59305900  1
  O  O50  1  0.40694100  0.08350500  0.87291900  1
  O  O51  1  0.82343600  0.53402200  0.40694100  1
  O  O52  1  0.90694100  0.03402200  0.32343600  1
  O  O53  1  0.37291900  0.58350500  0.90694100  1
  O  O54  1  0.09305900  0.96597800  0.67656400  1
  O  O55  1  0.62708100  0.41649500  0.09305900  1
  O  O56  1  0.37291900  0.28941400  0.46597800  1
  O  O57  1  0.58350500  0.90694100  0.37291900  1
  O  O58  1  0.62708100  0.71058600  0.53402200  1
  O  O59  1  0.41649500  0.09305900  0.62708100  1
  O  O60  1  0.12708100  0.59305900  0.91649500  1
  O  O61  1  0.03402200  0.21058600  0.12708100  1
  O  O62  1  0.87291900  0.40694100  0.08350500  1
  O  O63  1  0.96597800  0.78941400  0.87291900  1
  O  O64  1  0.32343600  0.90694100  0.03402200  1
  O  O65  1  0.91649500  0.28941400  0.32343600  1
  O  O66  1  0.67656400  0.09305900  0.96597800  1
  O  O67  1  0.08350500  0.71058600  0.67656400  1
  O  O68  1  0.17656400  0.21058600  0.58350500  1
  O  O69  1  0.46597800  0.59305900  0.17656400  1
  O  O70  1  0.82343600  0.78941400  0.41649500  1
  O  O71  1  0.53402200  0.40694100  0.82343600  1
  O  O72  1  0.28941400  0.32343600  0.91649500  1
  O  O73  1  0.71058600  0.67656400  0.08350500  1
  O  O74  1  0.21058600  0.12708100  0.03402200  1
  O  O75  1  0.78941400  0.87291900  0.96597800  1
  O  O76  1  0.90694100  0.37291900  0.58350500  1
  O  O77  1  0.09305900  0.62708100  0.41649500  1
  O  O78  1  0.59305900  0.17656400  0.46597800  1
  O  O79  1  0.40694100  0.82343600  0.53402200  1
