# generated using pymatgen
data_UH6C2O9
_symmetry_space_group_name_H-M   'P 1'
_cell_length_a   5.76219659
_cell_length_b   9.47732845
_cell_length_c   17.23119900
_cell_angle_alpha   90.00000000
_cell_angle_beta   90.00000000
_cell_angle_gamma   98.85636787
_symmetry_Int_Tables_number   1
_chemical_formula_structural   UH6C2O9
_chemical_formula_sum   'U4 H24 C8 O36'
_cell_volume   929.78056688
_cell_formula_units_Z   4
loop_
 _symmetry_equiv_pos_site_id
 _symmetry_equiv_pos_as_xyz
  1  'x, y, z'
loop_
 _atom_site_type_symbol
 _atom_site_label
 _atom_site_symmetry_multiplicity
 _atom_site_fract_x
 _atom_site_fract_y
 _atom_site_fract_z
 _atom_site_occupancy
  U  U0  1  0.72892500  0.74044200  0.43133300  1
  U  U1  1  0.27107500  0.25955800  0.56866700  1
  U  U2  1  0.27107500  0.75955800  0.93133300  1
  U  U3  1  0.72892500  0.24044200  0.06866800  1
  H  H4  1  0.85873200  0.81866000  0.71187400  1
  H  H5  1  0.14126800  0.18134000  0.28812600  1
  H  H6  1  0.14126800  0.68134000  0.21187400  1
  H  H7  1  0.85873200  0.31866000  0.78812600  1
  H  H8  1  0.77571700  0.55234400  0.74229600  1
  H  H9  1  0.22428300  0.44765600  0.25770400  1
  H  H10  1  0.22428300  0.94765600  0.24229600  1
  H  H11  1  0.77571700  0.05234400  0.75770400  1
  H  H12  1  0.80723400  0.72807500  0.25782500  1
  H  H13  1  0.19276600  0.27192500  0.74217500  1
  H  H14  1  0.19276600  0.77192500  0.75782500  1
  H  H15  1  0.80723400  0.22807500  0.24217500  1
  H  H16  1  0.95568200  0.71716600  0.65100700  1
  H  H17  1  0.04431800  0.28283400  0.34899300  1
  H  H18  1  0.04431800  0.78283400  0.15100700  1
  H  H19  1  0.95568200  0.21716600  0.84899300  1
  H  H20  1  0.45877500  0.86191400  0.77419800  1
  H  H21  1  0.54122500  0.13808600  0.22580200  1
  H  H22  1  0.54122500  0.63808600  0.27419800  1
  H  H23  1  0.45877500  0.36191400  0.72580200  1
  H  H24  1  0.62434700  0.50100600  0.81546100  1
  H  H25  1  0.37565300  0.49899400  0.18453900  1
  H  H26  1  0.37565300  0.99899400  0.31546100  1
  H  H27  1  0.62434700  0.00100600  0.68453900  1
  C  C28  1  0.00858600  0.53557900  0.53989200  1
  C  C29  1  0.99141400  0.46442100  0.46010800  1
  C  C30  1  0.99141400  0.96442100  0.03989200  1
  C  C31  1  0.00858600  0.03557900  0.96010800  1
  C  C32  1  0.53107700  0.97729900  0.54081000  1
  C  C33  1  0.46892300  0.02270100  0.45919000  1
  C  C34  1  0.46892300  0.52270100  0.04081000  1
  C  C35  1  0.53107700  0.47729900  0.95919000  1
  O  O36  1  0.94626600  0.73643800  0.70721600  1
  O  O37  1  0.05373400  0.26356200  0.29278400  1
  O  O38  1  0.05373400  0.76356200  0.20721600  1
  O  O39  1  0.94626600  0.23643800  0.79278400  1
  O  O40  1  0.68830700  0.96584100  0.73293800  1
  O  O41  1  0.31169300  0.03415900  0.26706200  1
  O  O42  1  0.31169300  0.53415900  0.23293800  1
  O  O43  1  0.68830700  0.46584100  0.76706200  1
  O  O44  1  0.32691400  0.79110400  0.79622900  1
  O  O45  1  0.67308600  0.20889600  0.20377100  1
  O  O46  1  0.67308600  0.70889600  0.29622900  1
  O  O47  1  0.32691400  0.29110400  0.70377100  1
  O  O48  1  0.92186200  0.65042500  0.54619300  1
  O  O49  1  0.07813800  0.34957500  0.45380700  1
  O  O50  1  0.07813800  0.84957500  0.04619300  1
  O  O51  1  0.92186200  0.15042500  0.95380700  1
  O  O52  1  0.00626700  0.84976400  0.41215000  1
  O  O53  1  0.99373300  0.15023600  0.58785000  1
  O  O54  1  0.99373300  0.65023600  0.91215000  1
  O  O55  1  0.00626700  0.34976400  0.08785000  1
  O  O56  1  0.10798000  0.97495700  0.90706100  1
  O  O57  1  0.89202000  0.02504300  0.09293900  1
  O  O58  1  0.89202000  0.52504300  0.40706100  1
  O  O59  1  0.10798000  0.47495700  0.59293900  1
  O  O60  1  0.55424000  0.86661200  0.94603500  1
  O  O61  1  0.44576000  0.13338800  0.05396500  1
  O  O62  1  0.44576000  0.63338800  0.44603500  1
  O  O63  1  0.55424000  0.36661200  0.55396500  1
  O  O64  1  0.46535900  0.54967300  0.90332100  1
  O  O65  1  0.53464100  0.45032700  0.09667900  1
  O  O66  1  0.53464100  0.95032700  0.40332100  1
  O  O67  1  0.46535900  0.04967300  0.59667900  1
  O  O68  1  0.64082200  0.87260700  0.54596900  1
  O  O69  1  0.35917800  0.12739300  0.45403100  1
  O  O70  1  0.35917800  0.62739300  0.04596900  1
  O  O71  1  0.64082200  0.37260700  0.95403100  1
