# generated using pymatgen
data_ThN4O17
_symmetry_space_group_name_H-M   'P 1'
_cell_length_a   11.98243239
_cell_length_b   11.75336663
_cell_length_c   7.56917690
_cell_angle_alpha   73.05566373
_cell_angle_beta   69.76823435
_cell_angle_gamma   37.17610192
_symmetry_Int_Tables_number   1
_chemical_formula_structural   ThN4O17
_chemical_formula_sum   'Th2 N8 O34'
_cell_volume   604.16591016
_cell_formula_units_Z   2
loop_
 _symmetry_equiv_pos_site_id
 _symmetry_equiv_pos_as_xyz
  1  'x, y, z'
loop_
 _atom_site_type_symbol
 _atom_site_label
 _atom_site_symmetry_multiplicity
 _atom_site_fract_x
 _atom_site_fract_y
 _atom_site_fract_z
 _atom_site_occupancy
  Th  Th0  1  0.99322700  0.00677300  0.00677300  1
  Th  Th1  1  0.24322700  0.25677300  0.25677300  1
  N  N2  1  0.21745200  0.78888100  0.32170600  1
  N  N3  1  0.67196000  0.32170600  0.78888100  1
  N  N4  1  0.46111900  0.03254800  0.57804000  1
  N  N5  1  0.92829400  0.57804000  0.03254800  1
  N  N6  1  0.45653800  0.88068500  0.15306000  1
  N  N7  1  0.50971700  0.15306000  0.88068500  1
  N  N8  1  0.36931500  0.79346200  0.74028300  1
  N  N9  1  0.09694000  0.74028300  0.79346200  1
  O  O10  1  0.77124700  0.39515800  0.35089200  1
  O  O11  1  0.48270400  0.35089200  0.39515800  1
  O  O12  1  0.85484200  0.47875300  0.76729600  1
  O  O13  1  0.89910800  0.76729600  0.47875300  1
  O  O14  1  0.01514900  0.27655100  0.38284600  1
  O  O15  1  0.32545500  0.38284600  0.27655100  1
  O  O16  1  0.97344900  0.23485100  0.92454500  1
  O  O17  1  0.86715400  0.92454500  0.23485100  1
  O  O18  1  0.33246400  0.27868500  0.89301400  1
  O  O19  1  0.49583700  0.89301400  0.27868500  1
  O  O20  1  0.97131500  0.91753600  0.75416300  1
  O  O21  1  0.35698600  0.75416300  0.91753600  1
  O  O22  1  0.52079200  0.70653100  0.63278500  1
  O  O23  1  0.13989100  0.63278500  0.70653100  1
  O  O24  1  0.54346900  0.72920800  0.11010900  1
  O  O25  1  0.61721500  0.11010900  0.72920800  1
  O  O26  1  0.98428300  0.42440200  0.07815400  1
  O  O27  1  0.51316100  0.07815400  0.42440200  1
  O  O28  1  0.82559800  0.26571700  0.73683900  1
  O  O29  1  0.17184600  0.73683900  0.26571700  1
  O  O30  1  0.12941300  0.95490200  0.26851900  1
  O  O31  1  0.64716600  0.26851900  0.95490200  1
  O  O32  1  0.29509800  0.12058700  0.60283400  1
  O  O33  1  0.98148100  0.60283400  0.12058700  1
  O  O34  1  0.75971800  0.24028200  0.24028200  1
  O  O35  1  0.00971800  0.49028200  0.49028200  1
  O  O36  1  0.32099400  0.03719000  0.07344500  1
  O  O37  1  0.56837100  0.07344500  0.03719000  1
  O  O38  1  0.21281000  0.92900600  0.68162900  1
  O  O39  1  0.17655500  0.68162900  0.92900600  1
  O  O40  1  0.34057800  0.68113800  0.41430200  1
  O  O41  1  0.56398200  0.41430200  0.68113800  1
  O  O42  1  0.56886200  0.90942200  0.68601800  1
  O  O43  1  0.83569800  0.68601800  0.90942200  1
