# generated using pymatgen
data_U2WO8
_symmetry_space_group_name_H-M   'P 1'
_cell_length_a   4.06088700
_cell_length_b   6.82989900
_cell_length_c   23.70099300
_cell_angle_alpha   90.00000000
_cell_angle_beta   90.00000000
_cell_angle_gamma   90.00000000
_symmetry_Int_Tables_number   1
_chemical_formula_structural   U2WO8
_chemical_formula_sum   'U8 W4 O32'
_cell_volume   657.35766033
_cell_formula_units_Z   4
loop_
 _symmetry_equiv_pos_site_id
 _symmetry_equiv_pos_as_xyz
  1  'x, y, z'
loop_
 _atom_site_type_symbol
 _atom_site_label
 _atom_site_symmetry_multiplicity
 _atom_site_fract_x
 _atom_site_fract_y
 _atom_site_fract_z
 _atom_site_occupancy
  U  U0  1  0.00000000  0.30354800  0.37682400  1
  U  U1  1  0.00000000  0.69645200  0.62317600  1
  U  U2  1  0.00000000  0.19645200  0.87682400  1
  U  U3  1  0.00000000  0.80354800  0.12317600  1
  U  U4  1  0.00000000  0.32619300  0.21580000  1
  U  U5  1  0.00000000  0.67380700  0.78420000  1
  U  U6  1  0.00000000  0.17380700  0.71580000  1
  U  U7  1  0.00000000  0.82619300  0.28420000  1
  W  W8  1  0.00000000  0.32513300  0.04782000  1
  W  W9  1  0.00000000  0.67486700  0.95218000  1
  W  W10  1  0.00000000  0.17486700  0.54782000  1
  W  W11  1  0.00000000  0.82513300  0.45218000  1
  O  O12  1  0.00000000  0.13913600  0.46540000  1
  O  O13  1  0.00000000  0.86086400  0.53460000  1
  O  O14  1  0.00000000  0.36086400  0.96540000  1
  O  O15  1  0.00000000  0.63913600  0.03460000  1
  O  O16  1  0.00000000  0.41850200  0.12310400  1
  O  O17  1  0.00000000  0.58149800  0.87689600  1
  O  O18  1  0.00000000  0.08149800  0.62310400  1
  O  O19  1  0.00000000  0.91850200  0.37689600  1
  O  O20  1  0.50000000  0.32100100  0.21618200  1
  O  O21  1  0.50000000  0.67899900  0.78381800  1
  O  O22  1  0.50000000  0.17899900  0.71618200  1
  O  O23  1  0.50000000  0.82100100  0.28381800  1
  O  O24  1  0.00000000  0.15242300  0.29373000  1
  O  O25  1  0.00000000  0.84757700  0.70627000  1
  O  O26  1  0.00000000  0.34757700  0.79373000  1
  O  O27  1  0.00000000  0.65242300  0.20627000  1
  O  O28  1  0.50000000  0.30155000  0.37799800  1
  O  O29  1  0.50000000  0.69845000  0.62200200  1
  O  O30  1  0.50000000  0.19845000  0.87799800  1
  O  O31  1  0.50000000  0.80155000  0.12200200  1
  O  O32  1  0.50000000  0.33217500  0.04607900  1
  O  O33  1  0.50000000  0.66782500  0.95392100  1
  O  O34  1  0.50000000  0.16782500  0.54607900  1
  O  O35  1  0.50000000  0.83217500  0.45392100  1
  O  O36  1  0.00000000  0.02533000  0.18761300  1
  O  O37  1  0.00000000  0.97467000  0.81238700  1
  O  O38  1  0.00000000  0.47467000  0.68761300  1
  O  O39  1  0.00000000  0.52533000  0.31238700  1
  O  O40  1  0.00000000  0.06187700  0.06126900  1
  O  O41  1  0.00000000  0.93812300  0.93873100  1
  O  O42  1  0.00000000  0.43812300  0.56126900  1
  O  O43  1  0.00000000  0.56187700  0.43873100  1
