# generated using pymatgen
data_Tl2Fe2(SO4)3
_symmetry_space_group_name_H-M   'P 1'
_cell_length_a   10.25802500
_cell_length_b   10.25802500
_cell_length_c   10.25802500
_cell_angle_alpha   90.00000000
_cell_angle_beta   90.00000000
_cell_angle_gamma   90.00000000
_symmetry_Int_Tables_number   1
_chemical_formula_structural   Tl2Fe2(SO4)3
_chemical_formula_sum   'Tl8 Fe8 S12 O48'
_cell_volume   1079.42198552
_cell_formula_units_Z   4
loop_
 _symmetry_equiv_pos_site_id
 _symmetry_equiv_pos_as_xyz
  1  'x, y, z'
loop_
 _atom_site_type_symbol
 _atom_site_label
 _atom_site_symmetry_multiplicity
 _atom_site_fract_x
 _atom_site_fract_y
 _atom_site_fract_z
 _atom_site_occupancy
  Tl  Tl0  1  0.04823700  0.04823700  0.04823700  1
  Tl  Tl1  1  0.45176300  0.95176300  0.54823700  1
  Tl  Tl2  1  0.95176300  0.54823700  0.45176300  1
  Tl  Tl3  1  0.54823700  0.45176300  0.95176300  1
  Tl  Tl4  1  0.81682900  0.81682900  0.81682900  1
  Tl  Tl5  1  0.68317100  0.18317100  0.31682900  1
  Tl  Tl6  1  0.18317100  0.31682900  0.68317100  1
  Tl  Tl7  1  0.31682900  0.68317100  0.18317100  1
  Fe  Fe8  1  0.33522100  0.33522100  0.33522100  1
  Fe  Fe9  1  0.16477900  0.66477900  0.83522100  1
  Fe  Fe10  1  0.66477900  0.83522100  0.16477900  1
  Fe  Fe11  1  0.83522100  0.16477900  0.66477900  1
  Fe  Fe12  1  0.59830700  0.59830700  0.59830700  1
  Fe  Fe13  1  0.90169300  0.40169300  0.09830700  1
  Fe  Fe14  1  0.40169300  0.09830700  0.90169300  1
  Fe  Fe15  1  0.09830700  0.90169300  0.40169300  1
  S  S16  1  0.01812100  0.21610300  0.37589800  1
  S  S17  1  0.48188000  0.78389700  0.87589800  1
  S  S18  1  0.98188000  0.71610300  0.12410200  1
  S  S19  1  0.37589800  0.01812100  0.21610300  1
  S  S20  1  0.51812000  0.28389700  0.62410200  1
  S  S21  1  0.87589800  0.48188000  0.78389700  1
  S  S22  1  0.12410200  0.98188000  0.71610300  1
  S  S23  1  0.62410200  0.51812000  0.28389700  1
  S  S24  1  0.21610300  0.37589800  0.01812100  1
  S  S25  1  0.71610300  0.12410200  0.98188000  1
  S  S26  1  0.28389700  0.62410200  0.51812000  1
  S  S27  1  0.78389700  0.87589800  0.48188000  1
  O  O28  1  0.00947800  0.07815800  0.32963800  1
  O  O29  1  0.49052200  0.92184200  0.82963800  1
  O  O30  1  0.99052200  0.57815800  0.17036200  1
  O  O31  1  0.32963800  0.00947800  0.07815800  1
  O  O32  1  0.50947800  0.42184200  0.67036200  1
  O  O33  1  0.82963800  0.49052200  0.92184200  1
  O  O34  1  0.17036200  0.99052200  0.57815800  1
  O  O35  1  0.67036200  0.50947800  0.42184200  1
  O  O36  1  0.07815800  0.32963800  0.00947800  1
  O  O37  1  0.57815800  0.17036200  0.99052200  1
  O  O38  1  0.42184200  0.67036200  0.50947800  1
  O  O39  1  0.92184200  0.82963800  0.49052200  1
  O  O40  1  0.26545400  0.50155800  0.44211400  1
  O  O41  1  0.23454600  0.49844200  0.94211400  1
  O  O42  1  0.73454600  0.00155800  0.05788600  1
  O  O43  1  0.44211400  0.26545400  0.50155800  1
  O  O44  1  0.76545400  0.99844200  0.55788600  1
  O  O45  1  0.94211400  0.23454600  0.49844200  1
  O  O46  1  0.05788600  0.73454600  0.00155800  1
  O  O47  1  0.55788600  0.76545400  0.99844200  1
  O  O48  1  0.50155800  0.44211400  0.26545400  1
  O  O49  1  0.00155800  0.05788600  0.73454600  1
  O  O50  1  0.99844200  0.55788600  0.76545400  1
  O  O51  1  0.49844200  0.94211400  0.23454600  1
  O  O52  1  0.04062900  0.80230800  0.22466100  1
  O  O53  1  0.45937100  0.19769200  0.72466100  1
  O  O54  1  0.95937100  0.30230800  0.27533900  1
  O  O55  1  0.22466100  0.04062900  0.80230800  1
  O  O56  1  0.54062900  0.69769200  0.77533900  1
  O  O57  1  0.72466100  0.45937100  0.19769200  1
  O  O58  1  0.27533900  0.95937100  0.30230800  1
  O  O59  1  0.77533900  0.54062900  0.69769200  1
  O  O60  1  0.80230800  0.22466100  0.04062900  1
  O  O61  1  0.30230800  0.27533900  0.95937100  1
  O  O62  1  0.69769200  0.77533900  0.54062900  1
  O  O63  1  0.19769200  0.72466100  0.45937100  1
  O  O64  1  0.15571800  0.25260200  0.40215300  1
  O  O65  1  0.34428200  0.74739800  0.90215300  1
  O  O66  1  0.84428200  0.75260200  0.09784700  1
  O  O67  1  0.40215300  0.15571800  0.25260200  1
  O  O68  1  0.65571800  0.24739800  0.59784700  1
  O  O69  1  0.90215300  0.34428200  0.74739800  1
  O  O70  1  0.09784700  0.84428200  0.75260200  1
  O  O71  1  0.59784700  0.65571800  0.24739800  1
  O  O72  1  0.25260200  0.40215300  0.15571800  1
  O  O73  1  0.75260200  0.09784700  0.84428200  1
  O  O74  1  0.24739800  0.59784700  0.65571800  1
  O  O75  1  0.74739800  0.90215300  0.34428200  1
