# generated using pymatgen
data_TmSe2NO11
_symmetry_space_group_name_H-M   'P 1'
_cell_length_a   5.76484600
_cell_length_b   7.19085088
_cell_length_c   13.86995485
_cell_angle_alpha   101.79427202
_cell_angle_beta   99.50708327
_cell_angle_gamma   93.52451583
_symmetry_Int_Tables_number   1
_chemical_formula_structural   TmSe2NO11
_chemical_formula_sum   'Tm2 Se4 N2 O22'
_cell_volume   552.39063617
_cell_formula_units_Z   2
loop_
 _symmetry_equiv_pos_site_id
 _symmetry_equiv_pos_as_xyz
  1  'x, y, z'
loop_
 _atom_site_type_symbol
 _atom_site_label
 _atom_site_symmetry_multiplicity
 _atom_site_fract_x
 _atom_site_fract_y
 _atom_site_fract_z
 _atom_site_occupancy
  Tm  Tm0  1  0.12471500  0.81769800  0.66487500  1
  Tm  Tm1  1  0.87528500  0.18230200  0.33512500  1
  Se  Se2  1  0.97303100  0.71543400  0.40578900  1
  Se  Se3  1  0.02696900  0.28456600  0.59421100  1
  Se  Se4  1  0.70954100  0.92388300  0.84784400  1
  Se  Se5  1  0.29045900  0.07611700  0.15215600  1
  N  N6  1  0.59832300  0.34722700  0.09918400  1
  N  N7  1  0.40167700  0.65277300  0.90081600  1
  O  O8  1  0.43495700  0.91179300  0.78078900  1
  O  O9  1  0.56504300  0.08820700  0.21921100  1
  O  O10  1  0.66149000  0.38614300  0.02936500  1
  O  O11  1  0.33851000  0.61385700  0.97063500  1
  O  O12  1  0.69195300  0.31150400  0.54065400  1
  O  O13  1  0.30804700  0.68849600  0.45934600  1
  O  O14  1  0.36633500  0.79069900  0.55539700  1
  O  O15  1  0.63366500  0.20930100  0.44460300  1
  O  O16  1  0.69407600  0.30872000  0.77189100  1
  O  O17  1  0.30592400  0.69128000  0.22810900  1
  O  O18  1  0.86920000  0.80234800  0.76901600  1
  O  O19  1  0.13080000  0.19765200  0.23098400  1
  O  O20  1  0.87252500  0.36296900  0.83712100  1
  O  O21  1  0.12747500  0.63703100  0.16287900  1
  O  O22  1  0.88366300  0.78087500  0.51619900  1
  O  O23  1  0.11633700  0.21912500  0.48380100  1
  O  O24  1  0.85525900  0.49686100  0.34388100  1
  O  O25  1  0.14474100  0.50313900  0.65611900  1
  O  O26  1  0.65406400  0.76294900  0.93350600  1
  O  O27  1  0.34593600  0.23705100  0.06649400  1
  O  O28  1  0.88670900  0.86531100  0.33117500  1
  O  O29  1  0.11329100  0.13468900  0.66882500  1
