# generated using pymatgen
data_Ti6Al16Fe7
_symmetry_space_group_name_H-M   'P 1'
_cell_length_a   8.37911636
_cell_length_b   8.37911636
_cell_length_c   8.37911636
_cell_angle_alpha   60.00000000
_cell_angle_beta   60.00000000
_cell_angle_gamma   60.00000000
_symmetry_Int_Tables_number   1
_chemical_formula_structural   Ti6Al16Fe7
_chemical_formula_sum   'Ti6 Al16 Fe7'
_cell_volume   415.98691206
_cell_formula_units_Z   1
loop_
 _symmetry_equiv_pos_site_id
 _symmetry_equiv_pos_as_xyz
  1  'x, y, z'
loop_
 _atom_site_type_symbol
 _atom_site_label
 _atom_site_symmetry_multiplicity
 _atom_site_fract_x
 _atom_site_fract_y
 _atom_site_fract_z
 _atom_site_occupancy
  Ti  Ti0  1  0.70776500  0.29223500  0.29223500  1
  Ti  Ti1  1  0.29223500  0.70776500  0.70776500  1
  Ti  Ti2  1  0.29223500  0.70776500  0.29223500  1
  Ti  Ti3  1  0.70776500  0.29223500  0.70776500  1
  Ti  Ti4  1  0.29223500  0.29223500  0.70776500  1
  Ti  Ti5  1  0.70776500  0.70776500  0.29223500  1
  Al  Al6  1  0.34200900  0.34200900  0.34200900  1
  Al  Al7  1  0.65799100  0.65799100  0.65799100  1
  Al  Al8  1  0.34200900  0.34200900  0.97397400  1
  Al  Al9  1  0.34200900  0.97397400  0.34200900  1
  Al  Al10  1  0.65799100  0.65799100  0.02602600  1
  Al  Al11  1  0.65799100  0.02602600  0.65799100  1
  Al  Al12  1  0.97397400  0.34200900  0.34200900  1
  Al  Al13  1  0.02602600  0.65799100  0.65799100  1
  Al  Al14  1  0.11980300  0.11980300  0.11980300  1
  Al  Al15  1  0.88019700  0.88019700  0.88019700  1
  Al  Al16  1  0.11980300  0.11980300  0.64059200  1
  Al  Al17  1  0.11980300  0.64059200  0.11980300  1
  Al  Al18  1  0.88019800  0.88019800  0.35940800  1
  Al  Al19  1  0.88019700  0.35940800  0.88019700  1
  Al  Al20  1  0.64059200  0.11980300  0.11980300  1
  Al  Al21  1  0.35940800  0.88019700  0.88019700  1
  Fe  Fe22  1  0.50000000  0.00000000  0.00000000  1
  Fe  Fe23  1  0.00000000  0.50000000  0.50000000  1
  Fe  Fe24  1  0.00000000  0.50000000  0.00000000  1
  Fe  Fe25  1  0.50000000  0.00000000  0.50000000  1
  Fe  Fe26  1  0.00000000  0.00000000  0.50000000  1
  Fe  Fe27  1  0.50000000  0.50000000  0.00000000  1
  Fe  Fe28  1  0.00000000  0.00000000  0.00000000  1
