# generated using pymatgen
data_TbCrSe3
_symmetry_space_group_name_H-M   'P 1'
_cell_length_a   3.90254200
_cell_length_b   8.22159600
_cell_length_c   13.35108600
_cell_angle_alpha   90.00000000
_cell_angle_beta   90.00000000
_cell_angle_gamma   90.00000000
_symmetry_Int_Tables_number   1
_chemical_formula_structural   TbCrSe3
_chemical_formula_sum   'Tb4 Cr4 Se12'
_cell_volume   428.37124580
_cell_formula_units_Z   4
loop_
 _symmetry_equiv_pos_site_id
 _symmetry_equiv_pos_as_xyz
  1  'x, y, z'
loop_
 _atom_site_type_symbol
 _atom_site_label
 _atom_site_symmetry_multiplicity
 _atom_site_fract_x
 _atom_site_fract_y
 _atom_site_fract_z
 _atom_site_occupancy
  Tb  Tb0  1  0.75000000  0.57941400  0.32841800  1
  Tb  Tb1  1  0.25000000  0.42058600  0.67158200  1
  Tb  Tb2  1  0.25000000  0.92058600  0.82841800  1
  Tb  Tb3  1  0.75000000  0.07941400  0.17158200  1
  Cr  Cr4  1  0.75000000  0.83636100  0.54914200  1
  Cr  Cr5  1  0.25000000  0.16363900  0.45085800  1
  Cr  Cr6  1  0.25000000  0.66363900  0.04914200  1
  Cr  Cr7  1  0.75000000  0.33636100  0.95085800  1
  Se  Se8  1  0.75000000  0.99207400  0.38952400  1
  Se  Se9  1  0.25000000  0.00792600  0.61047600  1
  Se  Se10  1  0.25000000  0.50792600  0.88952400  1
  Se  Se11  1  0.75000000  0.49207400  0.11047600  1
  Se  Se12  1  0.75000000  0.84664400  0.99222100  1
  Se  Se13  1  0.25000000  0.15335600  0.00777900  1
  Se  Se14  1  0.25000000  0.65335600  0.49222100  1
  Se  Se15  1  0.75000000  0.34664400  0.50777900  1
  Se  Se16  1  0.75000000  0.69863300  0.71646800  1
  Se  Se17  1  0.25000000  0.30136700  0.28353200  1
  Se  Se18  1  0.25000000  0.80136700  0.21646800  1
  Se  Se19  1  0.75000000  0.19863300  0.78353200  1
