# generated using pymatgen
data_Th5OF19
_symmetry_space_group_name_H-M   'P 1'
_cell_length_a   12.42313011
_cell_length_b   12.42313011
_cell_length_c   8.30286200
_cell_angle_alpha   90.00000000
_cell_angle_beta   90.00000000
_cell_angle_gamma   145.71890829
_symmetry_Int_Tables_number   1
_chemical_formula_structural   Th5OF19
_chemical_formula_sum   'Th10 O2 F38'
_cell_volume   721.76148935
_cell_formula_units_Z   2
loop_
 _symmetry_equiv_pos_site_id
 _symmetry_equiv_pos_as_xyz
  1  'x, y, z'
loop_
 _atom_site_type_symbol
 _atom_site_label
 _atom_site_symmetry_multiplicity
 _atom_site_fract_x
 _atom_site_fract_y
 _atom_site_fract_z
 _atom_site_occupancy
  Th  Th0  1  0.13043600  0.13043600  0.25000000  1
  Th  Th1  1  0.86956400  0.86956400  0.75000000  1
  Th  Th2  1  0.82207800  0.20950700  0.25000000  1
  Th  Th3  1  0.17792200  0.79049300  0.75000000  1
  Th  Th4  1  0.20950700  0.82207800  0.25000000  1
  Th  Th5  1  0.79049300  0.17792200  0.75000000  1
  Th  Th6  1  0.63275500  0.36724500  0.00000000  1
  Th  Th7  1  0.36724500  0.63275500  0.00000000  1
  Th  Th8  1  0.36724500  0.63275500  0.50000000  1
  Th  Th9  1  0.63275500  0.36724500  0.50000000  1
  O  O10  1  0.83012400  0.83012400  0.25000000  1
  O  O11  1  0.16987600  0.16987600  0.75000000  1
  F  F12  1  0.99267400  0.66123300  0.01284500  1
  F  F13  1  0.00732600  0.33876700  0.98715500  1
  F  F14  1  0.00732600  0.33876700  0.51284500  1
  F  F15  1  0.66123300  0.99267400  0.48715500  1
  F  F16  1  0.99267400  0.66123300  0.48715500  1
  F  F17  1  0.33876700  0.00732600  0.51284500  1
  F  F18  1  0.33876700  0.00732600  0.98715500  1
  F  F19  1  0.66123300  0.99267400  0.01284500  1
  F  F20  1  0.94837800  0.48798100  0.25000000  1
  F  F21  1  0.05162200  0.51201900  0.75000000  1
  F  F22  1  0.48798100  0.94837800  0.25000000  1
  F  F23  1  0.51201900  0.05162200  0.75000000  1
  F  F24  1  0.00000000  0.00000000  0.00000000  1
  F  F25  1  0.00000000  0.00000000  0.50000000  1
  F  F26  1  0.73803900  0.26196100  0.00000000  1
  F  F27  1  0.26196100  0.73803900  0.00000000  1
  F  F28  1  0.26196100  0.73803900  0.50000000  1
  F  F29  1  0.73803900  0.26196100  0.50000000  1
  F  F30  1  0.92970000  0.13396000  0.25000000  1
  F  F31  1  0.07030000  0.86604000  0.75000000  1
  F  F32  1  0.13396000  0.92970000  0.25000000  1
  F  F33  1  0.86604000  0.07030000  0.75000000  1
  F  F34  1  0.26858900  0.38971200  0.08494000  1
  F  F35  1  0.73141100  0.61028700  0.91506000  1
  F  F36  1  0.73141100  0.61028700  0.58494000  1
  F  F37  1  0.38971300  0.26858900  0.41506000  1
  F  F38  1  0.26858900  0.38971200  0.41506000  1
  F  F39  1  0.61028700  0.73141100  0.58494000  1
  F  F40  1  0.61028700  0.73141100  0.91506000  1
  F  F41  1  0.38971300  0.26858900  0.08494000  1
  F  F42  1  0.74877200  0.52044700  0.25000000  1
  F  F43  1  0.25122800  0.47955300  0.75000000  1
  F  F44  1  0.52044700  0.74877200  0.25000000  1
  F  F45  1  0.47955300  0.25122800  0.75000000  1
  F  F46  1  0.17873100  0.51901600  0.25000000  1
  F  F47  1  0.82126900  0.48098400  0.75000000  1
  F  F48  1  0.51901600  0.17873100  0.25000000  1
  F  F49  1  0.48098400  0.82126900  0.75000000  1
