# generated using pymatgen
data_Mg2SiO4
_symmetry_space_group_name_H-M   'P 1'
_cell_length_a   4.95514004
_cell_length_b   4.95514004
_cell_length_c   9.47089500
_cell_angle_alpha   90.00000000
_cell_angle_beta   90.00000000
_cell_angle_gamma   147.17141955
_symmetry_Int_Tables_number   1
_chemical_formula_structural   Mg2SiO4
_chemical_formula_sum   'Mg4 Si2 O8'
_cell_volume   126.06782914
_cell_formula_units_Z   2
loop_
 _symmetry_equiv_pos_site_id
 _symmetry_equiv_pos_as_xyz
  1  'x, y, z'
loop_
 _atom_site_type_symbol
 _atom_site_label
 _atom_site_symmetry_multiplicity
 _atom_site_fract_x
 _atom_site_fract_y
 _atom_site_fract_z
 _atom_site_occupancy
  Mg  Mg0  1  0.86031500  0.13968500  0.85384700  1
  Mg  Mg1  1  0.13968500  0.86031500  0.35384700  1
  Mg  Mg2  1  0.39218800  0.60781200  0.18507900  1
  Mg  Mg3  1  0.60781200  0.39218800  0.68507900  1
  Si  Si4  1  0.87346800  0.12653200  0.49910800  1
  Si  Si5  1  0.12653200  0.87346800  0.99910800  1
  O  O6  1  0.50526600  0.49473400  0.93819100  1
  O  O7  1  0.49473400  0.50526600  0.43819100  1
  O  O8  1  0.74674400  0.25325600  0.04536600  1
  O  O9  1  0.25325600  0.74674400  0.54536600  1
  O  O10  1  0.20431500  0.79568500  0.82667900  1
  O  O11  1  0.79568500  0.20431500  0.32667900  1
  O  O12  1  0.95482400  0.04517600  0.66253000  1
  O  O13  1  0.04517600  0.95482400  0.16253000  1
