# generated using pymatgen
data_Ti2Nb2Sb3O14
_symmetry_space_group_name_H-M   'P 1'
_cell_length_a   20.21957054
_cell_length_b   20.21957054
_cell_length_c   5.63183726
_cell_angle_alpha   87.68082687
_cell_angle_beta   87.68082687
_cell_angle_gamma   14.16853907
_symmetry_Int_Tables_number   1
_chemical_formula_structural   Ti2Nb2Sb3O14
_chemical_formula_sum   'Ti4 Nb4 Sb6 O28'
_cell_volume   563.11836242
_cell_formula_units_Z   2
loop_
 _symmetry_equiv_pos_site_id
 _symmetry_equiv_pos_as_xyz
  1  'x, y, z'
loop_
 _atom_site_type_symbol
 _atom_site_label
 _atom_site_symmetry_multiplicity
 _atom_site_fract_x
 _atom_site_fract_y
 _atom_site_fract_z
 _atom_site_occupancy
  Ti  Ti0  1  0.44053500  0.00107800  0.31966500  1
  Ti  Ti1  1  0.55946500  0.99892200  0.68033500  1
  Ti  Ti2  1  0.99892200  0.55946500  0.18033500  1
  Ti  Ti3  1  0.00107800  0.44053500  0.81966500  1
  Nb  Nb4  1  0.32136700  0.82689000  0.13893300  1
  Nb  Nb5  1  0.67863300  0.17311000  0.86106700  1
  Nb  Nb6  1  0.17311000  0.67863300  0.36106700  1
  Nb  Nb7  1  0.82689000  0.32136700  0.63893300  1
  Sb  Sb8  1  0.53877600  0.16057200  0.25462700  1
  Sb  Sb9  1  0.46122400  0.83942800  0.74537300  1
  Sb  Sb10  1  0.83942800  0.46122400  0.24537300  1
  Sb  Sb11  1  0.16057200  0.53877600  0.75462700  1
  Sb  Sb12  1  0.80077800  0.19922200  0.25000000  1
  Sb  Sb13  1  0.19922200  0.80077800  0.75000000  1
  O  O14  1  0.10879800  0.94763500  0.07132400  1
  O  O15  1  0.89120200  0.05236500  0.92867600  1
  O  O16  1  0.05236500  0.89120200  0.42867600  1
  O  O17  1  0.94763500  0.10879800  0.57132400  1
  O  O18  1  0.58420800  0.76745000  0.41894000  1
  O  O19  1  0.41579200  0.23255000  0.58106000  1
  O  O20  1  0.23255000  0.41579200  0.08106000  1
  O  O21  1  0.76745000  0.58420800  0.91894000  1
  O  O22  1  0.23672400  0.17004500  0.08016300  1
  O  O23  1  0.76327600  0.82995500  0.91983700  1
  O  O24  1  0.82995500  0.76327600  0.41983700  1
  O  O25  1  0.17004500  0.23672400  0.58016300  1
  O  O26  1  0.30924900  0.21576700  0.34479000  1
  O  O27  1  0.69075100  0.78423300  0.65521000  1
  O  O28  1  0.78423300  0.69075100  0.15521000  1
  O  O29  1  0.21576700  0.30924900  0.84479000  1
  O  O30  1  0.42588000  0.45904600  0.12863300  1
  O  O31  1  0.57412000  0.54095400  0.87136700  1
  O  O32  1  0.54095400  0.57412000  0.37136700  1
  O  O33  1  0.45904600  0.42588000  0.62863300  1
  O  O34  1  0.87538400  0.94367700  0.17630800  1
  O  O35  1  0.12461600  0.05632300  0.82369200  1
  O  O36  1  0.05632300  0.12461600  0.32369200  1
  O  O37  1  0.94367700  0.87538400  0.67630800  1
  O  O38  1  0.54192100  0.69817700  0.08078100  1
  O  O39  1  0.45807900  0.30182300  0.91921900  1
  O  O40  1  0.30182300  0.45807900  0.41921900  1
  O  O41  1  0.69817700  0.54192100  0.58078100  1
