# generated using pymatgen
data_TbMoO5
_symmetry_space_group_name_H-M   'P 1'
_cell_length_a   12.58587400
_cell_length_b   5.41627700
_cell_length_c   6.97103380
_cell_angle_alpha   63.10120411
_cell_angle_beta   90.00000000
_cell_angle_gamma   90.00000000
_symmetry_Int_Tables_number   1
_chemical_formula_structural   TbMoO5
_chemical_formula_sum   'Tb4 Mo4 O20'
_cell_volume   423.79158621
_cell_formula_units_Z   4
loop_
 _symmetry_equiv_pos_site_id
 _symmetry_equiv_pos_as_xyz
  1  'x, y, z'
loop_
 _atom_site_type_symbol
 _atom_site_label
 _atom_site_symmetry_multiplicity
 _atom_site_fract_x
 _atom_site_fract_y
 _atom_site_fract_z
 _atom_site_occupancy
  Tb  Tb0  1  0.05676400  0.65646100  0.71595700  1
  Tb  Tb1  1  0.94323600  0.34353900  0.28404300  1
  Tb  Tb2  1  0.55676400  0.34353900  0.78404300  1
  Tb  Tb3  1  0.44323600  0.65646100  0.21595700  1
  Mo  Mo4  1  0.36357000  0.91718800  0.64332600  1
  Mo  Mo5  1  0.63643000  0.08281200  0.35667400  1
  Mo  Mo6  1  0.86357000  0.08281200  0.85667400  1
  Mo  Mo7  1  0.13643000  0.91718800  0.14332600  1
  O  O8  1  0.44362400  0.46415800  0.98291900  1
  O  O9  1  0.55637600  0.53584200  0.01708100  1
  O  O10  1  0.94362400  0.53584200  0.51708100  1
  O  O11  1  0.05637600  0.46415800  0.48291900  1
  O  O12  1  0.92571100  0.98750600  0.65945900  1
  O  O13  1  0.07428900  0.01249400  0.34054100  1
  O  O14  1  0.42571100  0.01249400  0.84054100  1
  O  O15  1  0.57428900  0.98750600  0.15945900  1
  O  O16  1  0.43866400  0.70425300  0.54182100  1
  O  O17  1  0.56133600  0.29574700  0.45817900  1
  O  O18  1  0.93866400  0.29574700  0.95817900  1
  O  O19  1  0.06133600  0.70425300  0.04182100  1
  O  O20  1  0.23328400  0.78651400  0.72239200  1
  O  O21  1  0.76671600  0.21348600  0.27760800  1
  O  O22  1  0.73328400  0.21348600  0.77760800  1
  O  O23  1  0.26671600  0.78651400  0.22239200  1
  O  O24  1  0.65492400  0.76200100  0.58495400  1
  O  O25  1  0.34507600  0.23799900  0.41504600  1
  O  O26  1  0.15492400  0.23799900  0.91504600  1
  O  O27  1  0.84507600  0.76200100  0.08495400  1
