# generated using pymatgen
data_Ta2Fe4O9
_symmetry_space_group_name_H-M   'P 1'
_cell_length_a   5.33515049
_cell_length_b   5.33515049
_cell_length_c   14.24487800
_cell_angle_alpha   90.00000000
_cell_angle_beta   90.00000000
_cell_angle_gamma   120.00000609
_symmetry_Int_Tables_number   1
_chemical_formula_structural   Ta2Fe4O9
_chemical_formula_sum   'Ta4 Fe8 O18'
_cell_volume   351.14192664
_cell_formula_units_Z   2
loop_
 _symmetry_equiv_pos_site_id
 _symmetry_equiv_pos_as_xyz
  1  'x, y, z'
loop_
 _atom_site_type_symbol
 _atom_site_label
 _atom_site_symmetry_multiplicity
 _atom_site_fract_x
 _atom_site_fract_y
 _atom_site_fract_z
 _atom_site_occupancy
  Ta  Ta0  1  0.00000000  0.00000000  0.64236500  1
  Ta  Ta1  1  0.00000000  0.00000000  0.35763500  1
  Ta  Ta2  1  0.00000000  0.00000000  0.85763500  1
  Ta  Ta3  1  0.00000000  0.00000000  0.14236500  1
  Fe  Fe4  1  0.33333300  0.66666700  0.51574200  1
  Fe  Fe5  1  0.66666700  0.33333300  0.48425800  1
  Fe  Fe6  1  0.66666700  0.33333300  0.98425800  1
  Fe  Fe7  1  0.33333300  0.66666700  0.01574200  1
  Fe  Fe8  1  0.33333300  0.66666700  0.80775800  1
  Fe  Fe9  1  0.66666700  0.33333300  0.19224200  1
  Fe  Fe10  1  0.66666700  0.33333300  0.69224200  1
  Fe  Fe11  1  0.33333300  0.66666700  0.30775800  1
  O  O12  1  0.33597600  0.31196500  0.58435900  1
  O  O13  1  0.66402400  0.68803500  0.41564100  1
  O  O14  1  0.68803500  0.02401000  0.58435900  1
  O  O15  1  0.31196500  0.33597600  0.91564100  1
  O  O16  1  0.31196500  0.97599000  0.41564100  1
  O  O17  1  0.68803500  0.66402400  0.08435900  1
  O  O18  1  0.97599000  0.66402400  0.58435900  1
  O  O19  1  0.02401000  0.68803500  0.91564100  1
  O  O20  1  0.02401000  0.33597600  0.41564100  1
  O  O21  1  0.97599000  0.31196500  0.08435900  1
  O  O22  1  0.66402400  0.97599000  0.91564100  1
  O  O23  1  0.33597600  0.02401000  0.08435900  1
  O  O24  1  0.28039100  0.00000000  0.75000000  1
  O  O25  1  0.71960900  0.00000000  0.25000000  1
  O  O26  1  0.00000000  0.28039100  0.75000000  1
  O  O27  1  0.00000000  0.71960900  0.25000000  1
  O  O28  1  0.71960900  0.71960900  0.75000000  1
  O  O29  1  0.28039100  0.28039100  0.25000000  1
