# generated using pymatgen
data_UCr4H48C14(N15O11)2
_symmetry_space_group_name_H-M   'P 1'
_cell_length_a   6.80503482
_cell_length_b   10.91805075
_cell_length_c   16.89076801
_cell_angle_alpha   93.71128151
_cell_angle_beta   97.05729269
_cell_angle_gamma   92.97475667
_symmetry_Int_Tables_number   1
_chemical_formula_structural   UCr4H48C14(N15O11)2
_chemical_formula_sum   'U1 Cr4 H48 C14 N30 O22'
_cell_volume   1240.55441902
_cell_formula_units_Z   1
loop_
 _symmetry_equiv_pos_site_id
 _symmetry_equiv_pos_as_xyz
  1  'x, y, z'
loop_
 _atom_site_type_symbol
 _atom_site_label
 _atom_site_symmetry_multiplicity
 _atom_site_fract_x
 _atom_site_fract_y
 _atom_site_fract_z
 _atom_site_occupancy
  U  U0  1  0.00000000  0.50000000  0.00000000  1
  Cr  Cr1  1  0.94306600  0.21697200  0.11430200  1
  Cr  Cr2  1  0.05693400  0.78302800  0.88569800  1
  Cr  Cr3  1  0.10236500  0.64734600  0.21154400  1
  Cr  Cr4  1  0.89763500  0.35265400  0.78845600  1
  H  H5  1  0.64023200  0.49803900  0.17200000  1
  H  H6  1  0.35976800  0.50196100  0.82800000  1
  H  H7  1  0.64960600  0.05479100  0.29218900  1
  H  H8  1  0.35039400  0.94520900  0.70781100  1
  H  H9  1  0.32883400  0.93367600  0.10994800  1
  H  H10  1  0.67116600  0.06632400  0.89005200  1
  H  H11  1  0.21958200  0.47322300  0.44591900  1
  H  H12  1  0.78041800  0.52677700  0.55408100  1
  H  H13  1  0.27738900  0.21869200  0.74060000  1
  H  H14  1  0.72261100  0.78130800  0.25940000  1
  H  H15  1  0.52948000  0.03550300  0.09749900  1
  H  H16  1  0.47052000  0.96449700  0.90250100  1
  H  H17  1  0.27522100  0.37798300  0.57254400  1
  H  H18  1  0.72477900  0.62201700  0.42745600  1
  H  H19  1  0.10583200  0.05519700  0.22039000  1
  H  H20  1  0.89416800  0.94480300  0.77961000  1
  H  H21  1  0.17953400  0.44904800  0.34170700  1
  H  H22  1  0.82046600  0.55095200  0.65829300  1
  H  H23  1  0.17072300  0.03892900  0.93229400  1
  H  H24  1  0.82927700  0.96107100  0.06770600  1
  H  H25  1  0.71623600  0.01477600  0.44623700  1
  H  H26  1  0.28376400  0.98522400  0.55376300  1
  H  H27  1  0.57564400  0.66616300  0.05281300  1
  H  H28  1  0.42435600  0.33383700  0.94718700  1
  H  H29  1  0.76078300  0.15365000  0.56691400  1
  H  H30  1  0.23921700  0.84635000  0.43308600  1
  H  H31  1  0.41424800  0.45472400  0.17137200  1
  H  H32  1  0.58575200  0.54527600  0.82862800  1
  H  H33  1  0.23076400  0.69148400  0.39478000  1
  H  H34  1  0.76923600  0.30851600  0.60522000  1
  H  H35  1  0.31001800  0.13364900  0.60188000  1
  H  H36  1  0.68998200  0.86635100  0.39812000  1
  H  H37  1  0.12081400  0.24827300  0.28114900  1
  H  H38  1  0.87918600  0.75172700  0.71885100  1
  H  H39  1  0.62561400  0.37901200  0.27609500  1
  H  H40  1  0.37438600  0.62098800  0.72390500  1
  H  H41  1  0.50028200  0.18797700  0.74045900  1
  H  H42  1  0.49971800  0.81202300  0.25954100  1
  H  H43  1  0.30980200  0.42158100  0.67605900  1
  H  H44  1  0.69019800  0.57841900  0.32394100  1
  H  H45  1  0.64297600  0.17276000  0.22680200  1
  H  H46  1  0.35702400  0.82724000  0.77319800  1
  H  H47  1  0.14361500  0.92579200  0.27270600  1
  H  H48  1  0.85638500  0.07420800  0.72729400  1
  H  H49  1  0.16351400  0.19375800  0.96365700  1
  H  H50  1  0.83648600  0.80624200  0.03634300  1
  H  H51  1  0.35525800  0.71862800  0.08144400  1
  H  H52  1  0.64474200  0.28137200  0.91855600  1
  C  C53  1  0.16881000  0.08902000  0.34322000  1
  C  C54  1  0.83119000  0.91098000  0.65678000  1
  C  C55  1  0.29763100  0.56390200  0.60268900  1
  C  C56  1  0.70236900  0.43609800  0.39731100  1
  C  C57  1  0.67380100  0.22753000  0.34772900  1
  C  C58  1  0.32619900  0.77247000  0.65227100  1
  C  C59  1  0.24117800  0.12424500  0.47872900  1
  C  C60  1  0.75882200  0.87575500  0.52127100  1
  C  C61  1  0.19839600  0.29155200  0.40504800  1
  C  C62  1  0.80160400  0.70844800  0.59495200  1
  C  C63  1  0.73008300  0.28086100  0.48237800  1
  C  C64  1  0.26991700  0.71913900  0.51762200  1
  C  C65  1  0.57500600  0.85310300  0.07580700  1
  C  C66  1  0.42499400  0.14689700  0.92419300  1
  N  N67  1  0.49743300  0.73745700  0.07173500  1
  N  N68  1  0.50256700  0.26254300  0.92826500  1
  N  N69  1  0.12767900  0.01869600  0.27507800  1
  N  N70  1  0.87232100  0.98130400  0.72492200  1
  N  N71  1  0.23612800  0.24880500  0.47732100  1
  N  N72  1  0.76387200  0.75119500  0.52267900  1
  N  N73  1  0.20944400  0.04150900  0.41354100  1
  N  N74  1  0.79055600  0.95849100  0.58645900  1
  N  N75  1  0.52960500  0.05256900  0.90193800  1
  N  N76  1  0.47039500  0.94743100  0.09806200  1
  N  N77  1  0.28114800  0.07870500  0.54964100  1
  N  N78  1  0.71885200  0.92129500  0.45035900  1
  N  N79  1  0.19012500  0.41121600  0.39626800  1
  N  N80  1  0.80987500  0.58878400  0.60373200  1
  N  N81  1  0.24336100  0.75462200  0.44300100  1
  N  N82  1  0.75663900  0.24537800  0.55699900  1
  N  N83  1  0.70612900  0.19067400  0.42162100  1
  N  N84  1  0.29387100  0.80932600  0.57837900  1
  N  N85  1  0.16601800  0.21364400  0.33724900  1
  N  N86  1  0.83398200  0.78635600  0.66275100  1
  N  N87  1  0.29520000  0.44599400  0.61854300  1
  N  N88  1  0.70480000  0.55400600  0.38145700  1
  N  N89  1  0.24105700  0.12463600  0.94154000  1
  N  N90  1  0.75894300  0.87536400  0.05846000  1
  N  N91  1  0.26882000  0.59670100  0.52764000  1
  N  N92  1  0.73118000  0.40329900  0.47236000  1
  N  N93  1  0.64197100  0.14614000  0.28401200  1
  N  N94  1  0.35802900  0.85386000  0.71598800  1
  N  N95  1  0.66895700  0.34960800  0.33365800  1
  N  N96  1  0.33104300  0.65039200  0.66634200  1
  O  O97  1  0.14644900  0.56836900  0.12382400  1
  O  O98  1  0.85355100  0.43163100  0.87617600  1
  O  O99  1  0.75523000  0.52803100  0.03085800  1
  O  O100  1  0.24477000  0.47196900  0.96914200  1
  O  O101  1  0.70367100  0.18364500  0.11486500  1
  O  O102  1  0.29632900  0.81635500  0.88513500  1
  O  O103  1  0.21736400  0.58415100  0.28870000  1
  O  O104  1  0.78263600  0.41584900  0.71130000  1
  O  O105  1  0.03314500  0.29545700  0.19896100  1
  O  O106  1  0.96685500  0.70454300  0.80104000  1
  O  O107  1  0.20014300  0.78941800  0.21212600  1
  O  O108  1  0.79985700  0.21058200  0.78787400  1
  O  O109  1  0.54933900  0.44206100  0.19499200  1
  O  O110  1  0.45066100  0.55793900  0.80500800  1
  O  O111  1  0.36544400  0.16457300  0.71410800  1
  O  O112  1  0.63455600  0.83542700  0.28589200  1
  O  O113  1  0.13723600  0.35121200  0.78048900  1
  O  O114  1  0.86276400  0.64878800  0.21951100  1
  O  O115  1  0.98937700  0.30185500  0.03499500  1
  O  O116  1  0.01062300  0.69814500  0.96500500  1
  O  O117  1  0.05213600  0.08552000  0.10818200  1
  O  O118  1  0.94786400  0.91448000  0.89181800  1
