# generated using pymatgen
data_Th(WO4)2
_symmetry_space_group_name_H-M   'P 1'
_cell_length_a   9.93870700
_cell_length_b   10.52709700
_cell_length_c   14.82005700
_cell_angle_alpha   90.00000000
_cell_angle_beta   90.00000000
_cell_angle_gamma   90.00000000
_symmetry_Int_Tables_number   1
_chemical_formula_structural   Th(WO4)2
_chemical_formula_sum   'Th8 W16 O64'
_cell_volume   1550.55932144
_cell_formula_units_Z   8
loop_
 _symmetry_equiv_pos_site_id
 _symmetry_equiv_pos_as_xyz
  1  'x, y, z'
loop_
 _atom_site_type_symbol
 _atom_site_label
 _atom_site_symmetry_multiplicity
 _atom_site_fract_x
 _atom_site_fract_y
 _atom_site_fract_z
 _atom_site_occupancy
  Th  Th0  1  0.27574900  0.96559800  0.60920100  1
  Th  Th1  1  0.72425100  0.03440200  0.39079900  1
  Th  Th2  1  0.22425100  0.46559800  0.39079900  1
  Th  Th3  1  0.72425100  0.53440200  0.10920100  1
  Th  Th4  1  0.77574900  0.53440200  0.60920100  1
  Th  Th5  1  0.27574900  0.46559800  0.89079900  1
  Th  Th6  1  0.77574900  0.03440200  0.89079900  1
  Th  Th7  1  0.22425100  0.96559800  0.10920100  1
  W  W8  1  0.00117300  0.72401100  0.94035300  1
  W  W9  1  0.99882700  0.27598900  0.05964700  1
  W  W10  1  0.49882700  0.22401100  0.05964700  1
  W  W11  1  0.99882700  0.77598900  0.44035300  1
  W  W12  1  0.50117300  0.77598900  0.94035300  1
  W  W13  1  0.00117300  0.22401100  0.55964700  1
  W  W14  1  0.50117300  0.27598900  0.55964700  1
  W  W15  1  0.49882700  0.72401100  0.44035300  1
  W  W16  1  0.18163300  0.60482800  0.65183700  1
  W  W17  1  0.81836700  0.39517200  0.34816300  1
  W  W18  1  0.31836700  0.10482800  0.34816300  1
  W  W19  1  0.81836700  0.89517200  0.15183700  1
  W  W20  1  0.68163300  0.89517200  0.65183700  1
  W  W21  1  0.18163300  0.10482800  0.84816300  1
  W  W22  1  0.68163300  0.39517200  0.84816300  1
  W  W23  1  0.31836700  0.60482800  0.15183700  1
  O  O24  1  0.38899800  0.67454500  0.87615800  1
  O  O25  1  0.61100200  0.32545500  0.12384200  1
  O  O26  1  0.11100200  0.17454500  0.12384200  1
  O  O27  1  0.61100200  0.82545500  0.37615800  1
  O  O28  1  0.88899800  0.82545500  0.87615800  1
  O  O29  1  0.38899800  0.17454500  0.62384200  1
  O  O30  1  0.88899800  0.32545500  0.62384200  1
  O  O31  1  0.11100200  0.67454500  0.37615800  1
  O  O32  1  0.23658500  0.57105200  0.53757400  1
  O  O33  1  0.76341500  0.42894800  0.46242600  1
  O  O34  1  0.26341500  0.07105200  0.46242600  1
  O  O35  1  0.76341500  0.92894800  0.03757400  1
  O  O36  1  0.73658500  0.92894800  0.53757400  1
  O  O37  1  0.23658500  0.07105200  0.96242600  1
  O  O38  1  0.73658500  0.42894800  0.96242600  1
  O  O39  1  0.26341500  0.57105200  0.03757400  1
  O  O40  1  0.11770600  0.83031100  0.99620300  1
  O  O41  1  0.88229400  0.16968900  0.00379700  1
  O  O42  1  0.38229400  0.33031100  0.00379700  1
  O  O43  1  0.88229400  0.66968900  0.49620300  1
  O  O44  1  0.61770600  0.66968900  0.99620300  1
  O  O45  1  0.11770600  0.33031100  0.50379700  1
  O  O46  1  0.61770600  0.16968900  0.50379700  1
  O  O47  1  0.38229400  0.83031100  0.49620300  1
  O  O48  1  0.22888800  0.76708900  0.67781000  1
  O  O49  1  0.77111200  0.23291100  0.32219000  1
  O  O50  1  0.27111200  0.26708900  0.32219000  1
  O  O51  1  0.77111200  0.73291100  0.17781000  1
  O  O52  1  0.72888800  0.73291100  0.67781000  1
  O  O53  1  0.22888800  0.26708900  0.82219000  1
  O  O54  1  0.72888800  0.23291100  0.82219000  1
  O  O55  1  0.27111200  0.76708900  0.17781000  1
  O  O56  1  0.09256200  0.61035500  0.86949900  1
  O  O57  1  0.90743800  0.38964500  0.13050100  1
  O  O58  1  0.40743800  0.11035500  0.13050100  1
  O  O59  1  0.90743800  0.88964500  0.36949900  1
  O  O60  1  0.59256200  0.88964500  0.86949900  1
  O  O61  1  0.09256200  0.11035500  0.63050100  1
  O  O62  1  0.59256200  0.38964500  0.63050100  1
  O  O63  1  0.40743800  0.61035500  0.36949900  1
  O  O64  1  0.26336300  0.99834100  0.76949800  1
  O  O65  1  0.73663700  0.00165900  0.23050200  1
  O  O66  1  0.23663700  0.49834100  0.23050200  1
  O  O67  1  0.73663700  0.50165900  0.26949800  1
  O  O68  1  0.76336300  0.50165900  0.76949800  1
  O  O69  1  0.26336300  0.49834100  0.73050200  1
  O  O70  1  0.76336300  0.00165900  0.73050200  1
  O  O71  1  0.23663700  0.99834100  0.26949800  1
  O  O72  1  0.09255900  0.86118500  0.52599400  1
  O  O73  1  0.90744100  0.13881500  0.47400600  1
  O  O74  1  0.40744100  0.36118500  0.47400600  1
  O  O75  1  0.90744100  0.63881500  0.02599400  1
  O  O76  1  0.59255900  0.63881500  0.52599400  1
  O  O77  1  0.09255900  0.36118500  0.97400600  1
  O  O78  1  0.59255900  0.13881500  0.97400600  1
  O  O79  1  0.40744100  0.86118500  0.02599400  1
  O  O80  1  0.00095000  0.58216200  0.65579800  1
  O  O81  1  0.99905000  0.41783800  0.34420200  1
  O  O82  1  0.49905000  0.08216200  0.34420200  1
  O  O83  1  0.99905000  0.91783800  0.15579800  1
  O  O84  1  0.50095000  0.91783800  0.65579800  1
  O  O85  1  0.00095000  0.08216200  0.84420200  1
  O  O86  1  0.50095000  0.41783800  0.84420200  1
  O  O87  1  0.49905000  0.58216200  0.15579800  1
