# generated using pymatgen
data_U6Al43V4
_symmetry_space_group_name_H-M   'P 1'
_cell_length_a   10.97672551
_cell_length_b   10.97672551
_cell_length_c   17.42622200
_cell_angle_alpha   90.00000000
_cell_angle_beta   90.00000000
_cell_angle_gamma   119.99999704
_symmetry_Int_Tables_number   1
_chemical_formula_structural   U6Al43V4
_chemical_formula_sum   'U12 Al86 V8'
_cell_volume   1818.35843401
_cell_formula_units_Z   2
loop_
 _symmetry_equiv_pos_site_id
 _symmetry_equiv_pos_as_xyz
  1  'x, y, z'
loop_
 _atom_site_type_symbol
 _atom_site_label
 _atom_site_symmetry_multiplicity
 _atom_site_fract_x
 _atom_site_fract_y
 _atom_site_fract_z
 _atom_site_occupancy
  U  U0  1  0.52570800  0.00000000  0.58980000  1
  U  U1  1  0.47429200  0.00000000  0.41020000  1
  U  U2  1  0.00000000  0.52570800  0.58980000  1
  U  U3  1  0.47429200  0.00000000  0.08980000  1
  U  U4  1  0.00000000  0.52570800  0.91020000  1
  U  U5  1  0.00000000  0.47429200  0.41020000  1
  U  U6  1  0.52570800  0.00000000  0.91020000  1
  U  U7  1  0.00000000  0.47429200  0.08980000  1
  U  U8  1  0.47429200  0.47429200  0.58980000  1
  U  U9  1  0.52570800  0.52570800  0.41020000  1
  U  U10  1  0.52570800  0.52570800  0.08980000  1
  U  U11  1  0.47429200  0.47429200  0.91020000  1
  Al  Al12  1  0.14310100  0.59476900  0.75000000  1
  Al  Al13  1  0.85689900  0.40523100  0.25000000  1
  Al  Al14  1  0.40523100  0.54833200  0.75000000  1
  Al  Al15  1  0.59476900  0.14310100  0.75000000  1
  Al  Al16  1  0.59476900  0.45166800  0.25000000  1
  Al  Al17  1  0.40523100  0.85689900  0.25000000  1
  Al  Al18  1  0.45166800  0.85689900  0.75000000  1
  Al  Al19  1  0.54833200  0.40523100  0.75000000  1
  Al  Al20  1  0.54833200  0.14310100  0.25000000  1
  Al  Al21  1  0.45166800  0.59476900  0.25000000  1
  Al  Al22  1  0.85689900  0.45166800  0.75000000  1
  Al  Al23  1  0.14310100  0.54833200  0.25000000  1
  Al  Al24  1  0.15802200  0.00000000  0.11521200  1
  Al  Al25  1  0.84197800  0.00000000  0.88478800  1
  Al  Al26  1  0.00000000  0.15802200  0.11521200  1
  Al  Al27  1  0.84197800  0.00000000  0.61521200  1
  Al  Al28  1  0.00000000  0.15802200  0.38478800  1
  Al  Al29  1  0.00000000  0.84197800  0.88478800  1
  Al  Al30  1  0.15802200  0.00000000  0.38478800  1
  Al  Al31  1  0.00000000  0.84197800  0.61521200  1
  Al  Al32  1  0.84197800  0.84197800  0.11521200  1
  Al  Al33  1  0.15802200  0.15802200  0.88478800  1
  Al  Al34  1  0.15802200  0.15802200  0.61521200  1
  Al  Al35  1  0.84197800  0.84197800  0.38478800  1
  Al  Al36  1  0.24684000  0.49368000  0.50000000  1
  Al  Al37  1  0.75316000  0.50632000  0.50000000  1
  Al  Al38  1  0.50632000  0.75316000  0.50000000  1
  Al  Al39  1  0.75316000  0.50632000  0.00000000  1
  Al  Al40  1  0.49368000  0.24684000  0.00000000  1
  Al  Al41  1  0.49368000  0.24684000  0.50000000  1
  Al  Al42  1  0.24684000  0.49368000  0.00000000  1
  Al  Al43  1  0.50632000  0.75316000  0.00000000  1
  Al  Al44  1  0.24684000  0.75316000  0.50000000  1
  Al  Al45  1  0.75316000  0.24684000  0.50000000  1
  Al  Al46  1  0.75316000  0.24684000  0.00000000  1
  Al  Al47  1  0.24684000  0.75316000  0.00000000  1
  Al  Al48  1  0.14498900  0.00000000  0.75000000  1
  Al  Al49  1  0.85501100  0.00000000  0.25000000  1
  Al  Al50  1  0.00000000  0.14498900  0.75000000  1
  Al  Al51  1  0.00000000  0.85501100  0.25000000  1
  Al  Al52  1  0.85501100  0.85501100  0.75000000  1
  Al  Al53  1  0.14498900  0.14498900  0.25000000  1
  Al  Al54  1  0.33333300  0.66666700  0.62791200  1
  Al  Al55  1  0.66666700  0.33333300  0.37208800  1
  Al  Al56  1  0.66666700  0.33333300  0.12791200  1
  Al  Al57  1  0.66666700  0.33333300  0.87208800  1
  Al  Al58  1  0.33333300  0.66666700  0.87208800  1
  Al  Al59  1  0.33333300  0.66666700  0.12791200  1
  Al  Al60  1  0.33333300  0.66666700  0.37208800  1
  Al  Al61  1  0.66666700  0.33333300  0.62791200  1
  Al  Al62  1  0.25335100  0.00000000  0.52967300  1
  Al  Al63  1  0.74664900  0.00000000  0.47032700  1
  Al  Al64  1  0.00000000  0.25335100  0.52967300  1
  Al  Al65  1  0.74664900  0.00000000  0.02967300  1
  Al  Al66  1  0.00000000  0.25335100  0.97032700  1
  Al  Al67  1  0.00000000  0.74664900  0.47032700  1
  Al  Al68  1  0.25335100  0.00000000  0.97032700  1
  Al  Al69  1  0.00000000  0.74664900  0.02967300  1
  Al  Al70  1  0.74664900  0.74664900  0.52967300  1
  Al  Al71  1  0.25335100  0.25335100  0.47032700  1
  Al  Al72  1  0.25335100  0.25335100  0.02967300  1
  Al  Al73  1  0.74664900  0.74664900  0.97032700  1
  Al  Al74  1  0.15897700  0.39292900  0.66474400  1
  Al  Al75  1  0.84102300  0.60707100  0.33525600  1
  Al  Al76  1  0.60707100  0.76604800  0.66474400  1
  Al  Al77  1  0.84102300  0.60707100  0.16474400  1
  Al  Al78  1  0.39292900  0.15897700  0.83525600  1
  Al  Al79  1  0.39292900  0.23395200  0.33525600  1
  Al  Al80  1  0.15897700  0.39292900  0.83525600  1
  Al  Al81  1  0.60707100  0.84102300  0.16474400  1
  Al  Al82  1  0.23395200  0.84102300  0.66474400  1
  Al  Al83  1  0.39292900  0.23395200  0.16474400  1
  Al  Al84  1  0.76604800  0.60707100  0.83525600  1
  Al  Al85  1  0.76604800  0.15897700  0.33525600  1
  Al  Al86  1  0.60707100  0.76604800  0.83525600  1
  Al  Al87  1  0.23395200  0.39292900  0.16474400  1
  Al  Al88  1  0.60707100  0.84102300  0.33525600  1
  Al  Al89  1  0.39292900  0.15897700  0.66474400  1
  Al  Al90  1  0.76604800  0.15897700  0.16474400  1
  Al  Al91  1  0.23395200  0.39292900  0.33525600  1
  Al  Al92  1  0.23395200  0.84102300  0.83525600  1
  Al  Al93  1  0.76604800  0.60707100  0.66474400  1
  Al  Al94  1  0.84102300  0.23395200  0.83525600  1
  Al  Al95  1  0.15897700  0.76604800  0.16474400  1
  Al  Al96  1  0.15897700  0.76604800  0.33525600  1
  Al  Al97  1  0.84102300  0.23395200  0.66474400  1
  V  V98  1  0.00000000  0.00000000  0.50000000  1
  V  V99  1  0.00000000  0.00000000  0.00000000  1
  V  V100  1  0.72988100  0.00000000  0.75000000  1
  V  V101  1  0.27011900  0.00000000  0.25000000  1
  V  V102  1  0.00000000  0.72988100  0.75000000  1
  V  V103  1  0.00000000  0.27011900  0.25000000  1
  V  V104  1  0.27011900  0.27011900  0.75000000  1
  V  V105  1  0.72988100  0.72988100  0.25000000  1
