# generated using pymatgen
data_Sr2YFe3O8
_symmetry_space_group_name_H-M   'P 1'
_cell_length_a   3.90931000
_cell_length_b   3.90931000
_cell_length_c   11.94872600
_cell_angle_alpha   90.00000000
_cell_angle_beta   90.00000000
_cell_angle_gamma   90.00000000
_symmetry_Int_Tables_number   1
_chemical_formula_structural   Sr2YFe3O8
_chemical_formula_sum   'Sr2 Y1 Fe3 O8'
_cell_volume   182.60885071
_cell_formula_units_Z   1
loop_
 _symmetry_equiv_pos_site_id
 _symmetry_equiv_pos_as_xyz
  1  'x, y, z'
loop_
 _atom_site_type_symbol
 _atom_site_label
 _atom_site_symmetry_multiplicity
 _atom_site_fract_x
 _atom_site_fract_y
 _atom_site_fract_z
 _atom_site_occupancy
  Sr  Sr0  1  0.50000000  0.50000000  0.15132400  1
  Sr  Sr1  1  0.50000000  0.50000000  0.84867600  1
  Y  Y2  1  0.50000000  0.50000000  0.50000000  1
  Fe  Fe3  1  0.00000000  0.00000000  0.33603700  1
  Fe  Fe4  1  0.00000000  0.00000000  0.66396300  1
  Fe  Fe5  1  0.00000000  0.00000000  0.00000000  1
  O  O6  1  0.00000000  0.00000000  0.18007200  1
  O  O7  1  0.00000000  0.00000000  0.81992800  1
  O  O8  1  0.00000000  0.50000000  0.38207600  1
  O  O9  1  0.00000000  0.50000000  0.61792400  1
  O  O10  1  0.50000000  0.00000000  0.38207600  1
  O  O11  1  0.50000000  0.00000000  0.61792400  1
  O  O12  1  0.00000000  0.50000000  0.00000000  1
  O  O13  1  0.50000000  0.00000000  0.00000000  1
