# generated using pymatgen
data_Te3H4(NO6)2
_symmetry_space_group_name_H-M   'P 1'
_cell_length_a   13.81308439
_cell_length_b   10.73798397
_cell_length_c   9.89709659
_cell_angle_alpha   83.93548010
_cell_angle_beta   50.62650924
_cell_angle_gamma   45.43801066
_symmetry_Int_Tables_number   1
_chemical_formula_structural   Te3H4(NO6)2
_chemical_formula_sum   'Te6 H8 N4 O24'
_cell_volume   636.68487935
_cell_formula_units_Z   2
loop_
 _symmetry_equiv_pos_site_id
 _symmetry_equiv_pos_as_xyz
  1  'x, y, z'
loop_
 _atom_site_type_symbol
 _atom_site_label
 _atom_site_symmetry_multiplicity
 _atom_site_fract_x
 _atom_site_fract_y
 _atom_site_fract_z
 _atom_site_occupancy
  Te  Te0  1  0.61058500  0.51825500  0.48782700  1
  Te  Te1  1  0.38333300  0.48782700  0.51825500  1
  Te  Te2  1  0.73174500  0.63941500  0.86666700  1
  Te  Te3  1  0.76217300  0.86666700  0.63941500  1
  Te  Te4  1  0.00038300  0.99961700  0.99961700  1
  Te  Te5  1  0.25038300  0.24961700  0.24961700  1
  H  H6  1  0.64905700  0.57618400  0.74262000  1
  H  H7  1  0.03213900  0.74262000  0.57618400  1
  H  H8  1  0.67381600  0.60094300  0.21786100  1
  H  H9  1  0.50738000  0.21786100  0.60094300  1
  H  H10  1  0.98249300  0.34546900  0.33263200  1
  H  H11  1  0.33940600  0.33263200  0.34546900  1
  H  H12  1  0.90453100  0.26750700  0.91059400  1
  H  H13  1  0.91736800  0.91059400  0.26750700  1
  N  N14  1  0.03305700  0.05194000  0.50124500  1
  N  N15  1  0.41375800  0.50124500  0.05194000  1
  N  N16  1  0.19806000  0.21694300  0.83624200  1
  N  N17  1  0.74875500  0.83624200  0.21694300  1
  O  O18  1  0.43243100  0.95101200  0.16122700  1
  O  O19  1  0.45533100  0.16122700  0.95101200  1
  O  O20  1  0.29898800  0.81756900  0.79466900  1
  O  O21  1  0.08877300  0.79466900  0.81756900  1
  O  O22  1  0.36010200  0.36457200  0.66895800  1
  O  O23  1  0.60636800  0.66895800  0.36457200  1
  O  O24  1  0.88542800  0.88989800  0.64363200  1
  O  O25  1  0.58104200  0.64363200  0.88989800  1
  O  O26  1  0.90506400  0.22084400  0.17063100  1
  O  O27  1  0.70346100  0.17063100  0.22084400  1
  O  O28  1  0.02915600  0.34493600  0.54653900  1
  O  O29  1  0.07936900  0.54653900  0.34493600  1
  O  O30  1  0.74573600  0.46669100  0.52938000  1
  O  O31  1  0.25819200  0.52938000  0.46669100  1
  O  O32  1  0.78330900  0.50426400  0.99180800  1
  O  O33  1  0.72062000  0.99180800  0.50426400  1
  O  O34  1  0.12377600  0.27761200  0.19852900  1
  O  O35  1  0.40008300  0.19852900  0.27761200  1
  O  O36  1  0.97238800  0.12622400  0.84991700  1
  O  O37  1  0.05147100  0.84991700  0.12622400  1
  O  O38  1  0.13498900  0.34650800  0.94484700  1
  O  O39  1  0.57365600  0.94484700  0.34650800  1
  O  O40  1  0.90349200  0.11501100  0.67634400  1
  O  O41  1  0.30515300  0.67634400  0.11501100  1
