# generated using pymatgen
data_Tb2Cu(GeO4)2
_symmetry_space_group_name_H-M   'P 1'
_cell_length_a   8.97349912
_cell_length_b   8.97349912
_cell_length_c   5.15505081
_cell_angle_alpha   73.68080461
_cell_angle_beta   73.68080461
_cell_angle_gamma   114.88542848
_symmetry_Int_Tables_number   1
_chemical_formula_structural   Tb2Cu(GeO4)2
_chemical_formula_sum   'Tb4 Cu2 Ge4 O16'
_cell_volume   321.15331917
_cell_formula_units_Z   2
loop_
 _symmetry_equiv_pos_site_id
 _symmetry_equiv_pos_as_xyz
  1  'x, y, z'
loop_
 _atom_site_type_symbol
 _atom_site_label
 _atom_site_symmetry_multiplicity
 _atom_site_fract_x
 _atom_site_fract_y
 _atom_site_fract_z
 _atom_site_occupancy
  Tb  Tb0  1  0.46020400  0.70059400  0.18378700  1
  Tb  Tb1  1  0.70059400  0.46020400  0.18378700  1
  Tb  Tb2  1  0.19783600  0.95615500  0.67797000  1
  Tb  Tb3  1  0.95615500  0.19783600  0.67797000  1
  Cu  Cu4  1  0.65969900  0.07374300  0.37902500  1
  Cu  Cu5  1  0.07374300  0.65969900  0.37902500  1
  Ge  Ge6  1  0.83722200  0.83722200  0.37474100  1
  Ge  Ge7  1  0.53244500  0.11151000  0.91867600  1
  Ge  Ge8  1  0.11151000  0.53244500  0.91867600  1
  Ge  Ge9  1  0.33347000  0.33347000  0.97727400  1
  O  O10  1  0.37370400  0.90557600  0.92508400  1
  O  O11  1  0.90557600  0.37370400  0.92508400  1
  O  O12  1  0.74839700  0.93575500  0.58298400  1
  O  O13  1  0.93575500  0.74839700  0.58298400  1
  O  O14  1  0.50717100  0.50717100  0.01081200  1
  O  O15  1  0.73480200  0.25234300  0.55066900  1
  O  O16  1  0.25234300  0.73480200  0.55066900  1
  O  O17  1  0.42669100  0.24231600  0.75489700  1
  O  O18  1  0.24231600  0.42669100  0.75489700  1
  O  O19  1  0.66388100  0.66388100  0.33575100  1
  O  O20  1  0.16448000  0.16448000  0.35427500  1
  O  O21  1  0.50198600  0.16103100  0.24273900  1
  O  O22  1  0.16103100  0.50198600  0.24273900  1
  O  O23  1  0.00331800  0.00331800  0.98862100  1
  O  O24  1  0.65429800  0.99697200  0.07103300  1
  O  O25  1  0.99697200  0.65429800  0.07103300  1
