# generated using pymatgen
data_VO3
_symmetry_space_group_name_H-M   'P 1'
_cell_length_a   11.72468700
_cell_length_b   11.72468700
_cell_length_c   8.57534400
_cell_angle_alpha   90.00000000
_cell_angle_beta   90.00000000
_cell_angle_gamma   90.00000000
_symmetry_Int_Tables_number   1
_chemical_formula_structural   VO3
_chemical_formula_sum   'V16 O48'
_cell_volume   1178.83783509
_cell_formula_units_Z   16
loop_
 _symmetry_equiv_pos_site_id
 _symmetry_equiv_pos_as_xyz
  1  'x, y, z'
loop_
 _atom_site_type_symbol
 _atom_site_label
 _atom_site_symmetry_multiplicity
 _atom_site_fract_x
 _atom_site_fract_y
 _atom_site_fract_z
 _atom_site_occupancy
  V  V0  1  0.54146400  0.33538200  0.06756400  1
  V  V1  1  0.45853600  0.66461800  0.06756400  1
  V  V2  1  0.83538200  0.95853600  0.56756400  1
  V  V3  1  0.04146400  0.16461800  0.93243600  1
  V  V4  1  0.95853600  0.16461800  0.43243600  1
  V  V5  1  0.16461800  0.04146400  0.56756400  1
  V  V6  1  0.95853600  0.83538200  0.93243600  1
  V  V7  1  0.04146400  0.83538200  0.43243600  1
  V  V8  1  0.33538200  0.54146400  0.43243600  1
  V  V9  1  0.66461800  0.54146400  0.93243600  1
  V  V10  1  0.66461800  0.45853600  0.43243600  1
  V  V11  1  0.33538200  0.45853600  0.93243600  1
  V  V12  1  0.45853600  0.33538200  0.56756400  1
  V  V13  1  0.54146400  0.66461800  0.56756400  1
  V  V14  1  0.83538200  0.04146400  0.06756400  1
  V  V15  1  0.16461800  0.95853600  0.06756400  1
  O  O16  1  0.08704800  0.20156200  0.61355000  1
  O  O17  1  0.91295200  0.79843800  0.61355000  1
  O  O18  1  0.70156200  0.41295200  0.11355000  1
  O  O19  1  0.58704800  0.29843800  0.38645000  1
  O  O20  1  0.41295200  0.29843800  0.88645000  1
  O  O21  1  0.29843800  0.58704800  0.11355000  1
  O  O22  1  0.41295200  0.70156200  0.38645000  1
  O  O23  1  0.58704800  0.70156200  0.88645000  1
  O  O24  1  0.20156200  0.08704800  0.88645000  1
  O  O25  1  0.79843800  0.08704800  0.38645000  1
  O  O26  1  0.79843800  0.91295200  0.88645000  1
  O  O27  1  0.20156200  0.91295200  0.38645000  1
  O  O28  1  0.91295200  0.20156200  0.11355000  1
  O  O29  1  0.08704800  0.79843800  0.11355000  1
  O  O30  1  0.70156200  0.58704800  0.61355000  1
  O  O31  1  0.29843800  0.41295200  0.61355000  1
  O  O32  1  0.56438700  0.24150200  0.23948600  1
  O  O33  1  0.43561300  0.75849800  0.23948600  1
  O  O34  1  0.74150200  0.93561300  0.73948600  1
  O  O35  1  0.06438700  0.25849800  0.76051400  1
  O  O36  1  0.93561300  0.25849800  0.26051400  1
  O  O37  1  0.25849800  0.06438700  0.73948600  1
  O  O38  1  0.93561300  0.74150200  0.76051400  1
  O  O39  1  0.06438700  0.74150200  0.26051400  1
  O  O40  1  0.24150200  0.56438700  0.26051400  1
  O  O41  1  0.75849800  0.56438700  0.76051400  1
  O  O42  1  0.75849800  0.43561300  0.26051400  1
  O  O43  1  0.24150200  0.43561300  0.76051400  1
  O  O44  1  0.43561300  0.24150200  0.73948600  1
  O  O45  1  0.56438700  0.75849800  0.73948600  1
  O  O46  1  0.74150200  0.06438700  0.23948600  1
  O  O47  1  0.25849800  0.93561300  0.23948600  1
  O  O48  1  0.10364100  0.08767200  0.11310200  1
  O  O49  1  0.89635900  0.91232800  0.11310200  1
  O  O50  1  0.58767200  0.39635900  0.61310200  1
  O  O51  1  0.60364100  0.41232800  0.88689800  1
  O  O52  1  0.39635900  0.41232800  0.38689800  1
  O  O53  1  0.41232800  0.60364100  0.61310200  1
  O  O54  1  0.39635900  0.58767200  0.88689800  1
  O  O55  1  0.60364100  0.58767200  0.38689800  1
  O  O56  1  0.08767200  0.10364100  0.38689800  1
  O  O57  1  0.91232800  0.10364100  0.88689800  1
  O  O58  1  0.91232800  0.89635900  0.38689800  1
  O  O59  1  0.08767200  0.89635900  0.88689800  1
  O  O60  1  0.89635900  0.08767200  0.61310200  1
  O  O61  1  0.10364100  0.91232800  0.61310200  1
  O  O62  1  0.58767200  0.60364100  0.11310200  1
  O  O63  1  0.41232800  0.39635900  0.11310200  1
