# generated using pymatgen
data_Te(Br3O4)2
_symmetry_space_group_name_H-M   'P 1'
_cell_length_a   8.90939300
_cell_length_b   8.84051300
_cell_length_c   14.09114943
_cell_angle_alpha   54.67291341
_cell_angle_beta   90.00000000
_cell_angle_gamma   90.00000000
_symmetry_Int_Tables_number   1
_chemical_formula_structural   Te(Br3O4)2
_chemical_formula_sum   'Te2 Br12 O16'
_cell_volume   905.50310277
_cell_formula_units_Z   2
loop_
 _symmetry_equiv_pos_site_id
 _symmetry_equiv_pos_as_xyz
  1  'x, y, z'
loop_
 _atom_site_type_symbol
 _atom_site_label
 _atom_site_symmetry_multiplicity
 _atom_site_fract_x
 _atom_site_fract_y
 _atom_site_fract_z
 _atom_site_occupancy
  Te  Te0  1  0.50000000  0.00000000  0.50000000  1
  Te  Te1  1  0.00000000  0.00000000  0.00000000  1
  Br  Br2  1  0.21464500  0.31908400  0.85766000  1
  Br  Br3  1  0.78535500  0.68091600  0.14234000  1
  Br  Br4  1  0.71464500  0.68091600  0.64234000  1
  Br  Br5  1  0.28535500  0.31908400  0.35766000  1
  Br  Br6  1  0.30699600  0.80125100  0.67526100  1
  Br  Br7  1  0.69300400  0.19874900  0.32473900  1
  Br  Br8  1  0.80699600  0.19874900  0.82473900  1
  Br  Br9  1  0.19300400  0.80125100  0.17526100  1
  Br  Br10  1  0.09773900  0.83566900  0.90282000  1
  Br  Br11  1  0.90226100  0.16433100  0.09718000  1
  Br  Br12  1  0.59773900  0.16433100  0.59718000  1
  Br  Br13  1  0.40226100  0.83566900  0.40282000  1
  O  O14  1  0.87065700  0.74735100  0.67989000  1
  O  O15  1  0.12934300  0.25264900  0.32011000  1
  O  O16  1  0.37065700  0.25264900  0.82011000  1
  O  O17  1  0.62934300  0.74735100  0.17989000  1
  O  O18  1  0.16738100  0.48935000  0.57095900  1
  O  O19  1  0.83261900  0.51065000  0.42904100  1
  O  O20  1  0.66738100  0.51065000  0.92904100  1
  O  O21  1  0.33261900  0.48935000  0.07095900  1
  O  O22  1  0.08072900  0.61237900  0.56430400  1
  O  O23  1  0.91927100  0.38762100  0.43569600  1
  O  O24  1  0.58072900  0.38762100  0.93569600  1
  O  O25  1  0.41927100  0.61237900  0.06430400  1
  O  O26  1  0.47969500  0.73388500  0.96524600  1
  O  O27  1  0.52030500  0.26611500  0.03475400  1
  O  O28  1  0.97969500  0.26611500  0.53475400  1
  O  O29  1  0.02030500  0.73388500  0.46524600  1
