# generated using pymatgen
data_Y2ClO4
_symmetry_space_group_name_H-M   'P 1'
_cell_length_a   6.16487600
_cell_length_b   14.44084000
_cell_length_c   15.61796200
_cell_angle_alpha   90.00000000
_cell_angle_beta   90.00000000
_cell_angle_gamma   90.00000000
_symmetry_Int_Tables_number   1
_chemical_formula_structural   Y2ClO4
_chemical_formula_sum   'Y8 Cl4 O16'
_cell_volume   1390.40449659
_cell_formula_units_Z   4
loop_
 _symmetry_equiv_pos_site_id
 _symmetry_equiv_pos_as_xyz
  1  'x, y, z'
loop_
 _atom_site_type_symbol
 _atom_site_label
 _atom_site_symmetry_multiplicity
 _atom_site_fract_x
 _atom_site_fract_y
 _atom_site_fract_z
 _atom_site_occupancy
  Y  Y0  1  0.50000000  0.85732000  0.04001000  1
  Y  Y1  1  0.50000000  0.85732000  0.45999000  1
  Y  Y2  1  0.50000000  0.14268000  0.54001000  1
  Y  Y3  1  0.50000000  0.14268000  0.95999000  1
  Y  Y4  1  0.50000000  0.36124400  0.55554700  1
  Y  Y5  1  0.50000000  0.36124400  0.94445300  1
  Y  Y6  1  0.50000000  0.63875600  0.05554700  1
  Y  Y7  1  0.50000000  0.63875600  0.44445300  1
  Cl  Cl8  1  0.50000000  0.96838800  0.60776700  1
  Cl  Cl9  1  0.50000000  0.96838800  0.89223300  1
  Cl  Cl10  1  0.50000000  0.03161200  0.10776700  1
  Cl  Cl11  1  0.50000000  0.03161200  0.39223300  1
  O  O12  1  0.50000000  0.54825000  0.20986500  1
  O  O13  1  0.50000000  0.54825000  0.29013500  1
  O  O14  1  0.50000000  0.45175000  0.70986500  1
  O  O15  1  0.50000000  0.45175000  0.79013500  1
  O  O16  1  0.50000000  0.25929400  0.46335000  1
  O  O17  1  0.50000000  0.25929400  0.03665000  1
  O  O18  1  0.50000000  0.74070600  0.96335000  1
  O  O19  1  0.50000000  0.74070600  0.53665000  1
  O  O20  1  0.50000000  0.51928800  0.54469800  1
  O  O21  1  0.50000000  0.51928800  0.95530200  1
  O  O22  1  0.50000000  0.48071200  0.04469800  1
  O  O23  1  0.50000000  0.48071200  0.45530200  1
  O  O24  1  0.50000000  0.75768800  0.13390600  1
  O  O25  1  0.50000000  0.75768800  0.36609400  1
  O  O26  1  0.50000000  0.24231200  0.63390600  1
  O  O27  1  0.50000000  0.24231200  0.86609400  1
