# generated using pymatgen
data_TaMnO4
_symmetry_space_group_name_H-M   'P 1'
_cell_length_a   5.03289284
_cell_length_b   5.76286000
_cell_length_c   9.43803627
_cell_angle_alpha   90.00004536
_cell_angle_beta   92.26519531
_cell_angle_gamma   89.99992589
_symmetry_Int_Tables_number   1
_chemical_formula_structural   TaMnO4
_chemical_formula_sum   'Ta4 Mn4 O16'
_cell_volume   273.52554940
_cell_formula_units_Z   4
loop_
 _symmetry_equiv_pos_site_id
 _symmetry_equiv_pos_as_xyz
  1  'x, y, z'
loop_
 _atom_site_type_symbol
 _atom_site_label
 _atom_site_symmetry_multiplicity
 _atom_site_fract_x
 _atom_site_fract_y
 _atom_site_fract_z
 _atom_site_occupancy
  Ta  Ta0  1  0.74999100  0.33220900  0.25000700  1
  Ta  Ta1  1  0.75000400  0.33221100  0.74999200  1
  Ta  Ta2  1  0.25001000  0.66779000  0.24999400  1
  Ta  Ta3  1  0.24999300  0.66778900  0.75001000  1
  Mn  Mn4  1  0.75000400  0.84102500  0.50000100  1
  Mn  Mn5  1  0.25000900  0.15896300  0.00000200  1
  Mn  Mn6  1  0.75000300  0.84130300  0.99999700  1
  Mn  Mn7  1  0.24999400  0.15871900  0.50000400  1
  O  O8  1  0.42686200  0.87573200  0.38571500  1
  O  O9  1  0.42684600  0.87575000  0.88570600  1
  O  O10  1  0.57313600  0.12426400  0.11428600  1
  O  O11  1  0.57315100  0.12425000  0.61429200  1
  O  O12  1  0.07315000  0.87575100  0.11428900  1
  O  O13  1  0.07313800  0.87573300  0.61428600  1
  O  O14  1  0.92684800  0.12425000  0.38571000  1
  O  O15  1  0.92686300  0.12426600  0.88571400  1
  O  O16  1  0.92871100  0.61266200  0.36034000  1
  O  O17  1  0.92871400  0.61266800  0.86034100  1
  O  O18  1  0.07128600  0.38733800  0.13965900  1
  O  O19  1  0.07128800  0.38733000  0.63965700  1
  O  O20  1  0.57128900  0.61266900  0.13965800  1
  O  O21  1  0.57128900  0.61265800  0.63966000  1
  O  O22  1  0.42871000  0.38733200  0.36034100  1
  O  O23  1  0.42870900  0.38733800  0.86033900  1
