# generated using pymatgen
data_Ta9P2O25
_symmetry_space_group_name_H-M   'P 1'
_cell_length_a   11.50847255
_cell_length_b   11.50847255
_cell_length_c   11.50847255
_cell_angle_alpha   91.64992649
_cell_angle_beta   91.64992649
_cell_angle_gamma   160.46110320
_symmetry_Int_Tables_number   1
_chemical_formula_structural   Ta9P2O25
_chemical_formula_sum   'Ta9 P2 O25'
_cell_volume   502.38420361
_cell_formula_units_Z   1
loop_
 _symmetry_equiv_pos_site_id
 _symmetry_equiv_pos_as_xyz
  1  'x, y, z'
loop_
 _atom_site_type_symbol
 _atom_site_label
 _atom_site_symmetry_multiplicity
 _atom_site_fract_x
 _atom_site_fract_y
 _atom_site_fract_z
 _atom_site_occupancy
  Ta  Ta0  1  0.00000000  0.00000000  0.00000000  1
  Ta  Ta1  1  0.22095600  0.09842600  0.31938100  1
  Ta  Ta2  1  0.77904400  0.90157400  0.68061900  1
  Ta  Ta3  1  0.90157400  0.22095600  0.12253000  1
  Ta  Ta4  1  0.09842600  0.77904400  0.87747000  1
  Ta  Ta5  1  0.12440200  0.31726800  0.44167000  1
  Ta  Ta6  1  0.87559800  0.68273200  0.55833000  1
  Ta  Ta7  1  0.68273200  0.12440200  0.80713300  1
  Ta  Ta8  1  0.31726800  0.87559800  0.19286700  1
  P  P9  1  0.25000000  0.75000000  0.50000000  1
  P  P10  1  0.75000000  0.25000000  0.50000000  1
  O  O11  1  0.34919700  0.16258400  0.51178100  1
  O  O12  1  0.65080300  0.83741600  0.48821900  1
  O  O13  1  0.83741600  0.34919700  0.18661300  1
  O  O14  1  0.16258400  0.65080300  0.81338700  1
  O  O15  1  0.25026700  0.38815100  0.63841900  1
  O  O16  1  0.74973300  0.61184900  0.36158100  1
  O  O17  1  0.61184900  0.25026700  0.86211600  1
  O  O18  1  0.38815100  0.74973300  0.13788400  1
  O  O19  1  0.17888700  0.21179300  0.39068000  1
  O  O20  1  0.82111300  0.78820700  0.60932000  1
  O  O21  1  0.78820700  0.17888700  0.96709400  1
  O  O22  1  0.21179300  0.82111300  0.03290600  1
  O  O23  1  0.08659400  0.43906900  0.52566400  1
  O  O24  1  0.91340600  0.56093100  0.47433600  1
  O  O25  1  0.56093100  0.08659400  0.64752500  1
  O  O26  1  0.43906900  0.91340600  0.35247500  1
  O  O27  1  0.50000000  0.50000000  0.00000000  1
  O  O28  1  0.11606600  0.05002600  0.16609100  1
  O  O29  1  0.88393400  0.94997400  0.83390900  1
  O  O30  1  0.94997400  0.11606600  0.06604000  1
  O  O31  1  0.05002600  0.88393400  0.93396000  1
  O  O32  1  0.01483900  0.27865600  0.29349500  1
  O  O33  1  0.98516100  0.72134400  0.70650500  1
  O  O34  1  0.72134400  0.01483900  0.73618300  1
  O  O35  1  0.27865600  0.98516100  0.26381700  1
