# generated using pymatgen
data_SrMn2(SiO5)2
_symmetry_space_group_name_H-M   'P 1'
_cell_length_a   5.39514742
_cell_length_b   5.39514742
_cell_length_c   13.54578900
_cell_angle_alpha   90.00000000
_cell_angle_beta   90.00000000
_cell_angle_gamma   112.07779321
_symmetry_Int_Tables_number   1
_chemical_formula_structural   SrMn2(SiO5)2
_chemical_formula_sum   'Sr2 Mn4 Si4 O20'
_cell_volume   365.37438178
_cell_formula_units_Z   2
loop_
 _symmetry_equiv_pos_site_id
 _symmetry_equiv_pos_as_xyz
  1  'x, y, z'
loop_
 _atom_site_type_symbol
 _atom_site_label
 _atom_site_symmetry_multiplicity
 _atom_site_fract_x
 _atom_site_fract_y
 _atom_site_fract_z
 _atom_site_occupancy
  Sr  Sr0  1  0.33704000  0.66296000  0.75000000  1
  Sr  Sr1  1  0.66296000  0.33704000  0.25000000  1
  Mn  Mn2  1  0.50000000  0.00000000  0.00000000  1
  Mn  Mn3  1  0.00000000  0.50000000  0.50000000  1
  Mn  Mn4  1  0.00000000  0.50000000  0.00000000  1
  Mn  Mn5  1  0.50000000  0.00000000  0.50000000  1
  Si  Si6  1  0.02403700  0.97596300  0.36674500  1
  Si  Si7  1  0.97596300  0.02403700  0.63325500  1
  Si  Si8  1  0.02403700  0.97596300  0.13325500  1
  Si  Si9  1  0.97596300  0.02403700  0.86674500  1
  O  O10  1  0.35793100  0.64206900  0.04724700  1
  O  O11  1  0.64206900  0.35793100  0.95275300  1
  O  O12  1  0.35793100  0.64206900  0.45275300  1
  O  O13  1  0.64206900  0.35793100  0.54724700  1
  O  O14  1  0.37477100  0.62522900  0.25000000  1
  O  O15  1  0.62522900  0.37477100  0.75000000  1
  O  O16  1  0.34382400  0.10762300  0.11315500  1
  O  O17  1  0.65617600  0.89237700  0.88684500  1
  O  O18  1  0.89237700  0.65617600  0.38684500  1
  O  O19  1  0.10762300  0.34382400  0.88684500  1
  O  O20  1  0.10762300  0.34382400  0.61315500  1
  O  O21  1  0.89237700  0.65617600  0.11315500  1
  O  O22  1  0.65617600  0.89237700  0.61315500  1
  O  O23  1  0.34382400  0.10762300  0.38684500  1
  O  O24  1  0.86315500  0.13684500  0.43043700  1
  O  O25  1  0.13684500  0.86315500  0.56956300  1
  O  O26  1  0.86315500  0.13684500  0.06956300  1
  O  O27  1  0.13684500  0.86315500  0.93043700  1
  O  O28  1  0.96505700  0.03494300  0.25000000  1
  O  O29  1  0.03494300  0.96505700  0.75000000  1
