# generated using pymatgen
data_Sr5P3O14
_symmetry_space_group_name_H-M   'P 1'
_cell_length_a   9.90910331
_cell_length_b   9.90910331
_cell_length_c   7.31231400
_cell_angle_alpha   90.00000000
_cell_angle_beta   90.00000000
_cell_angle_gamma   119.99999542
_symmetry_Int_Tables_number   1
_chemical_formula_structural   Sr5P3O14
_chemical_formula_sum   'Sr10 P6 O28'
_cell_volume   621.80498137
_cell_formula_units_Z   2
loop_
 _symmetry_equiv_pos_site_id
 _symmetry_equiv_pos_as_xyz
  1  'x, y, z'
loop_
 _atom_site_type_symbol
 _atom_site_label
 _atom_site_symmetry_multiplicity
 _atom_site_fract_x
 _atom_site_fract_y
 _atom_site_fract_z
 _atom_site_occupancy
  Sr  Sr0  1  0.66666700  0.33333300  0.00020300  1
  Sr  Sr1  1  0.33333300  0.66666700  0.99979700  1
  Sr  Sr2  1  0.33333300  0.66666700  0.50020300  1
  Sr  Sr3  1  0.66666700  0.33333300  0.49979700  1
  Sr  Sr4  1  0.75538300  0.00861100  0.75000000  1
  Sr  Sr5  1  0.24461700  0.99138900  0.25000000  1
  Sr  Sr6  1  0.25322800  0.24461700  0.75000000  1
  Sr  Sr7  1  0.74677200  0.75538300  0.25000000  1
  Sr  Sr8  1  0.99138900  0.74677200  0.75000000  1
  Sr  Sr9  1  0.00861100  0.25322800  0.25000000  1
  P  P10  1  0.60030200  0.63053900  0.75000000  1
  P  P11  1  0.39969800  0.36946100  0.25000000  1
  P  P12  1  0.03023700  0.39969800  0.75000000  1
  P  P13  1  0.96976300  0.60030200  0.25000000  1
  P  P14  1  0.36946100  0.96976300  0.75000000  1
  P  P15  1  0.63053900  0.03023700  0.25000000  1
  O  O16  1  0.65364000  0.73703100  0.92220300  1
  O  O17  1  0.34636000  0.26296900  0.07779700  1
  O  O18  1  0.08339100  0.34636000  0.92220300  1
  O  O19  1  0.34636000  0.26296900  0.42220300  1
  O  O20  1  0.91660900  0.65364000  0.07779700  1
  O  O21  1  0.65364000  0.73703100  0.57779700  1
  O  O22  1  0.26296900  0.91660900  0.92220300  1
  O  O23  1  0.91660900  0.65364000  0.42220300  1
  O  O24  1  0.73703100  0.08339100  0.07779700  1
  O  O25  1  0.08339100  0.34636000  0.57779700  1
  O  O26  1  0.73703100  0.08339100  0.42220300  1
  O  O27  1  0.26296900  0.91660900  0.57779700  1
  O  O28  1  0.41815400  0.53552400  0.75000000  1
  O  O29  1  0.58184600  0.46447600  0.25000000  1
  O  O30  1  0.11737000  0.58184600  0.75000000  1
  O  O31  1  0.88263000  0.41815400  0.25000000  1
  O  O32  1  0.46447600  0.88263000  0.75000000  1
  O  O33  1  0.53552400  0.11737000  0.25000000  1
  O  O34  1  0.00000000  0.00000000  0.90790000  1
  O  O35  1  0.00000000  0.00000000  0.09210000  1
  O  O36  1  0.00000000  0.00000000  0.40790000  1
  O  O37  1  0.00000000  0.00000000  0.59210000  1
  O  O38  1  0.85033800  0.33007200  0.75000000  1
  O  O39  1  0.14966200  0.66992800  0.25000000  1
  O  O40  1  0.47973400  0.14966200  0.75000000  1
  O  O41  1  0.52026600  0.85033800  0.25000000  1
  O  O42  1  0.66992800  0.52026600  0.75000000  1
  O  O43  1  0.33007200  0.47973400  0.25000000  1
