# generated using pymatgen
data_Tb2B4O9
_symmetry_space_group_name_H-M   'P 1'
_cell_length_a   12.88978168
_cell_length_b   12.88978168
_cell_length_c   24.96099934
_cell_angle_alpha   80.23934540
_cell_angle_beta   80.23934540
_cell_angle_gamma   19.81789068
_symmetry_Int_Tables_number   1
_chemical_formula_structural   Tb2B4O9
_chemical_formula_sum   'Tb20 B40 O90'
_cell_volume   1385.04747911
_cell_formula_units_Z   10
loop_
 _symmetry_equiv_pos_site_id
 _symmetry_equiv_pos_as_xyz
  1  'x, y, z'
loop_
 _atom_site_type_symbol
 _atom_site_label
 _atom_site_symmetry_multiplicity
 _atom_site_fract_x
 _atom_site_fract_y
 _atom_site_fract_z
 _atom_site_occupancy
  Tb  Tb0  1  0.65887300  0.31751800  0.67856000  1
  Tb  Tb1  1  0.34112700  0.68248200  0.32144000  1
  Tb  Tb2  1  0.68248200  0.34112700  0.82144000  1
  Tb  Tb3  1  0.31751800  0.65887300  0.17856000  1
  Tb  Tb4  1  0.53629900  0.18210700  0.79241900  1
  Tb  Tb5  1  0.46370100  0.81789300  0.20758100  1
  Tb  Tb6  1  0.81789300  0.46370100  0.70758100  1
  Tb  Tb7  1  0.18210700  0.53629900  0.29241900  1
  Tb  Tb8  1  0.42111000  0.00988800  0.87066500  1
  Tb  Tb9  1  0.57889000  0.99011200  0.12933500  1
  Tb  Tb10  1  0.99011200  0.57889000  0.62933500  1
  Tb  Tb11  1  0.00988800  0.42111000  0.37066500  1
  Tb  Tb12  1  0.73517800  0.13560500  0.07199800  1
  Tb  Tb13  1  0.26482200  0.86439500  0.92800200  1
  Tb  Tb14  1  0.86439500  0.26482200  0.42800200  1
  Tb  Tb15  1  0.13560500  0.73517800  0.57199800  1
  Tb  Tb16  1  0.61441900  0.07759400  0.96107100  1
  Tb  Tb17  1  0.38558100  0.92240600  0.03892900  1
  Tb  Tb18  1  0.92240600  0.38558100  0.53892900  1
  Tb  Tb19  1  0.07759400  0.61441900  0.46107100  1
  B  B20  1  0.78458300  0.15585700  0.93453300  1
  B  B21  1  0.21541700  0.84414300  0.06546700  1
  B  B22  1  0.84414300  0.21541700  0.56546700  1
  B  B23  1  0.15585700  0.78458300  0.43453300  1
  B  B24  1  0.27308300  0.92506200  0.80774800  1
  B  B25  1  0.72691700  0.07493800  0.19225200  1
  B  B26  1  0.07493800  0.72691700  0.69225200  1
  B  B27  1  0.92506200  0.27308300  0.30774800  1
  B  B28  1  0.54699600  0.16182100  0.66281700  1
  B  B29  1  0.45300400  0.83817900  0.33718300  1
  B  B30  1  0.83817900  0.45300400  0.83718300  1
  B  B31  1  0.16182100  0.54699600  0.16281700  1
  B  B32  1  0.35315200  0.03758700  0.63368300  1
  B  B33  1  0.64684800  0.96241300  0.36631700  1
  B  B34  1  0.96241300  0.64684800  0.86631700  1
  B  B35  1  0.03758700  0.35315200  0.13368300  1
  B  B36  1  0.37376900  0.77160000  0.53025700  1
  B  B37  1  0.62623100  0.22840000  0.46974300  1
  B  B38  1  0.22840000  0.62623100  0.96974300  1
  B  B39  1  0.77160000  0.37376900  0.03025700  1
  B  B40  1  0.42114500  0.08137400  0.71821500  1
  B  B41  1  0.57885500  0.91862600  0.28178500  1
  B  B42  1  0.91862600  0.57885500  0.78178500  1
  B  B43  1  0.08137400  0.42114500  0.21821500  1
  B  B44  1  0.48103500  0.03481100  0.53886700  1
  B  B45  1  0.51896500  0.96518900  0.46113300  1
  B  B46  1  0.96518900  0.51896500  0.96113300  1
  B  B47  1  0.03481100  0.48103500  0.03886700  1
  B  B48  1  0.23033100  0.87399300  0.72470200  1
  B  B49  1  0.76967000  0.12600700  0.27529800  1
  B  B50  1  0.12600700  0.76966900  0.77529800  1
  B  B51  1  0.87399300  0.23033000  0.22470200  1
  B  B52  1  0.22297700  0.96020000  0.62346600  1
  B  B53  1  0.77702300  0.03980000  0.37653400  1
  B  B54  1  0.03980000  0.77702300  0.87653400  1
  B  B55  1  0.96020000  0.22297700  0.12346600  1
  B  B56  1  0.57517500  0.13049600  0.55876200  1
  B  B57  1  0.42482500  0.86950400  0.44123800  1
  B  B58  1  0.86950400  0.42482500  0.94123800  1
  B  B59  1  0.13049600  0.57517500  0.05876200  1
  O  O60  1  0.74838400  0.03867700  0.51582200  1
  O  O61  1  0.25161600  0.96132300  0.48417800  1
  O  O62  1  0.96132300  0.25161600  0.98417800  1
  O  O63  1  0.03867700  0.74838400  0.01582200  1
  O  O64  1  0.68822700  0.76992100  0.74325300  1
  O  O65  1  0.31177300  0.23007900  0.25674700  1
  O  O66  1  0.23007900  0.31177300  0.75674700  1
  O  O67  1  0.76992100  0.68822700  0.24325300  1
  O  O68  1  0.80553600  0.09105200  0.77392300  1
  O  O69  1  0.19446400  0.90894800  0.22607700  1
  O  O70  1  0.90894800  0.19446400  0.72607700  1
  O  O71  1  0.09105200  0.80553600  0.27392300  1
  O  O72  1  0.70044500  0.04084000  0.60902000  1
  O  O73  1  0.29955500  0.95916000  0.39098000  1
  O  O74  1  0.95916000  0.29955500  0.89098000  1
  O  O75  1  0.04084000  0.70044500  0.10902000  1
  O  O76  1  0.66682500  0.28963300  0.58564000  1
  O  O77  1  0.33317500  0.71036700  0.41436000  1
  O  O78  1  0.71036700  0.33317500  0.91436000  1
  O  O79  1  0.28963300  0.66682500  0.08564000  1
  O  O80  1  0.32109300  0.67890700  0.75000000  1
  O  O81  1  0.67890700  0.32109300  0.25000000  1
  O  O82  1  0.14655600  0.13848900  0.63612000  1
  O  O83  1  0.85344400  0.86151100  0.36388000  1
  O  O84  1  0.86151100  0.85344400  0.86388000  1
  O  O85  1  0.13848900  0.14655600  0.13612000  1
  O  O86  1  0.49576200  0.77752600  0.83554400  1
  O  O87  1  0.50423800  0.22247400  0.16445600  1
  O  O88  1  0.22247400  0.50423800  0.66445600  1
  O  O89  1  0.77752600  0.49576200  0.33554400  1
  O  O90  1  0.22263800  0.86991800  0.84047900  1
  O  O91  1  0.77736200  0.13008200  0.15952100  1
  O  O92  1  0.13008200  0.77736200  0.65952100  1
  O  O93  1  0.86991800  0.22263800  0.34047900  1
  O  O94  1  0.23065600  0.19426400  0.68657800  1
  O  O95  1  0.76934400  0.80573600  0.31342200  1
  O  O96  1  0.80573600  0.76934400  0.81342200  1
  O  O97  1  0.19426400  0.23065600  0.18657800  1
  O  O98  1  0.55581200  0.74921100  0.94445400  1
  O  O99  1  0.44418800  0.25078900  0.05554600  1
  O  O100  1  0.25078900  0.44418800  0.55554600  1
  O  O101  1  0.74921100  0.55581200  0.44445400  1
  O  O102  1  0.25080500  0.20690500  0.58153300  1
  O  O103  1  0.74919500  0.79309500  0.41846700  1
  O  O104  1  0.79309500  0.74919500  0.91846700  1
  O  O105  1  0.20690500  0.25080500  0.08153300  1
  O  O106  1  0.66139200  0.78462800  0.51404900  1
  O  O107  1  0.33860800  0.21537200  0.48595100  1
  O  O108  1  0.21537200  0.33860800  0.98595100  1
  O  O109  1  0.78462800  0.66139200  0.01404900  1
  O  O110  1  0.14623100  0.90300800  0.54331800  1
  O  O111  1  0.85376900  0.09699200  0.45668200  1
  O  O112  1  0.09699200  0.85376900  0.95668200  1
  O  O113  1  0.90300800  0.14623100  0.04331800  1
  O  O114  1  0.66971200  0.72502200  0.63382600  1
  O  O115  1  0.33028800  0.27497800  0.36617400  1
  O  O116  1  0.27497800  0.33028800  0.86617400  1
  O  O117  1  0.72502200  0.66971200  0.13382600  1
  O  O118  1  0.68742400  0.91463300  0.55552900  1
  O  O119  1  0.31257600  0.08536700  0.44447100  1
  O  O120  1  0.08536700  0.31257600  0.94447100  1
  O  O121  1  0.91463300  0.68742400  0.05552900  1
  O  O122  1  0.79403700  0.08232700  0.88909300  1
  O  O123  1  0.20596300  0.91767300  0.11090700  1
  O  O124  1  0.91767300  0.20596300  0.61090700  1
  O  O125  1  0.08232700  0.79403700  0.38909300  1
  O  O126  1  0.38805900  0.80495300  0.75310200  1
  O  O127  1  0.61194100  0.19504700  0.24689800  1
  O  O128  1  0.19504700  0.61194100  0.74689800  1
  O  O129  1  0.80495300  0.38805900  0.25310200  1
  O  O130  1  0.40791300  0.80869800  0.57256000  1
  O  O131  1  0.59208700  0.19130200  0.42744000  1
  O  O132  1  0.19130200  0.59208700  0.92744000  1
  O  O133  1  0.80869800  0.40791300  0.07256000  1
  O  O134  1  0.73263800  0.02937300  0.70120000  1
  O  O135  1  0.26736200  0.97062700  0.29880000  1
  O  O136  1  0.97062700  0.26736200  0.79880000  1
  O  O137  1  0.02937300  0.73263800  0.20120000  1
  O  O138  1  0.53606600  0.05496800  0.67228200  1
  O  O139  1  0.46393400  0.94503200  0.32771800  1
  O  O140  1  0.94503200  0.46393400  0.82771800  1
  O  O141  1  0.05496800  0.53606600  0.17228200  1
  O  O142  1  0.55913600  0.31542200  0.97919300  1
  O  O143  1  0.44086400  0.68457800  0.02080700  1
  O  O144  1  0.68457800  0.44086400  0.52080700  1
  O  O145  1  0.31542200  0.55913600  0.47919300  1
  O  O146  1  0.37970700  0.75034000  0.66873400  1
  O  O147  1  0.62029300  0.24966000  0.33126600  1
  O  O148  1  0.24966000  0.62029300  0.83126600  1
  O  O149  1  0.75034000  0.37970700  0.16873400  1
