# generated using pymatgen
data_SrTiF5
_symmetry_space_group_name_H-M   'P 1'
_cell_length_a   7.40564000
_cell_length_b   7.25057800
_cell_length_c   15.01519954
_cell_angle_alpha   85.21698845
_cell_angle_beta   90.00000000
_cell_angle_gamma   90.00000000
_symmetry_Int_Tables_number   1
_chemical_formula_structural   SrTiF5
_chemical_formula_sum   'Sr8 Ti8 F40'
_cell_volume   803.43605672
_cell_formula_units_Z   8
loop_
 _symmetry_equiv_pos_site_id
 _symmetry_equiv_pos_as_xyz
  1  'x, y, z'
loop_
 _atom_site_type_symbol
 _atom_site_label
 _atom_site_symmetry_multiplicity
 _atom_site_fract_x
 _atom_site_fract_y
 _atom_site_fract_z
 _atom_site_occupancy
  Sr  Sr0  1  0.34771300  0.99718800  0.13471700  1
  Sr  Sr1  1  0.65228700  0.00281200  0.86528300  1
  Sr  Sr2  1  0.84771300  0.00281200  0.36528300  1
  Sr  Sr3  1  0.15228700  0.99718800  0.63471700  1
  Sr  Sr4  1  0.84747100  0.30925700  0.08545800  1
  Sr  Sr5  1  0.15252900  0.69074300  0.91454200  1
  Sr  Sr6  1  0.34747100  0.69074300  0.41454200  1
  Sr  Sr7  1  0.65252900  0.30925700  0.58545800  1
  Ti  Ti8  1  0.88240600  0.50679800  0.33778400  1
  Ti  Ti9  1  0.11759400  0.49320200  0.66221600  1
  Ti  Ti10  1  0.38240600  0.49320200  0.16221600  1
  Ti  Ti11  1  0.61759400  0.50679800  0.83778400  1
  Ti  Ti12  1  0.81909100  0.81077300  0.12517100  1
  Ti  Ti13  1  0.18090900  0.18922700  0.87482900  1
  Ti  Ti14  1  0.31909100  0.18922700  0.37482900  1
  Ti  Ti15  1  0.68090900  0.81077300  0.62517100  1
  F  F16  1  0.29875900  0.68341700  0.06782700  1
  F  F17  1  0.70124100  0.31658300  0.93217300  1
  F  F18  1  0.79875900  0.31658300  0.43217300  1
  F  F19  1  0.20124100  0.68341700  0.56782700  1
  F  F20  1  0.92157000  0.64768900  0.04017600  1
  F  F21  1  0.07843000  0.35231100  0.95982400  1
  F  F22  1  0.42157000  0.35231100  0.45982400  1
  F  F23  1  0.57843000  0.64768900  0.54017600  1
  F  F24  1  0.48839800  0.00009000  0.60778700  1
  F  F25  1  0.51160200  0.99991000  0.39221300  1
  F  F26  1  0.98839800  0.99991000  0.89221300  1
  F  F27  1  0.01160200  0.00009000  0.10778700  1
  F  F28  1  0.69203900  0.96902000  0.20721300  1
  F  F29  1  0.30796100  0.03098000  0.79278700  1
  F  F30  1  0.19203900  0.03098000  0.29278700  1
  F  F31  1  0.80796100  0.96902000  0.70721300  1
  F  F32  1  0.93934600  0.67577800  0.22902800  1
  F  F33  1  0.06065400  0.32422200  0.77097200  1
  F  F34  1  0.43934600  0.32422200  0.27097200  1
  F  F35  1  0.56065400  0.67577800  0.72902800  1
  F  F36  1  0.67768100  0.96149800  0.03231200  1
  F  F37  1  0.32231900  0.03850200  0.96768800  1
  F  F38  1  0.17768100  0.03850200  0.46768800  1
  F  F39  1  0.82231900  0.96149800  0.53231200  1
  F  F40  1  0.66784100  0.65438000  0.35178100  1
  F  F41  1  0.33215900  0.34562000  0.64821900  1
  F  F42  1  0.16784100  0.34562000  0.14821900  1
  F  F43  1  0.83215900  0.65438000  0.85178100  1
  F  F44  1  0.83673100  0.30959000  0.25751100  1
  F  F45  1  0.16326900  0.69041000  0.74248900  1
  F  F46  1  0.33673100  0.69041000  0.24248900  1
  F  F47  1  0.66326900  0.30959000  0.75751100  1
  F  F48  1  0.50827600  0.29969000  0.09889200  1
  F  F49  1  0.49172400  0.70031000  0.90110800  1
  F  F50  1  0.00827600  0.70031000  0.40110800  1
  F  F51  1  0.99172400  0.29969000  0.59889200  1
  F  F52  1  0.63082800  0.61272900  0.14423600  1
  F  F53  1  0.36917200  0.38727100  0.85576400  1
  F  F54  1  0.13082800  0.38727100  0.35576400  1
  F  F55  1  0.86917200  0.61272900  0.64423600  1
