# generated using pymatgen
data_SrAs2F12
_symmetry_space_group_name_H-M   'P 1'
_cell_length_a   9.94162800
_cell_length_b   9.94162800
_cell_length_c   9.94162800
_cell_angle_alpha   90.00000000
_cell_angle_beta   90.00000000
_cell_angle_gamma   90.00000000
_symmetry_Int_Tables_number   1
_chemical_formula_structural   SrAs2F12
_chemical_formula_sum   'Sr4 As8 F48'
_cell_volume   982.59041982
_cell_formula_units_Z   4
loop_
 _symmetry_equiv_pos_site_id
 _symmetry_equiv_pos_as_xyz
  1  'x, y, z'
loop_
 _atom_site_type_symbol
 _atom_site_label
 _atom_site_symmetry_multiplicity
 _atom_site_fract_x
 _atom_site_fract_y
 _atom_site_fract_z
 _atom_site_occupancy
  Sr  Sr0  1  0.50000000  0.00000000  0.00000000  1
  Sr  Sr1  1  0.00000000  0.50000000  0.00000000  1
  Sr  Sr2  1  0.00000000  0.00000000  0.50000000  1
  Sr  Sr3  1  0.00000000  0.00000000  0.00000000  1
  As  As4  1  0.25389800  0.25389800  0.25389800  1
  As  As5  1  0.74610200  0.74610200  0.25389800  1
  As  As6  1  0.74610200  0.25389800  0.74610200  1
  As  As7  1  0.25389800  0.74610200  0.74610200  1
  As  As8  1  0.74610200  0.74610200  0.74610200  1
  As  As9  1  0.25389800  0.25389800  0.74610200  1
  As  As10  1  0.25389800  0.74610200  0.25389800  1
  As  As11  1  0.74610200  0.25389800  0.25389800  1
  F  F12  1  0.12898400  0.12898400  0.30583800  1
  F  F13  1  0.87101600  0.87101600  0.30583800  1
  F  F14  1  0.87101600  0.12898400  0.69416200  1
  F  F15  1  0.30583800  0.12898400  0.12898400  1
  F  F16  1  0.12898400  0.87101600  0.69416200  1
  F  F17  1  0.30583800  0.87101600  0.87101600  1
  F  F18  1  0.69416200  0.87101600  0.12898400  1
  F  F19  1  0.69416200  0.12898400  0.87101600  1
  F  F20  1  0.12898400  0.30583800  0.12898400  1
  F  F21  1  0.12898400  0.69416200  0.87101600  1
  F  F22  1  0.87101600  0.69416200  0.12898400  1
  F  F23  1  0.87101600  0.30583800  0.87101600  1
  F  F24  1  0.37014800  0.37014800  0.81207800  1
  F  F25  1  0.62985200  0.62985200  0.81207800  1
  F  F26  1  0.62985200  0.37014800  0.18792200  1
  F  F27  1  0.81207800  0.37014800  0.37014800  1
  F  F28  1  0.37014800  0.62985200  0.18792200  1
  F  F29  1  0.81207800  0.62985200  0.62985200  1
  F  F30  1  0.18792200  0.62985200  0.37014800  1
  F  F31  1  0.18792200  0.37014800  0.62985200  1
  F  F32  1  0.37014800  0.81207800  0.37014800  1
  F  F33  1  0.37014800  0.18792200  0.62985200  1
  F  F34  1  0.62985200  0.18792200  0.37014800  1
  F  F35  1  0.62985200  0.81207800  0.62985200  1
  F  F36  1  0.12898400  0.12898400  0.69416200  1
  F  F37  1  0.87101600  0.87101600  0.69416200  1
  F  F38  1  0.87101600  0.12898400  0.30583800  1
  F  F39  1  0.69416200  0.12898400  0.12898400  1
  F  F40  1  0.12898400  0.87101600  0.30583800  1
  F  F41  1  0.69416200  0.87101600  0.87101600  1
  F  F42  1  0.30583800  0.87101600  0.12898400  1
  F  F43  1  0.30583800  0.12898400  0.87101600  1
  F  F44  1  0.12898400  0.69416200  0.12898400  1
  F  F45  1  0.12898400  0.30583800  0.87101600  1
  F  F46  1  0.87101600  0.30583800  0.12898400  1
  F  F47  1  0.87101600  0.69416200  0.87101600  1
  F  F48  1  0.37014800  0.37014800  0.18792200  1
  F  F49  1  0.62985200  0.62985200  0.18792200  1
  F  F50  1  0.62985200  0.37014800  0.81207800  1
  F  F51  1  0.18792200  0.37014800  0.37014800  1
  F  F52  1  0.37014800  0.62985200  0.81207800  1
  F  F53  1  0.18792200  0.62985200  0.62985200  1
  F  F54  1  0.81207800  0.62985200  0.37014800  1
  F  F55  1  0.81207800  0.37014800  0.62985200  1
  F  F56  1  0.37014800  0.18792200  0.37014800  1
  F  F57  1  0.37014800  0.81207800  0.62985200  1
  F  F58  1  0.62985200  0.81207800  0.37014800  1
  F  F59  1  0.62985200  0.18792200  0.62985200  1
