# generated using pymatgen
data_Sr4Zr3O10
_symmetry_space_group_name_H-M   'P 1'
_cell_length_a   5.87391200
_cell_length_b   5.90186400
_cell_length_c   29.46510000
_cell_angle_alpha   90.00000000
_cell_angle_beta   90.00000000
_cell_angle_gamma   90.00000000
_symmetry_Int_Tables_number   1
_chemical_formula_structural   Sr4Zr3O10
_chemical_formula_sum   'Sr16 Zr12 O40'
_cell_volume   1021.46749893
_cell_formula_units_Z   4
loop_
 _symmetry_equiv_pos_site_id
 _symmetry_equiv_pos_as_xyz
  1  'x, y, z'
loop_
 _atom_site_type_symbol
 _atom_site_label
 _atom_site_symmetry_multiplicity
 _atom_site_fract_x
 _atom_site_fract_y
 _atom_site_fract_z
 _atom_site_occupancy
  Sr  Sr0  1  0.01138500  0.02607300  0.29396400  1
  Sr  Sr1  1  0.98861500  0.97392700  0.70603600  1
  Sr  Sr2  1  0.48861500  0.97392700  0.79396400  1
  Sr  Sr3  1  0.98861500  0.52607300  0.20603600  1
  Sr  Sr4  1  0.51138500  0.02607300  0.20603600  1
  Sr  Sr5  1  0.01138500  0.47392700  0.79396400  1
  Sr  Sr6  1  0.51138500  0.47392700  0.70603600  1
  Sr  Sr7  1  0.48861500  0.52607300  0.29396400  1
  Sr  Sr8  1  0.49672100  0.46866900  0.42989500  1
  Sr  Sr9  1  0.50327900  0.53133100  0.57010500  1
  Sr  Sr10  1  0.00327900  0.53133100  0.92989500  1
  Sr  Sr11  1  0.50327900  0.96866900  0.07010500  1
  Sr  Sr12  1  0.99672100  0.46866900  0.07010500  1
  Sr  Sr13  1  0.49672100  0.03133100  0.92989500  1
  Sr  Sr14  1  0.99672100  0.03133100  0.57010500  1
  Sr  Sr15  1  0.00327900  0.96866900  0.42989500  1
  Zr  Zr16  1  0.00159200  0.99985600  0.14188000  1
  Zr  Zr17  1  0.99840800  0.00014400  0.85812000  1
  Zr  Zr18  1  0.49840800  0.00014400  0.64188000  1
  Zr  Zr19  1  0.99840800  0.49985600  0.35812000  1
  Zr  Zr20  1  0.50159200  0.99985600  0.35812000  1
  Zr  Zr21  1  0.00159200  0.50014400  0.64188000  1
  Zr  Zr22  1  0.50159200  0.50014400  0.85812000  1
  Zr  Zr23  1  0.49840800  0.49985600  0.14188000  1
  Zr  Zr24  1  0.00000000  0.00000000  0.00000000  1
  Zr  Zr25  1  0.50000000  0.00000000  0.50000000  1
  Zr  Zr26  1  0.00000000  0.50000000  0.50000000  1
  Zr  Zr27  1  0.50000000  0.50000000  0.00000000  1
  O  O28  1  0.07036100  0.01792700  0.07039600  1
  O  O29  1  0.92963900  0.98207300  0.92960400  1
  O  O30  1  0.42963900  0.98207300  0.57039600  1
  O  O31  1  0.92963900  0.51792700  0.42960400  1
  O  O32  1  0.57036100  0.01792700  0.42960400  1
  O  O33  1  0.07036100  0.48207300  0.57039600  1
  O  O34  1  0.57036100  0.48207300  0.92960400  1
  O  O35  1  0.42963900  0.51792700  0.07039600  1
  O  O36  1  0.21105900  0.21003900  0.36827700  1
  O  O37  1  0.78894100  0.78996100  0.63172300  1
  O  O38  1  0.28894100  0.78996100  0.86827700  1
  O  O39  1  0.78894100  0.71003900  0.13172300  1
  O  O40  1  0.71105900  0.21003900  0.13172300  1
  O  O41  1  0.21105900  0.28996100  0.86827700  1
  O  O42  1  0.71105900  0.28996100  0.63172300  1
  O  O43  1  0.28894100  0.71003900  0.36827700  1
  O  O44  1  0.20933400  0.20921300  0.48967100  1
  O  O45  1  0.79066600  0.79078700  0.51032900  1
  O  O46  1  0.29066600  0.79078700  0.98967100  1
  O  O47  1  0.79066600  0.70921300  0.01032900  1
  O  O48  1  0.70933400  0.20921300  0.01032900  1
  O  O49  1  0.20933400  0.29078700  0.98967100  1
  O  O50  1  0.70933400  0.29078700  0.51032900  1
  O  O51  1  0.29066600  0.70921300  0.48967100  1
  O  O52  1  0.21048000  0.28840500  0.15027400  1
  O  O53  1  0.78952000  0.71159500  0.84972600  1
  O  O54  1  0.28952000  0.71159500  0.65027400  1
  O  O55  1  0.78952000  0.78840500  0.34972600  1
  O  O56  1  0.71048000  0.28840500  0.34972600  1
  O  O57  1  0.21048000  0.21159500  0.65027400  1
  O  O58  1  0.71048000  0.21159500  0.84972600  1
  O  O59  1  0.28952000  0.78840500  0.15027400  1
  O  O60  1  0.05996000  0.48263300  0.28773900  1
  O  O61  1  0.94004000  0.51736700  0.71226100  1
  O  O62  1  0.44004000  0.51736700  0.78773900  1
  O  O63  1  0.94004000  0.98263300  0.21226100  1
  O  O64  1  0.55996000  0.48263300  0.21226100  1
  O  O65  1  0.05996000  0.01736700  0.78773900  1
  O  O66  1  0.55996000  0.01736700  0.71226100  1
  O  O67  1  0.44004000  0.98263300  0.28773900  1
