# generated using pymatgen
data_Sr2SmBeO5
_symmetry_space_group_name_H-M   'P 1'
_cell_length_a   6.58135500
_cell_length_b   7.40979100
_cell_length_c   9.67549600
_cell_angle_alpha   90.00000000
_cell_angle_beta   90.00000000
_cell_angle_gamma   90.00000000
_symmetry_Int_Tables_number   1
_chemical_formula_structural   Sr2SmBeO5
_chemical_formula_sum   'Sr8 Sm4 Be4 O20'
_cell_volume   471.83973749
_cell_formula_units_Z   4
loop_
 _symmetry_equiv_pos_site_id
 _symmetry_equiv_pos_as_xyz
  1  'x, y, z'
loop_
 _atom_site_type_symbol
 _atom_site_label
 _atom_site_symmetry_multiplicity
 _atom_site_fract_x
 _atom_site_fract_y
 _atom_site_fract_z
 _atom_site_occupancy
  Sr  Sr0  1  0.58731400  0.52475900  0.82688800  1
  Sr  Sr1  1  0.41268600  0.47524100  0.17311200  1
  Sr  Sr2  1  0.08731400  0.47524100  0.67311200  1
  Sr  Sr3  1  0.41268600  0.02475900  0.17311200  1
  Sr  Sr4  1  0.91268600  0.52475900  0.32688800  1
  Sr  Sr5  1  0.58731400  0.97524100  0.82688800  1
  Sr  Sr6  1  0.91268600  0.97524100  0.32688800  1
  Sr  Sr7  1  0.08731400  0.02475900  0.67311200  1
  Sm  Sm8  1  0.09175200  0.75000000  0.97159600  1
  Sm  Sm9  1  0.90824800  0.25000000  0.02840400  1
  Sm  Sm10  1  0.59175200  0.25000000  0.52840400  1
  Sm  Sm11  1  0.40824800  0.75000000  0.47159600  1
  Be  Be12  1  0.81152300  0.75000000  0.60256600  1
  Be  Be13  1  0.18847700  0.25000000  0.39743400  1
  Be  Be14  1  0.31152300  0.25000000  0.89743400  1
  Be  Be15  1  0.68847700  0.75000000  0.10256600  1
  O  O16  1  0.32747600  0.75000000  0.71524500  1
  O  O17  1  0.67252400  0.25000000  0.28475500  1
  O  O18  1  0.82747600  0.25000000  0.78475500  1
  O  O19  1  0.17252400  0.75000000  0.21524500  1
  O  O20  1  0.68715000  0.56365700  0.56402000  1
  O  O21  1  0.31285000  0.43634300  0.43598000  1
  O  O22  1  0.18715000  0.43634300  0.93598000  1
  O  O23  1  0.31285000  0.06365700  0.43598000  1
  O  O24  1  0.81285000  0.56365700  0.06402000  1
  O  O25  1  0.68715000  0.93634300  0.56402000  1
  O  O26  1  0.81285000  0.93634300  0.06402000  1
  O  O27  1  0.18715000  0.06365700  0.93598000  1
  O  O28  1  0.03194400  0.75000000  0.51307700  1
  O  O29  1  0.96805600  0.25000000  0.48692300  1
  O  O30  1  0.53194400  0.25000000  0.98692300  1
  O  O31  1  0.46805600  0.75000000  0.01307700  1
  O  O32  1  0.87501900  0.75000000  0.77057800  1
  O  O33  1  0.12498100  0.25000000  0.22942200  1
  O  O34  1  0.37501900  0.25000000  0.72942200  1
  O  O35  1  0.62498100  0.75000000  0.27057800  1
