# generated using pymatgen
data_Sr3TiSi4H2O13
_symmetry_space_group_name_H-M   'P 1'
_cell_length_a   7.72902300
_cell_length_b   7.77907000
_cell_length_c   11.16006675
_cell_angle_alpha   77.03471416
_cell_angle_beta   90.00000000
_cell_angle_gamma   90.00000000
_symmetry_Int_Tables_number   1
_chemical_formula_structural   Sr3TiSi4H2O13
_chemical_formula_sum   'Sr6 Ti2 Si8 H4 O26'
_cell_volume   653.88845310
_cell_formula_units_Z   2
loop_
 _symmetry_equiv_pos_site_id
 _symmetry_equiv_pos_as_xyz
  1  'x, y, z'
loop_
 _atom_site_type_symbol
 _atom_site_label
 _atom_site_symmetry_multiplicity
 _atom_site_fract_x
 _atom_site_fract_y
 _atom_site_fract_z
 _atom_site_occupancy
  Sr  Sr0  1  0.25000000  0.65570200  0.11096700  1
  Sr  Sr1  1  0.75000000  0.34429800  0.88903300  1
  Sr  Sr2  1  0.25000000  0.38958200  0.73382900  1
  Sr  Sr3  1  0.75000000  0.61041800  0.26617100  1
  Sr  Sr4  1  0.25000000  0.27762400  0.41287100  1
  Sr  Sr5  1  0.75000000  0.72237600  0.58712900  1
  Ti  Ti6  1  0.50000000  0.00000000  0.00000000  1
  Ti  Ti7  1  0.00000000  0.00000000  0.00000000  1
  Si  Si8  1  0.45486900  0.87330900  0.30397100  1
  Si  Si9  1  0.54513100  0.12669100  0.69602900  1
  Si  Si10  1  0.95486900  0.12669100  0.69602900  1
  Si  Si11  1  0.04513100  0.87330900  0.30397100  1
  Si  Si12  1  0.45712200  0.74198700  0.79825800  1
  Si  Si13  1  0.54287800  0.25801300  0.20174200  1
  Si  Si14  1  0.95712200  0.25801300  0.20174200  1
  Si  Si15  1  0.04287800  0.74198700  0.79825800  1
  H  H16  1  0.25000000  0.39218800  0.98072200  1
  H  H17  1  0.75000000  0.60781200  0.01927800  1
  H  H18  1  0.25000000  0.59230300  0.50019400  1
  H  H19  1  0.75000000  0.40769700  0.49980600  1
  O  O20  1  0.45520400  0.43271000  0.23077400  1
  O  O21  1  0.54479600  0.56729000  0.76922600  1
  O  O22  1  0.95520400  0.56729000  0.76922600  1
  O  O23  1  0.04479600  0.43271000  0.23077400  1
  O  O24  1  0.95834400  0.91247500  0.69497400  1
  O  O25  1  0.04165600  0.08752500  0.30502600  1
  O  O26  1  0.45834400  0.08752500  0.30502600  1
  O  O27  1  0.54165600  0.91247500  0.69497400  1
  O  O28  1  0.97380600  0.84818800  0.16978600  1
  O  O29  1  0.02619400  0.15181200  0.83021400  1
  O  O30  1  0.47380600  0.15181200  0.83021400  1
  O  O31  1  0.52619400  0.84818800  0.16978600  1
  O  O32  1  0.25000000  0.99353700  0.02392600  1
  O  O33  1  0.75000000  0.00646300  0.97607400  1
  O  O34  1  0.25000000  0.81019600  0.31146300  1
  O  O35  1  0.75000000  0.18980400  0.68853700  1
  O  O36  1  0.93814200  0.74828800  0.41087000  1
  O  O37  1  0.06185800  0.25171200  0.58913000  1
  O  O38  1  0.43814200  0.25171200  0.58913000  1
  O  O39  1  0.56185800  0.74828800  0.41087000  1
  O  O40  1  0.97506600  0.22577500  0.06326900  1
  O  O41  1  0.02493400  0.77422500  0.93673100  1
  O  O42  1  0.47506600  0.77422500  0.93673100  1
  O  O43  1  0.52493400  0.22577500  0.06326900  1
  O  O44  1  0.25000000  0.72644600  0.76234100  1
  O  O45  1  0.75000000  0.27355400  0.23765900  1
