# generated using pymatgen
data_Sr2TlBr5
_symmetry_space_group_name_H-M   'P 1'
_cell_length_a   8.51012900
_cell_length_b   9.44169200
_cell_length_c   13.51188962
_cell_angle_alpha   89.97190313
_cell_angle_beta   90.00000000
_cell_angle_gamma   90.00000000
_symmetry_Int_Tables_number   1
_chemical_formula_structural   Sr2TlBr5
_chemical_formula_sum   'Sr8 Tl4 Br20'
_cell_volume   1085.68042913
_cell_formula_units_Z   4
loop_
 _symmetry_equiv_pos_site_id
 _symmetry_equiv_pos_as_xyz
  1  'x, y, z'
loop_
 _atom_site_type_symbol
 _atom_site_label
 _atom_site_symmetry_multiplicity
 _atom_site_fract_x
 _atom_site_fract_y
 _atom_site_fract_z
 _atom_site_occupancy
  Sr  Sr0  1  0.47700300  0.99984100  0.82099300  1
  Sr  Sr1  1  0.52299700  0.00015900  0.17900700  1
  Sr  Sr2  1  0.97700300  0.00015900  0.67900700  1
  Sr  Sr3  1  0.02299700  0.99984100  0.32099300  1
  Sr  Sr4  1  0.42494600  0.75161300  0.50681100  1
  Sr  Sr5  1  0.57505400  0.24838700  0.49318900  1
  Sr  Sr6  1  0.92494600  0.24838700  0.99318900  1
  Sr  Sr7  1  0.07505400  0.75161300  0.00681100  1
  Tl  Tl8  1  0.48519000  0.50881800  0.82198400  1
  Tl  Tl9  1  0.51481000  0.49118200  0.17801600  1
  Tl  Tl10  1  0.98519000  0.49118200  0.67801600  1
  Tl  Tl11  1  0.01481000  0.50881800  0.32198400  1
  Br  Br12  1  0.33792000  0.46266500  0.58991200  1
  Br  Br13  1  0.66208000  0.53733500  0.41008800  1
  Br  Br14  1  0.83792000  0.53733500  0.91008800  1
  Br  Br15  1  0.16208000  0.46266500  0.08991200  1
  Br  Br16  1  0.66201700  0.78153900  0.68447000  1
  Br  Br17  1  0.33798300  0.21846100  0.31553000  1
  Br  Br18  1  0.16201700  0.21846100  0.81553000  1
  Br  Br19  1  0.83798300  0.78153900  0.18447000  1
  Br  Br20  1  0.19441800  0.77384900  0.78354400  1
  Br  Br21  1  0.80558200  0.22615100  0.21645600  1
  Br  Br22  1  0.69441800  0.22615100  0.71645600  1
  Br  Br23  1  0.30558200  0.77384900  0.28354400  1
  Br  Br24  1  0.04502800  0.78328900  0.50284600  1
  Br  Br25  1  0.95497200  0.21671100  0.49715400  1
  Br  Br26  1  0.54502800  0.21671100  0.99715400  1
  Br  Br27  1  0.45497200  0.78328900  0.00284600  1
  Br  Br28  1  0.83873100  0.95779000  0.90120900  1
  Br  Br29  1  0.16126900  0.04221000  0.09879100  1
  Br  Br30  1  0.33873100  0.04221000  0.59879100  1
  Br  Br31  1  0.66126900  0.95779000  0.40120900  1
