# generated using pymatgen
data_Sr2Ti5Al17O38
_symmetry_space_group_name_H-M   'P 1'
_cell_length_a   12.73043398
_cell_length_b   12.73043398
_cell_length_c   9.85129560
_cell_angle_alpha   82.50996925
_cell_angle_beta   82.50996925
_cell_angle_gamma   51.95380610
_symmetry_Int_Tables_number   1
_chemical_formula_structural   Sr2Ti5Al17O38
_chemical_formula_sum   'Sr4 Ti10 Al34 O76'
_cell_volume   1244.00954935
_cell_formula_units_Z   2
loop_
 _symmetry_equiv_pos_site_id
 _symmetry_equiv_pos_as_xyz
  1  'x, y, z'
loop_
 _atom_site_type_symbol
 _atom_site_label
 _atom_site_symmetry_multiplicity
 _atom_site_fract_x
 _atom_site_fract_y
 _atom_site_fract_z
 _atom_site_occupancy
  Sr  Sr0  1  0.18634600  0.92264500  0.56279300  1
  Sr  Sr1  1  0.81365400  0.07735500  0.43720700  1
  Sr  Sr2  1  0.07735500  0.81365400  0.93720700  1
  Sr  Sr3  1  0.92264500  0.18634600  0.06279300  1
  Ti  Ti4  1  0.89254200  0.10745800  0.75000000  1
  Ti  Ti5  1  0.10745800  0.89254200  0.25000000  1
  Ti  Ti6  1  0.56778600  0.81040900  0.86972200  1
  Ti  Ti7  1  0.43221400  0.18959100  0.13027800  1
  Ti  Ti8  1  0.18959100  0.43221400  0.63027800  1
  Ti  Ti9  1  0.81040900  0.56778600  0.36972200  1
  Ti  Ti10  1  0.77834100  0.01576500  0.13427400  1
  Ti  Ti11  1  0.22165900  0.98423500  0.86572600  1
  Ti  Ti12  1  0.98423500  0.22165900  0.36572600  1
  Ti  Ti13  1  0.01576500  0.77834100  0.63427400  1
  Al  Al14  1  0.52866200  0.26566700  0.61305900  1
  Al  Al15  1  0.47133800  0.73433300  0.38694100  1
  Al  Al16  1  0.73433300  0.47133800  0.88694100  1
  Al  Al17  1  0.26566700  0.52866200  0.11305900  1
  Al  Al18  1  0.65372000  0.13353600  0.86667000  1
  Al  Al19  1  0.34628000  0.86646400  0.13333000  1
  Al  Al20  1  0.86646400  0.34628000  0.63333000  1
  Al  Al21  1  0.13353600  0.65372000  0.36667000  1
  Al  Al22  1  0.62209400  0.37790600  0.75000000  1
  Al  Al23  1  0.37790600  0.62209400  0.25000000  1
  Al  Al24  1  0.34833200  0.59617700  0.58504900  1
  Al  Al25  1  0.65166800  0.40382300  0.41495100  1
  Al  Al26  1  0.40382300  0.65166800  0.91495100  1
  Al  Al27  1  0.59617700  0.34833200  0.08504900  1
  Al  Al28  1  0.39483500  0.14949500  0.81901800  1
  Al  Al29  1  0.60516500  0.85050500  0.18098200  1
  Al  Al30  1  0.85050500  0.60516500  0.68098200  1
  Al  Al31  1  0.14949500  0.39483500  0.31901800  1
  Al  Al32  1  0.80145100  0.80502200  0.91058900  1
  Al  Al33  1  0.19854900  0.19497800  0.08941100  1
  Al  Al34  1  0.19497800  0.19854900  0.58941100  1
  Al  Al35  1  0.80502200  0.80145100  0.41058900  1
  Al  Al36  1  0.45771700  0.93258000  0.59151900  1
  Al  Al37  1  0.54228300  0.06742000  0.40848100  1
  Al  Al38  1  0.06742000  0.54228300  0.90848100  1
  Al  Al39  1  0.93258000  0.45771700  0.09151900  1
  Al  Al40  1  0.67581100  0.93756600  0.65521800  1
  Al  Al41  1  0.32418900  0.06243400  0.34478200  1
  Al  Al42  1  0.06243400  0.32418900  0.84478200  1
  Al  Al43  1  0.93756600  0.67581100  0.15521800  1
  Al  Al44  1  0.58983900  0.61553400  0.63358900  1
  Al  Al45  1  0.41016100  0.38446600  0.36641100  1
  Al  Al46  1  0.38446600  0.41016100  0.86641100  1
  Al  Al47  1  0.61553400  0.58983900  0.13358900  1
  O  O48  1  0.27344700  0.02280900  0.69043600  1
  O  O49  1  0.72655300  0.97719100  0.30956400  1
  O  O50  1  0.97719100  0.72655300  0.80956400  1
  O  O51  1  0.02280800  0.27344700  0.19043600  1
  O  O52  1  0.56850700  0.32670500  0.91825900  1
  O  O53  1  0.43149300  0.67329500  0.08174100  1
  O  O54  1  0.67329500  0.43149300  0.58174100  1
  O  O55  1  0.32670500  0.56850700  0.41825900  1
  O  O56  1  0.81951200  0.07110000  0.91937300  1
  O  O57  1  0.18048800  0.92890000  0.08062700  1
  O  O58  1  0.92890000  0.18048800  0.58062700  1
  O  O59  1  0.07110000  0.81951200  0.41937300  1
  O  O60  1  0.71680000  0.97117500  0.80861500  1
  O  O61  1  0.28320000  0.02882500  0.19138500  1
  O  O62  1  0.02882500  0.28320000  0.69138500  1
  O  O63  1  0.97117500  0.71680000  0.30861500  1
  O  O64  1  0.68838100  0.20710300  0.69600200  1
  O  O65  1  0.31161900  0.79289700  0.30399800  1
  O  O66  1  0.79289700  0.31161900  0.80399800  1
  O  O67  1  0.20710300  0.68838100  0.19600200  1
  O  O68  1  0.62512100  0.89759300  0.50620000  1
  O  O69  1  0.37487900  0.10240700  0.49380000  1
  O  O70  1  0.10240700  0.37487900  0.99380000  1
  O  O71  1  0.89759300  0.62512100  0.00620000  1
  O  O72  1  0.43031900  0.67272000  0.55546800  1
  O  O73  1  0.56968100  0.32728000  0.44453200  1
  O  O74  1  0.32728000  0.56968100  0.94453200  1
  O  O75  1  0.67272000  0.43031900  0.05546800  1
  O  O76  1  0.74834300  0.75991300  0.76396600  1
  O  O77  1  0.25165700  0.24008700  0.23603400  1
  O  O78  1  0.24008700  0.25165700  0.73603400  1
  O  O79  1  0.75991300  0.74834300  0.26396600  1
  O  O80  1  0.36001900  0.35367100  0.54735600  1
  O  O81  1  0.63998100  0.64632900  0.45264400  1
  O  O82  1  0.64632900  0.63998100  0.95264400  1
  O  O83  1  0.35367100  0.36001900  0.04735600  1
  O  O84  1  0.28322700  0.80893100  0.83603400  1
  O  O85  1  0.71677300  0.19106900  0.16396600  1
  O  O86  1  0.19106900  0.71677300  0.66396600  1
  O  O87  1  0.80893100  0.28322700  0.33603400  1
  O  O88  1  0.47762300  0.22848700  0.79708400  1
  O  O89  1  0.52237700  0.77151300  0.20291600  1
  O  O90  1  0.77151300  0.52237700  0.70291600  1
  O  O91  1  0.22848700  0.47762300  0.29708400  1
  O  O92  1  0.60475800  0.10342700  0.04612400  1
  O  O93  1  0.39524200  0.89657300  0.95387600  1
  O  O94  1  0.89657300  0.39524200  0.45387600  1
  O  O95  1  0.10342700  0.60475800  0.54612400  1
  O  O96  1  0.59892400  0.10318200  0.55255900  1
  O  O97  1  0.40107600  0.89681800  0.44744100  1
  O  O98  1  0.89681800  0.40107600  0.94744100  1
  O  O99  1  0.10318200  0.59892400  0.05255900  1
  O  O100  1  0.84550200  0.85311900  0.55513700  1
  O  O101  1  0.15449800  0.14688100  0.44486300  1
  O  O102  1  0.14688100  0.15449800  0.94486300  1
  O  O103  1  0.85311900  0.84550200  0.05513700  1
  O  O104  1  0.50229000  0.99000700  0.74377400  1
  O  O105  1  0.49771000  0.00999300  0.25622600  1
  O  O106  1  0.00999300  0.49771000  0.75622600  1
  O  O107  1  0.99000700  0.50229000  0.24377400  1
  O  O108  1  0.63706000  0.85476300  0.00038800  1
  O  O109  1  0.36294000  0.14523700  0.99961200  1
  O  O110  1  0.14523700  0.36294000  0.49961200  1
  O  O111  1  0.85476300  0.63706000  0.50038800  1
  O  O112  1  0.95472000  0.95726000  0.16472900  1
  O  O113  1  0.04528000  0.04274000  0.83527100  1
  O  O114  1  0.04274000  0.04528000  0.33527100  1
  O  O115  1  0.95726000  0.95472000  0.66472900  1
  O  O116  1  0.53334300  0.77456500  0.69782400  1
  O  O117  1  0.46665700  0.22543500  0.30217600  1
  O  O118  1  0.22543500  0.46665700  0.80217600  1
  O  O119  1  0.77456500  0.53334300  0.19782400  1
  O  O120  1  0.45164400  0.44347000  0.69267900  1
  O  O121  1  0.54835600  0.55653000  0.30732100  1
  O  O122  1  0.55653000  0.54835600  0.80732100  1
  O  O123  1  0.44347000  0.45164400  0.19267900  1
