# generated using pymatgen
data_Sr2CoSbO6
_symmetry_space_group_name_H-M   'P 1'
_cell_length_a   5.70865400
_cell_length_b   5.75264800
_cell_length_c   9.64250432
_cell_angle_alpha   54.02705210
_cell_angle_beta   90.00000000
_cell_angle_gamma   90.00000000
_symmetry_Int_Tables_number   1
_chemical_formula_structural   Sr2CoSbO6
_chemical_formula_sum   'Sr4 Co2 Sb2 O12'
_cell_volume   256.27008528
_cell_formula_units_Z   2
loop_
 _symmetry_equiv_pos_site_id
 _symmetry_equiv_pos_as_xyz
  1  'x, y, z'
loop_
 _atom_site_type_symbol
 _atom_site_label
 _atom_site_symmetry_multiplicity
 _atom_site_fract_x
 _atom_site_fract_y
 _atom_site_fract_z
 _atom_site_occupancy
  Sr  Sr0  1  0.49406700  0.75234100  0.24941300  1
  Sr  Sr1  1  0.50593300  0.24765900  0.75058700  1
  Sr  Sr2  1  0.99406700  0.24765900  0.25058700  1
  Sr  Sr3  1  0.00593300  0.75234100  0.74941300  1
  Co  Co4  1  0.00000000  0.50000000  0.50000000  1
  Co  Co5  1  0.50000000  0.50000000  0.00000000  1
  Sb  Sb6  1  0.00000000  0.00000000  0.00000000  1
  Sb  Sb7  1  0.50000000  0.00000000  0.50000000  1
  O  O8  1  0.00361400  0.68911600  0.25695100  1
  O  O9  1  0.99638600  0.31088400  0.74304900  1
  O  O10  1  0.50361400  0.31088400  0.24304900  1
  O  O11  1  0.49638600  0.68911600  0.75695100  1
  O  O12  1  0.23758700  0.22249100  0.02939300  1
  O  O13  1  0.76241300  0.77750900  0.97060700  1
  O  O14  1  0.73758700  0.77750900  0.47060700  1
  O  O15  1  0.26241300  0.22249100  0.52939300  1
  O  O16  1  0.74569100  0.20502700  0.02994500  1
  O  O17  1  0.25430900  0.79497300  0.97005500  1
  O  O18  1  0.24569100  0.79497300  0.47005500  1
  O  O19  1  0.75430900  0.20502700  0.52994500  1
