# generated using pymatgen
data_SmAl3(BO3)4
_symmetry_space_group_name_H-M   'P 1'
_cell_length_a   5.95951573
_cell_length_b   5.95951573
_cell_length_c   11.19933665
_cell_angle_alpha   81.88480341
_cell_angle_beta   81.88480341
_cell_angle_gamma   104.41891251
_symmetry_Int_Tables_number   1
_chemical_formula_structural   SmAl3(BO3)4
_chemical_formula_sum   'Sm2 Al6 B8 O24'
_cell_volume   374.86375316
_cell_formula_units_Z   2
loop_
 _symmetry_equiv_pos_site_id
 _symmetry_equiv_pos_as_xyz
  1  'x, y, z'
loop_
 _atom_site_type_symbol
 _atom_site_label
 _atom_site_symmetry_multiplicity
 _atom_site_fract_x
 _atom_site_fract_y
 _atom_site_fract_z
 _atom_site_occupancy
  Sm  Sm0  1  0.96394200  0.03605800  0.75000000  1
  Sm  Sm1  1  0.03605800  0.96394200  0.25000000  1
  Al  Al2  1  0.69530000  0.19501800  0.02818600  1
  Al  Al3  1  0.30470000  0.80498200  0.97181400  1
  Al  Al4  1  0.80498200  0.30470000  0.47181400  1
  Al  Al5  1  0.19501800  0.69530000  0.52818600  1
  Al  Al6  1  0.41162200  0.58837800  0.75000000  1
  Al  Al7  1  0.58837800  0.41162200  0.25000000  1
  B  B8  1  0.49297600  0.12062100  0.72223100  1
  B  B9  1  0.50702400  0.87937900  0.27776900  1
  B  B10  1  0.87937900  0.50702400  0.77776900  1
  B  B11  1  0.12062100  0.49297600  0.22223100  1
  B  B12  1  0.71984400  0.77691400  0.50474800  1
  B  B13  1  0.28015600  0.22308600  0.49525200  1
  B  B14  1  0.22308600  0.28015600  0.99525200  1
  B  B15  1  0.77691400  0.71984400  0.00474800  1
  O  O16  1  0.19302100  0.99732000  0.56349500  1
  O  O17  1  0.80697900  0.00268000  0.43650500  1
  O  O18  1  0.00268000  0.80697900  0.93650500  1
  O  O19  1  0.99732000  0.19302100  0.06349500  1
  O  O20  1  0.42237800  0.89567300  0.79484300  1
  O  O21  1  0.57762200  0.10432700  0.20515700  1
  O  O22  1  0.10432700  0.57762200  0.70515700  1
  O  O23  1  0.89567300  0.42237800  0.29484300  1
  O  O24  1  0.69905600  0.17983400  0.63850700  1
  O  O25  1  0.30094400  0.82016600  0.36149300  1
  O  O26  1  0.82016600  0.30094400  0.86149300  1
  O  O27  1  0.17983400  0.69905600  0.13850700  1
  O  O28  1  0.63067800  0.86995600  0.99676800  1
  O  O29  1  0.36932200  0.13004400  0.00323200  1
  O  O30  1  0.13004400  0.36932200  0.50323200  1
  O  O31  1  0.86995600  0.63067800  0.49676800  1
  O  O32  1  0.35320100  0.26874600  0.74145500  1
  O  O33  1  0.64679900  0.73125400  0.25854500  1
  O  O34  1  0.73125400  0.64679900  0.75854500  1
  O  O35  1  0.26874600  0.35320100  0.24145500  1
  O  O36  1  0.49374900  0.69787100  0.57367400  1
  O  O37  1  0.50625100  0.30212900  0.42632600  1
  O  O38  1  0.30212900  0.50625100  0.92632600  1
  O  O39  1  0.69787100  0.49374900  0.07367400  1
