# generated using pymatgen
data_Sn7(SI3)2
_symmetry_space_group_name_H-M   'P 1'
_cell_length_a   7.66401694
_cell_length_b   7.66401694
_cell_length_c   17.98022560
_cell_angle_alpha   69.60902004
_cell_angle_beta   69.60902004
_cell_angle_gamma   33.87883683
_symmetry_Int_Tables_number   1
_chemical_formula_structural   Sn7(SI3)2
_chemical_formula_sum   'Sn7 S2 I6'
_cell_volume   548.27614382
_cell_formula_units_Z   1
loop_
 _symmetry_equiv_pos_site_id
 _symmetry_equiv_pos_as_xyz
  1  'x, y, z'
loop_
 _atom_site_type_symbol
 _atom_site_label
 _atom_site_symmetry_multiplicity
 _atom_site_fract_x
 _atom_site_fract_y
 _atom_site_fract_z
 _atom_site_occupancy
  Sn  Sn0  1  0.60074900  0.60074900  0.05237400  1
  Sn  Sn1  1  0.39925100  0.39925100  0.94762600  1
  Sn  Sn2  1  0.62506800  0.62506800  0.52678400  1
  Sn  Sn3  1  0.37493200  0.37493200  0.47321600  1
  Sn  Sn4  1  0.00000000  0.00000000  0.00000000  1
  Sn  Sn5  1  0.78056800  0.78056800  0.27864300  1
  Sn  Sn6  1  0.21943200  0.21943200  0.72135700  1
  S  S7  1  0.80488000  0.80488000  0.41948600  1
  S  S8  1  0.19512000  0.19512000  0.58051400  1
  I  I9  1  0.24900000  0.24900000  0.11921700  1
  I  I10  1  0.75100000  0.75100000  0.88078300  1
  I  I11  1  0.44682600  0.44682600  0.24060200  1
  I  I12  1  0.55317400  0.55317400  0.75939800  1
  I  I13  1  0.88604200  0.88604200  0.62531700  1
  I  I14  1  0.11395800  0.11395800  0.37468300  1
