# generated using pymatgen
data_Sm4As3
_symmetry_space_group_name_H-M   'P 1'
_cell_length_a   7.71157690
_cell_length_b   7.71157690
_cell_length_c   7.71157690
_cell_angle_alpha   109.47122063
_cell_angle_beta   109.47122063
_cell_angle_gamma   109.47122063
_symmetry_Int_Tables_number   1
_chemical_formula_structural   Sm4As3
_chemical_formula_sum   'Sm8 As6'
_cell_volume   353.02681192
_cell_formula_units_Z   2
loop_
 _symmetry_equiv_pos_site_id
 _symmetry_equiv_pos_as_xyz
  1  'x, y, z'
loop_
 _atom_site_type_symbol
 _atom_site_label
 _atom_site_symmetry_multiplicity
 _atom_site_fract_x
 _atom_site_fract_y
 _atom_site_fract_z
 _atom_site_occupancy
  Sm  Sm0  1  0.36490400  0.36490400  0.36490400  1
  Sm  Sm1  1  0.13509600  0.50000000  0.00000000  1
  Sm  Sm2  1  0.00000000  0.13509600  0.50000000  1
  Sm  Sm3  1  0.86490400  0.86490400  0.86490400  1
  Sm  Sm4  1  0.50000000  0.00000000  0.13509600  1
  Sm  Sm5  1  0.63509600  0.50000000  0.00000000  1
  Sm  Sm6  1  0.50000000  0.00000000  0.63509600  1
  Sm  Sm7  1  0.00000000  0.63509600  0.50000000  1
  As  As8  1  0.12500000  0.87500000  0.25000000  1
  As  As9  1  0.37500000  0.62500000  0.75000000  1
  As  As10  1  0.87500000  0.25000000  0.12500000  1
  As  As11  1  0.62500000  0.75000000  0.37500000  1
  As  As12  1  0.25000000  0.12500000  0.87500000  1
  As  As13  1  0.75000000  0.37500000  0.62500000  1
