# generated using pymatgen
data_Sr2GdBeO5
_symmetry_space_group_name_H-M   'P 1'
_cell_length_a   6.58424200
_cell_length_b   7.34284200
_cell_length_c   9.65076700
_cell_angle_alpha   90.00000000
_cell_angle_beta   90.00000000
_cell_angle_gamma   90.00000000
_symmetry_Int_Tables_number   1
_chemical_formula_structural   Sr2GdBeO5
_chemical_formula_sum   'Sr8 Gd4 Be4 O20'
_cell_volume   466.58610210
_cell_formula_units_Z   4
loop_
 _symmetry_equiv_pos_site_id
 _symmetry_equiv_pos_as_xyz
  1  'x, y, z'
loop_
 _atom_site_type_symbol
 _atom_site_label
 _atom_site_symmetry_multiplicity
 _atom_site_fract_x
 _atom_site_fract_y
 _atom_site_fract_z
 _atom_site_occupancy
  Sr  Sr0  1  0.91203300  0.97635700  0.67358200  1
  Sr  Sr1  1  0.08796700  0.02364300  0.32641800  1
  Sr  Sr2  1  0.41203300  0.02364300  0.82641800  1
  Sr  Sr3  1  0.08796700  0.47635700  0.32641800  1
  Sr  Sr4  1  0.58796700  0.97635700  0.17358200  1
  Sr  Sr5  1  0.91203300  0.52364300  0.67358200  1
  Sr  Sr6  1  0.58796700  0.52364300  0.17358200  1
  Sr  Sr7  1  0.41203300  0.47635700  0.82641800  1
  Gd  Gd8  1  0.41342500  0.75000000  0.52467800  1
  Gd  Gd9  1  0.58657500  0.25000000  0.47532200  1
  Gd  Gd10  1  0.91342500  0.25000000  0.97532200  1
  Gd  Gd11  1  0.08657500  0.75000000  0.02467800  1
  Be  Be12  1  0.68735500  0.75000000  0.89817800  1
  Be  Be13  1  0.31264500  0.25000000  0.10182200  1
  Be  Be14  1  0.18735500  0.25000000  0.60182200  1
  Be  Be15  1  0.81264500  0.75000000  0.39817800  1
  O  O16  1  0.16730300  0.75000000  0.79176100  1
  O  O17  1  0.83269700  0.25000000  0.20823900  1
  O  O18  1  0.66730300  0.25000000  0.70823900  1
  O  O19  1  0.33269700  0.75000000  0.29176100  1
  O  O20  1  0.62295800  0.75000000  0.72894600  1
  O  O21  1  0.37704200  0.25000000  0.27105400  1
  O  O22  1  0.12295800  0.25000000  0.77105400  1
  O  O23  1  0.87704200  0.75000000  0.22894600  1
  O  O24  1  0.81375800  0.93738100  0.93709900  1
  O  O25  1  0.18624200  0.06261900  0.06290100  1
  O  O26  1  0.31375800  0.06261900  0.56290100  1
  O  O27  1  0.18624200  0.43738100  0.06290100  1
  O  O28  1  0.68624200  0.93738100  0.43709900  1
  O  O29  1  0.81375800  0.56261900  0.93709900  1
  O  O30  1  0.68624200  0.56261900  0.43709900  1
  O  O31  1  0.31375800  0.43738100  0.56290100  1
  O  O32  1  0.46941200  0.75000000  0.98855300  1
  O  O33  1  0.53058800  0.25000000  0.01144700  1
  O  O34  1  0.96941200  0.25000000  0.51144700  1
  O  O35  1  0.03058800  0.75000000  0.48855300  1
