# generated using pymatgen
data_Sm4Rh
_symmetry_space_group_name_H-M   'P 1'
_cell_length_a   7.76578184
_cell_length_b   7.76578184
_cell_length_c   7.76578184
_cell_angle_alpha   60.00000000
_cell_angle_beta   60.00000000
_cell_angle_gamma   60.00000000
_symmetry_Int_Tables_number   1
_chemical_formula_structural   Sm4Rh
_chemical_formula_sum   'Sm8 Rh2'
_cell_volume   331.16204823
_cell_formula_units_Z   2
loop_
 _symmetry_equiv_pos_site_id
 _symmetry_equiv_pos_as_xyz
  1  'x, y, z'
loop_
 _atom_site_type_symbol
 _atom_site_label
 _atom_site_symmetry_multiplicity
 _atom_site_fract_x
 _atom_site_fract_y
 _atom_site_fract_z
 _atom_site_occupancy
  Sm  Sm0  1  0.61129900  0.61129900  0.61129900  1
  Sm  Sm1  1  0.16610200  0.61129900  0.61129900  1
  Sm  Sm2  1  0.61129900  0.16610200  0.61129900  1
  Sm  Sm3  1  0.58389800  0.13870100  0.13870100  1
  Sm  Sm4  1  0.13870100  0.13870100  0.13870100  1
  Sm  Sm5  1  0.61129900  0.61129900  0.16610200  1
  Sm  Sm6  1  0.13870100  0.58389800  0.13870100  1
  Sm  Sm7  1  0.13870100  0.13870100  0.58389800  1
  Rh  Rh8  1  0.00000000  0.00000000  0.00000000  1
  Rh  Rh9  1  0.75000000  0.75000000  0.75000000  1
