# generated using pymatgen
data_UH5(SeO5)2
_symmetry_space_group_name_H-M   'P 1'
_cell_length_a   8.19026100
_cell_length_b   11.89735000
_cell_length_c   12.60809100
_cell_angle_alpha   90.00000000
_cell_angle_beta   90.00000000
_cell_angle_gamma   90.00000000
_symmetry_Int_Tables_number   1
_chemical_formula_structural   UH5(SeO5)2
_chemical_formula_sum   'U4 H20 Se8 O40'
_cell_volume   1228.56266800
_cell_formula_units_Z   4
loop_
 _symmetry_equiv_pos_site_id
 _symmetry_equiv_pos_as_xyz
  1  'x, y, z'
loop_
 _atom_site_type_symbol
 _atom_site_label
 _atom_site_symmetry_multiplicity
 _atom_site_fract_x
 _atom_site_fract_y
 _atom_site_fract_z
 _atom_site_occupancy
  U  U0  1  0.80662700  0.75000000  0.75314600  1
  U  U1  1  0.19337300  0.25000000  0.24685400  1
  U  U2  1  0.30662700  0.25000000  0.74685400  1
  U  U3  1  0.69337300  0.75000000  0.25314600  1
  H  H4  1  0.12582800  0.75000000  0.52958100  1
  H  H5  1  0.87417200  0.25000000  0.47041900  1
  H  H6  1  0.62582800  0.25000000  0.97041900  1
  H  H7  1  0.37417200  0.75000000  0.02958100  1
  H  H8  1  0.26308300  0.75000000  0.81023400  1
  H  H9  1  0.73691700  0.25000000  0.18976600  1
  H  H10  1  0.76308300  0.25000000  0.68976600  1
  H  H11  1  0.23691700  0.75000000  0.31023400  1
  H  H12  1  0.02032100  0.75000000  0.06963900  1
  H  H13  1  0.97967900  0.25000000  0.93036100  1
  H  H14  1  0.52032100  0.25000000  0.43036100  1
  H  H15  1  0.47967900  0.75000000  0.56963900  1
  H  H16  1  0.84135400  0.47276300  0.47974100  1
  H  H17  1  0.15864600  0.52723700  0.52025900  1
  H  H18  1  0.34135400  0.52723700  0.02025900  1
  H  H19  1  0.15864600  0.97276300  0.52025900  1
  H  H20  1  0.65864600  0.47276300  0.97974100  1
  H  H21  1  0.84135400  0.02723700  0.47974100  1
  H  H22  1  0.65864600  0.02723700  0.97974100  1
  H  H23  1  0.34135400  0.97276300  0.02025900  1
  Se  Se24  1  0.52432000  0.51202400  0.82305100  1
  Se  Se25  1  0.47568000  0.48797600  0.17694900  1
  Se  Se26  1  0.02432000  0.48797600  0.67694900  1
  Se  Se27  1  0.47568000  0.01202400  0.17694900  1
  Se  Se28  1  0.97568000  0.51202400  0.32305000  1
  Se  Se29  1  0.52432000  0.98797600  0.82305100  1
  Se  Se30  1  0.97568000  0.98797600  0.32305000  1
  Se  Se31  1  0.02432000  0.01202400  0.67694900  1
  O  O32  1  0.80053400  0.75000000  0.89491900  1
  O  O33  1  0.19946600  0.25000000  0.10508100  1
  O  O34  1  0.30053400  0.25000000  0.60508100  1
  O  O35  1  0.69946600  0.75000000  0.39491900  1
  O  O36  1  0.86315800  0.04205400  0.60464000  1
  O  O37  1  0.13684200  0.95794600  0.39536000  1
  O  O38  1  0.36315800  0.95794600  0.89536000  1
  O  O39  1  0.13684200  0.54205400  0.39536000  1
  O  O40  1  0.63684200  0.04205400  0.10464000  1
  O  O41  1  0.86315800  0.45794600  0.60464000  1
  O  O42  1  0.63684200  0.45794600  0.10464000  1
  O  O43  1  0.36315800  0.54205400  0.89536000  1
  O  O44  1  0.19294000  0.51882800  0.59805800  1
  O  O45  1  0.80706000  0.48117200  0.40194200  1
  O  O46  1  0.69294000  0.48117200  0.90194200  1
  O  O47  1  0.80706000  0.01882800  0.40194200  1
  O  O48  1  0.30706000  0.51882800  0.09805800  1
  O  O49  1  0.19294000  0.98117200  0.59805800  1
  O  O50  1  0.30706000  0.98117200  0.09805800  1
  O  O51  1  0.69294000  0.01882800  0.90194200  1
  O  O52  1  0.59183000  0.61662900  0.74652000  1
  O  O53  1  0.40817000  0.38337100  0.25348000  1
  O  O54  1  0.09183000  0.38337100  0.75348000  1
  O  O55  1  0.40817000  0.11662900  0.25348000  1
  O  O56  1  0.90817000  0.61662900  0.24652000  1
  O  O57  1  0.59183000  0.88337100  0.74652000  1
  O  O58  1  0.90817000  0.88337100  0.24652000  1
  O  O59  1  0.09183000  0.11662900  0.75348000  1
  O  O60  1  0.82632600  0.75000000  0.61188400  1
  O  O61  1  0.17367400  0.25000000  0.38811600  1
  O  O62  1  0.32632600  0.25000000  0.88811600  1
  O  O63  1  0.67367400  0.75000000  0.11188400  1
  O  O64  1  0.99141000  0.59705200  0.75816600  1
  O  O65  1  0.00859000  0.40294800  0.24183400  1
  O  O66  1  0.49141000  0.40294800  0.74183400  1
  O  O67  1  0.00859000  0.09705200  0.24183400  1
  O  O68  1  0.50859000  0.59705200  0.25816600  1
  O  O69  1  0.99141000  0.90294800  0.75816600  1
  O  O70  1  0.50859000  0.90294800  0.25816600  1
  O  O71  1  0.49141000  0.09705200  0.74183400  1
