# generated using pymatgen
data_Y6MoO12
_symmetry_space_group_name_H-M   'P 1'
_cell_length_a   10.30315188
_cell_length_b   6.52263396
_cell_length_c   6.47332050
_cell_angle_alpha   120.99427990
_cell_angle_beta   96.99511795
_cell_angle_gamma   95.45035366
_symmetry_Int_Tables_number   1
_chemical_formula_structural   Y6MoO12
_chemical_formula_sum   'Y6 Mo1 O12'
_cell_volume   363.72785345
_cell_formula_units_Z   1
loop_
 _symmetry_equiv_pos_site_id
 _symmetry_equiv_pos_as_xyz
  1  'x, y, z'
loop_
 _atom_site_type_symbol
 _atom_site_label
 _atom_site_symmetry_multiplicity
 _atom_site_fract_x
 _atom_site_fract_y
 _atom_site_fract_z
 _atom_site_occupancy
  Y  Y0  1  0.08149900  0.73831000  0.35124700  1
  Y  Y1  1  0.91850100  0.26169000  0.64875300  1
  Y  Y2  1  0.64222300  0.04880300  0.19794200  1
  Y  Y3  1  0.35777700  0.95119700  0.80205800  1
  Y  Y4  1  0.71490500  0.73594200  0.60718300  1
  Y  Y5  1  0.28509500  0.26405800  0.39281700  1
  Mo  Mo6  1  0.00000000  0.00000000  0.00000000  1
  O  O7  1  0.95903200  0.88259700  0.64485800  1
  O  O8  1  0.04096800  0.11740300  0.35514200  1
  O  O9  1  0.98257200  0.67276900  0.93527000  1
  O  O10  1  0.01742800  0.32723100  0.06473000  1
  O  O11  1  0.81250100  0.98970200  0.99521900  1
  O  O12  1  0.18749900  0.01029800  0.00478100  1
  O  O13  1  0.54212300  0.80640500  0.78345900  1
  O  O14  1  0.45787700  0.19359500  0.21654100  1
  O  O15  1  0.77548700  0.38951200  0.47896200  1
  O  O16  1  0.22451300  0.61048800  0.52103800  1
  O  O17  1  0.72653800  0.95042700  0.44690700  1
  O  O18  1  0.27346200  0.04957300  0.55309300  1
