# generated using pymatgen
data_SmWO5
_symmetry_space_group_name_H-M   'P 1'
_cell_length_a   13.03275100
_cell_length_b   5.36367600
_cell_length_c   7.14121505
_cell_angle_alpha   63.28282362
_cell_angle_beta   90.00000000
_cell_angle_gamma   90.00000000
_symmetry_Int_Tables_number   1
_chemical_formula_structural   SmWO5
_chemical_formula_sum   'Sm4 W4 O20'
_cell_volume   445.89980128
_cell_formula_units_Z   4
loop_
 _symmetry_equiv_pos_site_id
 _symmetry_equiv_pos_as_xyz
  1  'x, y, z'
loop_
 _atom_site_type_symbol
 _atom_site_label
 _atom_site_symmetry_multiplicity
 _atom_site_fract_x
 _atom_site_fract_y
 _atom_site_fract_z
 _atom_site_occupancy
  Sm  Sm0  1  0.55735000  0.63543300  0.21699600  1
  Sm  Sm1  1  0.44265000  0.36456700  0.78300400  1
  Sm  Sm2  1  0.05735000  0.36456700  0.28300400  1
  Sm  Sm3  1  0.94265000  0.63543300  0.71699600  1
  W  W4  1  0.86077800  0.88606400  0.15470900  1
  W  W5  1  0.13922200  0.11393600  0.84529100  1
  W  W6  1  0.36077800  0.11393600  0.34529100  1
  W  W7  1  0.63922200  0.88606400  0.65470900  1
  O  O8  1  0.90914700  0.53255300  0.42617600  1
  O  O9  1  0.09085300  0.46744700  0.57382400  1
  O  O10  1  0.40914700  0.46744700  0.07382400  1
  O  O11  1  0.59085300  0.53255300  0.92617600  1
  O  O12  1  0.42973200  0.99653100  0.15967400  1
  O  O13  1  0.57026800  0.00346900  0.84032600  1
  O  O14  1  0.92973200  0.00346900  0.34032600  1
  O  O15  1  0.07026800  0.99653100  0.65967400  1
  O  O16  1  0.93315200  0.70350000  0.02729800  1
  O  O17  1  0.06684800  0.29650000  0.97270200  1
  O  O18  1  0.43315200  0.29650000  0.47270200  1
  O  O19  1  0.56684800  0.70350000  0.52729800  1
  O  O20  1  0.72717600  0.79403100  0.20598400  1
  O  O21  1  0.27282400  0.20596900  0.79401600  1
  O  O22  1  0.22717600  0.20596900  0.29401600  1
  O  O23  1  0.77282400  0.79403100  0.70598400  1
  O  O24  1  0.14664800  0.77077600  0.06856700  1
  O  O25  1  0.85335200  0.22922400  0.93143300  1
  O  O26  1  0.64664800  0.22922400  0.43143300  1
  O  O27  1  0.35335200  0.77077600  0.56856700  1
