# generated using pymatgen
data_SmU2Se5
_symmetry_space_group_name_H-M   'P 1'
_cell_length_a   7.80654600
_cell_length_b   8.25330200
_cell_length_c   12.44249600
_cell_angle_alpha   90.00000000
_cell_angle_beta   90.00000000
_cell_angle_gamma   90.00000000
_symmetry_Int_Tables_number   1
_chemical_formula_structural   SmU2Se5
_chemical_formula_sum   'Sm4 U8 Se20'
_cell_volume   801.66730127
_cell_formula_units_Z   4
loop_
 _symmetry_equiv_pos_site_id
 _symmetry_equiv_pos_as_xyz
  1  'x, y, z'
loop_
 _atom_site_type_symbol
 _atom_site_label
 _atom_site_symmetry_multiplicity
 _atom_site_fract_x
 _atom_site_fract_y
 _atom_site_fract_z
 _atom_site_occupancy
  Sm  Sm0  1  0.91867400  0.75000000  0.99443000  1
  Sm  Sm1  1  0.08132600  0.25000000  0.00557000  1
  Sm  Sm2  1  0.41867400  0.25000000  0.50557000  1
  Sm  Sm3  1  0.58132600  0.75000000  0.49443000  1
  U  U4  1  0.98607600  0.00022600  0.68126600  1
  U  U5  1  0.01392400  0.99977400  0.31873400  1
  U  U6  1  0.48607600  0.99977400  0.81873400  1
  U  U7  1  0.01392400  0.50022600  0.31873400  1
  U  U8  1  0.51392400  0.00022600  0.18126600  1
  U  U9  1  0.98607600  0.49977400  0.68126600  1
  U  U10  1  0.51392400  0.49977400  0.18126600  1
  U  U11  1  0.48607600  0.50022600  0.81873400  1
  Se  Se12  1  0.70408800  0.75000000  0.71673200  1
  Se  Se13  1  0.29591200  0.25000000  0.28326800  1
  Se  Se14  1  0.20408800  0.25000000  0.78326800  1
  Se  Se15  1  0.79591200  0.75000000  0.21673200  1
  Se  Se16  1  0.17563700  0.75000000  0.81541900  1
  Se  Se17  1  0.82436300  0.25000000  0.18458100  1
  Se  Se18  1  0.67563700  0.25000000  0.68458100  1
  Se  Se19  1  0.32436300  0.75000000  0.31541900  1
  Se  Se20  1  0.52968500  0.75000000  0.00028400  1
  Se  Se21  1  0.47031500  0.25000000  0.99971600  1
  Se  Se22  1  0.02968500  0.25000000  0.49971600  1
  Se  Se23  1  0.97031500  0.75000000  0.50028400  1
  Se  Se24  1  0.83477800  0.45556400  0.89301300  1
  Se  Se25  1  0.16522200  0.54443600  0.10698700  1
  Se  Se26  1  0.33477800  0.54443600  0.60698700  1
  Se  Se27  1  0.16522200  0.95556400  0.10698700  1
  Se  Se28  1  0.66522200  0.45556400  0.39301300  1
  Se  Se29  1  0.83477800  0.04443600  0.89301300  1
  Se  Se30  1  0.66522200  0.04443600  0.39301300  1
  Se  Se31  1  0.33477800  0.95556400  0.60698700  1
