# generated using pymatgen
data_Sm2TlBr5
_symmetry_space_group_name_H-M   'P 1'
_cell_length_a   7.82932100
_cell_length_b   9.19047300
_cell_length_c   13.37789315
_cell_angle_alpha   88.15329640
_cell_angle_beta   90.00000000
_cell_angle_gamma   90.00000000
_symmetry_Int_Tables_number   1
_chemical_formula_structural   Sm2TlBr5
_chemical_formula_sum   'Sm8 Tl4 Br20'
_cell_volume   962.10853040
_cell_formula_units_Z   4
loop_
 _symmetry_equiv_pos_site_id
 _symmetry_equiv_pos_as_xyz
  1  'x, y, z'
loop_
 _atom_site_type_symbol
 _atom_site_label
 _atom_site_symmetry_multiplicity
 _atom_site_fract_x
 _atom_site_fract_y
 _atom_site_fract_z
 _atom_site_occupancy
  Sm  Sm0  1  0.05995500  0.01113700  0.33125500  1
  Sm  Sm1  1  0.94004500  0.98886300  0.66874500  1
  Sm  Sm2  1  0.55995500  0.98886300  0.16874500  1
  Sm  Sm3  1  0.44004500  0.01113700  0.83125500  1
  Sm  Sm4  1  0.08546200  0.24356800  0.98860700  1
  Sm  Sm5  1  0.91453800  0.75643200  0.01139300  1
  Sm  Sm6  1  0.58546200  0.75643200  0.51139300  1
  Sm  Sm7  1  0.41453800  0.24356800  0.48860700  1
  Tl  Tl8  1  0.08741100  0.49510800  0.33460100  1
  Tl  Tl9  1  0.91258900  0.50489200  0.66539900  1
  Tl  Tl10  1  0.58741100  0.50489200  0.16539900  1
  Tl  Tl11  1  0.41258900  0.49510800  0.83460100  1
  Br  Br12  1  0.16137700  0.52471000  0.08781000  1
  Br  Br13  1  0.83862300  0.47529000  0.91219000  1
  Br  Br14  1  0.66137700  0.47529000  0.41219000  1
  Br  Br15  1  0.33862300  0.52471000  0.58781000  1
  Br  Br16  1  0.85407300  0.20992500  0.17710400  1
  Br  Br17  1  0.14592700  0.79007500  0.82289600  1
  Br  Br18  1  0.35407300  0.79007500  0.32289600  1
  Br  Br19  1  0.64592700  0.20992500  0.67710400  1
  Br  Br20  1  0.33392100  0.21998400  0.27201100  1
  Br  Br21  1  0.66607900  0.78001600  0.72798900  1
  Br  Br22  1  0.83392100  0.78001600  0.22798900  1
  Br  Br23  1  0.16607900  0.21998400  0.77201100  1
  Br  Br24  1  0.46770100  0.21217700  0.00169500  1
  Br  Br25  1  0.53229900  0.78782300  0.99830500  1
  Br  Br26  1  0.96770100  0.78782300  0.49830500  1
  Br  Br27  1  0.03229900  0.21217700  0.50169500  1
  Br  Br28  1  0.66898000  0.03810700  0.39372700  1
  Br  Br29  1  0.33102000  0.96189300  0.60627300  1
  Br  Br30  1  0.16898000  0.96189300  0.10627300  1
  Br  Br31  1  0.83102000  0.03810700  0.89372700  1
