# generated using pymatgen
data_RbYbZnSe3
_symmetry_space_group_name_H-M   'P 1'
_cell_length_a   8.10731248
_cell_length_b   8.10731248
_cell_length_c   11.11806700
_cell_angle_alpha   90.00000000
_cell_angle_beta   90.00000000
_cell_angle_gamma   150.58129470
_symmetry_Int_Tables_number   1
_chemical_formula_structural   RbYbZnSe3
_chemical_formula_sum   'Rb2 Yb2 Zn2 Se6'
_cell_volume   358.94755071
_cell_formula_units_Z   2
loop_
 _symmetry_equiv_pos_site_id
 _symmetry_equiv_pos_as_xyz
  1  'x, y, z'
loop_
 _atom_site_type_symbol
 _atom_site_label
 _atom_site_symmetry_multiplicity
 _atom_site_fract_x
 _atom_site_fract_y
 _atom_site_fract_z
 _atom_site_occupancy
  Rb  Rb0  1  0.25634100  0.74365900  0.25000000  1
  Rb  Rb1  1  0.74365900  0.25634100  0.75000000  1
  Yb  Yb2  1  0.00000000  0.00000000  0.00000000  1
  Yb  Yb3  1  0.00000000  0.00000000  0.50000000  1
  Zn  Zn4  1  0.53764800  0.46235200  0.25000000  1
  Zn  Zn5  1  0.46235200  0.53764800  0.75000000  1
  Se  Se6  1  0.62376000  0.37624000  0.06539900  1
  Se  Se7  1  0.37624000  0.62376000  0.93460100  1
  Se  Se8  1  0.37624000  0.62376000  0.56539900  1
  Se  Se9  1  0.62376000  0.37624000  0.43460100  1
  Se  Se10  1  0.94245300  0.05754700  0.25000000  1
  Se  Se11  1  0.05754700  0.94245300  0.75000000  1
