# generated using pymatgen
data_Sc6CuTe2
_symmetry_space_group_name_H-M   'P 1'
_cell_length_a   3.81564500
_cell_length_b   10.73000500
_cell_length_c   20.10027400
_cell_angle_alpha   90.00000000
_cell_angle_beta   90.00000000
_cell_angle_gamma   90.00000000
_symmetry_Int_Tables_number   1
_chemical_formula_structural   Sc6CuTe2
_chemical_formula_sum   'Sc24 Cu4 Te8'
_cell_volume   822.94320564
_cell_formula_units_Z   4
loop_
 _symmetry_equiv_pos_site_id
 _symmetry_equiv_pos_as_xyz
  1  'x, y, z'
loop_
 _atom_site_type_symbol
 _atom_site_label
 _atom_site_symmetry_multiplicity
 _atom_site_fract_x
 _atom_site_fract_y
 _atom_site_fract_z
 _atom_site_occupancy
  Sc  Sc0  1  0.25000000  0.74952800  0.27041100  1
  Sc  Sc1  1  0.75000000  0.25047200  0.72958900  1
  Sc  Sc2  1  0.75000000  0.24952800  0.22958900  1
  Sc  Sc3  1  0.25000000  0.75047200  0.77041100  1
  Sc  Sc4  1  0.25000000  0.61039800  0.00719000  1
  Sc  Sc5  1  0.75000000  0.38960200  0.99281000  1
  Sc  Sc6  1  0.75000000  0.11039800  0.49281000  1
  Sc  Sc7  1  0.25000000  0.88960200  0.50719000  1
  Sc  Sc8  1  0.25000000  0.38020200  0.47564400  1
  Sc  Sc9  1  0.75000000  0.61979800  0.52435600  1
  Sc  Sc10  1  0.75000000  0.88020200  0.02435600  1
  Sc  Sc11  1  0.25000000  0.11979800  0.97564400  1
  Sc  Sc12  1  0.25000000  0.04047400  0.15510400  1
  Sc  Sc13  1  0.75000000  0.95952600  0.84489600  1
  Sc  Sc14  1  0.75000000  0.54047400  0.34489600  1
  Sc  Sc15  1  0.25000000  0.45952600  0.65510400  1
  Sc  Sc16  1  0.25000000  0.06680600  0.36167800  1
  Sc  Sc17  1  0.75000000  0.93319400  0.63832200  1
  Sc  Sc18  1  0.75000000  0.56680600  0.13832200  1
  Sc  Sc19  1  0.25000000  0.43319400  0.86167800  1
  Sc  Sc20  1  0.25000000  0.32293100  0.10720000  1
  Sc  Sc21  1  0.75000000  0.67706900  0.89280000  1
  Sc  Sc22  1  0.75000000  0.82293100  0.39280000  1
  Sc  Sc23  1  0.25000000  0.17706900  0.60720000  1
  Cu  Cu24  1  0.25000000  0.64317500  0.42453600  1
  Cu  Cu25  1  0.75000000  0.35682500  0.57546400  1
  Cu  Cu26  1  0.75000000  0.14317500  0.07546400  1
  Cu  Cu27  1  0.25000000  0.85682500  0.92453600  1
  Te  Te28  1  0.25000000  0.77398800  0.12563900  1
  Te  Te29  1  0.75000000  0.22601200  0.87436100  1
  Te  Te30  1  0.75000000  0.27398800  0.37436100  1
  Te  Te31  1  0.25000000  0.72601200  0.62563900  1
  Te  Te32  1  0.25000000  0.46595800  0.23714800  1
  Te  Te33  1  0.75000000  0.53404200  0.76285200  1
  Te  Te34  1  0.75000000  0.96595800  0.26285200  1
  Te  Te35  1  0.25000000  0.03404200  0.73714800  1
