# generated using pymatgen
data_Sc4Al
_symmetry_space_group_name_H-M   'P 1'
_cell_length_a   7.29345431
_cell_length_b   7.29345431
_cell_length_c   7.29345431
_cell_angle_alpha   60.00000000
_cell_angle_beta   60.00000000
_cell_angle_gamma   60.00000000
_symmetry_Int_Tables_number   1
_chemical_formula_structural   Sc4Al
_chemical_formula_sum   'Sc8 Al2'
_cell_volume   274.33726328
_cell_formula_units_Z   2
loop_
 _symmetry_equiv_pos_site_id
 _symmetry_equiv_pos_as_xyz
  1  'x, y, z'
loop_
 _atom_site_type_symbol
 _atom_site_label
 _atom_site_symmetry_multiplicity
 _atom_site_fract_x
 _atom_site_fract_y
 _atom_site_fract_z
 _atom_site_occupancy
  Sc  Sc0  1  0.39636600  0.39636600  0.39636600  1
  Sc  Sc1  1  0.39636600  0.39636600  0.81090100  1
  Sc  Sc2  1  0.39636600  0.81090100  0.39636600  1
  Sc  Sc3  1  0.85363400  0.85363400  0.43909900  1
  Sc  Sc4  1  0.85363400  0.85363400  0.85363400  1
  Sc  Sc5  1  0.81090100  0.39636600  0.39636600  1
  Sc  Sc6  1  0.85363400  0.43909900  0.85363400  1
  Sc  Sc7  1  0.43909900  0.85363400  0.85363400  1
  Al  Al8  1  0.00000000  0.00000000  0.00000000  1
  Al  Al9  1  0.25000000  0.25000000  0.25000000  1
