# generated using pymatgen
data_RbZrF5
_symmetry_space_group_name_H-M   'P 1'
_cell_length_a   7.75018637
_cell_length_b   8.85036170
_cell_length_c   11.15453229
_cell_angle_alpha   73.96684198
_cell_angle_beta   70.31024957
_cell_angle_gamma   64.51143094
_symmetry_Int_Tables_number   1
_chemical_formula_structural   RbZrF5
_chemical_formula_sum   'Rb6 Zr6 F30'
_cell_volume   642.46710637
_cell_formula_units_Z   6
loop_
 _symmetry_equiv_pos_site_id
 _symmetry_equiv_pos_as_xyz
  1  'x, y, z'
loop_
 _atom_site_type_symbol
 _atom_site_label
 _atom_site_symmetry_multiplicity
 _atom_site_fract_x
 _atom_site_fract_y
 _atom_site_fract_z
 _atom_site_occupancy
  Rb  Rb0  1  0.72369700  0.67605800  0.07988800  1
  Rb  Rb1  1  0.27630300  0.32394200  0.92011200  1
  Rb  Rb2  1  0.21592900  0.00584400  0.26649500  1
  Rb  Rb3  1  0.78407100  0.99415600  0.73350500  1
  Rb  Rb4  1  0.24377100  0.65567500  0.57180700  1
  Rb  Rb5  1  0.75622900  0.34432500  0.42819300  1
  Zr  Zr6  1  0.26583800  0.15907200  0.58079700  1
  Zr  Zr7  1  0.73416200  0.84092800  0.41920300  1
  Zr  Zr8  1  0.76063300  0.16703600  0.06777000  1
  Zr  Zr9  1  0.23936700  0.83296400  0.93223000  1
  Zr  Zr10  1  0.21796700  0.52954400  0.24432400  1
  Zr  Zr11  1  0.78203300  0.47045600  0.75567600  1
  F  F12  1  0.10503000  0.38182100  0.69765000  1
  F  F13  1  0.89497000  0.61817900  0.30235000  1
  F  F14  1  0.17774700  0.37055400  0.43856200  1
  F  F15  1  0.82225300  0.62944600  0.56143800  1
  F  F16  1  0.47013800  0.22075400  0.61152000  1
  F  F17  1  0.52986200  0.77924600  0.38848000  1
  F  F18  1  0.08794300  0.05539000  0.03351300  1
  F  F19  1  0.91205700  0.94461000  0.96648700  1
  F  F20  1  0.31458400  0.73876900  0.12091500  1
  F  F21  1  0.68541600  0.26123100  0.87908500  1
  F  F22  1  0.07435600  0.73287300  0.35921500  1
  F  F23  1  0.92564400  0.26712700  0.64078500  1
  F  F24  1  0.16551400  0.01662800  0.52658600  1
  F  F25  1  0.83448600  0.98337200  0.47341400  1
  F  F26  1  0.15636900  0.34221900  0.21772700  1
  F  F27  1  0.84363100  0.65778100  0.78227300  1
  F  F28  1  0.49165200  0.38554200  0.11512200  1
  F  F29  1  0.50834800  0.61445800  0.88487800  1
  F  F30  1  0.43283900  0.51004000  0.31910700  1
  F  F31  1  0.56716100  0.48996000  0.68089300  1
  F  F32  1  0.54452900  0.07976300  0.09619800  1
  F  F33  1  0.45547100  0.92023700  0.90380200  1
  F  F34  1  0.49231100  0.09590800  0.40036400  1
  F  F35  1  0.50768900  0.90409200  0.59963600  1
  F  F36  1  0.18907100  0.04915900  0.77518500  1
  F  F37  1  0.81092900  0.95084100  0.22481500  1
  F  F38  1  0.81369600  0.25268300  0.19573600  1
  F  F39  1  0.18630400  0.74731700  0.80426400  1
  F  F40  1  0.13383400  0.62998600  0.05748200  1
  F  F41  1  0.86616600  0.37001400  0.94251800  1
