# generated using pymatgen
data_Sr2CaCu2Bi2IO8
_symmetry_space_group_name_H-M   'P 1'
_cell_length_a   5.21493000
_cell_length_b   5.48161500
_cell_length_c   19.12035300
_cell_angle_alpha   90.00000000
_cell_angle_beta   90.00000000
_cell_angle_gamma   90.00000000
_symmetry_Int_Tables_number   1
_chemical_formula_structural   Sr2CaCu2Bi2IO8
_chemical_formula_sum   'Sr4 Ca2 Cu4 Bi4 I2 O16'
_cell_volume   546.57897129
_cell_formula_units_Z   2
loop_
 _symmetry_equiv_pos_site_id
 _symmetry_equiv_pos_as_xyz
  1  'x, y, z'
loop_
 _atom_site_type_symbol
 _atom_site_label
 _atom_site_symmetry_multiplicity
 _atom_site_fract_x
 _atom_site_fract_y
 _atom_site_fract_z
 _atom_site_occupancy
  Sr  Sr0  1  0.00000000  0.49614400  0.68212200  1
  Sr  Sr1  1  0.50000000  0.00385600  0.68212200  1
  Sr  Sr2  1  0.00000000  0.50385600  0.31787800  1
  Sr  Sr3  1  0.50000000  0.99614400  0.31787800  1
  Ca  Ca4  1  0.00000000  0.50000000  0.50000000  1
  Ca  Ca5  1  0.50000000  0.00000000  0.50000000  1
  Cu  Cu6  1  0.00000000  0.99986400  0.58360600  1
  Cu  Cu7  1  0.50000000  0.50013600  0.58360600  1
  Cu  Cu8  1  0.00000000  0.00013600  0.41639400  1
  Cu  Cu9  1  0.50000000  0.49986400  0.41639400  1
  Bi  Bi10  1  0.00000000  0.03276500  0.16950900  1
  Bi  Bi11  1  0.50000000  0.46723500  0.16950900  1
  Bi  Bi12  1  0.00000000  0.96723500  0.83049100  1
  Bi  Bi13  1  0.50000000  0.53276500  0.83049100  1
  I  I14  1  0.00000000  0.50000000  0.00000000  1
  I  I15  1  0.50000000  0.00000000  0.00000000  1
  O  O16  1  0.75000000  0.75000000  0.58421900  1
  O  O17  1  0.25000000  0.75000000  0.58421900  1
  O  O18  1  0.00000000  0.42029700  0.18357600  1
  O  O19  1  0.50000000  0.07970300  0.18357600  1
  O  O20  1  0.00000000  0.98027100  0.27799800  1
  O  O21  1  0.50000000  0.51972900  0.27799800  1
  O  O22  1  0.75000000  0.25000000  0.41578100  1
  O  O23  1  0.25000000  0.25000000  0.41578100  1
  O  O24  1  0.00000000  0.57970300  0.81642400  1
  O  O25  1  0.50000000  0.92029700  0.81642400  1
  O  O26  1  0.00000000  0.01972900  0.72200200  1
  O  O27  1  0.50000000  0.48027100  0.72200200  1
  O  O28  1  0.75000000  0.25000000  0.58280600  1
  O  O29  1  0.25000000  0.25000000  0.58280600  1
  O  O30  1  0.75000000  0.75000000  0.41719400  1
  O  O31  1  0.25000000  0.75000000  0.41719400  1
