# generated using pymatgen
data_Sm12Al7Si
_symmetry_space_group_name_H-M   'P 1'
_cell_length_a   11.49197472
_cell_length_b   11.49197472
_cell_length_c   11.49197472
_cell_angle_alpha   117.68542228
_cell_angle_beta   117.68542228
_cell_angle_gamma   94.05801239
_symmetry_Int_Tables_number   1
_chemical_formula_structural   Sm12Al7Si
_chemical_formula_sum   'Sm24 Al14 Si2'
_cell_volume   1107.71028710
_cell_formula_units_Z   2
loop_
 _symmetry_equiv_pos_site_id
 _symmetry_equiv_pos_as_xyz
  1  'x, y, z'
loop_
 _atom_site_type_symbol
 _atom_site_label
 _atom_site_symmetry_multiplicity
 _atom_site_fract_x
 _atom_site_fract_y
 _atom_site_fract_z
 _atom_site_occupancy
  Sm  Sm0  1  0.83396700  0.70265400  0.26368200  1
  Sm  Sm1  1  0.16603300  0.29734600  0.73631800  1
  Sm  Sm2  1  0.43897200  0.57028500  0.73631800  1
  Sm  Sm3  1  0.70265400  0.43897200  0.86868700  1
  Sm  Sm4  1  0.06102800  0.79734600  0.13131300  1
  Sm  Sm5  1  0.56102800  0.42971500  0.26368200  1
  Sm  Sm6  1  0.29734600  0.56102800  0.13131300  1
  Sm  Sm7  1  0.93897200  0.20265400  0.86868700  1
  Sm  Sm8  1  0.57028500  0.83396700  0.13131300  1
  Sm  Sm9  1  0.66603300  0.92971500  0.86868700  1
  Sm  Sm10  1  0.42971500  0.16603300  0.86868700  1
  Sm  Sm11  1  0.33396700  0.07028500  0.13131300  1
  Sm  Sm12  1  0.92971500  0.06102800  0.26368200  1
  Sm  Sm13  1  0.07028500  0.93897200  0.73631800  1
  Sm  Sm14  1  0.79734600  0.66603300  0.73631800  1
  Sm  Sm15  1  0.20265400  0.33396700  0.26368200  1
  Sm  Sm16  1  0.16829500  0.66829500  0.83659000  1
  Sm  Sm17  1  0.83170500  0.33170500  0.16341000  1
  Sm  Sm18  1  0.66829500  0.83170500  0.50000000  1
  Sm  Sm19  1  0.33170500  0.16829500  0.50000000  1
  Sm  Sm20  1  0.14847700  0.64847700  0.50000000  1
  Sm  Sm21  1  0.85152300  0.35152300  0.50000000  1
  Sm  Sm22  1  0.64847700  0.14847700  0.50000000  1
  Sm  Sm23  1  0.35152300  0.85152300  0.50000000  1
  Al  Al24  1  0.38373400  0.88373400  0.85634400  1
  Al  Al25  1  0.61626600  0.11626600  0.14365600  1
  Al  Al26  1  0.02739000  0.52739000  0.14365600  1
  Al  Al27  1  0.88373400  0.02739000  0.50000000  1
  Al  Al28  1  0.47261000  0.61626600  0.50000000  1
  Al  Al29  1  0.97261000  0.47261000  0.85634400  1
  Al  Al30  1  0.11626600  0.97261000  0.50000000  1
  Al  Al31  1  0.52739000  0.38373400  0.50000000  1
  Al  Al32  1  0.50000000  0.50000000  0.00000000  1
  Al  Al33  1  0.00000000  0.00000000  0.00000000  1
  Al  Al34  1  0.61868700  0.11868700  0.73737300  1
  Al  Al35  1  0.38131300  0.88131300  0.26262700  1
  Al  Al36  1  0.11868700  0.38131300  0.50000000  1
  Al  Al37  1  0.88131300  0.61868700  0.50000000  1
  Si  Si38  1  0.75000000  0.75000000  0.00000000  1
  Si  Si39  1  0.25000000  0.25000000  0.00000000  1
