# generated using pymatgen
data_RbSO2
_symmetry_space_group_name_H-M   'P 1'
_cell_length_a   6.46027300
_cell_length_b   8.17114200
_cell_length_c   7.46510100
_cell_angle_alpha   90.00000000
_cell_angle_beta   90.00000000
_cell_angle_gamma   90.00000000
_symmetry_Int_Tables_number   1
_chemical_formula_structural   RbSO2
_chemical_formula_sum   'Rb4 S4 O8'
_cell_volume   394.06631860
_cell_formula_units_Z   4
loop_
 _symmetry_equiv_pos_site_id
 _symmetry_equiv_pos_as_xyz
  1  'x, y, z'
loop_
 _atom_site_type_symbol
 _atom_site_label
 _atom_site_symmetry_multiplicity
 _atom_site_fract_x
 _atom_site_fract_y
 _atom_site_fract_z
 _atom_site_occupancy
  Rb  Rb0  1  0.75000000  0.85716500  0.35783900  1
  Rb  Rb1  1  0.25000000  0.14283500  0.64216100  1
  Rb  Rb2  1  0.25000000  0.64283500  0.85783900  1
  Rb  Rb3  1  0.75000000  0.35716500  0.14216100  1
  S  S4  1  0.75000000  0.89479100  0.84885700  1
  S  S5  1  0.25000000  0.10520900  0.15114300  1
  S  S6  1  0.25000000  0.60520900  0.34885700  1
  S  S7  1  0.75000000  0.39479100  0.65114300  1
  O  O8  1  0.94566600  0.88930300  0.73393900  1
  O  O9  1  0.05433400  0.11069700  0.26606100  1
  O  O10  1  0.05433400  0.61069700  0.23393900  1
  O  O11  1  0.44566600  0.11069700  0.26606100  1
  O  O12  1  0.94566600  0.38930300  0.76606100  1
  O  O13  1  0.55433400  0.88930300  0.73393900  1
  O  O14  1  0.55433400  0.38930300  0.76606100  1
  O  O15  1  0.44566600  0.61069700  0.23393900  1
