# generated using pymatgen
data_SrC6(BrO4)2
_symmetry_space_group_name_H-M   'P 1'
_cell_length_a   10.72947443
_cell_length_b   10.72947443
_cell_length_c   6.47810890
_cell_angle_alpha   81.16121389
_cell_angle_beta   81.16121389
_cell_angle_gamma   109.14714344
_symmetry_Int_Tables_number   1
_chemical_formula_structural   SrC6(BrO4)2
_chemical_formula_sum   'Sr2 C12 Br4 O16'
_cell_volume   679.31116120
_cell_formula_units_Z   2
loop_
 _symmetry_equiv_pos_site_id
 _symmetry_equiv_pos_as_xyz
  1  'x, y, z'
loop_
 _atom_site_type_symbol
 _atom_site_label
 _atom_site_symmetry_multiplicity
 _atom_site_fract_x
 _atom_site_fract_y
 _atom_site_fract_z
 _atom_site_occupancy
  Sr  Sr0  1  0.80126800  0.80126800  0.14020900  1
  Sr  Sr1  1  0.19873200  0.19873200  0.85979100  1
  C  C2  1  0.54790800  0.09214200  0.13696200  1
  C  C3  1  0.45209200  0.90785800  0.86303800  1
  C  C4  1  0.90785800  0.45209200  0.86303800  1
  C  C5  1  0.09214200  0.54790800  0.13696200  1
  C  C6  1  0.60385100  0.99048500  0.11617500  1
  C  C7  1  0.39614900  0.00951500  0.88382500  1
  C  C8  1  0.00951500  0.39614900  0.88382500  1
  C  C9  1  0.99048500  0.60385100  0.11617500  1
  C  C10  1  0.44492200  0.10608700  0.03221500  1
  C  C11  1  0.55507800  0.89391300  0.96778500  1
  C  C12  1  0.89391300  0.55507800  0.96778500  1
  C  C13  1  0.10608700  0.44492200  0.03221500  1
  Br  Br14  1  0.61310700  0.20921100  0.31598200  1
  Br  Br15  1  0.38689300  0.79078900  0.68401800  1
  Br  Br16  1  0.79078900  0.38689300  0.68401800  1
  Br  Br17  1  0.20921100  0.61310700  0.31598200  1
  O  O18  1  0.38899600  0.19115300  0.05057800  1
  O  O19  1  0.61100400  0.80884700  0.94942200  1
  O  O20  1  0.80884700  0.61100400  0.94942200  1
  O  O21  1  0.19115300  0.38899600  0.05057800  1
  O  O22  1  0.88025100  0.11974900  0.50000000  1
  O  O23  1  0.11974900  0.88025100  0.50000000  1
  O  O24  1  0.64858700  0.64858700  0.57140800  1
  O  O25  1  0.35141300  0.35141300  0.42859200  1
  O  O26  1  0.69225800  0.97289600  0.21104500  1
  O  O27  1  0.30774200  0.02710400  0.78895500  1
  O  O28  1  0.02710400  0.30774200  0.78895500  1
  O  O29  1  0.97289600  0.69225800  0.21104500  1
  O  O30  1  0.99333700  0.99333700  0.89933600  1
  O  O31  1  0.00666300  0.00666300  0.10066400  1
  O  O32  1  0.44936600  0.44936600  0.32261400  1
  O  O33  1  0.55063400  0.55063400  0.67738600  1
