# generated using pymatgen
data_RbGa(SO4)2
_symmetry_space_group_name_H-M   'P 1'
_cell_length_a   4.87763404
_cell_length_b   4.87763404
_cell_length_c   8.62164600
_cell_angle_alpha   90.00000000
_cell_angle_beta   90.00000000
_cell_angle_gamma   120.00000054
_symmetry_Int_Tables_number   1
_chemical_formula_structural   RbGa(SO4)2
_chemical_formula_sum   'Rb1 Ga1 S2 O8'
_cell_volume   177.63937725
_cell_formula_units_Z   1
loop_
 _symmetry_equiv_pos_site_id
 _symmetry_equiv_pos_as_xyz
  1  'x, y, z'
loop_
 _atom_site_type_symbol
 _atom_site_label
 _atom_site_symmetry_multiplicity
 _atom_site_fract_x
 _atom_site_fract_y
 _atom_site_fract_z
 _atom_site_occupancy
  Rb  Rb0  1  0.00000000  0.00000000  0.50000000  1
  Ga  Ga1  1  0.00000000  0.00000000  0.00000000  1
  S  S2  1  0.33333300  0.66666700  0.20492900  1
  S  S3  1  0.66666700  0.33333300  0.79507100  1
  O  O4  1  0.08491400  0.34903800  0.14742900  1
  O  O5  1  0.65096200  0.73587500  0.14742900  1
  O  O6  1  0.34903800  0.08491400  0.85257100  1
  O  O7  1  0.26412500  0.91508600  0.14742900  1
  O  O8  1  0.73587500  0.65096200  0.85257100  1
  O  O9  1  0.91508600  0.26412500  0.85257100  1
  O  O10  1  0.33333300  0.66666700  0.37403600  1
  O  O11  1  0.66666700  0.33333300  0.62596400  1
