# generated using pymatgen
data_SO5
_symmetry_space_group_name_H-M   'P 1'
_cell_length_a   6.68390200
_cell_length_b   6.89056200
_cell_length_c   8.55534700
_cell_angle_alpha   90.00000000
_cell_angle_beta   90.00000000
_cell_angle_gamma   90.00000000
_symmetry_Int_Tables_number   1
_chemical_formula_structural   SO5
_chemical_formula_sum   'S4 O20'
_cell_volume   394.02370227
_cell_formula_units_Z   4
loop_
 _symmetry_equiv_pos_site_id
 _symmetry_equiv_pos_as_xyz
  1  'x, y, z'
loop_
 _atom_site_type_symbol
 _atom_site_label
 _atom_site_symmetry_multiplicity
 _atom_site_fract_x
 _atom_site_fract_y
 _atom_site_fract_z
 _atom_site_occupancy
  S  S0  1  0.22290600  0.08540800  0.56261100  1
  S  S1  1  0.27709400  0.91459200  0.06261100  1
  S  S2  1  0.77709400  0.58540800  0.93738900  1
  S  S3  1  0.72290600  0.41459200  0.43738900  1
  O  O4  1  0.23773100  0.19775800  0.71631600  1
  O  O5  1  0.26226900  0.80224200  0.21631600  1
  O  O6  1  0.76226900  0.69775800  0.78368400  1
  O  O7  1  0.73773100  0.30224200  0.28368400  1
  O  O8  1  0.25547000  0.51675100  0.16455200  1
  O  O9  1  0.24453000  0.48324900  0.66455200  1
  O  O10  1  0.74453000  0.01675100  0.33544800  1
  O  O11  1  0.75547000  0.98324900  0.83544800  1
  O  O12  1  0.10017700  0.04244100  0.05480100  1
  O  O13  1  0.39982300  0.95755900  0.55480100  1
  O  O14  1  0.89982300  0.54244100  0.44519900  1
  O  O15  1  0.60017700  0.45755900  0.94519900  1
  O  O16  1  0.21789200  0.21792600  0.42790200  1
  O  O17  1  0.28210800  0.78207400  0.92790200  1
  O  O18  1  0.78210800  0.71792600  0.07209800  1
  O  O19  1  0.71789200  0.28207400  0.57209800  1
  O  O20  1  0.46434500  0.02891100  0.06981200  1
  O  O21  1  0.03565500  0.97108900  0.56981200  1
  O  O22  1  0.53565500  0.52891100  0.43018800  1
  O  O23  1  0.96434500  0.47108900  0.93018800  1
