# generated using pymatgen
data_RbLu(WO4)2
_symmetry_space_group_name_H-M   'P 1'
_cell_length_a   6.04999940
_cell_length_b   6.04999940
_cell_length_c   8.01571000
_cell_angle_alpha   90.00000000
_cell_angle_beta   90.00000000
_cell_angle_gamma   119.99999344
_symmetry_Int_Tables_number   1
_chemical_formula_structural   RbLu(WO4)2
_chemical_formula_sum   'Rb1 Lu1 W2 O8'
_cell_volume   254.08751163
_cell_formula_units_Z   1
loop_
 _symmetry_equiv_pos_site_id
 _symmetry_equiv_pos_as_xyz
  1  'x, y, z'
loop_
 _atom_site_type_symbol
 _atom_site_label
 _atom_site_symmetry_multiplicity
 _atom_site_fract_x
 _atom_site_fract_y
 _atom_site_fract_z
 _atom_site_occupancy
  Rb  Rb0  1  0.00000000  0.00000000  0.00000000  1
  Lu  Lu1  1  0.00000000  0.00000000  0.50000000  1
  W  W2  1  0.33333300  0.66666700  0.26605200  1
  W  W3  1  0.66666700  0.33333300  0.73394800  1
  O  O4  1  0.16762900  0.83237100  0.33703800  1
  O  O5  1  0.83237100  0.16762900  0.66296200  1
  O  O6  1  0.16762900  0.33525800  0.33703800  1
  O  O7  1  0.83237100  0.66474200  0.66296200  1
  O  O8  1  0.66474200  0.83237100  0.33703800  1
  O  O9  1  0.33525800  0.16762900  0.66296200  1
  O  O10  1  0.33333300  0.66666700  0.04479000  1
  O  O11  1  0.66666700  0.33333300  0.95521000  1
