# generated using pymatgen
data_RbHo(MoO4)2
_symmetry_space_group_name_H-M   'P 1'
_cell_length_a   7.51397524
_cell_length_b   7.51397524
_cell_length_c   7.74824628
_cell_angle_alpha   61.93552455
_cell_angle_beta   61.93552455
_cell_angle_gamma   88.31580552
_symmetry_Int_Tables_number   1
_chemical_formula_structural   RbHo(MoO4)2
_chemical_formula_sum   'Rb2 Ho2 Mo4 O16'
_cell_volume   330.12561544
_cell_formula_units_Z   2
loop_
 _symmetry_equiv_pos_site_id
 _symmetry_equiv_pos_as_xyz
  1  'x, y, z'
loop_
 _atom_site_type_symbol
 _atom_site_label
 _atom_site_symmetry_multiplicity
 _atom_site_fract_x
 _atom_site_fract_y
 _atom_site_fract_z
 _atom_site_occupancy
  Rb  Rb0  1  0.19889200  0.80110800  0.75000000  1
  Rb  Rb1  1  0.80110800  0.19889200  0.25000000  1
  Ho  Ho2  1  0.77098700  0.22901300  0.75000000  1
  Ho  Ho3  1  0.22901300  0.77098700  0.25000000  1
  Mo  Mo4  1  0.69598600  0.69665600  0.76261300  1
  Mo  Mo5  1  0.30401400  0.30334400  0.23738700  1
  Mo  Mo6  1  0.30334400  0.30401400  0.73738700  1
  Mo  Mo7  1  0.69665600  0.69598600  0.26261300  1
  O  O8  1  0.61482500  0.76552600  0.56124600  1
  O  O9  1  0.38517500  0.23447400  0.43875400  1
  O  O10  1  0.23447400  0.38517500  0.93875400  1
  O  O11  1  0.76552600  0.61482500  0.06124600  1
  O  O12  1  0.38274200  0.06696100  0.87642100  1
  O  O13  1  0.61725800  0.93303900  0.12357900  1
  O  O14  1  0.93303900  0.61725800  0.62357900  1
  O  O15  1  0.06696100  0.38274200  0.37642100  1
  O  O16  1  0.58565300  0.36709200  0.96915300  1
  O  O17  1  0.41434700  0.63290800  0.03084700  1
  O  O18  1  0.63290800  0.41434700  0.53084700  1
  O  O19  1  0.36709200  0.58565300  0.46915300  1
  O  O20  1  0.79246800  0.95331000  0.69233600  1
  O  O21  1  0.20753200  0.04669000  0.30766400  1
  O  O22  1  0.04669000  0.20753200  0.80766400  1
  O  O23  1  0.95331000  0.79246800  0.19233600  1
