# generated using pymatgen
data_Pr2Sn5
_symmetry_space_group_name_H-M   'P 1'
_cell_length_a   17.97751699
_cell_length_b   17.97751699
_cell_length_c   4.70553600
_cell_angle_alpha   90.00000000
_cell_angle_beta   90.00000000
_cell_angle_gamma   165.09332611
_symmetry_Int_Tables_number   1
_chemical_formula_structural   Pr2Sn5
_chemical_formula_sum   'Pr4 Sn10'
_cell_volume   391.21550575
_cell_formula_units_Z   2
loop_
 _symmetry_equiv_pos_site_id
 _symmetry_equiv_pos_as_xyz
  1  'x, y, z'
loop_
 _atom_site_type_symbol
 _atom_site_label
 _atom_site_symmetry_multiplicity
 _atom_site_fract_x
 _atom_site_fract_y
 _atom_site_fract_z
 _atom_site_occupancy
  Pr  Pr0  1  0.93225400  0.06774600  0.50000000  1
  Pr  Pr1  1  0.06774600  0.93225400  0.50000000  1
  Pr  Pr2  1  0.79772600  0.20227400  0.50000000  1
  Pr  Pr3  1  0.20227400  0.79772600  0.50000000  1
  Sn  Sn4  1  0.63702800  0.36297200  0.50000000  1
  Sn  Sn5  1  0.36297200  0.63702800  0.50000000  1
  Sn  Sn6  1  0.72125200  0.27874800  0.00000000  1
  Sn  Sn7  1  0.27874800  0.72125200  0.00000000  1
  Sn  Sn8  1  0.50000000  0.50000000  0.50000000  1
  Sn  Sn9  1  0.57083400  0.42916600  0.00000000  1
  Sn  Sn10  1  0.42916600  0.57083400  0.00000000  1
  Sn  Sn11  1  0.86249900  0.13750100  0.00000000  1
  Sn  Sn12  1  0.13750100  0.86249900  0.00000000  1
  Sn  Sn13  1  0.00000000  0.00000000  0.00000000  1
