# generated using pymatgen
data_RbFeAgF6
_symmetry_space_group_name_H-M   'P 1'
_cell_length_a   7.46822100
_cell_length_b   7.72248700
_cell_length_c   10.64789400
_cell_angle_alpha   90.00000000
_cell_angle_beta   90.00000000
_cell_angle_gamma   90.00000000
_symmetry_Int_Tables_number   1
_chemical_formula_structural   RbFeAgF6
_chemical_formula_sum   'Rb4 Fe4 Ag4 F24'
_cell_volume   614.09854174
_cell_formula_units_Z   4
loop_
 _symmetry_equiv_pos_site_id
 _symmetry_equiv_pos_as_xyz
  1  'x, y, z'
loop_
 _atom_site_type_symbol
 _atom_site_label
 _atom_site_symmetry_multiplicity
 _atom_site_fract_x
 _atom_site_fract_y
 _atom_site_fract_z
 _atom_site_occupancy
  Rb  Rb0  1  0.01666000  0.25000000  0.63422500  1
  Rb  Rb1  1  0.98334000  0.75000000  0.36577500  1
  Rb  Rb2  1  0.48334000  0.75000000  0.13422500  1
  Rb  Rb3  1  0.51666000  0.25000000  0.86577500  1
  Fe  Fe4  1  0.00000000  0.00000000  0.00000000  1
  Fe  Fe5  1  0.50000000  0.00000000  0.50000000  1
  Fe  Fe6  1  0.00000000  0.50000000  0.00000000  1
  Fe  Fe7  1  0.50000000  0.50000000  0.50000000  1
  Ag  Ag8  1  0.21085300  0.25000000  0.25235900  1
  Ag  Ag9  1  0.78914700  0.75000000  0.74764100  1
  Ag  Ag10  1  0.28914700  0.75000000  0.75235900  1
  Ag  Ag11  1  0.71085300  0.25000000  0.24764100  1
  F  F12  1  0.28332900  0.03753300  0.40389000  1
  F  F13  1  0.71667100  0.96246700  0.59611000  1
  F  F14  1  0.21667100  0.96246700  0.90389000  1
  F  F15  1  0.71667100  0.53753300  0.59611000  1
  F  F16  1  0.78332900  0.03753300  0.09611000  1
  F  F17  1  0.28332900  0.46246700  0.40389000  1
  F  F18  1  0.78332900  0.46246700  0.09611000  1
  F  F19  1  0.21667100  0.53753300  0.90389000  1
  F  F20  1  0.55242800  0.25000000  0.50811300  1
  F  F21  1  0.44757200  0.75000000  0.49188700  1
  F  F22  1  0.94757200  0.75000000  0.00811300  1
  F  F23  1  0.05242800  0.25000000  0.99188700  1
  F  F24  1  0.14194700  0.51621300  0.15566100  1
  F  F25  1  0.85805300  0.48378700  0.84433900  1
  F  F26  1  0.35805300  0.48378700  0.65566100  1
  F  F27  1  0.85805300  0.01621300  0.84433900  1
  F  F28  1  0.64194700  0.51621300  0.34433900  1
  F  F29  1  0.14194700  0.98378700  0.15566100  1
  F  F30  1  0.64194700  0.98378700  0.34433900  1
  F  F31  1  0.35805300  0.01621300  0.65566100  1
  F  F32  1  0.45970300  0.25000000  0.16806000  1
  F  F33  1  0.54029700  0.75000000  0.83194000  1
  F  F34  1  0.04029700  0.75000000  0.66806000  1
  F  F35  1  0.95970300  0.25000000  0.33194000  1
