# generated using pymatgen
data_PrSi3N5
_symmetry_space_group_name_H-M   'P 1'
_cell_length_a   4.81845400
_cell_length_b   7.88348700
_cell_length_c   11.31993000
_cell_angle_alpha   90.00000000
_cell_angle_beta   90.00000000
_cell_angle_gamma   90.00000000
_symmetry_Int_Tables_number   1
_chemical_formula_structural   PrSi3N5
_chemical_formula_sum   'Pr4 Si12 N20'
_cell_volume   430.00134535
_cell_formula_units_Z   4
loop_
 _symmetry_equiv_pos_site_id
 _symmetry_equiv_pos_as_xyz
  1  'x, y, z'
loop_
 _atom_site_type_symbol
 _atom_site_label
 _atom_site_symmetry_multiplicity
 _atom_site_fract_x
 _atom_site_fract_y
 _atom_site_fract_z
 _atom_site_occupancy
  Pr  Pr0  1  0.50539900  0.06044000  0.17006800  1
  Pr  Pr1  1  0.99460100  0.93956000  0.67006800  1
  Pr  Pr2  1  0.49460100  0.56044000  0.32993200  1
  Pr  Pr3  1  0.00539900  0.43956000  0.82993200  1
  Si  Si4  1  0.01661800  0.20690900  0.41669100  1
  Si  Si5  1  0.48338200  0.79309100  0.91669100  1
  Si  Si6  1  0.98338200  0.70690900  0.08330900  1
  Si  Si7  1  0.51661800  0.29309100  0.58330900  1
  Si  Si8  1  0.52381200  0.46687700  0.04096100  1
  Si  Si9  1  0.97618800  0.53312300  0.54096100  1
  Si  Si10  1  0.47618800  0.96687700  0.45903900  1
  Si  Si11  1  0.02381200  0.03312300  0.95903900  1
  Si  Si12  1  0.01428900  0.33804300  0.16064300  1
  Si  Si13  1  0.48571100  0.66195700  0.66064300  1
  Si  Si14  1  0.98571100  0.83804300  0.33935700  1
  Si  Si15  1  0.51428900  0.16195700  0.83935700  1
  N  N16  1  0.16569200  0.29339500  0.29475500  1
  N  N17  1  0.33430800  0.70660500  0.79475500  1
  N  N18  1  0.83430800  0.79339500  0.20524500  1
  N  N19  1  0.66569200  0.20660500  0.70524500  1
  N  N20  1  0.18481400  0.51844900  0.09306700  1
  N  N21  1  0.31518600  0.48155100  0.59306700  1
  N  N22  1  0.81518600  0.01844900  0.40693300  1
  N  N23  1  0.68481400  0.98155100  0.90693300  1
  N  N24  1  0.67053700  0.38906700  0.16768600  1
  N  N25  1  0.82946300  0.61093300  0.66768600  1
  N  N26  1  0.32946300  0.88906700  0.33231400  1
  N  N27  1  0.17053700  0.11093300  0.83231400  1
  N  N28  1  0.04611700  0.15754100  0.07968000  1
  N  N29  1  0.45388300  0.84245900  0.57968000  1
  N  N30  1  0.95388300  0.65754100  0.42032000  1
  N  N31  1  0.54611700  0.34245900  0.92032000  1
  N  N32  1  0.29589300  0.14971400  0.51044900  1
  N  N33  1  0.20410700  0.85028600  0.01044900  1
  N  N34  1  0.70410700  0.64971400  0.98955100  1
  N  N35  1  0.79589300  0.35028600  0.48955100  1
