# generated using pymatgen
data_Sr2B11HO21
_symmetry_space_group_name_H-M   'P 1'
_cell_length_a   21.43080900
_cell_length_b   6.69790900
_cell_length_c   6.77943759
_cell_angle_alpha   60.67522421
_cell_angle_beta   90.00000000
_cell_angle_gamma   90.00000000
_symmetry_Int_Tables_number   1
_chemical_formula_structural   Sr2B11HO21
_chemical_formula_sum   'Sr4 B22 H2 O42'
_cell_volume   848.43195940
_cell_formula_units_Z   2
loop_
 _symmetry_equiv_pos_site_id
 _symmetry_equiv_pos_as_xyz
  1  'x, y, z'
loop_
 _atom_site_type_symbol
 _atom_site_label
 _atom_site_symmetry_multiplicity
 _atom_site_fract_x
 _atom_site_fract_y
 _atom_site_fract_z
 _atom_site_occupancy
  Sr  Sr0  1  0.47133700  0.97995400  0.07145000  1
  Sr  Sr1  1  0.97133700  0.02004600  0.92855000  1
  Sr  Sr2  1  0.36316000  0.30685400  0.38154800  1
  Sr  Sr3  1  0.86316000  0.69314600  0.61845200  1
  B  B4  1  0.33096800  0.80296100  0.47898500  1
  B  B5  1  0.83096800  0.19703900  0.52101500  1
  B  B6  1  0.85537300  0.58899900  0.20926100  1
  B  B7  1  0.35537300  0.41100100  0.79073900  1
  B  B8  1  0.33443500  0.98509800  0.05493000  1
  B  B9  1  0.83443500  0.01490200  0.94507000  1
  B  B10  1  0.11231300  0.61108900  0.80392700  1
  B  B11  1  0.61231300  0.38891100  0.19607300  1
  B  B12  1  0.20381100  0.32425000  0.40672300  1
  B  B13  1  0.70381100  0.67575000  0.59327700  1
  B  B14  1  0.49363300  0.87686500  0.66019000  1
  B  B15  1  0.99363300  0.12313500  0.33981000  1
  B  B16  1  0.49858200  0.56226700  0.57631400  1
  B  B17  1  0.99858200  0.43773300  0.42368600  1
  B  B18  1  0.01305500  0.69697200  0.60549600  1
  B  B19  1  0.51305500  0.30302800  0.39450400  1
  B  B20  1  0.23526500  0.90543000  0.24762900  1
  B  B21  1  0.73526500  0.09457000  0.75237100  1
  B  B22  1  0.35009700  0.72423100  0.87382700  1
  B  B23  1  0.85009700  0.27576900  0.12617300  1
  B  B24  1  0.01481600  0.51750300  0.02862400  1
  B  B25  1  0.51481600  0.48249700  0.97137600  1
  H  H26  1  0.59620500  0.94514400  0.14760900  1
  H  H27  1  0.09620500  0.05485600  0.85239100  1
  O  O28  1  0.26293300  0.80594400  0.45513100  1
  O  O29  1  0.76293300  0.19405600  0.54486900  1
  O  O30  1  0.17710900  0.60000400  0.81205000  1
  O  O31  1  0.67710900  0.39999600  0.18795000  1
  O  O32  1  0.36150900  0.96503300  0.26539900  1
  O  O33  1  0.86150900  0.03496700  0.73460100  1
  O  O34  1  0.85222100  0.51194400  0.05314600  1
  O  O35  1  0.35222100  0.48805600  0.94685400  1
  O  O36  1  0.49258500  0.51394600  0.40358800  1
  O  O37  1  0.99258500  0.48605400  0.59641200  1
  O  O38  1  0.34713800  0.87729300  0.64848300  1
  O  O39  1  0.84713800  0.12270700  0.35151700  1
  O  O40  1  0.98576700  0.89710000  0.40334200  1
  O  O41  1  0.48576700  0.10290000  0.59665800  1
  O  O42  1  0.08103400  0.71106100  0.60238700  1
  O  O43  1  0.58103400  0.28893900  0.39761300  1
  O  O44  1  0.26732600  0.00491800  0.04735500  1
  O  O45  1  0.76732600  0.99508200  0.95264500  1
  O  O46  1  0.35405300  0.56364600  0.56381000  1
  O  O47  1  0.85405400  0.43635400  0.43619000  1
  O  O48  1  0.35612700  0.77549000  0.04519600  1
  O  O49  1  0.85612700  0.22451000  0.95480400  1
  O  O50  1  0.24356100  0.41100900  0.22550600  1
  O  O51  1  0.74356100  0.58899100  0.77449400  1
  O  O52  1  0.74772200  0.75581400  0.41899000  1
  O  O53  1  0.24772200  0.24418600  0.58101000  1
  O  O54  1  0.99204800  0.27773200  0.11226500  1
  O  O55  1  0.49204800  0.72226800  0.88773500  1
  O  O56  1  0.08338700  0.51510700  0.00988500  1
  O  O57  1  0.58338700  0.48489300  0.99011500  1
  O  O58  1  0.14178100  0.30829400  0.43539600  1
  O  O59  1  0.64178100  0.69170600  0.56460400  1
  O  O60  1  0.17068000  0.90941100  0.23074200  1
  O  O61  1  0.67068000  0.09058900  0.76925800  1
  O  O62  1  0.49834700  0.79955000  0.50343100  1
  O  O63  1  0.99834700  0.20045000  0.49656900  1
  O  O64  1  0.99915100  0.59231700  0.19770600  1
  O  O65  1  0.49915100  0.40768300  0.80229400  1
  O  O66  1  0.86455200  0.81635600  0.14267900  1
  O  O67  1  0.36455200  0.18364400  0.85732100  1
  O  O68  1  0.48592000  0.31905400  0.18624200  1
  O  O69  1  0.98592000  0.68094600  0.81375800  1
