# generated using pymatgen
data_RbPr(WO4)2
_symmetry_space_group_name_H-M   'P 1'
_cell_length_a   5.32167600
_cell_length_b   8.40452400
_cell_length_c   19.16004400
_cell_angle_alpha   90.00000000
_cell_angle_beta   90.00000000
_cell_angle_gamma   90.00000000
_symmetry_Int_Tables_number   1
_chemical_formula_structural   RbPr(WO4)2
_chemical_formula_sum   'Rb4 Pr4 W8 O32'
_cell_volume   856.95507212
_cell_formula_units_Z   4
loop_
 _symmetry_equiv_pos_site_id
 _symmetry_equiv_pos_as_xyz
  1  'x, y, z'
loop_
 _atom_site_type_symbol
 _atom_site_label
 _atom_site_symmetry_multiplicity
 _atom_site_fract_x
 _atom_site_fract_y
 _atom_site_fract_z
 _atom_site_occupancy
  Rb  Rb0  1  0.00000000  0.75000000  0.76938500  1
  Rb  Rb1  1  0.00000000  0.25000000  0.23061500  1
  Rb  Rb2  1  0.50000000  0.25000000  0.73061500  1
  Rb  Rb3  1  0.50000000  0.75000000  0.26938500  1
  Pr  Pr4  1  0.00000000  0.75000000  0.00731000  1
  Pr  Pr5  1  0.00000000  0.25000000  0.99269000  1
  Pr  Pr6  1  0.50000000  0.25000000  0.49269000  1
  Pr  Pr7  1  0.50000000  0.75000000  0.50731000  1
  W  W8  1  0.02137600  0.51776000  0.39943400  1
  W  W9  1  0.97862400  0.48224000  0.60056600  1
  W  W10  1  0.47862400  0.01776000  0.10056600  1
  W  W11  1  0.97862400  0.98224000  0.39943400  1
  W  W12  1  0.52137600  0.98224000  0.89943400  1
  W  W13  1  0.02137600  0.01776000  0.60056600  1
  W  W14  1  0.52137600  0.48224000  0.10056600  1
  W  W15  1  0.47862400  0.51776000  0.89943400  1
  O  O16  1  0.10127600  0.97539600  0.31314600  1
  O  O17  1  0.89872400  0.02460400  0.68685400  1
  O  O18  1  0.39872400  0.47539600  0.18685400  1
  O  O19  1  0.89872400  0.52460400  0.31314600  1
  O  O20  1  0.60127600  0.52460400  0.81314600  1
  O  O21  1  0.10127600  0.47539600  0.68685400  1
  O  O22  1  0.60127600  0.02460400  0.18685400  1
  O  O23  1  0.39872400  0.97539600  0.81314600  1
  O  O24  1  0.27701100  0.84303000  0.09912800  1
  O  O25  1  0.72298900  0.15697000  0.90087200  1
  O  O26  1  0.22298900  0.34303000  0.40087200  1
  O  O27  1  0.72298900  0.65697000  0.09912800  1
  O  O28  1  0.77701100  0.65697000  0.59912800  1
  O  O29  1  0.27701100  0.34303000  0.90087200  1
  O  O30  1  0.77701100  0.15697000  0.40087200  1
  O  O31  1  0.22298900  0.84303000  0.59912800  1
  O  O32  1  0.25739600  0.50235200  0.03587500  1
  O  O33  1  0.74260400  0.49764800  0.96412500  1
  O  O34  1  0.24260400  0.00235200  0.46412500  1
  O  O35  1  0.74260400  0.99764800  0.03587500  1
  O  O36  1  0.75739600  0.99764800  0.53587500  1
  O  O37  1  0.25739600  0.00235200  0.96412500  1
  O  O38  1  0.75739600  0.49764800  0.46412500  1
  O  O39  1  0.24260400  0.50235200  0.53587500  1
  O  O40  1  0.23591000  0.68822800  0.40865600  1
  O  O41  1  0.76409000  0.31177200  0.59134400  1
  O  O42  1  0.26409000  0.18822800  0.09134400  1
  O  O43  1  0.76409000  0.81177200  0.40865600  1
  O  O44  1  0.73591000  0.81177200  0.90865600  1
  O  O45  1  0.23591000  0.18822800  0.59134400  1
  O  O46  1  0.73591000  0.31177200  0.09134400  1
  O  O47  1  0.26409000  0.68822800  0.90865600  1
