# generated using pymatgen
data_S3N
_symmetry_space_group_name_H-M   'P 1'
_cell_length_a   8.41051200
_cell_length_b   13.38011500
_cell_length_c   14.62198000
_cell_angle_alpha   90.00000000
_cell_angle_beta   90.00000000
_cell_angle_gamma   90.00000000
_symmetry_Int_Tables_number   1
_chemical_formula_structural   S3N
_chemical_formula_sum   'S48 N16'
_cell_volume   1645.46430834
_cell_formula_units_Z   16
loop_
 _symmetry_equiv_pos_site_id
 _symmetry_equiv_pos_as_xyz
  1  'x, y, z'
loop_
 _atom_site_type_symbol
 _atom_site_label
 _atom_site_symmetry_multiplicity
 _atom_site_fract_x
 _atom_site_fract_y
 _atom_site_fract_z
 _atom_site_occupancy
  S  S0  1  0.10582700  0.14586700  0.49174600  1
  S  S1  1  0.89417300  0.85413300  0.50825400  1
  S  S2  1  0.39417300  0.85413300  0.99174600  1
  S  S3  1  0.89417300  0.64586700  0.00825400  1
  S  S4  1  0.60582700  0.14586700  0.00825400  1
  S  S5  1  0.10582700  0.35413300  0.99174600  1
  S  S6  1  0.60582700  0.35413300  0.50825400  1
  S  S7  1  0.39417300  0.64586700  0.49174600  1
  S  S8  1  0.39057500  0.39779300  0.31174200  1
  S  S9  1  0.60942500  0.60220700  0.68825800  1
  S  S10  1  0.10942500  0.60220700  0.81174200  1
  S  S11  1  0.60942500  0.89779300  0.18825800  1
  S  S12  1  0.89057500  0.39779300  0.18825800  1
  S  S13  1  0.39057500  0.10220700  0.81174200  1
  S  S14  1  0.89057500  0.10220700  0.68825800  1
  S  S15  1  0.10942500  0.89779300  0.31174200  1
  S  S16  1  0.09906400  0.13056300  0.03606600  1
  S  S17  1  0.90093600  0.86943700  0.96393400  1
  S  S18  1  0.40093600  0.86943700  0.53606600  1
  S  S19  1  0.90093600  0.63056300  0.46393400  1
  S  S20  1  0.59906400  0.13056300  0.46393400  1
  S  S21  1  0.09906400  0.36943700  0.53606600  1
  S  S22  1  0.59906400  0.36943700  0.96393400  1
  S  S23  1  0.40093600  0.63056300  0.03606600  1
  S  S24  1  0.40064800  0.14296900  0.28826300  1
  S  S25  1  0.59935200  0.85703100  0.71173700  1
  S  S26  1  0.09935200  0.85703100  0.78826300  1
  S  S27  1  0.59935200  0.64296900  0.21173700  1
  S  S28  1  0.90064800  0.14296900  0.21173700  1
  S  S29  1  0.40064800  0.35703100  0.78826300  1
  S  S30  1  0.90064800  0.35703100  0.71173700  1
  S  S31  1  0.09935200  0.64296900  0.28826300  1
  S  S32  1  0.46245000  0.27869900  0.23150700  1
  S  S33  1  0.53755000  0.72130100  0.76849300  1
  S  S34  1  0.03755000  0.72130100  0.73150700  1
  S  S35  1  0.53755000  0.77869900  0.26849300  1
  S  S36  1  0.96245000  0.27869900  0.26849300  1
  S  S37  1  0.46245000  0.22130100  0.73150700  1
  S  S38  1  0.96245000  0.22130100  0.76849300  1
  S  S39  1  0.03755000  0.77869900  0.23150700  1
  S  S40  1  0.09383400  0.43011700  0.11477000  1
  S  S41  1  0.90616600  0.56988300  0.88523000  1
  S  S42  1  0.40616600  0.56988300  0.61477000  1
  S  S43  1  0.90616600  0.93011700  0.38523000  1
  S  S44  1  0.59383400  0.43011700  0.38523000  1
  S  S45  1  0.09383400  0.06988300  0.61477000  1
  S  S46  1  0.59383400  0.06988300  0.88523000  1
  S  S47  1  0.40616600  0.93011700  0.11477000  1
  N  N48  1  0.01640100  0.10337100  0.12871200  1
  N  N49  1  0.98359900  0.89662900  0.87128800  1
  N  N50  1  0.48359900  0.89662900  0.62871200  1
  N  N51  1  0.98359900  0.60337100  0.37128800  1
  N  N52  1  0.51640100  0.10337100  0.37128800  1
  N  N53  1  0.01640100  0.39662900  0.62871200  1
  N  N54  1  0.51640100  0.39662900  0.87128800  1
  N  N55  1  0.48359900  0.60337100  0.12871200  1
  N  N56  1  0.15123800  0.23457700  0.99895400  1
  N  N57  1  0.84876200  0.76542300  0.00104600  1
  N  N58  1  0.34876200  0.76542300  0.49895400  1
  N  N59  1  0.84876200  0.73457700  0.50104600  1
  N  N60  1  0.65123800  0.23457700  0.50104600  1
  N  N61  1  0.15123800  0.26542300  0.49895400  1
  N  N62  1  0.65123800  0.26542300  0.00104600  1
  N  N63  1  0.34876200  0.73457700  0.99895400  1
