# generated using pymatgen
data_RbSm(ClO)4
_symmetry_space_group_name_H-M   'P 1'
_cell_length_a   7.08579800
_cell_length_b   8.40290300
_cell_length_c   8.70491000
_cell_angle_alpha   90.00000000
_cell_angle_beta   90.00000000
_cell_angle_gamma   90.00000000
_symmetry_Int_Tables_number   1
_chemical_formula_structural   RbSm(ClO)4
_chemical_formula_sum   'Rb2 Sm2 Cl8 O8'
_cell_volume   518.30142511
_cell_formula_units_Z   2
loop_
 _symmetry_equiv_pos_site_id
 _symmetry_equiv_pos_as_xyz
  1  'x, y, z'
loop_
 _atom_site_type_symbol
 _atom_site_label
 _atom_site_symmetry_multiplicity
 _atom_site_fract_x
 _atom_site_fract_y
 _atom_site_fract_z
 _atom_site_occupancy
  Rb  Rb0  1  0.00000000  0.09010800  0.00000000  1
  Rb  Rb1  1  0.50000000  0.90989200  0.50000000  1
  Sm  Sm2  1  0.00000000  0.40918400  0.50000000  1
  Sm  Sm3  1  0.50000000  0.59081600  0.00000000  1
  Cl  Cl4  1  0.17323500  0.59079300  0.20886900  1
  Cl  Cl5  1  0.82676500  0.59079300  0.79113100  1
  Cl  Cl6  1  0.32676500  0.40920700  0.70886900  1
  Cl  Cl7  1  0.67323500  0.40920700  0.29113100  1
  Cl  Cl8  1  0.15174200  0.17393400  0.33787000  1
  Cl  Cl9  1  0.84825800  0.17393400  0.66213000  1
  Cl  Cl10  1  0.34825800  0.82606600  0.83787000  1
  Cl  Cl11  1  0.65174200  0.82606600  0.16213000  1
  O  O12  1  0.43969300  0.16157000  0.05127000  1
  O  O13  1  0.56030700  0.16157000  0.94873000  1
  O  O14  1  0.06030700  0.83843000  0.55127000  1
  O  O15  1  0.93969300  0.83843000  0.44873000  1
  O  O16  1  0.23303300  0.57132500  0.39448600  1
  O  O17  1  0.76696700  0.57132500  0.60551400  1
  O  O18  1  0.26696700  0.42867500  0.89448600  1
  O  O19  1  0.73303300  0.42867500  0.10551400  1
