# generated using pymatgen
data_RbEr(WO4)2
_symmetry_space_group_name_H-M   'P 1'
_cell_length_a   8.04374401
_cell_length_b   9.05048003
_cell_length_c   10.40561300
_cell_angle_alpha   90.00000000
_cell_angle_beta   90.00000000
_cell_angle_gamma   99.26240247
_symmetry_Int_Tables_number   1
_chemical_formula_structural   RbEr(WO4)2
_chemical_formula_sum   'Rb4 Er4 W8 O32'
_cell_volume   747.64900263
_cell_formula_units_Z   4
loop_
 _symmetry_equiv_pos_site_id
 _symmetry_equiv_pos_as_xyz
  1  'x, y, z'
loop_
 _atom_site_type_symbol
 _atom_site_label
 _atom_site_symmetry_multiplicity
 _atom_site_fract_x
 _atom_site_fract_y
 _atom_site_fract_z
 _atom_site_occupancy
  Rb  Rb0  1  0.07309100  0.51195400  0.21323400  1
  Rb  Rb1  1  0.92690900  0.48804600  0.78676600  1
  Rb  Rb2  1  0.42690900  0.48804600  0.71323400  1
  Rb  Rb3  1  0.57309100  0.51195400  0.28676600  1
  Er  Er4  1  0.02130000  0.06004500  0.77677900  1
  Er  Er5  1  0.97870000  0.93995500  0.22322100  1
  Er  Er6  1  0.47870000  0.93995500  0.27677900  1
  Er  Er7  1  0.52130000  0.06004500  0.72322100  1
  W  W8  1  0.28716200  0.22020800  0.00937400  1
  W  W9  1  0.71283800  0.77979200  0.99062600  1
  W  W10  1  0.21283800  0.77979200  0.50937400  1
  W  W11  1  0.78716200  0.22020800  0.49062600  1
  W  W12  1  0.17819000  0.16216100  0.48947700  1
  W  W13  1  0.82181000  0.83783900  0.51052300  1
  W  W14  1  0.32181000  0.83783900  0.98947700  1
  W  W15  1  0.67819000  0.16216100  0.01052300  1
  O  O16  1  0.25551000  0.00875300  0.39003400  1
  O  O17  1  0.74449000  0.99124700  0.60996600  1
  O  O18  1  0.24449000  0.99124700  0.89003400  1
  O  O19  1  0.75551000  0.00875300  0.10996600  1
  O  O20  1  0.35012200  0.39483400  0.08659300  1
  O  O21  1  0.64987800  0.60516600  0.91340700  1
  O  O22  1  0.14987800  0.60516600  0.58659300  1
  O  O23  1  0.85012200  0.39483400  0.41340700  1
  O  O24  1  0.11341500  0.13367100  0.11401100  1
  O  O25  1  0.88658500  0.86632900  0.88598900  1
  O  O26  1  0.38658500  0.86632900  0.61401100  1
  O  O27  1  0.61341500  0.13367100  0.38598900  1
  O  O28  1  0.33441900  0.73155500  0.36925100  1
  O  O29  1  0.66558100  0.26844500  0.63074900  1
  O  O30  1  0.16558100  0.26844500  0.86925100  1
  O  O31  1  0.83441900  0.73155500  0.13074900  1
  O  O32  1  0.26792800  0.32969000  0.41272400  1
  O  O33  1  0.73207200  0.67031000  0.58727600  1
  O  O34  1  0.23207200  0.67031000  0.91272400  1
  O  O35  1  0.76792800  0.32969000  0.08727600  1
  O  O36  1  0.00337400  0.22593900  0.60340900  1
  O  O37  1  0.99662600  0.77406100  0.39659100  1
  O  O38  1  0.49662600  0.77406100  0.10340900  1
  O  O39  1  0.50337400  0.22593900  0.89659100  1
  O  O40  1  0.30439600  0.15356400  0.63715600  1
  O  O41  1  0.69560400  0.84643600  0.36284400  1
  O  O42  1  0.19560400  0.84643600  0.13715600  1
  O  O43  1  0.80439600  0.15356400  0.86284400  1
  O  O44  1  0.45148100  0.09048600  0.10171500  1
  O  O45  1  0.54851900  0.90951400  0.89828500  1
  O  O46  1  0.04851900  0.90951400  0.60171500  1
  O  O47  1  0.95148100  0.09048600  0.39828500  1
