# generated using pymatgen
data_Sm7(BrO6)3
_symmetry_space_group_name_H-M   'P 1'
_cell_length_a   15.66295618
_cell_length_b   15.66295618
_cell_length_c   4.25286400
_cell_angle_alpha   90.00000000
_cell_angle_beta   90.00000000
_cell_angle_gamma   120.00000075
_symmetry_Int_Tables_number   1
_chemical_formula_structural   Sm7(BrO6)3
_chemical_formula_sum   'Sm14 Br6 O36'
_cell_volume   903.56539325
_cell_formula_units_Z   2
loop_
 _symmetry_equiv_pos_site_id
 _symmetry_equiv_pos_as_xyz
  1  'x, y, z'
loop_
 _atom_site_type_symbol
 _atom_site_label
 _atom_site_symmetry_multiplicity
 _atom_site_fract_x
 _atom_site_fract_y
 _atom_site_fract_z
 _atom_site_occupancy
  Sm  Sm0  1  0.65555800  0.54148600  0.75000000  1
  Sm  Sm1  1  0.34444200  0.45851400  0.25000000  1
  Sm  Sm2  1  0.88592800  0.34444200  0.75000000  1
  Sm  Sm3  1  0.11407200  0.65555800  0.25000000  1
  Sm  Sm4  1  0.45851400  0.11407200  0.75000000  1
  Sm  Sm5  1  0.54148600  0.88592800  0.25000000  1
  Sm  Sm6  1  0.74023700  0.89053800  0.75000000  1
  Sm  Sm7  1  0.25976300  0.10946200  0.25000000  1
  Sm  Sm8  1  0.15030000  0.25976300  0.75000000  1
  Sm  Sm9  1  0.84970000  0.74023700  0.25000000  1
  Sm  Sm10  1  0.10946200  0.84970000  0.75000000  1
  Sm  Sm11  1  0.89053800  0.15030000  0.25000000  1
  Sm  Sm12  1  0.33333300  0.66666700  0.75000000  1
  Sm  Sm13  1  0.66666700  0.33333300  0.25000000  1
  Br  Br14  1  0.93676100  0.55450800  0.75000000  1
  Br  Br15  1  0.06323900  0.44549200  0.25000000  1
  Br  Br16  1  0.61774700  0.06323900  0.75000000  1
  Br  Br17  1  0.38225300  0.93676100  0.25000000  1
  Br  Br18  1  0.44549200  0.38225300  0.75000000  1
  Br  Br19  1  0.55450800  0.61774700  0.25000000  1
  O  O20  1  0.47520600  0.83487800  0.75000000  1
  O  O21  1  0.52479400  0.16512200  0.25000000  1
  O  O22  1  0.35967100  0.52479400  0.75000000  1
  O  O23  1  0.64032900  0.47520600  0.25000000  1
  O  O24  1  0.16512200  0.64032900  0.75000000  1
  O  O25  1  0.83487800  0.35967100  0.25000000  1
  O  O26  1  0.75111300  0.72022200  0.75000000  1
  O  O27  1  0.24888700  0.27977800  0.25000000  1
  O  O28  1  0.96910900  0.24888700  0.75000000  1
  O  O29  1  0.03089100  0.75111300  0.25000000  1
  O  O30  1  0.27977800  0.03089100  0.75000000  1
  O  O31  1  0.72022200  0.96910900  0.25000000  1
  O  O32  1  0.84283800  0.81560700  0.75000000  1
  O  O33  1  0.15716200  0.18439300  0.25000000  1
  O  O34  1  0.97276900  0.15716200  0.75000000  1
  O  O35  1  0.02723100  0.84283800  0.25000000  1
  O  O36  1  0.18439300  0.02723100  0.75000000  1
  O  O37  1  0.81560700  0.97276900  0.25000000  1
  O  O38  1  0.56390400  0.82258000  0.75000000  1
  O  O39  1  0.43609600  0.17742000  0.25000000  1
  O  O40  1  0.25867600  0.43609600  0.75000000  1
  O  O41  1  0.74132400  0.56390400  0.25000000  1
  O  O42  1  0.17742000  0.74132400  0.75000000  1
  O  O43  1  0.82258000  0.25867600  0.25000000  1
  O  O44  1  0.92585900  0.73587900  0.75000000  1
  O  O45  1  0.07414100  0.26412100  0.25000000  1
  O  O46  1  0.81002100  0.07414100  0.75000000  1
  O  O47  1  0.18997900  0.92585900  0.25000000  1
  O  O48  1  0.26412100  0.18997900  0.75000000  1
  O  O49  1  0.73587900  0.81002100  0.25000000  1
  O  O50  1  0.72242500  0.42924700  0.75000000  1
  O  O51  1  0.27757500  0.57075300  0.25000000  1
  O  O52  1  0.70682200  0.27757500  0.75000000  1
  O  O53  1  0.29317800  0.72242500  0.25000000  1
  O  O54  1  0.57075300  0.29317800  0.75000000  1
  O  O55  1  0.42924700  0.70682200  0.25000000  1
