# generated using pymatgen
data_Rb2FeOF5
_symmetry_space_group_name_H-M   'P 1'
_cell_length_a   6.46707416
_cell_length_b   6.46707416
_cell_length_c   8.03868200
_cell_angle_alpha   90.00000000
_cell_angle_beta   90.00000000
_cell_angle_gamma   100.27978481
_symmetry_Int_Tables_number   1
_chemical_formula_structural   Rb2FeOF5
_chemical_formula_sum   'Rb4 Fe2 O2 F10'
_cell_volume   330.80548830
_cell_formula_units_Z   2
loop_
 _symmetry_equiv_pos_site_id
 _symmetry_equiv_pos_as_xyz
  1  'x, y, z'
loop_
 _atom_site_type_symbol
 _atom_site_label
 _atom_site_symmetry_multiplicity
 _atom_site_fract_x
 _atom_site_fract_y
 _atom_site_fract_z
 _atom_site_occupancy
  Rb  Rb0  1  0.04132900  0.49955200  0.25000000  1
  Rb  Rb1  1  0.95867100  0.50044800  0.75000000  1
  Rb  Rb2  1  0.49955200  0.04132900  0.25000000  1
  Rb  Rb3  1  0.50044800  0.95867100  0.75000000  1
  Fe  Fe4  1  0.00000000  0.00000000  0.00000000  1
  Fe  Fe5  1  0.00000000  0.00000000  0.50000000  1
  O  O6  1  0.57622000  0.57622000  0.25000000  1
  O  O7  1  0.42378000  0.42378000  0.75000000  1
  F  F8  1  0.23080600  0.23080600  0.50692200  1
  F  F9  1  0.76919400  0.76919400  0.49307800  1
  F  F10  1  0.76919400  0.76919400  0.00692200  1
  F  F11  1  0.23080600  0.23080600  0.99307800  1
  F  F12  1  0.80348200  0.19651800  0.00000000  1
  F  F13  1  0.19651800  0.80348200  0.00000000  1
  F  F14  1  0.19651800  0.80348200  0.50000000  1
  F  F15  1  0.80348200  0.19651800  0.50000000  1
  F  F16  1  0.00913400  0.00913400  0.25000000  1
  F  F17  1  0.99086600  0.99086600  0.75000000  1
