# generated using pymatgen
data_Pr4Re
_symmetry_space_group_name_H-M   'P 1'
_cell_length_a   7.99146345
_cell_length_b   7.99146345
_cell_length_c   7.99146345
_cell_angle_alpha   60.00000000
_cell_angle_beta   60.00000000
_cell_angle_gamma   60.00000000
_symmetry_Int_Tables_number   1
_chemical_formula_structural   Pr4Re
_chemical_formula_sum   'Pr8 Re2'
_cell_volume   360.88094831
_cell_formula_units_Z   2
loop_
 _symmetry_equiv_pos_site_id
 _symmetry_equiv_pos_as_xyz
  1  'x, y, z'
loop_
 _atom_site_type_symbol
 _atom_site_label
 _atom_site_symmetry_multiplicity
 _atom_site_fract_x
 _atom_site_fract_y
 _atom_site_fract_z
 _atom_site_occupancy
  Pr  Pr0  1  0.61374800  0.61374800  0.61374800  1
  Pr  Pr1  1  0.15875500  0.61374800  0.61374800  1
  Pr  Pr2  1  0.61374800  0.15875500  0.61374800  1
  Pr  Pr3  1  0.59124500  0.13625200  0.13625200  1
  Pr  Pr4  1  0.13625200  0.13625200  0.13625200  1
  Pr  Pr5  1  0.61374800  0.61374800  0.15875500  1
  Pr  Pr6  1  0.13625200  0.59124500  0.13625200  1
  Pr  Pr7  1  0.13625200  0.13625200  0.59124500  1
  Re  Re8  1  0.00000000  0.00000000  0.00000000  1
  Re  Re9  1  0.75000000  0.75000000  0.75000000  1
