# generated using pymatgen
data_RbP11
_symmetry_space_group_name_H-M   'P 1'
_cell_length_a   9.79647500
_cell_length_b   6.86800200
_cell_length_c   18.76403130
_cell_angle_alpha   86.14801616
_cell_angle_beta   90.00000000
_cell_angle_gamma   90.00000000
_symmetry_Int_Tables_number   1
_chemical_formula_structural   RbP11
_chemical_formula_sum   'Rb4 P44'
_cell_volume   1259.63344658
_cell_formula_units_Z   4
loop_
 _symmetry_equiv_pos_site_id
 _symmetry_equiv_pos_as_xyz
  1  'x, y, z'
loop_
 _atom_site_type_symbol
 _atom_site_label
 _atom_site_symmetry_multiplicity
 _atom_site_fract_x
 _atom_site_fract_y
 _atom_site_fract_z
 _atom_site_occupancy
  Rb  Rb0  1  0.47477900  0.93005300  0.67242700  1
  Rb  Rb1  1  0.52522100  0.06994700  0.32757300  1
  Rb  Rb2  1  0.97477900  0.06994700  0.32757300  1
  Rb  Rb3  1  0.02522100  0.93005300  0.67242700  1
  P  P4  1  0.40394600  0.84434200  0.08643000  1
  P  P5  1  0.59605400  0.15565800  0.91357000  1
  P  P6  1  0.90394600  0.15565800  0.91357000  1
  P  P7  1  0.09605400  0.84434200  0.08643000  1
  P  P8  1  0.75000000  0.79628600  0.22043700  1
  P  P9  1  0.25000000  0.20371400  0.77956300  1
  P  P10  1  0.91067100  0.68143300  0.06093600  1
  P  P11  1  0.08932900  0.31856700  0.93906400  1
  P  P12  1  0.41067100  0.31856700  0.93906400  1
  P  P13  1  0.58932900  0.68143300  0.06093600  1
  P  P14  1  0.75000000  0.75105500  0.46420000  1
  P  P15  1  0.25000000  0.24894500  0.53580000  1
  P  P16  1  0.75000000  0.35262900  0.95694300  1
  P  P17  1  0.25000000  0.64737100  0.04305700  1
  P  P18  1  0.36733500  0.77664800  0.20303700  1
  P  P19  1  0.63266500  0.22335200  0.79696300  1
  P  P20  1  0.86733500  0.22335200  0.79696300  1
  P  P21  1  0.13266500  0.77664800  0.20303700  1
  P  P22  1  0.75000000  0.73758500  0.57962300  1
  P  P23  1  0.25000000  0.26241500  0.42037700  1
  P  P24  1  0.75000000  0.86993200  0.10675500  1
  P  P25  1  0.25000000  0.13006800  0.89324500  1
  P  P26  1  0.90957500  0.54353400  0.43011300  1
  P  P27  1  0.09042500  0.45646600  0.56988700  1
  P  P28  1  0.40957500  0.45646600  0.56988700  1
  P  P29  1  0.59042500  0.54353400  0.43011300  1
  P  P30  1  0.75000000  0.48227000  0.21704900  1
  P  P31  1  0.25000000  0.51773000  0.78295100  1
  P  P32  1  0.75000000  0.62310600  0.87571800  1
  P  P33  1  0.25000000  0.37689400  0.12428200  1
  P  P34  1  0.40450900  0.45432600  0.20335000  1
  P  P35  1  0.59549100  0.54567400  0.79665000  1
  P  P36  1  0.90450900  0.54567400  0.79665000  1
  P  P37  1  0.09549100  0.45432600  0.20335000  1
  P  P38  1  0.40992500  0.68671700  0.47704500  1
  P  P39  1  0.59007500  0.31328300  0.52295500  1
  P  P40  1  0.90992500  0.31328300  0.52295500  1
  P  P41  1  0.09007500  0.68671700  0.47704500  1
  P  P42  1  0.91259000  0.41458500  0.13784800  1
  P  P43  1  0.08741000  0.58541500  0.86215200  1
  P  P44  1  0.41259000  0.58541500  0.86215200  1
  P  P45  1  0.58741000  0.41458500  0.13784800  1
  P  P46  1  0.75000000  0.42279100  0.59491000  1
  P  P47  1  0.25000000  0.57720900  0.40509000  1
