# generated using pymatgen
data_Sm9(Ni13P6)2
_symmetry_space_group_name_H-M   'P 1'
_cell_length_a   14.37694063
_cell_length_b   14.37694063
_cell_length_c   3.87334900
_cell_angle_alpha   90.00000000
_cell_angle_beta   90.00000000
_cell_angle_gamma   120.00000291
_symmetry_Int_Tables_number   1
_chemical_formula_structural   Sm9(Ni13P6)2
_chemical_formula_sum   'Sm9 Ni26 P12'
_cell_volume   693.34630862
_cell_formula_units_Z   1
loop_
 _symmetry_equiv_pos_site_id
 _symmetry_equiv_pos_as_xyz
  1  'x, y, z'
loop_
 _atom_site_type_symbol
 _atom_site_label
 _atom_site_symmetry_multiplicity
 _atom_site_fract_x
 _atom_site_fract_y
 _atom_site_fract_z
 _atom_site_occupancy
  Sm  Sm0  1  0.38119100  0.19059600  0.50000000  1
  Sm  Sm1  1  0.80940400  0.19059600  0.50000000  1
  Sm  Sm2  1  0.80940400  0.61880900  0.50000000  1
  Sm  Sm3  1  0.81439300  0.90719700  0.50000000  1
  Sm  Sm4  1  0.09280300  0.90719700  0.50000000  1
  Sm  Sm5  1  0.09280300  0.18560700  0.50000000  1
  Sm  Sm6  1  0.15128500  0.57564200  0.00000000  1
  Sm  Sm7  1  0.42435800  0.57564200  0.00000000  1
  Sm  Sm8  1  0.42435800  0.84871500  0.00000000  1
  Ni  Ni9  1  0.61833100  0.80916500  0.00000000  1
  Ni  Ni10  1  0.19083500  0.80916500  0.00000000  1
  Ni  Ni11  1  0.19083500  0.38166900  0.00000000  1
  Ni  Ni12  1  0.79996200  0.39998100  0.50000000  1
  Ni  Ni13  1  0.60001900  0.39998100  0.50000000  1
  Ni  Ni14  1  0.60001900  0.20003800  0.50000000  1
  Ni  Ni15  1  0.55517400  0.27758700  0.00000000  1
  Ni  Ni16  1  0.72241300  0.27758700  0.00000000  1
  Ni  Ni17  1  0.72241300  0.44482600  0.00000000  1
  Ni  Ni18  1  0.19319500  0.09659800  0.00000000  1
  Ni  Ni19  1  0.90340200  0.09659800  0.00000000  1
  Ni  Ni20  1  0.90340200  0.80680500  0.00000000  1
  Ni  Ni21  1  0.32650400  0.37924400  0.50000000  1
  Ni  Ni22  1  0.62075600  0.94726000  0.50000000  1
  Ni  Ni23  1  0.32650400  0.94726000  0.50000000  1
  Ni  Ni24  1  0.05274000  0.67349600  0.50000000  1
  Ni  Ni25  1  0.62075600  0.67349600  0.50000000  1
  Ni  Ni26  1  0.05274000  0.37924400  0.50000000  1
  Ni  Ni27  1  0.62319200  0.07752600  0.00000000  1
  Ni  Ni28  1  0.92247400  0.54566600  0.00000000  1
  Ni  Ni29  1  0.62319200  0.54566600  0.00000000  1
  Ni  Ni30  1  0.45433400  0.37680800  0.00000000  1
  Ni  Ni31  1  0.92247400  0.37680800  0.00000000  1
  Ni  Ni32  1  0.45433400  0.07752600  0.00000000  1
  Ni  Ni33  1  0.33333300  0.66666700  0.50000000  1
  Ni  Ni34  1  0.00000000  0.00000000  0.00000000  1
  P  P35  1  0.97368600  0.48684300  0.50000000  1
  P  P36  1  0.51315700  0.48684300  0.50000000  1
  P  P37  1  0.51315700  0.02631400  0.50000000  1
  P  P38  1  0.72237300  0.99623800  0.00000000  1
  P  P39  1  0.00376200  0.72613400  0.00000000  1
  P  P40  1  0.72237300  0.72613400  0.00000000  1
  P  P41  1  0.27386600  0.27762700  0.00000000  1
  P  P42  1  0.00376200  0.27762700  0.00000000  1
  P  P43  1  0.27386600  0.99623800  0.00000000  1
  P  P44  1  0.51782500  0.75891300  0.50000000  1
  P  P45  1  0.24108700  0.75891300  0.50000000  1
  P  P46  1  0.24108700  0.48217500  0.50000000  1
