# generated using pymatgen
data_Rb3IrCl6O
_symmetry_space_group_name_H-M   'P 1'
_cell_length_a   7.07831500
_cell_length_b   12.45526000
_cell_length_c   14.50404700
_cell_angle_alpha   90.00000000
_cell_angle_beta   90.00000000
_cell_angle_gamma   90.00000000
_symmetry_Int_Tables_number   1
_chemical_formula_structural   Rb3IrCl6O
_chemical_formula_sum   'Rb12 Ir4 Cl24 O4'
_cell_volume   1278.70947110
_cell_formula_units_Z   4
loop_
 _symmetry_equiv_pos_site_id
 _symmetry_equiv_pos_as_xyz
  1  'x, y, z'
loop_
 _atom_site_type_symbol
 _atom_site_label
 _atom_site_symmetry_multiplicity
 _atom_site_fract_x
 _atom_site_fract_y
 _atom_site_fract_z
 _atom_site_occupancy
  Rb  Rb0  1  0.25000000  0.88884400  0.53723000  1
  Rb  Rb1  1  0.75000000  0.11115600  0.46277000  1
  Rb  Rb2  1  0.75000000  0.61115600  0.03723000  1
  Rb  Rb3  1  0.25000000  0.38884400  0.96277000  1
  Rb  Rb4  1  0.25000000  0.55777400  0.64189300  1
  Rb  Rb5  1  0.75000000  0.44222600  0.35810700  1
  Rb  Rb6  1  0.75000000  0.94222600  0.14189300  1
  Rb  Rb7  1  0.25000000  0.05777400  0.85810700  1
  Rb  Rb8  1  0.25000000  0.67175300  0.27378200  1
  Rb  Rb9  1  0.75000000  0.32824700  0.72621800  1
  Rb  Rb10  1  0.75000000  0.82824700  0.77378200  1
  Rb  Rb11  1  0.25000000  0.17175300  0.22621800  1
  Ir  Ir12  1  0.25000000  0.72403300  0.90394300  1
  Ir  Ir13  1  0.75000000  0.27596700  0.09605700  1
  Ir  Ir14  1  0.75000000  0.77596700  0.40394300  1
  Ir  Ir15  1  0.25000000  0.22403300  0.59605700  1
  Cl  Cl16  1  0.01646700  0.60527600  0.84754000  1
  Cl  Cl17  1  0.98353300  0.39472400  0.15246000  1
  Cl  Cl18  1  0.98353300  0.89472400  0.34754000  1
  Cl  Cl19  1  0.51646700  0.39472400  0.15246000  1
  Cl  Cl20  1  0.01646700  0.10527600  0.65246000  1
  Cl  Cl21  1  0.48353300  0.60527600  0.84754000  1
  Cl  Cl22  1  0.48353300  0.10527600  0.65246000  1
  Cl  Cl23  1  0.51646700  0.89472400  0.34754000  1
  Cl  Cl24  1  0.25000000  0.63389300  0.04725400  1
  Cl  Cl25  1  0.75000000  0.36610700  0.95274600  1
  Cl  Cl26  1  0.75000000  0.86610700  0.54725400  1
  Cl  Cl27  1  0.25000000  0.13389300  0.45274600  1
  Cl  Cl28  1  0.01676100  0.84240500  0.96157500  1
  Cl  Cl29  1  0.98323900  0.15759500  0.03842500  1
  Cl  Cl30  1  0.98323900  0.65759500  0.46157500  1
  Cl  Cl31  1  0.51676100  0.15759500  0.03842500  1
  Cl  Cl32  1  0.01676100  0.34240500  0.53842500  1
  Cl  Cl33  1  0.48323900  0.84240500  0.96157500  1
  Cl  Cl34  1  0.48323900  0.34240500  0.53842500  1
  Cl  Cl35  1  0.51676100  0.65759500  0.46157500  1
  Cl  Cl36  1  0.25000000  0.81443100  0.75902900  1
  Cl  Cl37  1  0.75000000  0.18556900  0.24097100  1
  Cl  Cl38  1  0.75000000  0.68556900  0.25902900  1
  Cl  Cl39  1  0.25000000  0.31443100  0.74097100  1
  O  O40  1  0.25000000  0.93454200  0.16458200  1
  O  O41  1  0.75000000  0.06545800  0.83541800  1
  O  O42  1  0.75000000  0.56545800  0.66458200  1
  O  O43  1  0.25000000  0.43454200  0.33541800  1
