# generated using pymatgen
data_Sr3Sm2(BO3)4
_symmetry_space_group_name_H-M   'P 1'
_cell_length_a   7.42272000
_cell_length_b   8.80107300
_cell_length_c   16.56943600
_cell_angle_alpha   90.00000000
_cell_angle_beta   90.00000000
_cell_angle_gamma   90.00000000
_symmetry_Int_Tables_number   1
_chemical_formula_structural   Sr3Sm2(BO3)4
_chemical_formula_sum   'Sr12 Sm8 B16 O48'
_cell_volume   1082.44646765
_cell_formula_units_Z   4
loop_
 _symmetry_equiv_pos_site_id
 _symmetry_equiv_pos_as_xyz
  1  'x, y, z'
loop_
 _atom_site_type_symbol
 _atom_site_label
 _atom_site_symmetry_multiplicity
 _atom_site_fract_x
 _atom_site_fract_y
 _atom_site_fract_z
 _atom_site_occupancy
  Sr  Sr0  1  0.02855100  0.32951000  0.45829200  1
  Sr  Sr1  1  0.97144900  0.67049000  0.95829200  1
  Sr  Sr2  1  0.52855100  0.17049000  0.45829200  1
  Sr  Sr3  1  0.47144900  0.82951000  0.95829200  1
  Sr  Sr4  1  0.17959700  0.84802800  0.41363600  1
  Sr  Sr5  1  0.82040300  0.15197200  0.91363600  1
  Sr  Sr6  1  0.67959700  0.65197200  0.41363600  1
  Sr  Sr7  1  0.32040300  0.34802800  0.91363600  1
  Sr  Sr8  1  0.31294700  0.35078200  0.66436700  1
  Sr  Sr9  1  0.68705300  0.64921800  0.16436700  1
  Sr  Sr10  1  0.81294700  0.14921800  0.66436700  1
  Sr  Sr11  1  0.18705300  0.85078200  0.16436700  1
  Sm  Sm12  1  0.31814400  0.46518200  0.29021900  1
  Sm  Sm13  1  0.68185600  0.53481800  0.79021900  1
  Sm  Sm14  1  0.81814400  0.03481800  0.29021900  1
  Sm  Sm15  1  0.18185600  0.96518200  0.79021900  1
  Sm  Sm16  1  0.03075200  0.32952300  0.11987800  1
  Sm  Sm17  1  0.96924800  0.67047700  0.61987800  1
  Sm  Sm18  1  0.53075200  0.17047700  0.11987800  1
  Sm  Sm19  1  0.46924800  0.82952300  0.61987800  1
  B  B20  1  0.17054900  0.06106700  0.99785800  1
  B  B21  1  0.82945100  0.93893300  0.49785800  1
  B  B22  1  0.67054900  0.43893300  0.99785800  1
  B  B23  1  0.32945100  0.56106700  0.49785800  1
  B  B24  1  0.00815300  0.37263900  0.78688000  1
  B  B25  1  0.99184700  0.62736100  0.28688000  1
  B  B26  1  0.50815300  0.12736100  0.78688000  1
  B  B27  1  0.49184700  0.87263900  0.28688000  1
  B  B28  1  0.16082500  0.04471300  0.58462500  1
  B  B29  1  0.83917500  0.95528700  0.08462500  1
  B  B30  1  0.66082500  0.45528700  0.58462500  1
  B  B31  1  0.33917500  0.54471300  0.08462500  1
  B  B32  1  0.21689000  0.14610500  0.28741600  1
  B  B33  1  0.78311000  0.85389500  0.78741600  1
  B  B34  1  0.71689000  0.35389500  0.28741600  1
  B  B35  1  0.28311000  0.64610500  0.78741600  1
  O  O36  1  0.24562500  0.22028300  0.21396200  1
  O  O37  1  0.75437500  0.77971700  0.71396200  1
  O  O38  1  0.74562500  0.27971700  0.21396200  1
  O  O39  1  0.25437500  0.72028300  0.71396200  1
  O  O40  1  0.09293700  0.19035300  0.58443900  1
  O  O41  1  0.90706300  0.80964700  0.08443900  1
  O  O42  1  0.59293700  0.30964700  0.58443900  1
  O  O43  1  0.40706300  0.69035300  0.08443900  1
  O  O44  1  0.09271700  0.20551400  0.00051800  1
  O  O45  1  0.90728300  0.79448600  0.50051800  1
  O  O46  1  0.59271700  0.29448600  0.00051800  1
  O  O47  1  0.40728300  0.70551400  0.50051800  1
  O  O48  1  0.13179000  0.00843900  0.29070300  1
  O  O49  1  0.86821000  0.99156100  0.79070300  1
  O  O50  1  0.63179000  0.49156100  0.29070300  1
  O  O51  1  0.36821000  0.50843900  0.79070300  1
  O  O52  1  0.19865200  0.50297700  0.03393400  1
  O  O53  1  0.80134800  0.49702300  0.53393400  1
  O  O54  1  0.69865200  0.99702300  0.03393400  1
  O  O55  1  0.30134800  0.00297700  0.53393400  1
  O  O56  1  0.11092500  0.24113000  0.78416600  1
  O  O57  1  0.88907500  0.75887000  0.28416600  1
  O  O58  1  0.61092500  0.25887000  0.78416600  1
  O  O59  1  0.38907500  0.74113000  0.28416600  1
  O  O60  1  0.04710800  0.55197900  0.21578800  1
  O  O61  1  0.95289200  0.44802100  0.71578800  1
  O  O62  1  0.54710800  0.94802100  0.21578800  1
  O  O63  1  0.45289200  0.05197900  0.71578800  1
  O  O64  1  0.26792200  0.22424500  0.35589700  1
  O  O65  1  0.73207800  0.77575500  0.85589700  1
  O  O66  1  0.76792200  0.27575500  0.35589700  1
  O  O67  1  0.23207800  0.72424500  0.85589700  1
  O  O68  1  0.38373300  0.46220100  0.43801600  1
  O  O69  1  0.61626700  0.53779900  0.93801600  1
  O  O70  1  0.88373300  0.03779900  0.43801600  1
  O  O71  1  0.11626700  0.96220100  0.93801600  1
  O  O72  1  0.40456900  0.43744400  0.13984900  1
  O  O73  1  0.59543100  0.56255600  0.63984900  1
  O  O74  1  0.90456900  0.06255600  0.13984900  1
  O  O75  1  0.09543100  0.93744400  0.63984900  1
  O  O76  1  0.30537400  0.02622000  0.05314200  1
  O  O77  1  0.69462600  0.97378000  0.55314200  1
  O  O78  1  0.80537400  0.47378000  0.05314200  1
  O  O79  1  0.19462600  0.52622000  0.55314200  1
  O  O80  1  0.05741100  0.57089000  0.35941500  1
  O  O81  1  0.94258900  0.42911000  0.85941500  1
  O  O82  1  0.55741100  0.92911000  0.35941500  1
  O  O83  1  0.44258900  0.07089000  0.85941500  1
