# generated using pymatgen
data_Sm23Mg4Rh7
_symmetry_space_group_name_H-M   'P 1'
_cell_length_a   9.94872648
_cell_length_b   9.94872648
_cell_length_c   22.42043000
_cell_angle_alpha   90.00000000
_cell_angle_beta   90.00000000
_cell_angle_gamma   120.00000316
_symmetry_Int_Tables_number   1
_chemical_formula_structural   Sm23Mg4Rh7
_chemical_formula_sum   'Sm46 Mg8 Rh14'
_cell_volume   1921.80596513
_cell_formula_units_Z   2
loop_
 _symmetry_equiv_pos_site_id
 _symmetry_equiv_pos_as_xyz
  1  'x, y, z'
loop_
 _atom_site_type_symbol
 _atom_site_label
 _atom_site_symmetry_multiplicity
 _atom_site_fract_x
 _atom_site_fract_y
 _atom_site_fract_z
 _atom_site_occupancy
  Sm  Sm0  1  0.20812900  0.41625800  0.71909400  1
  Sm  Sm1  1  0.20812900  0.79187100  0.71909400  1
  Sm  Sm2  1  0.79187100  0.58374200  0.21909400  1
  Sm  Sm3  1  0.58374200  0.79187100  0.71909400  1
  Sm  Sm4  1  0.79187100  0.20812900  0.21909400  1
  Sm  Sm5  1  0.41625800  0.20812900  0.21909400  1
  Sm  Sm6  1  0.79183500  0.58366900  0.94824500  1
  Sm  Sm7  1  0.79183500  0.20816500  0.94824500  1
  Sm  Sm8  1  0.20816500  0.41633100  0.44824500  1
  Sm  Sm9  1  0.41633100  0.20816500  0.94824500  1
  Sm  Sm10  1  0.20816500  0.79183500  0.44824500  1
  Sm  Sm11  1  0.58366900  0.79183500  0.44824500  1
  Sm  Sm12  1  0.21038800  0.42077600  0.99102700  1
  Sm  Sm13  1  0.21038800  0.78961200  0.99102700  1
  Sm  Sm14  1  0.78961200  0.57922400  0.49102700  1
  Sm  Sm15  1  0.57922400  0.78961200  0.99102700  1
  Sm  Sm16  1  0.78961200  0.21038800  0.49102700  1
  Sm  Sm17  1  0.42077600  0.21038800  0.49102700  1
  Sm  Sm18  1  0.87149100  0.74298200  0.63482100  1
  Sm  Sm19  1  0.87149100  0.12850900  0.63482100  1
  Sm  Sm20  1  0.12850900  0.25701800  0.13482100  1
  Sm  Sm21  1  0.25701800  0.12850900  0.63482100  1
  Sm  Sm22  1  0.12850900  0.87149100  0.13482100  1
  Sm  Sm23  1  0.74298200  0.87149100  0.13482100  1
  Sm  Sm24  1  0.45799300  0.91598700  0.85642700  1
  Sm  Sm25  1  0.45799300  0.54200700  0.85642700  1
  Sm  Sm26  1  0.54200700  0.08401300  0.35642700  1
  Sm  Sm27  1  0.08401300  0.54200700  0.85642700  1
  Sm  Sm28  1  0.54200700  0.45799300  0.35642700  1
  Sm  Sm29  1  0.91598700  0.45799300  0.35642700  1
  Sm  Sm30  1  0.00000000  0.00000000  0.99997000  1
  Sm  Sm31  1  0.00000000  0.00000000  0.49997000  1
  Sm  Sm32  1  0.45975900  0.91951700  0.58487900  1
  Sm  Sm33  1  0.45975900  0.54024100  0.58487900  1
  Sm  Sm34  1  0.54024100  0.08048300  0.08487900  1
  Sm  Sm35  1  0.08048300  0.54024100  0.58487900  1
  Sm  Sm36  1  0.54024100  0.45975900  0.08487900  1
  Sm  Sm37  1  0.91951700  0.45975900  0.08487900  1
  Sm  Sm38  1  0.79453600  0.58907200  0.78178900  1
  Sm  Sm39  1  0.79453600  0.20546400  0.78178900  1
  Sm  Sm40  1  0.20546400  0.41092800  0.28178900  1
  Sm  Sm41  1  0.41092800  0.20546400  0.78178900  1
  Sm  Sm42  1  0.20546400  0.79453600  0.28178900  1
  Sm  Sm43  1  0.58907200  0.79453600  0.28178900  1
  Sm  Sm44  1  0.66666700  0.33333300  0.64495100  1
  Sm  Sm45  1  0.33333300  0.66666700  0.14495100  1
  Mg  Mg46  1  0.00000000  0.00000000  0.75032100  1
  Mg  Mg47  1  0.00000000  0.00000000  0.25032100  1
  Mg  Mg48  1  0.10585500  0.21170900  0.86282800  1
  Mg  Mg49  1  0.10585500  0.89414500  0.86282800  1
  Mg  Mg50  1  0.89414500  0.78829100  0.36282800  1
  Mg  Mg51  1  0.78829100  0.89414500  0.86282800  1
  Mg  Mg52  1  0.89414500  0.10585500  0.36282800  1
  Mg  Mg53  1  0.21170900  0.10585500  0.36282800  1
  Rh  Rh54  1  0.52107700  0.04215400  0.70960500  1
  Rh  Rh55  1  0.52107700  0.47892300  0.70960500  1
  Rh  Rh56  1  0.47892300  0.95784600  0.20960500  1
  Rh  Rh57  1  0.95784600  0.47892300  0.70960500  1
  Rh  Rh58  1  0.47892300  0.52107700  0.20960500  1
  Rh  Rh59  1  0.04215400  0.52107700  0.20960500  1
  Rh  Rh60  1  0.66666700  0.33333300  0.86388600  1
  Rh  Rh61  1  0.33333300  0.66666700  0.36388600  1
  Rh  Rh62  1  0.14349400  0.28698800  0.56381700  1
  Rh  Rh63  1  0.14349400  0.85650600  0.56381700  1
  Rh  Rh64  1  0.85650600  0.71301200  0.06381700  1
  Rh  Rh65  1  0.71301200  0.85650600  0.56381700  1
  Rh  Rh66  1  0.85650600  0.14349400  0.06381700  1
  Rh  Rh67  1  0.28698800  0.14349400  0.06381700  1
