# generated using pymatgen
data_Rb3YbCl6
_symmetry_space_group_name_H-M   'P 1'
_cell_length_a   13.56517302
_cell_length_b   13.56517302
_cell_length_c   12.86561008
_cell_angle_alpha   79.58427635
_cell_angle_beta   79.58427635
_cell_angle_gamma   34.83436654
_symmetry_Int_Tables_number   1
_chemical_formula_structural   Rb3YbCl6
_chemical_formula_sum   'Rb12 Yb4 Cl24'
_cell_volume   1327.80580446
_cell_formula_units_Z   4
loop_
 _symmetry_equiv_pos_site_id
 _symmetry_equiv_pos_as_xyz
  1  'x, y, z'
loop_
 _atom_site_type_symbol
 _atom_site_label
 _atom_site_symmetry_multiplicity
 _atom_site_fract_x
 _atom_site_fract_y
 _atom_site_fract_z
 _atom_site_occupancy
  Rb  Rb0  1  0.30479700  0.79500200  0.06818600  1
  Rb  Rb1  1  0.69520300  0.20499800  0.93181400  1
  Rb  Rb2  1  0.20499800  0.69520300  0.43181400  1
  Rb  Rb3  1  0.79500200  0.30479700  0.56818600  1
  Rb  Rb4  1  0.47261400  0.83865300  0.35148000  1
  Rb  Rb5  1  0.52738600  0.16134700  0.64852000  1
  Rb  Rb6  1  0.16134700  0.52738600  0.14852000  1
  Rb  Rb7  1  0.83865300  0.47261400  0.85148000  1
  Rb  Rb8  1  0.65067800  0.02519000  0.29840800  1
  Rb  Rb9  1  0.34932200  0.97481000  0.70159200  1
  Rb  Rb10  1  0.97481000  0.34932200  0.20159200  1
  Rb  Rb11  1  0.02519000  0.65067800  0.79840800  1
  Yb  Yb12  1  0.78688300  0.21311700  0.25000000  1
  Yb  Yb13  1  0.21311700  0.78688300  0.75000000  1
  Yb  Yb14  1  0.50000000  0.00000000  0.00000000  1
  Yb  Yb15  1  0.00000000  0.50000000  0.50000000  1
  Cl  Cl16  1  0.61874000  0.71827400  0.08151900  1
  Cl  Cl17  1  0.38126000  0.28172600  0.91848100  1
  Cl  Cl18  1  0.28172600  0.38126000  0.41848100  1
  Cl  Cl19  1  0.71827400  0.61874000  0.58151900  1
  Cl  Cl20  1  0.50213900  0.38232800  0.17382300  1
  Cl  Cl21  1  0.49786100  0.61767200  0.82617700  1
  Cl  Cl22  1  0.61767200  0.49786100  0.32617700  1
  Cl  Cl23  1  0.38232800  0.50213900  0.67382300  1
  Cl  Cl24  1  0.78926000  0.86293800  0.03555500  1
  Cl  Cl25  1  0.21074000  0.13706200  0.96444500  1
  Cl  Cl26  1  0.13706200  0.21074000  0.46444500  1
  Cl  Cl27  1  0.86293800  0.78926000  0.53555500  1
  Cl  Cl28  1  0.90002100  0.98294300  0.69992200  1
  Cl  Cl29  1  0.09997900  0.01705700  0.30007800  1
  Cl  Cl30  1  0.01705700  0.09997900  0.80007800  1
  Cl  Cl31  1  0.98294300  0.90002100  0.19992200  1
  Cl  Cl32  1  0.71869900  0.16188100  0.44368000  1
  Cl  Cl33  1  0.28130100  0.83811900  0.55632000  1
  Cl  Cl34  1  0.83811900  0.28130100  0.05632000  1
  Cl  Cl35  1  0.16188100  0.71869900  0.94368000  1
  Cl  Cl36  1  0.35663300  0.14498900  0.18979500  1
  Cl  Cl37  1  0.64336700  0.85501100  0.81020500  1
  Cl  Cl38  1  0.85501100  0.64336700  0.31020500  1
  Cl  Cl39  1  0.14498900  0.35663300  0.68979500  1
