# generated using pymatgen
data_Rb2Cu(Cl2O)2
_symmetry_space_group_name_H-M   'P 1'
_cell_length_a   7.41241300
_cell_length_b   7.41241300
_cell_length_c   8.63527200
_cell_angle_alpha   90.00000000
_cell_angle_beta   90.00000000
_cell_angle_gamma   90.00000000
_symmetry_Int_Tables_number   1
_chemical_formula_structural   Rb2Cu(Cl2O)2
_chemical_formula_sum   'Rb4 Cu2 Cl8 O4'
_cell_volume   474.45523181
_cell_formula_units_Z   2
loop_
 _symmetry_equiv_pos_site_id
 _symmetry_equiv_pos_as_xyz
  1  'x, y, z'
loop_
 _atom_site_type_symbol
 _atom_site_label
 _atom_site_symmetry_multiplicity
 _atom_site_fract_x
 _atom_site_fract_y
 _atom_site_fract_z
 _atom_site_occupancy
  Rb  Rb0  1  0.00000000  0.50000000  0.25000000  1
  Rb  Rb1  1  0.00000000  0.50000000  0.75000000  1
  Rb  Rb2  1  0.50000000  0.00000000  0.25000000  1
  Rb  Rb3  1  0.50000000  0.00000000  0.75000000  1
  Cu  Cu4  1  0.00000000  0.00000000  0.00000000  1
  Cu  Cu5  1  0.50000000  0.50000000  0.50000000  1
  Cl  Cl6  1  0.21225200  0.21225200  0.00000000  1
  Cl  Cl7  1  0.78774800  0.78774800  0.00000000  1
  Cl  Cl8  1  0.28774800  0.71225200  0.50000000  1
  Cl  Cl9  1  0.71225200  0.28774800  0.50000000  1
  Cl  Cl10  1  0.27780500  0.72219500  0.00000000  1
  Cl  Cl11  1  0.72219500  0.27780500  0.00000000  1
  Cl  Cl12  1  0.77780500  0.77780500  0.50000000  1
  Cl  Cl13  1  0.22219500  0.22219500  0.50000000  1
  O  O14  1  0.00000000  0.00000000  0.20423300  1
  O  O15  1  0.00000000  0.00000000  0.79576700  1
  O  O16  1  0.50000000  0.50000000  0.70423300  1
  O  O17  1  0.50000000  0.50000000  0.29576700  1
