# generated using pymatgen
data_Sm23Cd4Ru7
_symmetry_space_group_name_H-M   'P 1'
_cell_length_a   9.88069982
_cell_length_b   9.88069982
_cell_length_c   22.13998900
_cell_angle_alpha   90.00000000
_cell_angle_beta   90.00000000
_cell_angle_gamma   119.99999880
_symmetry_Int_Tables_number   1
_chemical_formula_structural   Sm23Cd4Ru7
_chemical_formula_sum   'Sm46 Cd8 Ru14'
_cell_volume   1871.90346695
_cell_formula_units_Z   2
loop_
 _symmetry_equiv_pos_site_id
 _symmetry_equiv_pos_as_xyz
  1  'x, y, z'
loop_
 _atom_site_type_symbol
 _atom_site_label
 _atom_site_symmetry_multiplicity
 _atom_site_fract_x
 _atom_site_fract_y
 _atom_site_fract_z
 _atom_site_occupancy
  Sm  Sm0  1  0.20736500  0.41473000  0.71957000  1
  Sm  Sm1  1  0.20736500  0.79263500  0.71957000  1
  Sm  Sm2  1  0.79263500  0.58527000  0.21957000  1
  Sm  Sm3  1  0.58527000  0.79263500  0.71957000  1
  Sm  Sm4  1  0.79263500  0.20736500  0.21957000  1
  Sm  Sm5  1  0.41473000  0.20736500  0.21957000  1
  Sm  Sm6  1  0.79304300  0.58608600  0.94758900  1
  Sm  Sm7  1  0.79304300  0.20695700  0.94758900  1
  Sm  Sm8  1  0.20695700  0.41391400  0.44758900  1
  Sm  Sm9  1  0.41391400  0.20695700  0.94758900  1
  Sm  Sm10  1  0.20695700  0.79304300  0.44758900  1
  Sm  Sm11  1  0.58608600  0.79304300  0.44758900  1
  Sm  Sm12  1  0.20797500  0.41595000  0.99061900  1
  Sm  Sm13  1  0.20797500  0.79202500  0.99061900  1
  Sm  Sm14  1  0.79202500  0.58405000  0.49061900  1
  Sm  Sm15  1  0.58405000  0.79202500  0.99061900  1
  Sm  Sm16  1  0.79202500  0.20797500  0.49061900  1
  Sm  Sm17  1  0.41595000  0.20797500  0.49061900  1
  Sm  Sm18  1  0.87368700  0.74737500  0.63688600  1
  Sm  Sm19  1  0.87368700  0.12631300  0.63688600  1
  Sm  Sm20  1  0.12631300  0.25262500  0.13688600  1
  Sm  Sm21  1  0.25262500  0.12631300  0.63688600  1
  Sm  Sm22  1  0.12631300  0.87368700  0.13688600  1
  Sm  Sm23  1  0.74737500  0.87368700  0.13688600  1
  Sm  Sm24  1  0.45939800  0.91879700  0.85488500  1
  Sm  Sm25  1  0.45939800  0.54060200  0.85488500  1
  Sm  Sm26  1  0.54060200  0.08120300  0.35488500  1
  Sm  Sm27  1  0.08120300  0.54060200  0.85488500  1
  Sm  Sm28  1  0.54060200  0.45939800  0.35488500  1
  Sm  Sm29  1  0.91879700  0.45939800  0.35488500  1
  Sm  Sm30  1  0.00000000  0.00000000  0.00073900  1
  Sm  Sm31  1  0.00000000  0.00000000  0.50073900  1
  Sm  Sm32  1  0.45902000  0.91804000  0.58434600  1
  Sm  Sm33  1  0.45902000  0.54098000  0.58434600  1
  Sm  Sm34  1  0.54098000  0.08196000  0.08434600  1
  Sm  Sm35  1  0.08196000  0.54098000  0.58434600  1
  Sm  Sm36  1  0.54098000  0.45902000  0.08434600  1
  Sm  Sm37  1  0.91804000  0.45902000  0.08434600  1
  Sm  Sm38  1  0.79460100  0.58920300  0.78190300  1
  Sm  Sm39  1  0.79460100  0.20539900  0.78190300  1
  Sm  Sm40  1  0.20539900  0.41079700  0.28190300  1
  Sm  Sm41  1  0.41079700  0.20539900  0.78190300  1
  Sm  Sm42  1  0.20539900  0.79460100  0.28190300  1
  Sm  Sm43  1  0.58920300  0.79460100  0.28190300  1
  Sm  Sm44  1  0.66666700  0.33333300  0.64546500  1
  Sm  Sm45  1  0.33333300  0.66666700  0.14546500  1
  Cd  Cd46  1  0.00000000  0.00000000  0.75050900  1
  Cd  Cd47  1  0.00000000  0.00000000  0.25050900  1
  Cd  Cd48  1  0.10644600  0.21289200  0.86353100  1
  Cd  Cd49  1  0.10644600  0.89355400  0.86353100  1
  Cd  Cd50  1  0.89355400  0.78710800  0.36353100  1
  Cd  Cd51  1  0.78710800  0.89355400  0.86353100  1
  Cd  Cd52  1  0.89355400  0.10644600  0.36353100  1
  Cd  Cd53  1  0.21289200  0.10644600  0.36353100  1
  Ru  Ru54  1  0.51739000  0.03478000  0.70878400  1
  Ru  Ru55  1  0.51739000  0.48261000  0.70878400  1
  Ru  Ru56  1  0.48261000  0.96522000  0.20878400  1
  Ru  Ru57  1  0.96522000  0.48261000  0.70878400  1
  Ru  Ru58  1  0.48261000  0.51739000  0.20878400  1
  Ru  Ru59  1  0.03478000  0.51739000  0.20878400  1
  Ru  Ru60  1  0.66666700  0.33333300  0.86711100  1
  Ru  Ru61  1  0.33333300  0.66666700  0.36711100  1
  Ru  Ru62  1  0.14657600  0.29315300  0.56285200  1
  Ru  Ru63  1  0.14657600  0.85342400  0.56285200  1
  Ru  Ru64  1  0.85342400  0.70684700  0.06285200  1
  Ru  Ru65  1  0.70684700  0.85342400  0.56285200  1
  Ru  Ru66  1  0.85342400  0.14657600  0.06285200  1
  Ru  Ru67  1  0.29315300  0.14657600  0.06285200  1
