# generated using pymatgen
data_Tb(BIr)2
_symmetry_space_group_name_H-M   'P 1'
_cell_length_a   19.80970100
_cell_length_b   19.80970100
_cell_length_c   10.95374800
_cell_angle_alpha   90.00000000
_cell_angle_beta   90.00000000
_cell_angle_gamma   90.00000000
_symmetry_Int_Tables_number   1
_chemical_formula_structural   Tb(BIr)2
_chemical_formula_sum   'Tb4 B8 Ir8'
_cell_volume   4298.51638422
_cell_formula_units_Z   4
loop_
 _symmetry_equiv_pos_site_id
 _symmetry_equiv_pos_as_xyz
  1  'x, y, z'
loop_
 _atom_site_type_symbol
 _atom_site_label
 _atom_site_symmetry_multiplicity
 _atom_site_fract_x
 _atom_site_fract_y
 _atom_site_fract_z
 _atom_site_occupancy
  Tb  Tb0  1  0.25000000  0.25000000  0.25000000  1
  Tb  Tb1  1  0.75000000  0.75000000  0.25000000  1
  Tb  Tb2  1  0.75000000  0.25000000  0.75000000  1
  Tb  Tb3  1  0.25000000  0.75000000  0.75000000  1
  B  B4  1  0.60041800  0.03041100  0.12567500  1
  B  B5  1  0.39958200  0.96958900  0.12567500  1
  B  B6  1  0.53041100  0.89958200  0.62567500  1
  B  B7  1  0.89958200  0.46958900  0.37432500  1
  B  B8  1  0.46958900  0.10041800  0.62567500  1
  B  B9  1  0.10041800  0.53041100  0.37432500  1
  B  B10  1  0.96958900  0.60041800  0.87432500  1
  B  B11  1  0.03041100  0.39958200  0.87432500  1
  Ir  Ir12  1  0.10666800  0.61958200  0.36289700  1
  Ir  Ir13  1  0.89333200  0.38041800  0.36289700  1
  Ir  Ir14  1  0.11958200  0.39333200  0.86289700  1
  Ir  Ir15  1  0.39333200  0.88041800  0.13710300  1
  Ir  Ir16  1  0.88041800  0.60666800  0.86289700  1
  Ir  Ir17  1  0.60666800  0.11958200  0.13710300  1
  Ir  Ir18  1  0.38041800  0.10666800  0.63710300  1
  Ir  Ir19  1  0.61958200  0.89333200  0.63710300  1
