# generated using pymatgen
data_PrCrTeO6
_symmetry_space_group_name_H-M   'P 1'
_cell_length_a   5.57102906
_cell_length_b   5.57102906
_cell_length_c   8.47495000
_cell_angle_alpha   90.00000000
_cell_angle_beta   90.00000000
_cell_angle_gamma   120.00001262
_symmetry_Int_Tables_number   1
_chemical_formula_structural   PrCrTeO6
_chemical_formula_sum   'Pr2 Cr2 Te2 O12'
_cell_volume   227.79205327
_cell_formula_units_Z   2
loop_
 _symmetry_equiv_pos_site_id
 _symmetry_equiv_pos_as_xyz
  1  'x, y, z'
loop_
 _atom_site_type_symbol
 _atom_site_label
 _atom_site_symmetry_multiplicity
 _atom_site_fract_x
 _atom_site_fract_y
 _atom_site_fract_z
 _atom_site_occupancy
  Pr  Pr0  1  0.33333300  0.66666700  0.75000000  1
  Pr  Pr1  1  0.66666700  0.33333300  0.25000000  1
  Cr  Cr2  1  0.00000000  0.00000000  0.00000000  1
  Cr  Cr3  1  0.00000000  0.00000000  0.50000000  1
  Te  Te4  1  0.66666700  0.33333300  0.75000000  1
  Te  Te5  1  0.33333300  0.66666700  0.25000000  1
  O  O6  1  0.94027000  0.29912900  0.88112600  1
  O  O7  1  0.05973000  0.70087100  0.11887400  1
  O  O8  1  0.35885900  0.05973000  0.88112600  1
  O  O9  1  0.35885900  0.29912900  0.61887400  1
  O  O10  1  0.64114100  0.94027000  0.11887400  1
  O  O11  1  0.64114100  0.70087100  0.38112600  1
  O  O12  1  0.70087100  0.64114100  0.88112600  1
  O  O13  1  0.70087100  0.05973000  0.61887400  1
  O  O14  1  0.29912900  0.35885900  0.11887400  1
  O  O15  1  0.29912900  0.94027000  0.38112600  1
  O  O16  1  0.94027000  0.64114100  0.61887400  1
  O  O17  1  0.05973000  0.35885900  0.38112600  1
