# generated using pymatgen
data_Na2B4O7
_symmetry_space_group_name_H-M   'P 1'
_cell_length_a   7.72900330
_cell_length_b   7.72900330
_cell_length_c   21.69243800
_cell_angle_alpha   90.00000000
_cell_angle_beta   90.00000000
_cell_angle_gamma   119.99999400
_symmetry_Int_Tables_number   1
_chemical_formula_structural   Na2B4O7
_chemical_formula_sum   'Na18 B36 O63'
_cell_volume   1122.24068196
_cell_formula_units_Z   9
loop_
 _symmetry_equiv_pos_site_id
 _symmetry_equiv_pos_as_xyz
  1  'x, y, z'
loop_
 _atom_site_type_symbol
 _atom_site_label
 _atom_site_symmetry_multiplicity
 _atom_site_fract_x
 _atom_site_fract_y
 _atom_site_fract_z
 _atom_site_occupancy
  Na  Na0  1  0.99474100  0.35009300  0.50583400  1
  Na  Na1  1  0.64990700  0.64464800  0.17250100  1
  Na  Na2  1  0.35535200  0.00525900  0.83916700  1
  Na  Na3  1  0.35009300  0.99474100  0.49416600  1
  Na  Na4  1  0.64464800  0.64990700  0.82749900  1
  Na  Na5  1  0.00525900  0.35535200  0.16083300  1
  Na  Na6  1  0.29397600  0.98146200  0.33242300  1
  Na  Na7  1  0.01853800  0.31251400  0.99909000  1
  Na  Na8  1  0.68748600  0.70602400  0.66575600  1
  Na  Na9  1  0.98146200  0.29397600  0.66757700  1
  Na  Na10  1  0.31251400  0.01853800  0.00091000  1
  Na  Na11  1  0.70602400  0.68748600  0.33424400  1
  Na  Na12  1  0.00000000  0.32355400  0.33333300  1
  Na  Na13  1  0.67644600  0.67644600  0.00000000  1
  Na  Na14  1  0.32355400  0.00000000  0.66666700  1
  Na  Na15  1  0.63073900  0.63073900  0.50000000  1
  Na  Na16  1  0.36926100  0.00000000  0.16666700  1
  Na  Na17  1  0.00000000  0.36926100  0.83333300  1
  B  B18  1  0.01538300  0.00511200  0.43657400  1
  B  B19  1  0.99488800  0.01027000  0.10324000  1
  B  B20  1  0.98973000  0.98461700  0.76990700  1
  B  B21  1  0.00511200  0.01538300  0.56342600  1
  B  B22  1  0.01027000  0.99488800  0.89676000  1
  B  B23  1  0.98461700  0.98973000  0.23009300  1
  B  B24  1  0.68595100  0.33771900  0.40718800  1
  B  B25  1  0.66228100  0.34823200  0.07385400  1
  B  B26  1  0.65176800  0.31404900  0.74052100  1
  B  B27  1  0.33771900  0.68595100  0.59281200  1
  B  B28  1  0.34823200  0.66228100  0.92614600  1
  B  B29  1  0.31404900  0.65176800  0.25947900  1
  B  B30  1  0.32532400  0.65820500  0.38713100  1
  B  B31  1  0.34179500  0.66711900  0.05379800  1
  B  B32  1  0.33288100  0.67467600  0.72046400  1
  B  B33  1  0.65820500  0.32532400  0.61286900  1
  B  B34  1  0.66711900  0.34179500  0.94620200  1
  B  B35  1  0.67467600  0.33288100  0.27953600  1
  B  B36  1  0.67164600  0.98945400  0.41744500  1
  B  B37  1  0.01054600  0.68219100  0.08411100  1
  B  B38  1  0.31780900  0.32835400  0.75077800  1
  B  B39  1  0.98945400  0.67164600  0.58255500  1
  B  B40  1  0.68219100  0.01054600  0.91588900  1
  B  B41  1  0.32835400  0.31780900  0.24922200  1
  B  B42  1  0.33946600  0.32629900  0.40630800  1
  B  B43  1  0.67370100  0.01316700  0.07297500  1
  B  B44  1  0.98683300  0.66053400  0.73964200  1
  B  B45  1  0.32629900  0.33946600  0.59369200  1
  B  B46  1  0.01316700  0.67370100  0.92702500  1
  B  B47  1  0.66053400  0.98683300  0.26035800  1
  B  B48  1  0.00891800  0.65624800  0.42825400  1
  B  B49  1  0.34375200  0.35267000  0.09492000  1
  B  B50  1  0.64733000  0.99108200  0.76158700  1
  B  B51  1  0.65624800  0.00891800  0.57174600  1
  B  B52  1  0.35267000  0.34375200  0.90508000  1
  B  B53  1  0.99108200  0.64733000  0.23841300  1
  O  O54  1  0.79880200  0.91213600  0.42152800  1
  O  O55  1  0.08786400  0.88666700  0.08819400  1
  O  O56  1  0.11333300  0.20119800  0.75486100  1
  O  O57  1  0.91213600  0.79880200  0.57847200  1
  O  O58  1  0.88666700  0.08786400  0.91180600  1
  O  O59  1  0.20119800  0.11333300  0.24513900  1
  O  O60  1  0.13851200  0.18947200  0.39810800  1
  O  O61  1  0.81052800  0.94904000  0.06477400  1
  O  O62  1  0.05096000  0.86148800  0.73144100  1
  O  O63  1  0.18947200  0.13851200  0.60189200  1
  O  O64  1  0.94904000  0.81052800  0.93522600  1
  O  O65  1  0.86148800  0.05096000  0.26855900  1
  O  O66  1  0.07852900  0.85640200  0.41871000  1
  O  O67  1  0.14359800  0.22212800  0.08537700  1
  O  O68  1  0.77787200  0.92147100  0.75204400  1
  O  O69  1  0.85640200  0.07852900  0.58129000  1
  O  O70  1  0.22212800  0.14359800  0.91462300  1
  O  O71  1  0.92147100  0.77787200  0.24795600  1
  O  O72  1  0.06681900  0.06681900  0.50000000  1
  O  O73  1  0.93318100  0.00000000  0.16666700  1
  O  O74  1  0.00000000  0.93318100  0.83333300  1
  O  O75  1  0.74504500  0.18972800  0.42809700  1
  O  O76  1  0.81027200  0.55531800  0.09476300  1
  O  O77  1  0.44468200  0.25495500  0.76143000  1
  O  O78  1  0.18972800  0.74504500  0.57190300  1
  O  O79  1  0.55531800  0.81027200  0.90523700  1
  O  O80  1  0.25495500  0.44468200  0.23857000  1
  O  O81  1  0.73864800  0.39159600  0.34301700  1
  O  O82  1  0.60840400  0.34705200  0.00968300  1
  O  O83  1  0.65294800  0.26135200  0.67635000  1
  O  O84  1  0.39159600  0.73864800  0.65698300  1
  O  O85  1  0.34705200  0.60840400  0.99031700  1
  O  O86  1  0.26135200  0.65294800  0.32365000  1
  O  O87  1  0.46970000  0.25748700  0.42029600  1
  O  O88  1  0.74251300  0.21221300  0.08696200  1
  O  O89  1  0.78778700  0.53030000  0.75362900  1
  O  O90  1  0.25748700  0.46970000  0.57970400  1
  O  O91  1  0.21221300  0.74251300  0.91303800  1
  O  O92  1  0.53030000  0.78778700  0.24637100  1
  O  O93  1  0.81107900  0.52494800  0.44415600  1
  O  O94  1  0.47505200  0.28613100  0.11082200  1
  O  O95  1  0.71386900  0.18892100  0.77748900  1
  O  O96  1  0.52494800  0.81107900  0.55584400  1
  O  O97  1  0.28613100  0.47505200  0.88917800  1
  O  O98  1  0.18892100  0.71386900  0.22251100  1
  O  O99  1  0.47278600  0.86871600  0.40398600  1
  O  O100  1  0.13128400  0.60406900  0.07065300  1
  O  O101  1  0.39593100  0.52721400  0.73731900  1
  O  O102  1  0.86871600  0.47278600  0.59601400  1
  O  O103  1  0.60406900  0.13128400  0.92934700  1
  O  O104  1  0.52721400  0.39593100  0.26268100  1
  O  O105  1  0.41548600  0.52945000  0.39935800  1
  O  O106  1  0.47055000  0.88603600  0.06602500  1
  O  O107  1  0.11396400  0.58451400  0.73269100  1
  O  O108  1  0.52945000  0.41548600  0.60064200  1
  O  O109  1  0.88603600  0.47055000  0.93397500  1
  O  O110  1  0.58451400  0.11396400  0.26730900  1
  O  O111  1  0.14126600  0.58494600  0.42549000  1
  O  O112  1  0.41505400  0.55632000  0.09215600  1
  O  O113  1  0.44368000  0.85873400  0.75882300  1
  O  O114  1  0.58494600  0.14126600  0.57451000  1
  O  O115  1  0.55632000  0.41505400  0.90784400  1
  O  O116  1  0.85873400  0.44368000  0.24117700  1
