# generated using pymatgen
data_PtC2(NO2)2
_symmetry_space_group_name_H-M   'P 1'
_cell_length_a   10.61319800
_cell_length_b   3.79209200
_cell_length_c   6.58697068
_cell_angle_alpha   87.47433803
_cell_angle_beta   90.00000000
_cell_angle_gamma   90.00000000
_symmetry_Int_Tables_number   1
_chemical_formula_structural   PtC2(NO2)2
_chemical_formula_sum   'Pt2 C4 N4 O8'
_cell_volume   264.84316969
_cell_formula_units_Z   2
loop_
 _symmetry_equiv_pos_site_id
 _symmetry_equiv_pos_as_xyz
  1  'x, y, z'
loop_
 _atom_site_type_symbol
 _atom_site_label
 _atom_site_symmetry_multiplicity
 _atom_site_fract_x
 _atom_site_fract_y
 _atom_site_fract_z
 _atom_site_occupancy
  Pt  Pt0  1  0.25000000  0.63079300  0.86240600  1
  Pt  Pt1  1  0.75000000  0.36920700  0.13759400  1
  C  C2  1  0.32328200  0.89764600  0.25645800  1
  C  C3  1  0.67671800  0.10235400  0.74354200  1
  C  C4  1  0.82328200  0.10235400  0.74354200  1
  C  C5  1  0.17671800  0.89764600  0.25645800  1
  N  N6  1  0.88606300  0.47052200  0.28335300  1
  N  N7  1  0.11393700  0.52947800  0.71664700  1
  N  N8  1  0.38606300  0.52947800  0.71664700  1
  N  N9  1  0.61393700  0.47052200  0.28335300  1
  O  O10  1  0.37420700  0.78613000  0.08919600  1
  O  O11  1  0.62579300  0.21387000  0.91080400  1
  O  O12  1  0.87420700  0.21387000  0.91080400  1
  O  O13  1  0.12579300  0.78613000  0.08919600  1
  O  O14  1  0.38379500  0.00509400  0.39974000  1
  O  O15  1  0.61620500  0.99490600  0.60026000  1
  O  O16  1  0.88379500  0.99490600  0.60026000  1
  O  O17  1  0.11620500  0.00509400  0.39974000  1
