# generated using pymatgen
data_SmRe3O16
_symmetry_space_group_name_H-M   'P 1'
_cell_length_a   8.72785800
_cell_length_b   11.55791900
_cell_length_c   14.71505700
_cell_angle_alpha   90.00000000
_cell_angle_beta   90.00000000
_cell_angle_gamma   90.00000000
_symmetry_Int_Tables_number   1
_chemical_formula_structural   SmRe3O16
_chemical_formula_sum   'Sm4 Re12 O64'
_cell_volume   1484.39426243
_cell_formula_units_Z   4
loop_
 _symmetry_equiv_pos_site_id
 _symmetry_equiv_pos_as_xyz
  1  'x, y, z'
loop_
 _atom_site_type_symbol
 _atom_site_label
 _atom_site_symmetry_multiplicity
 _atom_site_fract_x
 _atom_site_fract_y
 _atom_site_fract_z
 _atom_site_occupancy
  Sm  Sm0  1  0.26886400  0.40299600  0.17155400  1
  Sm  Sm1  1  0.73113600  0.90299600  0.82844600  1
  Sm  Sm2  1  0.23113600  0.40299600  0.67155400  1
  Sm  Sm3  1  0.76886400  0.90299600  0.32844600  1
  Re  Re4  1  0.10135300  0.07245800  0.17997100  1
  Re  Re5  1  0.89864700  0.57245800  0.82002900  1
  Re  Re6  1  0.39864700  0.07245800  0.67997100  1
  Re  Re7  1  0.60135300  0.57245800  0.32002900  1
  Re  Re8  1  0.30848200  0.26253300  0.41692600  1
  Re  Re9  1  0.69151800  0.76253300  0.58307400  1
  Re  Re10  1  0.19151800  0.26253300  0.91692600  1
  Re  Re11  1  0.80848200  0.76253300  0.08307400  1
  Re  Re12  1  0.60415000  0.16076600  0.17100100  1
  Re  Re13  1  0.39585000  0.66076600  0.82899900  1
  Re  Re14  1  0.89585000  0.16076600  0.67100100  1
  Re  Re15  1  0.10415000  0.66076600  0.32899900  1
  O  O16  1  0.51272800  0.43059900  0.07682400  1
  O  O17  1  0.48727200  0.93059900  0.92317600  1
  O  O18  1  0.98727200  0.43059900  0.57682400  1
  O  O19  1  0.01272800  0.93059900  0.42317600  1
  O  O20  1  0.50579600  0.41668500  0.61725400  1
  O  O21  1  0.49420400  0.91668500  0.38274600  1
  O  O22  1  0.99420400  0.41668500  0.11725400  1
  O  O23  1  0.00579600  0.91668500  0.88274600  1
  O  O24  1  0.54805800  0.09621000  0.06987700  1
  O  O25  1  0.45194200  0.59621000  0.93012300  1
  O  O26  1  0.95194200  0.09621000  0.56987700  1
  O  O27  1  0.04805800  0.59621000  0.43012300  1
  O  O28  1  0.77785000  0.22912400  0.15356800  1
  O  O29  1  0.22215000  0.72912400  0.84643200  1
  O  O30  1  0.72215000  0.22912400  0.65356800  1
  O  O31  1  0.27785000  0.72912400  0.34643200  1
  O  O32  1  0.46053900  0.52444400  0.24130200  1
  O  O33  1  0.53946100  0.02444400  0.75869800  1
  O  O34  1  0.03946100  0.52444400  0.74130200  1
  O  O35  1  0.96053900  0.02444400  0.25869800  1
  O  O36  1  0.46488100  0.26564900  0.20236200  1
  O  O37  1  0.53511900  0.76564900  0.79763800  1
  O  O38  1  0.03511900  0.26564900  0.70236200  1
  O  O39  1  0.96488100  0.76564900  0.29763800  1
  O  O40  1  0.27323300  0.00014900  0.19769000  1
  O  O41  1  0.72676700  0.50014900  0.80231000  1
  O  O42  1  0.22676700  0.00014900  0.69769000  1
  O  O43  1  0.77323300  0.50014900  0.30231000  1
  O  O44  1  0.13271300  0.22373900  0.18912400  1
  O  O45  1  0.86728700  0.72373900  0.81087600  1
  O  O46  1  0.36728700  0.22373900  0.68912400  1
  O  O47  1  0.63271300  0.72373900  0.31087600  1
  O  O48  1  0.04070500  0.04100600  0.07058400  1
  O  O49  1  0.95929500  0.54100600  0.92941600  1
  O  O50  1  0.45929500  0.04100600  0.57058400  1
  O  O51  1  0.54070500  0.54100600  0.42941600  1
  O  O52  1  0.25210300  0.36271800  0.33244500  1
  O  O53  1  0.74789700  0.86271800  0.66755500  1
  O  O54  1  0.24789700  0.36271800  0.83244500  1
  O  O55  1  0.75210300  0.86271800  0.16755500  1
  O  O56  1  0.12604600  0.55604400  0.24167200  1
  O  O57  1  0.87395400  0.05604400  0.75832800  1
  O  O58  1  0.37395400  0.55604400  0.74167200  1
  O  O59  1  0.62604600  0.05604400  0.25832800  1
  O  O60  1  0.41315100  0.82241800  0.08107300  1
  O  O61  1  0.58684900  0.32241800  0.91892700  1
  O  O62  1  0.08684900  0.82241800  0.58107300  1
  O  O63  1  0.91315100  0.32241800  0.41892700  1
  O  O64  1  0.25643100  0.31278100  0.02491500  1
  O  O65  1  0.74356900  0.81278100  0.97508500  1
  O  O66  1  0.24356900  0.31278100  0.52491500  1
  O  O67  1  0.75643100  0.81278100  0.47508500  1
  O  O68  1  0.50610100  0.24906800  0.41626700  1
  O  O69  1  0.49389900  0.74906800  0.58373300  1
  O  O70  1  0.99389900  0.24906800  0.91626700  1
  O  O71  1  0.00610100  0.74906800  0.08373300  1
  O  O72  1  0.24888300  0.57489700  0.06819800  1
  O  O73  1  0.75111700  0.07489700  0.93180200  1
  O  O74  1  0.25111700  0.57489700  0.56819800  1
  O  O75  1  0.74888300  0.07489700  0.43180200  1
  O  O76  1  0.22666800  0.12991700  0.39095000  1
  O  O77  1  0.77333200  0.62991700  0.60905000  1
  O  O78  1  0.27333200  0.12991700  0.89095000  1
  O  O79  1  0.72666800  0.62991700  0.10905000  1
