# generated using pymatgen
data_Tm4Ni
_symmetry_space_group_name_H-M   'P 1'
_cell_length_a   7.39490433
_cell_length_b   7.39490433
_cell_length_c   7.39490433
_cell_angle_alpha   60.00000000
_cell_angle_beta   60.00000000
_cell_angle_gamma   60.00000000
_symmetry_Int_Tables_number   1
_chemical_formula_structural   Tm4Ni
_chemical_formula_sum   'Tm8 Ni2'
_cell_volume   285.94511527
_cell_formula_units_Z   2
loop_
 _symmetry_equiv_pos_site_id
 _symmetry_equiv_pos_as_xyz
  1  'x, y, z'
loop_
 _atom_site_type_symbol
 _atom_site_label
 _atom_site_symmetry_multiplicity
 _atom_site_fract_x
 _atom_site_fract_y
 _atom_site_fract_z
 _atom_site_occupancy
  Tm  Tm0  1  0.38754000  0.38754000  0.38754000  1
  Tm  Tm1  1  0.38754000  0.38754000  0.83738100  1
  Tm  Tm2  1  0.38754000  0.83738100  0.38754000  1
  Tm  Tm3  1  0.86246000  0.86246000  0.41261900  1
  Tm  Tm4  1  0.86246000  0.86246000  0.86246000  1
  Tm  Tm5  1  0.83738100  0.38754000  0.38754000  1
  Tm  Tm6  1  0.86246000  0.41261900  0.86246000  1
  Tm  Tm7  1  0.41261900  0.86246000  0.86246000  1
  Ni  Ni8  1  0.00000000  0.00000000  0.00000000  1
  Ni  Ni9  1  0.25000000  0.25000000  0.25000000  1
