# generated using pymatgen
data_Sb2Te3(SeF4)3
_symmetry_space_group_name_H-M   'P 1'
_cell_length_a   8.94098000
_cell_length_b   12.63167200
_cell_length_c   16.21529700
_cell_angle_alpha   90.00000000
_cell_angle_beta   90.00000000
_cell_angle_gamma   90.00000000
_symmetry_Int_Tables_number   1
_chemical_formula_structural   Sb2Te3(SeF4)3
_chemical_formula_sum   'Sb8 Te12 Se12 F48'
_cell_volume   1831.34796878
_cell_formula_units_Z   4
loop_
 _symmetry_equiv_pos_site_id
 _symmetry_equiv_pos_as_xyz
  1  'x, y, z'
loop_
 _atom_site_type_symbol
 _atom_site_label
 _atom_site_symmetry_multiplicity
 _atom_site_fract_x
 _atom_site_fract_y
 _atom_site_fract_z
 _atom_site_occupancy
  Sb  Sb0  1  0.01956100  0.04743400  0.05467100  1
  Sb  Sb1  1  0.48043900  0.95256600  0.55467100  1
  Sb  Sb2  1  0.98043900  0.54743400  0.44532900  1
  Sb  Sb3  1  0.51956100  0.45256600  0.94532900  1
  Sb  Sb4  1  0.54259500  0.21668400  0.23204600  1
  Sb  Sb5  1  0.95740500  0.78331600  0.73204600  1
  Sb  Sb6  1  0.45740500  0.71668400  0.26795400  1
  Sb  Sb7  1  0.04259500  0.28331600  0.76795400  1
  Te  Te8  1  0.14710800  0.66510400  0.05411200  1
  Te  Te9  1  0.35289200  0.33489600  0.55411200  1
  Te  Te10  1  0.85289200  0.16510400  0.44588800  1
  Te  Te11  1  0.64710800  0.83489600  0.94588800  1
  Te  Te12  1  0.53665000  0.61153600  0.54593700  1
  Te  Te13  1  0.96335000  0.38846400  0.04593700  1
  Te  Te14  1  0.46335000  0.11153600  0.95406300  1
  Te  Te15  1  0.03665000  0.88846400  0.45406300  1
  Te  Te16  1  0.13399500  0.00568300  0.31250800  1
  Te  Te17  1  0.36600500  0.99431700  0.81250800  1
  Te  Te18  1  0.86600500  0.50568300  0.18749200  1
  Te  Te19  1  0.63399500  0.49431700  0.68749200  1
  Se  Se20  1  0.09459300  0.19696800  0.36919200  1
  Se  Se21  1  0.40540700  0.80303200  0.86919200  1
  Se  Se22  1  0.90540700  0.69696800  0.13080800  1
  Se  Se23  1  0.59459300  0.30303200  0.63080800  1
  Se  Se24  1  0.13101800  0.43465600  0.16746500  1
  Se  Se25  1  0.36898200  0.56534400  0.66746500  1
  Se  Se26  1  0.86898200  0.93465600  0.33253500  1
  Se  Se27  1  0.63101800  0.06534400  0.83253500  1
  Se  Se28  1  0.48479700  0.44703200  0.45065100  1
  Se  Se29  1  0.01520300  0.55296800  0.95065100  1
  Se  Se30  1  0.51520300  0.94703200  0.04934900  1
  Se  Se31  1  0.98479700  0.05296800  0.54934900  1
  F  F32  1  0.49257400  0.18739600  0.11858200  1
  F  F33  1  0.00742600  0.81260400  0.61858200  1
  F  F34  1  0.50742600  0.68739600  0.38141800  1
  F  F35  1  0.99257400  0.31260400  0.88141800  1
  F  F36  1  0.65188700  0.08737300  0.23751400  1
  F  F37  1  0.84811300  0.91262700  0.73751400  1
  F  F38  1  0.34811300  0.58737300  0.26248600  1
  F  F39  1  0.15188700  0.41262700  0.76248600  1
  F  F40  1  0.32450700  0.02636100  0.61349100  1
  F  F41  1  0.17549300  0.97363900  0.11349100  1
  F  F42  1  0.67549300  0.52636100  0.88650900  1
  F  F43  1  0.82450700  0.47363900  0.38650900  1
  F  F44  1  0.97163000  0.11614000  0.15705800  1
  F  F45  1  0.52837000  0.88386000  0.65705800  1
  F  F46  1  0.02837000  0.61614000  0.34294200  1
  F  F47  1  0.47163000  0.38386000  0.84294200  1
  F  F48  1  0.11451900  0.43134600  0.42226600  1
  F  F49  1  0.38548100  0.56865400  0.92226600  1
  F  F50  1  0.88548100  0.93134600  0.07773400  1
  F  F51  1  0.61451900  0.06865400  0.57773400  1
  F  F52  1  0.42759300  0.34415200  0.22746100  1
  F  F53  1  0.07240700  0.65584800  0.72746100  1
  F  F54  1  0.57240700  0.84415200  0.27253900  1
  F  F55  1  0.92759300  0.15584800  0.77253900  1
  F  F56  1  0.59095600  0.24490900  0.34584100  1
  F  F57  1  0.90904400  0.75509100  0.84584100  1
  F  F58  1  0.40904400  0.74490900  0.15415900  1
  F  F59  1  0.09095600  0.25509100  0.65415900  1
  F  F60  1  0.57945000  0.51913000  0.04652100  1
  F  F61  1  0.92055000  0.48087000  0.54652100  1
  F  F62  1  0.42055000  0.01913000  0.45347900  1
  F  F63  1  0.07945000  0.98087000  0.95347900  1
  F  F64  1  0.71906600  0.29350800  0.19789600  1
  F  F65  1  0.78093400  0.70649200  0.69789600  1
  F  F66  1  0.28093400  0.79350800  0.30210400  1
  F  F67  1  0.21906600  0.20649200  0.80210400  1
  F  F68  1  0.36242900  0.14159700  0.26627200  1
  F  F69  1  0.13757100  0.85840300  0.76627200  1
  F  F70  1  0.63757100  0.64159700  0.23372800  1
  F  F71  1  0.86242900  0.35840300  0.73372800  1
  F  F72  1  0.36090900  0.37761600  0.99967700  1
  F  F73  1  0.13909100  0.62238400  0.49967700  1
  F  F74  1  0.63909100  0.87761600  0.50032300  1
  F  F75  1  0.86090900  0.12238400  0.00032300  1
  F  F76  1  0.15656300  0.16236100  0.03087800  1
  F  F77  1  0.34343700  0.83763900  0.53087800  1
  F  F78  1  0.84343700  0.66236100  0.46912200  1
  F  F79  1  0.65656300  0.33763900  0.96912200  1
