# generated using pymatgen
data_Sr3H5(OsO4)2
_symmetry_space_group_name_H-M   'P 1'
_cell_length_a   5.87796142
_cell_length_b   9.99316343
_cell_length_c   10.92022125
_cell_angle_alpha   109.91735615
_cell_angle_beta   102.22180486
_cell_angle_gamma   107.60987526
_symmetry_Int_Tables_number   1
_chemical_formula_structural   Sr3H5(OsO4)2
_chemical_formula_sum   'Sr6 H10 Os4 O16'
_cell_volume   538.19297001
_cell_formula_units_Z   2
loop_
 _symmetry_equiv_pos_site_id
 _symmetry_equiv_pos_as_xyz
  1  'x, y, z'
loop_
 _atom_site_type_symbol
 _atom_site_label
 _atom_site_symmetry_multiplicity
 _atom_site_fract_x
 _atom_site_fract_y
 _atom_site_fract_z
 _atom_site_occupancy
  Sr  Sr0  1  0.18670400  0.24115600  0.65327600  1
  Sr  Sr1  1  0.81329600  0.75884400  0.34672400  1
  Sr  Sr2  1  0.60834500  0.35339200  0.40237800  1
  Sr  Sr3  1  0.39165500  0.64660800  0.59762200  1
  Sr  Sr4  1  0.25641500  0.86444700  0.08113500  1
  Sr  Sr5  1  0.74358500  0.13555300  0.91886500  1
  H  H6  1  0.30449700  0.98978900  0.68765800  1
  H  H7  1  0.69550300  0.01021100  0.31234200  1
  H  H8  1  0.00668300  0.24153100  0.37191200  1
  H  H9  1  0.99331700  0.75846900  0.62808800  1
  H  H10  1  0.08448300  0.43095800  0.83499500  1
  H  H11  1  0.91551700  0.56904200  0.16500500  1
  H  H12  1  0.23913300  0.32858100  0.14252900  1
  H  H13  1  0.76086700  0.67141900  0.85747100  1
  H  H14  1  0.25518500  0.75251700  0.38833200  1
  H  H15  1  0.74481500  0.24748300  0.61166800  1
  Os  Os16  1  0.94847400  0.05726000  0.25511000  1
  Os  Os17  1  0.05152600  0.94274000  0.74489000  1
  Os  Os18  1  0.18010700  0.57446200  0.26402500  1
  Os  Os19  1  0.81989300  0.42553800  0.73597500  1
  O  O20  1  0.10334200  0.36148300  0.11454300  1
  O  O21  1  0.89665800  0.63851700  0.88545700  1
  O  O22  1  0.72761500  0.08699500  0.13555200  1
  O  O23  1  0.27238500  0.91300500  0.86444800  1
  O  O24  1  0.49003100  0.55938700  0.37875100  1
  O  O25  1  0.50996900  0.44061300  0.62124900  1
  O  O26  1  0.01668000  0.48955200  0.64249700  1
  O  O27  1  0.98332000  0.51044800  0.35750300  1
  O  O28  1  0.23961000  0.12861700  0.20372600  1
  O  O29  1  0.76039000  0.87138300  0.79627400  1
  O  O30  1  0.34632700  0.68407800  0.18681600  1
  O  O31  1  0.65367300  0.31592200  0.81318400  1
  O  O32  1  0.12326900  0.05653500  0.41550300  1
  O  O33  1  0.87673100  0.94346500  0.58449700  1
  O  O34  1  0.13345200  0.15832600  0.84456300  1
  O  O35  1  0.86654800  0.84167400  0.15543700  1
