# generated using pymatgen
data_Pr2P2OsO
_symmetry_space_group_name_H-M   'P 1'
_cell_length_a   3.14051500
_cell_length_b   3.14051500
_cell_length_c   14.64578600
_cell_angle_alpha   90.00000000
_cell_angle_beta   90.00000000
_cell_angle_gamma   90.00000000
_symmetry_Int_Tables_number   1
_chemical_formula_structural   Pr2P2OsO
_chemical_formula_sum   'Pr2 P2 Os1 O1'
_cell_volume   144.44896293
_cell_formula_units_Z   1
loop_
 _symmetry_equiv_pos_site_id
 _symmetry_equiv_pos_as_xyz
  1  'x, y, z'
loop_
 _atom_site_type_symbol
 _atom_site_label
 _atom_site_symmetry_multiplicity
 _atom_site_fract_x
 _atom_site_fract_y
 _atom_site_fract_z
 _atom_site_occupancy
  Pr  Pr0  1  0.50000000  0.50000000  0.64514200  1
  Pr  Pr1  1  0.50000000  0.50000000  0.35485800  1
  P  P2  1  0.50000000  0.50000000  0.15216900  1
  P  P3  1  0.50000000  0.50000000  0.84783100  1
  Os  Os4  1  0.50000000  0.50000000  0.00000000  1
  O  O5  1  0.50000000  0.50000000  0.50000000  1
