# generated using pymatgen
data_TbH8C21(O2F3)5
_symmetry_space_group_name_H-M   'P 1'
_cell_length_a   7.83144000
_cell_length_b   9.79174987
_cell_length_c   17.61875816
_cell_angle_alpha   92.47044202
_cell_angle_beta   97.49439638
_cell_angle_gamma   100.44501874
_symmetry_Int_Tables_number   1
_chemical_formula_structural   TbH8C21(O2F3)5
_chemical_formula_sum   'Tb2 H16 C42 O20 F30'
_cell_volume   1314.23930533
_cell_formula_units_Z   2
loop_
 _symmetry_equiv_pos_site_id
 _symmetry_equiv_pos_as_xyz
  1  'x, y, z'
loop_
 _atom_site_type_symbol
 _atom_site_label
 _atom_site_symmetry_multiplicity
 _atom_site_fract_x
 _atom_site_fract_y
 _atom_site_fract_z
 _atom_site_occupancy
  Tb  Tb0  1  0.05892900  0.71482600  0.05954500  1
  Tb  Tb1  1  0.94107100  0.28517400  0.94045500  1
  H  H2  1  0.69344600  0.65515200  0.08308200  1
  H  H3  1  0.30655400  0.34484800  0.91691800  1
  H  H4  1  0.04139000  0.00476000  0.90939600  1
  H  H5  1  0.95861000  0.99524000  0.09060400  1
  H  H6  1  0.32259700  0.32662200  0.00684200  1
  H  H7  1  0.67740300  0.67337800  0.99315800  1
  H  H8  1  0.20873800  0.09005700  0.96254100  1
  H  H9  1  0.79126200  0.90994300  0.03745900  1
  H  H10  1  0.42619000  0.70396800  0.16190200  1
  H  H11  1  0.57381000  0.29603200  0.83809800  1
  H  H12  1  0.27424400  0.70807100  0.21242300  1
  H  H13  1  0.72575600  0.29192900  0.78757700  1
  H  H14  1  0.69226400  0.41844500  0.02274000  1
  H  H15  1  0.30773600  0.58155500  0.97726000  1
  H  H16  1  0.61150600  0.25405900  0.02250500  1
  H  H17  1  0.38849400  0.74594100  0.97749500  1
  C  C18  1  0.42947400  0.05830600  0.16857800  1
  C  C19  1  0.57052600  0.94169400  0.83142200  1
  C  C20  1  0.23970500  0.42960700  0.35275700  1
  C  C21  1  0.76029500  0.57039300  0.64724300  1
  C  C22  1  0.55754500  0.08746700  0.32734900  1
  C  C23  1  0.44245500  0.91253300  0.67265100  1
  C  C24  1  0.29958000  0.39442500  0.22330100  1
  C  C25  1  0.70042000  0.60557500  0.77669900  1
  C  C26  1  0.18024100  0.28673500  0.79139600  1
  C  C27  1  0.81975900  0.71326500  0.20860400  1
  C  C28  1  0.03953900  0.79585600  0.41874000  1
  C  C29  1  0.96046100  0.20414400  0.58126000  1
  C  C30  1  0.01238200  0.76746900  0.33948400  1
  C  C31  1  0.98761800  0.23253100  0.66051600  1
  C  C32  1  0.29367200  0.24682800  0.66279500  1
  C  C33  1  0.70632800  0.75317200  0.33720500  1
  C  C34  1  0.31673300  0.05123300  0.22418500  1
  C  C35  1  0.68326700  0.94876700  0.77581500  1
  C  C36  1  0.35936100  0.41764400  0.30170700  1
  C  C37  1  0.64063900  0.58235600  0.69829300  1
  C  C38  1  0.06113600  0.36155000  0.10856900  1
  C  C39  1  0.93886400  0.63845000  0.89143100  1
  C  C40  1  0.37795100  0.06809000  0.30246300  1
  C  C41  1  0.62204900  0.93191000  0.69753700  1
  C  C42  1  0.60863400  0.08100000  0.19535800  1
  C  C43  1  0.39136600  0.91900000  0.80464200  1
  C  C44  1  0.27030300  0.21844600  0.58342700  1
  C  C45  1  0.72969700  0.78155400  0.41657300  1
  C  C46  1  0.67344300  0.09244000  0.27336100  1
  C  C47  1  0.32655700  0.90756000  0.72663900  1
  C  C48  1  0.12297600  0.38257500  0.19405400  1
  C  C49  1  0.87702400  0.61742500  0.80594600  1
  C  C50  1  0.10218500  0.19604200  0.54225300  1
  C  C51  1  0.89781500  0.80395800  0.45774700  1
  C  C52  1  0.00666100  0.39587500  0.24612700  1
  C  C53  1  0.99333900  0.60412500  0.75387300  1
  C  C54  1  0.06222100  0.41813900  0.32487700  1
  C  C55  1  0.93777900  0.58186100  0.67512300  1
  C  C56  1  0.35826900  0.04009700  0.08346700  1
  C  C57  1  0.64173100  0.95990300  0.91653300  1
  C  C58  1  0.15444600  0.25491500  0.70500500  1
  C  C59  1  0.84555400  0.74508500  0.29499500  1
  O  O60  1  0.29885300  0.69991500  0.15990300  1
  O  O61  1  0.70114700  0.30008500  0.84009700  1
  O  O62  1  0.73274400  0.62308900  0.03344400  1
  O  O63  1  0.26725600  0.37691100  0.96655600  1
  O  O64  1  0.40751500  0.13582300  0.04057700  1
  O  O65  1  0.59248500  0.86417700  0.95942300  1
  O  O66  1  0.03995400  0.24116700  0.07563400  1
  O  O67  1  0.96004600  0.75883300  0.92436600  1
  O  O68  1  0.03362900  0.46683400  0.07232100  1
  O  O69  1  0.96637100  0.53316600  0.92767900  1
  O  O70  1  0.24909600  0.92926400  0.06097200  1
  O  O71  1  0.75090400  0.07073600  0.93902800  1
  O  O72  1  0.09998500  0.09839700  0.92912300  1
  O  O73  1  0.90001500  0.90160300  0.07087700  1
  O  O74  1  0.69516000  0.32479900  0.00102000  1
  O  O75  1  0.30484000  0.67520100  0.99898000  1
  O  O76  1  0.04338500  0.30108800  0.82076300  1
  O  O77  1  0.95661500  0.69891200  0.17923700  1
  O  O78  1  0.33184600  0.29836900  0.82928800  1
  O  O79  1  0.66815400  0.70163100  0.17071200  1
  F  F80  1  0.26526600  0.06674000  0.35424300  1
  F  F81  1  0.73473400  0.93326000  0.64575700  1
  F  F82  1  0.16111300  0.76305700  0.30849100  1
  F  F83  1  0.83888700  0.23694300  0.69150900  1
  F  F84  1  0.40911700  0.21275000  0.54654200  1
  F  F85  1  0.59088300  0.78725000  0.45345800  1
  F  F86  1  0.14074100  0.03065700  0.20328400  1
  F  F87  1  0.85925900  0.96934300  0.79671600  1
  F  F88  1  0.29566600  0.45289900  0.42847900  1
  F  F89  1  0.70433400  0.54710100  0.57152100  1
  F  F90  1  0.20248400  0.81564300  0.45751100  1
  F  F91  1  0.79751600  0.18435700  0.54248900  1
  F  F92  1  0.41842700  0.38632800  0.17466000  1
  F  F93  1  0.58157300  0.61367200  0.82534000  1
  F  F94  1  0.53104300  0.42914200  0.32872900  1
  F  F95  1  0.46895700  0.57085800  0.67127100  1
  F  F96  1  0.84737900  0.10922500  0.29726700  1
  F  F97  1  0.15262100  0.89077500  0.70273300  1
  F  F98  1  0.83400800  0.38643000  0.22046100  1
  F  F99  1  0.16599200  0.61357000  0.77953900  1
  F  F100  1  0.07633900  0.16647600  0.46605500  1
  F  F101  1  0.92366100  0.83352400  0.53394500  1
  F  F102  1  0.46192800  0.26710600  0.69734100  1
  F  F103  1  0.53807200  0.73289400  0.30265900  1
  F  F104  1  0.05376800  0.57138100  0.62586600  1
  F  F105  1  0.94623200  0.42861900  0.37413400  1
  F  F106  1  0.72579300  0.09135900  0.14504300  1
  F  F107  1  0.27420700  0.90864100  0.85495700  1
  F  F108  1  0.61815400  0.10140100  0.40262400  1
  F  F109  1  0.38184600  0.89859900  0.59737600  1
