# generated using pymatgen
data_TiF6
_symmetry_space_group_name_H-M   'P 1'
_cell_length_a   5.60699157
_cell_length_b   5.81928789
_cell_length_c   18.62294287
_cell_angle_alpha   70.39047443
_cell_angle_beta   134.15728735
_cell_angle_gamma   118.80036488
_symmetry_Int_Tables_number   1
_chemical_formula_structural   TiF6
_chemical_formula_sum   'Ti2 F12'
_cell_volume   382.01663038
_cell_formula_units_Z   2
loop_
 _symmetry_equiv_pos_site_id
 _symmetry_equiv_pos_as_xyz
  1  'x, y, z'
loop_
 _atom_site_type_symbol
 _atom_site_label
 _atom_site_symmetry_multiplicity
 _atom_site_fract_x
 _atom_site_fract_y
 _atom_site_fract_z
 _atom_site_occupancy
  Ti  Ti0  1  0.00000000  0.00000000  0.00000000  1
  Ti  Ti1  1  0.50000000  0.00000000  0.50000000  1
  F  F2  1  0.70088500  0.64322000  0.75106200  1
  F  F3  1  0.29911500  0.35678000  0.24893900  1
  F  F4  1  0.83663100  0.09522900  0.03737700  1
  F  F5  1  0.44233600  0.64322000  0.74893800  1
  F  F6  1  0.16336900  0.90477100  0.96262300  1
  F  F7  1  0.55766400  0.35678000  0.25106100  1
  F  F8  1  0.88359800  0.20418600  0.61033000  1
  F  F9  1  0.75859800  0.09522900  0.46262300  1
  F  F10  1  0.11640200  0.79581400  0.38967000  1
  F  F11  1  0.24140200  0.90477100  0.53737700  1
  F  F12  1  0.82058900  0.20418600  0.88967000  1
  F  F13  1  0.17941100  0.79581400  0.11033000  1
