# generated using pymatgen
data_Zr(SO3)2
_symmetry_space_group_name_H-M   'P 1'
_cell_length_a   7.03569700
_cell_length_b   10.44777249
_cell_length_c   17.71322755
_cell_angle_alpha   86.16575761
_cell_angle_beta   78.54489389
_cell_angle_gamma   70.32356932
_symmetry_Int_Tables_number   1
_chemical_formula_structural   Zr(SO3)2
_chemical_formula_sum   'Zr4 S8 O24'
_cell_volume   1201.60298756
_cell_formula_units_Z   4
loop_
 _symmetry_equiv_pos_site_id
 _symmetry_equiv_pos_as_xyz
  1  'x, y, z'
loop_
 _atom_site_type_symbol
 _atom_site_label
 _atom_site_symmetry_multiplicity
 _atom_site_fract_x
 _atom_site_fract_y
 _atom_site_fract_z
 _atom_site_occupancy
  Zr  Zr0  1  0.87500000  0.25000000  0.25000000  1
  Zr  Zr1  1  0.87500000  0.75000000  0.25000000  1
  Zr  Zr2  1  0.87500000  0.25000000  0.75000000  1
  Zr  Zr3  1  0.37500000  0.75000000  0.75000000  1
  S  S4  1  0.54713900  0.20695900  0.85491900  1
  S  S5  1  0.59794200  0.79304100  0.85491900  1
  S  S6  1  0.24590200  0.20695900  0.14508100  1
  S  S7  1  0.20286100  0.29304100  0.64508100  1
  S  S8  1  0.60901700  0.79304100  0.14508100  1
  S  S9  1  0.15205800  0.70695900  0.64508100  1
  S  S10  1  0.50409800  0.29304100  0.35491900  1
  S  S11  1  0.14098300  0.70695900  0.35491900  1
  O  O12  1  0.67731300  0.83352200  0.06789000  1
  O  O13  1  0.25479600  0.16647800  0.06789000  1
  O  O14  1  0.48916500  0.83352200  0.93211000  1
  O  O15  1  0.07268700  0.66647800  0.43211000  1
  O  O16  1  0.57872500  0.16647800  0.93211000  1
  O  O17  1  0.49520400  0.33352200  0.43211000  1
  O  O18  1  0.26083500  0.66647800  0.56789000  1
  O  O19  1  0.17127500  0.33352200  0.56789000  1
  O  O20  1  0.03549400  0.34357100  0.16909700  1
  O  O21  1  0.79541000  0.65642900  0.16909700  1
  O  O22  1  0.62093500  0.34357100  0.83090300  1
  O  O23  1  0.71450600  0.15642900  0.33090300  1
  O  O24  1  0.54816100  0.65642900  0.83090300  1
  O  O25  1  0.95459000  0.84357100  0.33090300  1
  O  O26  1  0.12906500  0.15642900  0.66909700  1
  O  O27  1  0.20183900  0.84357100  0.66909700  1
  O  O28  1  0.74782200  0.10439800  0.79377400  1
  O  O29  1  0.45840400  0.89560200  0.79377400  1
  O  O30  1  0.14778000  0.10439800  0.20622600  1
  O  O31  1  0.00217800  0.39560200  0.70622600  1
  O  O32  1  0.64599400  0.89560200  0.20622600  1
  O  O33  1  0.29159600  0.60439800  0.70622600  1
  O  O34  1  0.60222000  0.39560200  0.29377400  1
  O  O35  1  0.10400600  0.60439800  0.29377400  1
