# generated using pymatgen
data_Rb3NpO9
_symmetry_space_group_name_H-M   'P 1'
_cell_length_a   7.65247519
_cell_length_b   8.18969458
_cell_length_c   8.18969458
_cell_angle_alpha   87.61416821
_cell_angle_beta   88.31226268
_cell_angle_gamma   88.31226268
_symmetry_Int_Tables_number   1
_chemical_formula_structural   Rb3NpO9
_chemical_formula_sum   'Rb6 Np2 O18'
_cell_volume   512.38775586
_cell_formula_units_Z   2
loop_
 _symmetry_equiv_pos_site_id
 _symmetry_equiv_pos_as_xyz
  1  'x, y, z'
loop_
 _atom_site_type_symbol
 _atom_site_label
 _atom_site_symmetry_multiplicity
 _atom_site_fract_x
 _atom_site_fract_y
 _atom_site_fract_z
 _atom_site_occupancy
  Rb  Rb0  1  0.54671200  0.75866800  0.57671900  1
  Rb  Rb1  1  0.45328800  0.24133300  0.42328100  1
  Rb  Rb2  1  0.95328800  0.42328100  0.24133300  1
  Rb  Rb3  1  0.04671200  0.57671900  0.75866800  1
  Rb  Rb4  1  0.25000000  0.03033300  0.96966700  1
  Rb  Rb5  1  0.75000000  0.96966700  0.03033300  1
  Np  Np6  1  0.00000000  0.00000000  0.50000000  1
  Np  Np7  1  0.50000000  0.50000000  0.00000000  1
  O  O8  1  0.25000000  0.54170200  0.45829800  1
  O  O9  1  0.75000000  0.45829800  0.54170200  1
  O  O10  1  0.53465500  0.18753800  0.76402900  1
  O  O11  1  0.46534500  0.81246200  0.23597100  1
  O  O12  1  0.96534500  0.23597100  0.81246200  1
  O  O13  1  0.03465500  0.76402900  0.18753800  1
  O  O14  1  0.11101100  0.11306800  0.32025900  1
  O  O15  1  0.88898900  0.88693200  0.67974100  1
  O  O16  1  0.38898900  0.67974100  0.88693200  1
  O  O17  1  0.61101100  0.32025900  0.11306800  1
  O  O18  1  0.93759000  0.25035600  0.65621100  1
  O  O19  1  0.06241000  0.74964400  0.34378900  1
  O  O20  1  0.56241000  0.34378900  0.74964400  1
  O  O21  1  0.43759000  0.65621100  0.25035600  1
  O  O22  1  0.21595800  0.97883400  0.60483300  1
  O  O23  1  0.78404200  0.02116600  0.39516700  1
  O  O24  1  0.28404200  0.39516700  0.02116600  1
  O  O25  1  0.71595800  0.60483300  0.97883400  1
