# generated using pymatgen
data_ThCr2O10
_symmetry_space_group_name_H-M   'P 1'
_cell_length_a   9.54363900
_cell_length_b   12.89223800
_cell_length_c   17.59326519
_cell_angle_alpha   48.79333556
_cell_angle_beta   90.00000000
_cell_angle_gamma   90.00000000
_symmetry_Int_Tables_number   1
_chemical_formula_structural   ThCr2O10
_chemical_formula_sum   'Th8 Cr16 O80'
_cell_volume   1628.55312647
_cell_formula_units_Z   8
loop_
 _symmetry_equiv_pos_site_id
 _symmetry_equiv_pos_as_xyz
  1  'x, y, z'
loop_
 _atom_site_type_symbol
 _atom_site_label
 _atom_site_symmetry_multiplicity
 _atom_site_fract_x
 _atom_site_fract_y
 _atom_site_fract_z
 _atom_site_occupancy
  Th  Th0  1  0.66595400  0.00182700  0.14807500  1
  Th  Th1  1  0.33404600  0.99817300  0.85192500  1
  Th  Th2  1  0.16595400  0.99817300  0.35192500  1
  Th  Th3  1  0.83404600  0.00182700  0.64807500  1
  Th  Th4  1  0.75620800  0.53095600  0.10624600  1
  Th  Th5  1  0.24379200  0.46904400  0.89375400  1
  Th  Th6  1  0.25620800  0.46904400  0.39375400  1
  Th  Th7  1  0.74379200  0.53095600  0.60624600  1
  Cr  Cr8  1  0.48070100  0.73280000  0.13898300  1
  Cr  Cr9  1  0.51929900  0.26720000  0.86101700  1
  Cr  Cr10  1  0.98070100  0.26720000  0.36101700  1
  Cr  Cr11  1  0.01929900  0.73280000  0.63898300  1
  Cr  Cr12  1  0.75023900  0.95060600  0.39073500  1
  Cr  Cr13  1  0.24976100  0.04939400  0.60926500  1
  Cr  Cr14  1  0.25023900  0.04939400  0.10926500  1
  Cr  Cr15  1  0.74976100  0.95060600  0.89073500  1
  Cr  Cr16  1  0.95943900  0.71992500  0.35558900  1
  Cr  Cr17  1  0.04056100  0.28007500  0.64441100  1
  Cr  Cr18  1  0.45943900  0.28007500  0.14441100  1
  Cr  Cr19  1  0.54056100  0.71992500  0.85558900  1
  Cr  Cr20  1  0.86210300  0.34109800  0.00790200  1
  Cr  Cr21  1  0.13789700  0.65890200  0.99209800  1
  Cr  Cr22  1  0.36210300  0.65890200  0.49209800  1
  Cr  Cr23  1  0.63789700  0.34109800  0.50790200  1
  O  O24  1  0.16579700  0.95736400  0.09095800  1
  O  O25  1  0.83420300  0.04263600  0.90904200  1
  O  O26  1  0.66579700  0.04263600  0.40904200  1
  O  O27  1  0.33420300  0.95736400  0.59095800  1
  O  O28  1  0.84312300  0.93506700  0.07243300  1
  O  O29  1  0.15687700  0.06493300  0.92756700  1
  O  O30  1  0.34312300  0.06493300  0.42756700  1
  O  O31  1  0.65687700  0.93506700  0.57243300  1
  O  O32  1  0.55973000  0.20318200  0.11841900  1
  O  O33  1  0.44027000  0.79681800  0.88158100  1
  O  O34  1  0.05973000  0.79681800  0.38158100  1
  O  O35  1  0.94027000  0.20318200  0.61841900  1
  O  O36  1  0.67284700  0.96794300  0.29687200  1
  O  O37  1  0.32715300  0.03205700  0.70312800  1
  O  O38  1  0.17284700  0.03205700  0.20312800  1
  O  O39  1  0.82715300  0.96794300  0.79687200  1
  O  O40  1  0.86918300  0.63998800  0.17637900  1
  O  O41  1  0.13081700  0.36001200  0.82362100  1
  O  O42  1  0.36918300  0.36001200  0.32362100  1
  O  O43  1  0.63081700  0.63998800  0.67637900  1
  O  O44  1  0.57256400  0.40389700  0.27561400  1
  O  O45  1  0.42743600  0.59610300  0.72438600  1
  O  O46  1  0.07256400  0.59610300  0.22438600  1
  O  O47  1  0.92743600  0.40389700  0.77561400  1
  O  O48  1  0.39180400  0.84386500  0.03352100  1
  O  O49  1  0.60819600  0.15613500  0.96647900  1
  O  O50  1  0.89180400  0.15613500  0.46647900  1
  O  O51  1  0.10819600  0.84386500  0.53352100  1
  O  O52  1  0.33884700  0.83061200  0.42386600  1
  O  O53  1  0.66115300  0.16938800  0.57613400  1
  O  O54  1  0.83884700  0.16938800  0.07613400  1
  O  O55  1  0.16115300  0.83061200  0.92386600  1
  O  O56  1  0.73996200  0.42602200  0.41194300  1
  O  O57  1  0.26003800  0.57397800  0.58805700  1
  O  O58  1  0.23996200  0.57397800  0.08805700  1
  O  O59  1  0.76003800  0.42602200  0.91194300  1
  O  O60  1  0.97025400  0.61469800  0.03375400  1
  O  O61  1  0.02974600  0.38530200  0.96624600  1
  O  O62  1  0.47025400  0.38530200  0.46624600  1
  O  O63  1  0.52974600  0.61469800  0.53375400  1
  O  O64  1  0.60620900  0.81744900  0.14569800  1
  O  O65  1  0.39379100  0.18255100  0.85430200  1
  O  O66  1  0.10620900  0.18255100  0.35430200  1
  O  O67  1  0.89379100  0.81744900  0.64569800  1
  O  O68  1  0.55577000  0.61612400  0.13699800  1
  O  O69  1  0.44423000  0.38387600  0.86300200  1
  O  O70  1  0.05577000  0.38387600  0.36300200  1
  O  O71  1  0.94423000  0.61612400  0.63699800  1
  O  O72  1  0.41755100  0.99407100  0.14147200  1
  O  O73  1  0.58244900  0.00592900  0.85852800  1
  O  O74  1  0.91755100  0.00592900  0.35852800  1
  O  O75  1  0.08244900  0.99407100  0.64147200  1
  O  O76  1  0.85536800  0.61154700  0.45478500  1
  O  O77  1  0.14463200  0.38845300  0.54521500  1
  O  O78  1  0.35536800  0.38845300  0.04521500  1
  O  O79  1  0.64463200  0.61154700  0.95478500  1
  O  O80  1  0.87754000  0.34966800  0.26057700  1
  O  O81  1  0.12246000  0.65033200  0.73942300  1
  O  O82  1  0.37754000  0.65033200  0.23942300  1
  O  O83  1  0.62246000  0.34966800  0.76057700  1
  O  O84  1  0.82867600  0.38067100  0.08004900  1
  O  O85  1  0.17132400  0.61932900  0.91995100  1
  O  O86  1  0.32867600  0.61932900  0.41995100  1
  O  O87  1  0.67132400  0.38067100  0.58004900  1
  O  O88  1  0.61438900  0.75959500  0.30116600  1
  O  O89  1  0.38561100  0.24040500  0.69883400  1
  O  O90  1  0.11438900  0.24040500  0.19883400  1
  O  O91  1  0.88561100  0.75959500  0.80116600  1
  O  O92  1  0.86036100  0.83787500  0.25336800  1
  O  O93  1  0.13963900  0.16212500  0.74663200  1
  O  O94  1  0.36036100  0.16212500  0.24663200  1
  O  O95  1  0.63963900  0.83787500  0.75336800  1
  O  O96  1  0.56429700  0.36603900  0.16319200  1
  O  O97  1  0.43570300  0.63396100  0.83680800  1
  O  O98  1  0.06429700  0.63396100  0.33680800  1
  O  O99  1  0.93570300  0.36603900  0.66319200  1
  O  O100  1  0.74768700  0.78464500  0.49665200  1
  O  O101  1  0.25231300  0.21535500  0.50334800  1
  O  O102  1  0.24768700  0.21535500  0.00334800  1
  O  O103  1  0.75231300  0.78464500  0.99665200  1
