# generated using pymatgen
data_SbTe2SeF6
_symmetry_space_group_name_H-M   'P 1'
_cell_length_a   9.01822700
_cell_length_b   12.66416500
_cell_length_c   16.37612400
_cell_angle_alpha   90.00000000
_cell_angle_beta   90.00000000
_cell_angle_gamma   90.00000000
_symmetry_Int_Tables_number   1
_chemical_formula_structural   SbTe2SeF6
_chemical_formula_sum   'Sb8 Te16 Se8 F48'
_cell_volume   1870.28952394
_cell_formula_units_Z   8
loop_
 _symmetry_equiv_pos_site_id
 _symmetry_equiv_pos_as_xyz
  1  'x, y, z'
loop_
 _atom_site_type_symbol
 _atom_site_label
 _atom_site_symmetry_multiplicity
 _atom_site_fract_x
 _atom_site_fract_y
 _atom_site_fract_z
 _atom_site_occupancy
  Sb  Sb0  1  0.54193700  0.21344000  0.23012000  1
  Sb  Sb1  1  0.95806300  0.78656000  0.73012000  1
  Sb  Sb2  1  0.45806300  0.71344000  0.26988000  1
  Sb  Sb3  1  0.04193700  0.28656000  0.76988000  1
  Sb  Sb4  1  0.01492000  0.04658300  0.05300500  1
  Sb  Sb5  1  0.48508000  0.95341700  0.55300500  1
  Sb  Sb6  1  0.98508000  0.54658300  0.44699500  1
  Sb  Sb7  1  0.51492000  0.45341700  0.94699500  1
  Te  Te8  1  0.54323500  0.60924800  0.54500000  1
  Te  Te9  1  0.95676500  0.39075200  0.04500000  1
  Te  Te10  1  0.45676500  0.10924800  0.95500000  1
  Te  Te11  1  0.04323500  0.89075200  0.45500000  1
  Te  Te12  1  0.13418900  0.00643900  0.31349100  1
  Te  Te13  1  0.36581100  0.99356100  0.81349100  1
  Te  Te14  1  0.86581100  0.50643900  0.18650900  1
  Te  Te15  1  0.63418900  0.49356100  0.68650900  1
  Te  Te16  1  0.14987100  0.43043300  0.17004600  1
  Te  Te17  1  0.35012900  0.56956700  0.67004600  1
  Te  Te18  1  0.85012900  0.93043300  0.32995400  1
  Te  Te19  1  0.64987100  0.06956700  0.82995400  1
  Te  Te20  1  0.13962400  0.66880900  0.05335200  1
  Te  Te21  1  0.36037600  0.33119100  0.55335200  1
  Te  Te22  1  0.86037600  0.16880900  0.44664800  1
  Te  Te23  1  0.63962400  0.83119100  0.94664800  1
  Se  Se24  1  0.09845300  0.19847100  0.36854100  1
  Se  Se25  1  0.40154700  0.80152900  0.86854100  1
  Se  Se26  1  0.90154700  0.69847100  0.13145900  1
  Se  Se27  1  0.59845300  0.30152900  0.63145900  1
  Se  Se28  1  0.49213300  0.44236300  0.45103700  1
  Se  Se29  1  0.00786700  0.55763700  0.95103700  1
  Se  Se30  1  0.50786700  0.94236300  0.04896300  1
  Se  Se31  1  0.99213300  0.05763700  0.54896300  1
  F  F32  1  0.95842800  0.10915400  0.15538000  1
  F  F33  1  0.54157200  0.89084600  0.65538000  1
  F  F34  1  0.04157200  0.60915400  0.34462000  1
  F  F35  1  0.45842800  0.39084600  0.84462000  1
  F  F36  1  0.33364000  0.02953400  0.61161200  1
  F  F37  1  0.16636000  0.97046500  0.11161200  1
  F  F38  1  0.66636000  0.52953500  0.88838800  1
  F  F39  1  0.83364000  0.47046500  0.38838800  1
  F  F40  1  0.51803100  0.19611000  0.11398900  1
  F  F41  1  0.98196900  0.80389000  0.61398900  1
  F  F42  1  0.48196900  0.69611000  0.38601100  1
  F  F43  1  0.01803100  0.30389000  0.88601100  1
  F  F44  1  0.11812400  0.42900800  0.43023400  1
  F  F45  1  0.38187600  0.57099200  0.93023400  1
  F  F46  1  0.88187600  0.92900800  0.06976600  1
  F  F47  1  0.61812400  0.07099200  0.56976600  1
  F  F48  1  0.72181700  0.29183100  0.21219500  1
  F  F49  1  0.77818300  0.70816900  0.71219500  1
  F  F50  1  0.27818300  0.79183100  0.28780500  1
  F  F51  1  0.22181700  0.20816900  0.78780500  1
  F  F52  1  0.42935800  0.34262700  0.22444800  1
  F  F53  1  0.07064200  0.65737300  0.72444800  1
  F  F54  1  0.57064200  0.84262700  0.27555200  1
  F  F55  1  0.92935800  0.15737300  0.77555200  1
  F  F56  1  0.64941100  0.08322500  0.23577700  1
  F  F57  1  0.85058900  0.91677500  0.73577700  1
  F  F58  1  0.35058900  0.58322500  0.26422300  1
  F  F59  1  0.14941100  0.41677500  0.76422300  1
  F  F60  1  0.56400100  0.23136500  0.34616700  1
  F  F61  1  0.93599900  0.76863500  0.84616700  1
  F  F62  1  0.43599900  0.73136500  0.15383300  1
  F  F63  1  0.06400100  0.26863500  0.65383300  1
  F  F64  1  0.35903800  0.37804200  0.00212000  1
  F  F65  1  0.14096200  0.62195800  0.50212000  1
  F  F66  1  0.64096200  0.87804200  0.49788000  1
  F  F67  1  0.85903800  0.12195800  0.99788000  1
  F  F68  1  0.14955200  0.16344300  0.03540600  1
  F  F69  1  0.35044800  0.83655700  0.53540600  1
  F  F70  1  0.85044800  0.66344300  0.46459400  1
  F  F71  1  0.64955200  0.33655700  0.96459400  1
  F  F72  1  0.58120700  0.51410200  0.04825300  1
  F  F73  1  0.91879300  0.48589800  0.54825300  1
  F  F74  1  0.41879300  0.01410200  0.45174700  1
  F  F75  1  0.08120700  0.98589800  0.95174700  1
  F  F76  1  0.35766400  0.13745800  0.24701600  1
  F  F77  1  0.14233600  0.86254200  0.74701600  1
  F  F78  1  0.64233600  0.63745800  0.25298400  1
  F  F79  1  0.85766400  0.36254200  0.75298400  1
