# generated using pymatgen
data_P3(PbO3)4
_symmetry_space_group_name_H-M   'P 1'
_cell_length_a   9.18610640
_cell_length_b   9.18610640
_cell_length_c   9.18610640
_cell_angle_alpha   109.47122063
_cell_angle_beta   109.47122063
_cell_angle_gamma   109.47122063
_symmetry_Int_Tables_number   1
_chemical_formula_structural   P3(PbO3)4
_chemical_formula_sum   'P6 Pb8 O24'
_cell_volume   596.72264998
_cell_formula_units_Z   2
loop_
 _symmetry_equiv_pos_site_id
 _symmetry_equiv_pos_as_xyz
  1  'x, y, z'
loop_
 _atom_site_type_symbol
 _atom_site_label
 _atom_site_symmetry_multiplicity
 _atom_site_fract_x
 _atom_site_fract_y
 _atom_site_fract_z
 _atom_site_occupancy
  P  P0  1  0.12500000  0.87500000  0.25000000  1
  P  P1  1  0.37500000  0.62500000  0.75000000  1
  P  P2  1  0.87500000  0.25000000  0.12500000  1
  P  P3  1  0.62500000  0.75000000  0.37500000  1
  P  P4  1  0.25000000  0.12500000  0.87500000  1
  P  P5  1  0.75000000  0.37500000  0.62500000  1
  Pb  Pb6  1  0.34962400  0.34962400  0.34962400  1
  Pb  Pb7  1  0.15037600  0.50000000  0.00000000  1
  Pb  Pb8  1  0.00000000  0.15037600  0.50000000  1
  Pb  Pb9  1  0.84962400  0.84962400  0.84962400  1
  Pb  Pb10  1  0.50000000  0.00000000  0.15037600  1
  Pb  Pb11  1  0.65037600  0.50000000  0.00000000  1
  Pb  Pb12  1  0.50000000  0.00000000  0.65037600  1
  Pb  Pb13  1  0.00000000  0.65037600  0.50000000  1
  O  O14  1  0.30742500  0.15483800  0.06725500  1
  O  O15  1  0.19257500  0.25983000  0.84741300  1
  O  O16  1  0.91241700  0.34516200  0.65258700  1
  O  O17  1  0.15483800  0.06725500  0.30742500  1
  O  O18  1  0.80742500  0.56725500  0.65483800  1
  O  O19  1  0.58758300  0.24017000  0.43274500  1
  O  O20  1  0.25983000  0.84741300  0.19257500  1
  O  O21  1  0.69257500  0.34741300  0.75983000  1
  O  O22  1  0.34516200  0.65258700  0.91241700  1
  O  O23  1  0.41241700  0.15258700  0.84516200  1
  O  O24  1  0.24017000  0.43274500  0.58758300  1
  O  O25  1  0.08758300  0.93274500  0.74017000  1
  O  O26  1  0.06725500  0.30742500  0.15483800  1
  O  O27  1  0.65483800  0.80742500  0.56725500  1
  O  O28  1  0.65258700  0.91241700  0.34516200  1
  O  O29  1  0.84516200  0.41241700  0.15258700  1
  O  O30  1  0.43274500  0.58758300  0.24017000  1
  O  O31  1  0.74017000  0.08758300  0.93274500  1
  O  O32  1  0.84741300  0.19257500  0.25983000  1
  O  O33  1  0.75983000  0.69257500  0.34741300  1
  O  O34  1  0.56725500  0.65483800  0.80742500  1
  O  O35  1  0.34741300  0.75983000  0.69257500  1
  O  O36  1  0.93274500  0.74017000  0.08758300  1
  O  O37  1  0.15258700  0.84516200  0.41241700  1
