# generated using pymatgen
data_Rb5Mo2Br9O
_symmetry_space_group_name_H-M   'P 1'
_cell_length_a   9.51027637
_cell_length_b   9.51027637
_cell_length_c   14.70962000
_cell_angle_alpha   90.00000000
_cell_angle_beta   90.00000000
_cell_angle_gamma   109.35751488
_symmetry_Int_Tables_number   1
_chemical_formula_structural   Rb5Mo2Br9O
_chemical_formula_sum   'Rb10 Mo4 Br18 O2'
_cell_volume   1255.20663075
_cell_formula_units_Z   2
loop_
 _symmetry_equiv_pos_site_id
 _symmetry_equiv_pos_as_xyz
  1  'x, y, z'
loop_
 _atom_site_type_symbol
 _atom_site_label
 _atom_site_symmetry_multiplicity
 _atom_site_fract_x
 _atom_site_fract_y
 _atom_site_fract_z
 _atom_site_occupancy
  Rb  Rb0  1  0.37090900  0.62909100  0.75702700  1
  Rb  Rb1  1  0.62909100  0.37090900  0.25702700  1
  Rb  Rb2  1  0.93579400  0.55644700  0.91574200  1
  Rb  Rb3  1  0.06420600  0.44355300  0.41574200  1
  Rb  Rb4  1  0.55644700  0.93579400  0.41574200  1
  Rb  Rb5  1  0.44355300  0.06420600  0.91574200  1
  Rb  Rb6  1  0.77556700  0.68590100  0.61694400  1
  Rb  Rb7  1  0.22443300  0.31409900  0.11694400  1
  Rb  Rb8  1  0.68590100  0.77556700  0.11694400  1
  Rb  Rb9  1  0.31409900  0.22443300  0.61694400  1
  Mo  Mo10  1  0.96007600  0.03992400  0.87516500  1
  Mo  Mo11  1  0.03992400  0.96007600  0.37516500  1
  Mo  Mo12  1  0.77607500  0.22392500  0.65259800  1
  Mo  Mo13  1  0.22392500  0.77607500  0.15259800  1
  Br  Br14  1  0.82134600  0.17865400  0.98188800  1
  Br  Br15  1  0.17865400  0.82134600  0.48188800  1
  Br  Br16  1  0.64664200  0.35335800  0.76845300  1
  Br  Br17  1  0.35335800  0.64664200  0.26845300  1
  Br  Br18  1  0.92190000  0.07810000  0.55909700  1
  Br  Br19  1  0.07810000  0.92190000  0.05909700  1
  Br  Br20  1  0.68308800  0.31691200  0.50730700  1
  Br  Br21  1  0.31691200  0.68308800  0.00730700  1
  Br  Br22  1  0.20230200  0.28384700  0.87224900  1
  Br  Br23  1  0.79769800  0.71615300  0.37224900  1
  Br  Br24  1  0.28384700  0.20230200  0.37224900  1
  Br  Br25  1  0.71615300  0.79769800  0.87224900  1
  Br  Br26  1  0.01948800  0.45566800  0.66308200  1
  Br  Br27  1  0.98051200  0.54433200  0.16308200  1
  Br  Br28  1  0.45566800  0.01948800  0.16308200  1
  Br  Br29  1  0.54433200  0.98051200  0.66308200  1
  Br  Br30  1  0.89325600  0.10674400  0.27750000  1
  Br  Br31  1  0.10674400  0.89325600  0.77750000  1
  O  O32  1  0.46663100  0.53336900  0.60601200  1
  O  O33  1  0.53336900  0.46663100  0.10601200  1
