# generated using pymatgen
data_NdP2
_symmetry_space_group_name_H-M   'P 1'
_cell_length_a   6.58401300
_cell_length_b   4.02650300
_cell_length_c   10.14703799
_cell_angle_alpha   74.36465559
_cell_angle_beta   90.00000000
_cell_angle_gamma   90.00000000
_symmetry_Int_Tables_number   1
_chemical_formula_structural   NdP2
_chemical_formula_sum   'Nd4 P8'
_cell_volume   259.04946438
_cell_formula_units_Z   4
loop_
 _symmetry_equiv_pos_site_id
 _symmetry_equiv_pos_as_xyz
  1  'x, y, z'
loop_
 _atom_site_type_symbol
 _atom_site_label
 _atom_site_symmetry_multiplicity
 _atom_site_fract_x
 _atom_site_fract_y
 _atom_site_fract_z
 _atom_site_occupancy
  Nd  Nd0  1  0.31597400  0.58108900  0.64132400  1
  Nd  Nd1  1  0.68402600  0.41891100  0.35867600  1
  Nd  Nd2  1  0.81597400  0.41891100  0.85867600  1
  Nd  Nd3  1  0.18402600  0.58108900  0.14132400  1
  P  P4  1  0.16117600  0.96512900  0.83622800  1
  P  P5  1  0.83882400  0.03487100  0.16377200  1
  P  P6  1  0.66117600  0.03487100  0.66377200  1
  P  P7  1  0.33882400  0.96512900  0.33622800  1
  P  P8  1  0.87897300  0.80229300  0.54626000  1
  P  P9  1  0.12102700  0.19770700  0.45374000  1
  P  P10  1  0.37897300  0.19770700  0.95374000  1
  P  P11  1  0.62102700  0.80229300  0.04626000  1
