# generated using pymatgen
data_NiPO5
_symmetry_space_group_name_H-M   'P 1'
_cell_length_a   4.90891600
_cell_length_b   5.54620100
_cell_length_c   8.03434593
_cell_angle_alpha   70.90386993
_cell_angle_beta   90.00000000
_cell_angle_gamma   90.00000000
_symmetry_Int_Tables_number   1
_chemical_formula_structural   NiPO5
_chemical_formula_sum   'Ni2 P2 O10'
_cell_volume   206.70463660
_cell_formula_units_Z   2
loop_
 _symmetry_equiv_pos_site_id
 _symmetry_equiv_pos_as_xyz
  1  'x, y, z'
loop_
 _atom_site_type_symbol
 _atom_site_label
 _atom_site_symmetry_multiplicity
 _atom_site_fract_x
 _atom_site_fract_y
 _atom_site_fract_z
 _atom_site_occupancy
  Ni  Ni0  1  0.28524400  0.23938200  0.02077300  1
  Ni  Ni1  1  0.78524400  0.76061800  0.97922700  1
  P  P2  1  0.35038600  0.64855700  0.21439200  1
  P  P3  1  0.85038600  0.35144300  0.78560800  1
  O  O4  1  0.38586300  0.55124000  0.41510900  1
  O  O5  1  0.88586300  0.44876000  0.58489100  1
  O  O6  1  0.51739100  0.84973600  0.80282000  1
  O  O7  1  0.01739100  0.15026400  0.19718000  1
  O  O8  1  0.49680700  0.91123400  0.12143600  1
  O  O9  1  0.99680700  0.08876600  0.87856400  1
  O  O10  1  0.49485000  0.47500300  0.11996300  1
  O  O11  1  0.99485000  0.52499700  0.88003700  1
  O  O12  1  0.03945900  0.66639400  0.18424300  1
  O  O13  1  0.53945900  0.33360600  0.81575700  1
