# generated using pymatgen
data_Nd2Sn5
_symmetry_space_group_name_H-M   'P 1'
_cell_length_a   17.89697628
_cell_length_b   17.89697628
_cell_length_c   4.68411600
_cell_angle_alpha   90.00000000
_cell_angle_beta   90.00000000
_cell_angle_gamma   165.05458964
_symmetry_Int_Tables_number   1
_chemical_formula_structural   Nd2Sn5
_chemical_formula_sum   'Nd4 Sn10'
_cell_volume   386.93319651
_cell_formula_units_Z   2
loop_
 _symmetry_equiv_pos_site_id
 _symmetry_equiv_pos_as_xyz
  1  'x, y, z'
loop_
 _atom_site_type_symbol
 _atom_site_label
 _atom_site_symmetry_multiplicity
 _atom_site_fract_x
 _atom_site_fract_y
 _atom_site_fract_z
 _atom_site_occupancy
  Nd  Nd0  1  0.93236500  0.06763500  0.50000000  1
  Nd  Nd1  1  0.06763500  0.93236500  0.50000000  1
  Nd  Nd2  1  0.79785300  0.20214700  0.50000000  1
  Nd  Nd3  1  0.20214700  0.79785300  0.50000000  1
  Sn  Sn4  1  0.63726600  0.36273400  0.50000000  1
  Sn  Sn5  1  0.36273400  0.63726600  0.50000000  1
  Sn  Sn6  1  0.72122500  0.27877500  0.00000000  1
  Sn  Sn7  1  0.27877500  0.72122500  0.00000000  1
  Sn  Sn8  1  0.50000000  0.50000000  0.50000000  1
  Sn  Sn9  1  0.57076900  0.42923100  0.00000000  1
  Sn  Sn10  1  0.42923100  0.57076900  0.00000000  1
  Sn  Sn11  1  0.86206200  0.13793800  0.00000000  1
  Sn  Sn12  1  0.13793800  0.86206200  0.00000000  1
  Sn  Sn13  1  0.00000000  0.00000000  0.00000000  1
