# generated using pymatgen
data_Nd3(SeO)2
_symmetry_space_group_name_H-M   'P 1'
_cell_length_a   4.05006600
_cell_length_b   9.40043367
_cell_length_c   12.34772006
_cell_angle_alpha   95.35424851
_cell_angle_beta   99.43917987
_cell_angle_gamma   90.00000000
_symmetry_Int_Tables_number   1
_chemical_formula_structural   Nd3(SeO)2
_chemical_formula_sum   'Nd9 Se6 O6'
_cell_volume   461.66246338
_cell_formula_units_Z   3
loop_
 _symmetry_equiv_pos_site_id
 _symmetry_equiv_pos_as_xyz
  1  'x, y, z'
loop_
 _atom_site_type_symbol
 _atom_site_label
 _atom_site_symmetry_multiplicity
 _atom_site_fract_x
 _atom_site_fract_y
 _atom_site_fract_z
 _atom_site_occupancy
  Nd  Nd0  1  0.46223000  0.32202600  0.92446100  1
  Nd  Nd1  1  0.53777000  0.67797400  0.07553900  1
  Nd  Nd2  1  0.81410900  0.01182200  0.62821800  1
  Nd  Nd3  1  0.18589100  0.98817800  0.37178200  1
  Nd  Nd4  1  0.00000000  0.00000000  0.00000000  1
  Nd  Nd5  1  0.27912600  0.34886200  0.55825100  1
  Nd  Nd6  1  0.72087400  0.65113800  0.44174900  1
  Nd  Nd7  1  0.09420200  0.35809300  0.18840400  1
  Nd  Nd8  1  0.90579800  0.64190700  0.81159600  1
  Se  Se9  1  0.13240200  0.67578200  0.26480300  1
  Se  Se10  1  0.86759800  0.32421800  0.73519700  1
  Se  Se11  1  0.31025200  0.67208500  0.62050400  1
  Se  Se12  1  0.68974800  0.32791500  0.37949600  1
  Se  Se13  1  0.58897200  0.02700900  0.17794400  1
  Se  Se14  1  0.41102800  0.97299100  0.82205600  1
  O  O15  1  0.55352600  0.43592400  0.10705300  1
  O  O16  1  0.44647400  0.56407600  0.89294700  1
  O  O17  1  0.00262800  0.24930600  0.00525500  1
  O  O18  1  0.99737200  0.75069400  0.99474500  1
  O  O19  1  0.27707700  0.09112500  0.55415400  1
  O  O20  1  0.72292300  0.90887500  0.44584600  1
