# generated using pymatgen
data_Ni5B2SbO10
_symmetry_space_group_name_H-M   'P 1'
_cell_length_a   3.14365600
_cell_length_b   5.46190100
_cell_length_c   10.81330180
_cell_angle_alpha   85.04789662
_cell_angle_beta   90.00000000
_cell_angle_gamma   90.00000000
_symmetry_Int_Tables_number   1
_chemical_formula_structural   Ni5B2SbO10
_chemical_formula_sum   'Ni5 B2 Sb1 O10'
_cell_volume   184.97498510
_cell_formula_units_Z   1
loop_
 _symmetry_equiv_pos_site_id
 _symmetry_equiv_pos_as_xyz
  1  'x, y, z'
loop_
 _atom_site_type_symbol
 _atom_site_label
 _atom_site_symmetry_multiplicity
 _atom_site_fract_x
 _atom_site_fract_y
 _atom_site_fract_z
 _atom_site_occupancy
  Ni  Ni0  1  0.50000000  0.71951000  0.21031400  1
  Ni  Ni1  1  0.50000000  0.28049000  0.78968600  1
  Ni  Ni2  1  0.00000000  0.50000000  0.00000000  1
  Ni  Ni3  1  0.50000000  0.00000000  0.50000000  1
  Ni  Ni4  1  0.00000000  0.00000000  0.00000000  1
  B  B5  1  0.00000000  0.79401000  0.74221700  1
  B  B6  1  0.00000000  0.20599000  0.25778300  1
  Sb  Sb7  1  0.00000000  0.50000000  0.50000000  1
  O  O8  1  0.50000000  0.74478300  0.02925000  1
  O  O9  1  0.50000000  0.25521700  0.97075000  1
  O  O10  1  0.50000000  0.69254100  0.40347600  1
  O  O11  1  0.50000000  0.30745900  0.59652400  1
  O  O12  1  0.00000000  0.82384400  0.60623100  1
  O  O13  1  0.00000000  0.17615600  0.39376900  1
  O  O14  1  0.00000000  0.99262600  0.20063800  1
  O  O15  1  0.00000000  0.00737400  0.79936200  1
  O  O16  1  0.00000000  0.44112300  0.20374600  1
  O  O17  1  0.00000000  0.55887700  0.79625400  1
