# generated using pymatgen
data_Nd3Ta(Cl3O2)2
_symmetry_space_group_name_H-M   'P 1'
_cell_length_a   12.92628149
_cell_length_b   12.92628149
_cell_length_c   3.95654700
_cell_angle_alpha   90.00000000
_cell_angle_beta   90.00000000
_cell_angle_gamma   119.99999739
_symmetry_Int_Tables_number   1
_chemical_formula_structural   Nd3Ta(Cl3O2)2
_chemical_formula_sum   'Nd6 Ta2 Cl12 O8'
_cell_volume   572.52465075
_cell_formula_units_Z   2
loop_
 _symmetry_equiv_pos_site_id
 _symmetry_equiv_pos_as_xyz
  1  'x, y, z'
loop_
 _atom_site_type_symbol
 _atom_site_label
 _atom_site_symmetry_multiplicity
 _atom_site_fract_x
 _atom_site_fract_y
 _atom_site_fract_z
 _atom_site_occupancy
  Nd  Nd0  1  0.71891000  0.11510700  0.75000000  1
  Nd  Nd1  1  0.28109000  0.88489300  0.25000000  1
  Nd  Nd2  1  0.39619700  0.28109000  0.75000000  1
  Nd  Nd3  1  0.60380300  0.71891000  0.25000000  1
  Nd  Nd4  1  0.88489300  0.60380300  0.75000000  1
  Nd  Nd5  1  0.11510700  0.39619700  0.25000000  1
  Ta  Ta6  1  0.33333300  0.66666700  0.75000000  1
  Ta  Ta7  1  0.66666700  0.33333300  0.25000000  1
  Cl  Cl8  1  0.93016000  0.37267300  0.75000000  1
  Cl  Cl9  1  0.06984000  0.62732700  0.25000000  1
  Cl  Cl10  1  0.44251300  0.06984000  0.75000000  1
  Cl  Cl11  1  0.55748700  0.93016000  0.25000000  1
  Cl  Cl12  1  0.62732700  0.55748700  0.75000000  1
  Cl  Cl13  1  0.37267300  0.44251300  0.25000000  1
  Cl  Cl14  1  0.75083400  0.89402000  0.75000000  1
  Cl  Cl15  1  0.24916600  0.10598000  0.25000000  1
  Cl  Cl16  1  0.14318600  0.24916600  0.75000000  1
  Cl  Cl17  1  0.85681400  0.75083400  0.25000000  1
  Cl  Cl18  1  0.10598000  0.85681400  0.75000000  1
  Cl  Cl19  1  0.89402000  0.14318600  0.25000000  1
  O  O20  1  0.49220100  0.69244100  0.75000000  1
  O  O21  1  0.50779900  0.30755900  0.25000000  1
  O  O22  1  0.20024000  0.50779900  0.75000000  1
  O  O23  1  0.79976000  0.49220100  0.25000000  1
  O  O24  1  0.30755900  0.79976000  0.75000000  1
  O  O25  1  0.69244100  0.20024000  0.25000000  1
  O  O26  1  0.66666700  0.33333300  0.75000000  1
  O  O27  1  0.33333300  0.66666700  0.25000000  1
