# generated using pymatgen
data_NdWO2
_symmetry_space_group_name_H-M   'P 1'
_cell_length_a   7.67658844
_cell_length_b   7.67658844
_cell_length_c   7.67658844
_cell_angle_alpha   130.22374098
_cell_angle_beta   130.22374098
_cell_angle_gamma   73.04933065
_symmetry_Int_Tables_number   1
_chemical_formula_structural   NdWO2
_chemical_formula_sum   'Nd4 W4 O8'
_cell_volume   257.54633686
_cell_formula_units_Z   4
loop_
 _symmetry_equiv_pos_site_id
 _symmetry_equiv_pos_as_xyz
  1  'x, y, z'
loop_
 _atom_site_type_symbol
 _atom_site_label
 _atom_site_symmetry_multiplicity
 _atom_site_fract_x
 _atom_site_fract_y
 _atom_site_fract_z
 _atom_site_occupancy
  Nd  Nd0  1  0.87500000  0.62500000  0.25000000  1
  Nd  Nd1  1  0.37500000  0.62500000  0.75000000  1
  Nd  Nd2  1  0.37500000  0.62500000  0.25000000  1
  Nd  Nd3  1  0.37500000  0.12500000  0.75000000  1
  W  W4  1  0.37500000  0.12500000  0.25000000  1
  W  W5  1  0.87500000  0.12500000  0.75000000  1
  W  W6  1  0.87500000  0.12500000  0.25000000  1
  W  W7  1  0.87500000  0.62500000  0.75000000  1
  O  O8  1  0.17429100  0.39180900  0.21751800  1
  O  O9  1  0.17429100  0.95677300  0.78248200  1
  O  O10  1  0.14180900  0.42429100  0.71751800  1
  O  O11  1  0.57570900  0.85819100  0.28248200  1
  O  O12  1  0.70677300  0.42429100  0.28248200  1
  O  O13  1  0.57570900  0.29322700  0.71751800  1
  O  O14  1  0.60819100  0.82570900  0.78248200  1
  O  O15  1  0.04322700  0.82570900  0.21751800  1
