# generated using pymatgen
data_NiSeO5
_symmetry_space_group_name_H-M   'P 1'
_cell_length_a   5.39706343
_cell_length_b   5.39706343
_cell_length_c   6.89719122
_cell_angle_alpha   73.87053687
_cell_angle_beta   73.87053687
_cell_angle_gamma   97.57908257
_symmetry_Int_Tables_number   1
_chemical_formula_structural   NiSeO5
_chemical_formula_sum   'Ni2 Se2 O10'
_cell_volume   180.57740180
_cell_formula_units_Z   2
loop_
 _symmetry_equiv_pos_site_id
 _symmetry_equiv_pos_as_xyz
  1  'x, y, z'
loop_
 _atom_site_type_symbol
 _atom_site_label
 _atom_site_symmetry_multiplicity
 _atom_site_fract_x
 _atom_site_fract_y
 _atom_site_fract_z
 _atom_site_occupancy
  Ni  Ni0  1  0.00000000  0.00000000  0.00000000  1
  Ni  Ni1  1  0.00000000  0.00000000  0.50000000  1
  Se  Se2  1  0.33238900  0.66761100  0.75000000  1
  Se  Se3  1  0.66761100  0.33238900  0.25000000  1
  O  O4  1  0.26255400  0.36266000  0.92196500  1
  O  O5  1  0.73744600  0.63734000  0.07803500  1
  O  O6  1  0.63734000  0.73744600  0.57803500  1
  O  O7  1  0.36266000  0.26255400  0.42196500  1
  O  O8  1  0.31955600  0.88966000  0.88163700  1
  O  O9  1  0.68044400  0.11034000  0.11836300  1
  O  O10  1  0.11034000  0.68044400  0.61836300  1
  O  O11  1  0.88966000  0.31955600  0.38163700  1
  O  O12  1  0.91535700  0.08464300  0.75000000  1
  O  O13  1  0.08464300  0.91535700  0.25000000  1
