# generated using pymatgen
data_Nd2ZnPtO6
_symmetry_space_group_name_H-M   'P 1'
_cell_length_a   5.84690800
_cell_length_b   5.50626000
_cell_length_c   9.60274491
_cell_angle_alpha   55.28679087
_cell_angle_beta   90.00000000
_cell_angle_gamma   90.00000000
_symmetry_Int_Tables_number   1
_chemical_formula_structural   Nd2ZnPtO6
_chemical_formula_sum   'Nd4 Zn2 Pt2 O12'
_cell_volume   254.13058409
_cell_formula_units_Z   2
loop_
 _symmetry_equiv_pos_site_id
 _symmetry_equiv_pos_as_xyz
  1  'x, y, z'
loop_
 _atom_site_type_symbol
 _atom_site_label
 _atom_site_symmetry_multiplicity
 _atom_site_fract_x
 _atom_site_fract_y
 _atom_site_fract_z
 _atom_site_occupancy
  Nd  Nd0  1  0.43107500  0.23227200  0.74900100  1
  Nd  Nd1  1  0.56892500  0.76772800  0.25099900  1
  Nd  Nd2  1  0.93107500  0.76772800  0.75099900  1
  Nd  Nd3  1  0.06892500  0.23227200  0.24900100  1
  Zn  Zn4  1  0.00000000  0.50000000  0.50000000  1
  Zn  Zn5  1  0.50000000  0.50000000  0.00000000  1
  Pt  Pt6  1  0.00000000  0.00000000  0.00000000  1
  Pt  Pt7  1  0.50000000  0.00000000  0.50000000  1
  O  O8  1  0.03505900  0.35524900  0.75240100  1
  O  O9  1  0.96494100  0.64475100  0.24759900  1
  O  O10  1  0.53505900  0.64475100  0.74759900  1
  O  O11  1  0.46494100  0.35524900  0.25240100  1
  O  O12  1  0.70462100  0.86702700  0.94420900  1
  O  O13  1  0.29537900  0.13297300  0.05579100  1
  O  O14  1  0.20462100  0.13297300  0.55579100  1
  O  O15  1  0.79537900  0.86702700  0.44420900  1
  O  O16  1  0.19506900  0.75167300  0.94680900  1
  O  O17  1  0.80493100  0.24832700  0.05319100  1
  O  O18  1  0.69506900  0.24832700  0.55319100  1
  O  O19  1  0.30493100  0.75167300  0.44680900  1
