# generated using pymatgen
data_NaThTi2O6
_symmetry_space_group_name_H-M   'P 1'
_cell_length_a   3.92212900
_cell_length_b   3.92212900
_cell_length_c   7.80632500
_cell_angle_alpha   90.00000000
_cell_angle_beta   90.00000000
_cell_angle_gamma   90.00000000
_symmetry_Int_Tables_number   1
_chemical_formula_structural   NaThTi2O6
_chemical_formula_sum   'Na1 Th1 Ti2 O6'
_cell_volume   120.08544604
_cell_formula_units_Z   1
loop_
 _symmetry_equiv_pos_site_id
 _symmetry_equiv_pos_as_xyz
  1  'x, y, z'
loop_
 _atom_site_type_symbol
 _atom_site_label
 _atom_site_symmetry_multiplicity
 _atom_site_fract_x
 _atom_site_fract_y
 _atom_site_fract_z
 _atom_site_occupancy
  Na  Na0  1  0.50000000  0.50000000  0.00000000  1
  Th  Th1  1  0.50000000  0.50000000  0.50000000  1
  Ti  Ti2  1  0.00000000  0.00000000  0.24401100  1
  Ti  Ti3  1  0.00000000  0.00000000  0.75598900  1
  O  O4  1  0.00000000  0.50000000  0.28169500  1
  O  O5  1  0.00000000  0.50000000  0.71830500  1
  O  O6  1  0.50000000  0.00000000  0.28169500  1
  O  O7  1  0.50000000  0.00000000  0.71830500  1
  O  O8  1  0.00000000  0.00000000  0.00000000  1
  O  O9  1  0.00000000  0.00000000  0.50000000  1
