# generated using pymatgen
data_NaYCl4
_symmetry_space_group_name_H-M   'P 1'
_cell_length_a   6.68396400
_cell_length_b   6.76963389
_cell_length_c   7.06926779
_cell_angle_alpha   89.39016603
_cell_angle_beta   87.81621927
_cell_angle_gamma   78.46500854
_symmetry_Int_Tables_number   1
_chemical_formula_structural   NaYCl4
_chemical_formula_sum   'Na2 Y2 Cl8'
_cell_volume   313.18055056
_cell_formula_units_Z   2
loop_
 _symmetry_equiv_pos_site_id
 _symmetry_equiv_pos_as_xyz
  1  'x, y, z'
loop_
 _atom_site_type_symbol
 _atom_site_label
 _atom_site_symmetry_multiplicity
 _atom_site_fract_x
 _atom_site_fract_y
 _atom_site_fract_z
 _atom_site_occupancy
  Na  Na0  1  0.23168200  0.19742300  0.53545100  1
  Na  Na1  1  0.76831800  0.80257700  0.46454900  1
  Y  Y2  1  0.78889800  0.29946600  0.05492400  1
  Y  Y3  1  0.21110200  0.70053400  0.94507600  1
  Cl  Cl4  1  0.61227500  0.20708800  0.36547600  1
  Cl  Cl5  1  0.38772500  0.79291200  0.63452400  1
  Cl  Cl6  1  0.09564100  0.00210200  0.20568400  1
  Cl  Cl7  1  0.90435900  0.99789800  0.79431600  1
  Cl  Cl8  1  0.04702900  0.50340500  0.24125300  1
  Cl  Cl9  1  0.95297100  0.49659500  0.75874700  1
  Cl  Cl10  1  0.56681600  0.68620600  0.11817600  1
  Cl  Cl11  1  0.43318400  0.31379400  0.88182400  1
