# generated using pymatgen
data_Np2Se2O
_symmetry_space_group_name_H-M   'P 1'
_cell_length_a   3.14846100
_cell_length_b   3.14846100
_cell_length_c   13.12966900
_cell_angle_alpha   90.00000000
_cell_angle_beta   90.00000000
_cell_angle_gamma   90.00000000
_symmetry_Int_Tables_number   1
_chemical_formula_structural   Np2Se2O
_chemical_formula_sum   'Np2 Se2 O1'
_cell_volume   130.15187042
_cell_formula_units_Z   1
loop_
 _symmetry_equiv_pos_site_id
 _symmetry_equiv_pos_as_xyz
  1  'x, y, z'
loop_
 _atom_site_type_symbol
 _atom_site_label
 _atom_site_symmetry_multiplicity
 _atom_site_fract_x
 _atom_site_fract_y
 _atom_site_fract_z
 _atom_site_occupancy
  Np  Np0  1  0.50000000  0.50000000  0.15664600  1
  Np  Np1  1  0.50000000  0.50000000  0.84335400  1
  Se  Se2  1  0.50000000  0.50000000  0.63675800  1
  Se  Se3  1  0.50000000  0.50000000  0.36324200  1
  O  O4  1  0.50000000  0.50000000  0.00000000  1
