# generated using pymatgen
data_NaTi8Cu6BiO24
_symmetry_space_group_name_H-M   'P 1'
_cell_length_a   7.46801300
_cell_length_b   7.46801300
_cell_length_c   7.46801300
_cell_angle_alpha   90.00000000
_cell_angle_beta   90.00000000
_cell_angle_gamma   90.00000000
_symmetry_Int_Tables_number   1
_chemical_formula_structural   NaTi8Cu6BiO24
_chemical_formula_sum   'Na1 Ti8 Cu6 Bi1 O24'
_cell_volume   416.50018231
_cell_formula_units_Z   1
loop_
 _symmetry_equiv_pos_site_id
 _symmetry_equiv_pos_as_xyz
  1  'x, y, z'
loop_
 _atom_site_type_symbol
 _atom_site_label
 _atom_site_symmetry_multiplicity
 _atom_site_fract_x
 _atom_site_fract_y
 _atom_site_fract_z
 _atom_site_occupancy
  Na  Na0  1  0.00000000  0.00000000  0.00000000  1
  Ti  Ti1  1  0.24547900  0.24547900  0.24547900  1
  Ti  Ti2  1  0.75452100  0.75452100  0.75452100  1
  Ti  Ti3  1  0.75452100  0.75452100  0.24547900  1
  Ti  Ti4  1  0.75452100  0.24547900  0.75452100  1
  Ti  Ti5  1  0.24547900  0.24547900  0.75452100  1
  Ti  Ti6  1  0.24547900  0.75452100  0.24547900  1
  Ti  Ti7  1  0.24547900  0.75452100  0.75452100  1
  Ti  Ti8  1  0.75452100  0.24547900  0.24547900  1
  Cu  Cu9  1  0.00000000  0.50000000  0.50000000  1
  Cu  Cu10  1  0.50000000  0.00000000  0.50000000  1
  Cu  Cu11  1  0.50000000  0.50000000  0.00000000  1
  Cu  Cu12  1  0.50000000  0.00000000  0.00000000  1
  Cu  Cu13  1  0.00000000  0.50000000  0.00000000  1
  Cu  Cu14  1  0.00000000  0.00000000  0.50000000  1
  Bi  Bi15  1  0.50000000  0.50000000  0.50000000  1
  O  O16  1  0.00000000  0.30579200  0.17789800  1
  O  O17  1  0.00000000  0.69420800  0.82210200  1
  O  O18  1  0.00000000  0.69420800  0.17789800  1
  O  O19  1  0.00000000  0.30579200  0.82210200  1
  O  O20  1  0.17789800  0.00000000  0.30579200  1
  O  O21  1  0.82210200  0.00000000  0.69420800  1
  O  O22  1  0.17789800  0.00000000  0.69420800  1
  O  O23  1  0.82210200  0.00000000  0.30579200  1
  O  O24  1  0.30579200  0.17789800  0.00000000  1
  O  O25  1  0.69420800  0.82210200  0.00000000  1
  O  O26  1  0.30579200  0.82210200  0.00000000  1
  O  O27  1  0.69420800  0.17789800  0.00000000  1
  O  O28  1  0.50000000  0.19631800  0.32207500  1
  O  O29  1  0.50000000  0.80368200  0.67792500  1
  O  O30  1  0.50000000  0.80368200  0.32207500  1
  O  O31  1  0.50000000  0.19631800  0.67792500  1
  O  O32  1  0.32207500  0.50000000  0.19631800  1
  O  O33  1  0.67792500  0.50000000  0.80368200  1
  O  O34  1  0.32207500  0.50000000  0.80368200  1
  O  O35  1  0.67792500  0.50000000  0.19631800  1
  O  O36  1  0.19631800  0.32207500  0.50000000  1
  O  O37  1  0.80368200  0.67792500  0.50000000  1
  O  O38  1  0.19631800  0.67792500  0.50000000  1
  O  O39  1  0.80368200  0.32207500  0.50000000  1
