# generated using pymatgen
data_NaAs4IO6
_symmetry_space_group_name_H-M   'P 1'
_cell_length_a   5.35787041
_cell_length_b   5.35787041
_cell_length_c   9.19891400
_cell_angle_alpha   90.00000000
_cell_angle_beta   90.00000000
_cell_angle_gamma   120.00000502
_symmetry_Int_Tables_number   1
_chemical_formula_structural   NaAs4IO6
_chemical_formula_sum   'Na1 As4 I1 O6'
_cell_volume   228.69231894
_cell_formula_units_Z   1
loop_
 _symmetry_equiv_pos_site_id
 _symmetry_equiv_pos_as_xyz
  1  'x, y, z'
loop_
 _atom_site_type_symbol
 _atom_site_label
 _atom_site_symmetry_multiplicity
 _atom_site_fract_x
 _atom_site_fract_y
 _atom_site_fract_z
 _atom_site_occupancy
  Na  Na0  1  0.00000000  0.00000000  0.00000000  1
  As  As1  1  0.33333300  0.66666700  0.28486700  1
  As  As2  1  0.66666700  0.33333300  0.71513300  1
  As  As3  1  0.66666700  0.33333300  0.28486700  1
  As  As4  1  0.33333300  0.66666700  0.71513300  1
  I  I5  1  0.00000000  0.00000000  0.50000000  1
  O  O6  1  0.50000000  0.00000000  0.17578100  1
  O  O7  1  0.50000000  0.00000000  0.82421900  1
  O  O8  1  0.00000000  0.50000000  0.17578100  1
  O  O9  1  0.00000000  0.50000000  0.82421900  1
  O  O10  1  0.50000000  0.50000000  0.17578100  1
  O  O11  1  0.50000000  0.50000000  0.82421900  1
