# generated using pymatgen
data_NaWO2
_symmetry_space_group_name_H-M   'P 1'
_cell_length_a   7.27750280
_cell_length_b   7.27750280
_cell_length_c   7.27750280
_cell_angle_alpha   128.57106375
_cell_angle_beta   128.57106375
_cell_angle_gamma   75.70173631
_symmetry_Int_Tables_number   1
_chemical_formula_structural   NaWO2
_chemical_formula_sum   'Na4 W4 O8'
_cell_volume   229.17781175
_cell_formula_units_Z   4
loop_
 _symmetry_equiv_pos_site_id
 _symmetry_equiv_pos_as_xyz
  1  'x, y, z'
loop_
 _atom_site_type_symbol
 _atom_site_label
 _atom_site_symmetry_multiplicity
 _atom_site_fract_x
 _atom_site_fract_y
 _atom_site_fract_z
 _atom_site_occupancy
  Na  Na0  1  0.87500000  0.62500000  0.25000000  1
  Na  Na1  1  0.37500000  0.62500000  0.75000000  1
  Na  Na2  1  0.37500000  0.62500000  0.25000000  1
  Na  Na3  1  0.37500000  0.12500000  0.75000000  1
  W  W4  1  0.37500000  0.12500000  0.25000000  1
  W  W5  1  0.87500000  0.12500000  0.75000000  1
  W  W6  1  0.87500000  0.12500000  0.25000000  1
  W  W7  1  0.87500000  0.62500000  0.75000000  1
  O  O8  1  0.17257600  0.36602000  0.21625000  1
  O  O9  1  0.14977000  0.95632700  0.78375000  1
  O  O10  1  0.11602000  0.39977000  0.69344300  1
  O  O11  1  0.57742400  0.88398000  0.28375000  1
  O  O12  1  0.70632700  0.42257600  0.30655700  1
  O  O13  1  0.60023000  0.29367300  0.71625000  1
  O  O14  1  0.63398000  0.85023000  0.80655700  1
  O  O15  1  0.04367300  0.82742400  0.19344300  1
