# generated using pymatgen
data_NaTl2
_symmetry_space_group_name_H-M   'P 1'
_cell_length_a   8.15401316
_cell_length_b   8.15401316
_cell_length_c   8.15401316
_cell_angle_alpha   60.00000000
_cell_angle_beta   60.00000000
_cell_angle_gamma   60.00000000
_symmetry_Int_Tables_number   1
_chemical_formula_structural   NaTl2
_chemical_formula_sum   'Na4 Tl8'
_cell_volume   383.35331793
_cell_formula_units_Z   4
loop_
 _symmetry_equiv_pos_site_id
 _symmetry_equiv_pos_as_xyz
  1  'x, y, z'
loop_
 _atom_site_type_symbol
 _atom_site_label
 _atom_site_symmetry_multiplicity
 _atom_site_fract_x
 _atom_site_fract_y
 _atom_site_fract_z
 _atom_site_occupancy
  Na  Na0  1  0.12500000  0.12500000  0.12500000  1
  Na  Na1  1  0.12500000  0.12500000  0.62500000  1
  Na  Na2  1  0.12500000  0.62500000  0.12500000  1
  Na  Na3  1  0.62500000  0.12500000  0.12500000  1
  Tl  Tl4  1  0.39930600  0.39930600  0.39930600  1
  Tl  Tl5  1  0.39930600  0.39930600  0.80208300  1
  Tl  Tl6  1  0.39930600  0.80208300  0.39930600  1
  Tl  Tl7  1  0.85069400  0.85069400  0.44791700  1
  Tl  Tl8  1  0.85069400  0.85069400  0.85069400  1
  Tl  Tl9  1  0.80208300  0.39930600  0.39930600  1
  Tl  Tl10  1  0.85069400  0.44791700  0.85069400  1
  Tl  Tl11  1  0.44791700  0.85069400  0.85069400  1
