# generated using pymatgen
data_RbLuS2O9
_symmetry_space_group_name_H-M   'P 1'
_cell_length_a   8.49171800
_cell_length_b   10.55436862
_cell_length_c   10.07693123
_cell_angle_alpha   120.22738489
_cell_angle_beta   90.00000000
_cell_angle_gamma   90.00000000
_symmetry_Int_Tables_number   1
_chemical_formula_structural   RbLuS2O9
_chemical_formula_sum   'Rb4 Lu4 S8 O36'
_cell_volume   780.34578704
_cell_formula_units_Z   4
loop_
 _symmetry_equiv_pos_site_id
 _symmetry_equiv_pos_as_xyz
  1  'x, y, z'
loop_
 _atom_site_type_symbol
 _atom_site_label
 _atom_site_symmetry_multiplicity
 _atom_site_fract_x
 _atom_site_fract_y
 _atom_site_fract_z
 _atom_site_occupancy
  Rb  Rb0  1  0.33378000  0.68183800  0.96255300  1
  Rb  Rb1  1  0.66622000  0.31816200  0.03744700  1
  Rb  Rb2  1  0.83378000  0.81816200  0.53744700  1
  Rb  Rb3  1  0.16622000  0.18183800  0.46255300  1
  Lu  Lu4  1  0.37115600  0.96952900  0.71795100  1
  Lu  Lu5  1  0.62884400  0.03047100  0.28204900  1
  Lu  Lu6  1  0.87115600  0.53047100  0.78204900  1
  Lu  Lu7  1  0.12884400  0.46952900  0.21795100  1
  S  S8  1  0.13146100  0.31604400  0.87709100  1
  S  S9  1  0.86853900  0.68395600  0.12290900  1
  S  S10  1  0.63146100  0.18395600  0.62290900  1
  S  S11  1  0.36853900  0.81604400  0.37709100  1
  S  S12  1  0.19583000  0.60997800  0.59792900  1
  S  S13  1  0.80417000  0.39002200  0.40207100  1
  S  S14  1  0.69583000  0.89002200  0.90207100  1
  S  S15  1  0.30417000  0.10997800  0.09792900  1
  O  O16  1  0.79385300  0.02374700  0.96989200  1
  O  O17  1  0.20614700  0.97625300  0.03010800  1
  O  O18  1  0.29385300  0.47625300  0.53010800  1
  O  O19  1  0.70614700  0.52374700  0.46989200  1
  O  O20  1  0.20691300  0.17683900  0.76424800  1
  O  O21  1  0.79308700  0.82316100  0.23575200  1
  O  O22  1  0.70691300  0.32316100  0.73575200  1
  O  O23  1  0.29308700  0.67683900  0.26424800  1
  O  O24  1  0.29868200  0.74395300  0.68058200  1
  O  O25  1  0.70131800  0.25604700  0.31941800  1
  O  O26  1  0.79868200  0.75604700  0.81941800  1
  O  O27  1  0.20131800  0.24395300  0.18058200  1
  O  O28  1  0.39407500  0.11939100  0.97616300  1
  O  O29  1  0.60592500  0.88060900  0.02383700  1
  O  O30  1  0.89407500  0.38060900  0.52383700  1
  O  O31  1  0.10592500  0.61939100  0.47616300  1
  O  O32  1  0.12356400  0.93767500  0.78000000  1
  O  O33  1  0.87643600  0.06232500  0.22000000  1
  O  O34  1  0.62356400  0.56232500  0.72000000  1
  O  O35  1  0.37643600  0.43767500  0.28000000  1
  O  O36  1  0.25063200  0.42156100  0.98979600  1
  O  O37  1  0.74936800  0.57843900  0.01020400  1
  O  O38  1  0.75063200  0.07843900  0.51020400  1
  O  O39  1  0.24936800  0.92156100  0.48979600  1
  O  O40  1  0.01152900  0.29954100  0.97512400  1
  O  O41  1  0.98847100  0.70045900  0.02487600  1
  O  O42  1  0.51152900  0.20045900  0.52487600  1
  O  O43  1  0.48847100  0.79954100  0.47512400  1
  O  O44  1  0.05860800  0.38125600  0.78997900  1
  O  O45  1  0.94139200  0.61874400  0.21002100  1
  O  O46  1  0.55860800  0.11874400  0.71002100  1
  O  O47  1  0.44139200  0.88125600  0.28997900  1
  O  O48  1  0.58843800  0.88796700  0.78499900  1
  O  O49  1  0.41156200  0.11203300  0.21500100  1
  O  O50  1  0.08843800  0.61203300  0.71500100  1
  O  O51  1  0.91156200  0.38796700  0.28499900  1
