# generated using pymatgen
data_NdMoO5
_symmetry_space_group_name_H-M   'P 1'
_cell_length_a   12.88478300
_cell_length_b   5.50614100
_cell_length_c   7.15172977
_cell_angle_alpha   64.54031771
_cell_angle_beta   90.00000000
_cell_angle_gamma   90.00000000
_symmetry_Int_Tables_number   1
_chemical_formula_structural   NdMoO5
_chemical_formula_sum   'Nd4 Mo4 O20'
_cell_volume   458.10962360
_cell_formula_units_Z   4
loop_
 _symmetry_equiv_pos_site_id
 _symmetry_equiv_pos_as_xyz
  1  'x, y, z'
loop_
 _atom_site_type_symbol
 _atom_site_label
 _atom_site_symmetry_multiplicity
 _atom_site_fract_x
 _atom_site_fract_y
 _atom_site_fract_z
 _atom_site_occupancy
  Nd  Nd0  1  0.05776300  0.64941600  0.71305900  1
  Nd  Nd1  1  0.94223700  0.35058400  0.28694100  1
  Nd  Nd2  1  0.55776300  0.35058400  0.78694100  1
  Nd  Nd3  1  0.44223700  0.64941600  0.21305900  1
  Mo  Mo4  1  0.36343400  0.91124200  0.64627200  1
  Mo  Mo5  1  0.63656600  0.08875800  0.35372800  1
  Mo  Mo6  1  0.86343400  0.08875800  0.85372800  1
  Mo  Mo7  1  0.13656600  0.91124200  0.14627200  1
  O  O8  1  0.42358400  0.49766400  0.95093700  1
  O  O9  1  0.57641600  0.50233600  0.04906300  1
  O  O10  1  0.92358400  0.50233600  0.54906300  1
  O  O11  1  0.07641600  0.49766400  0.45093700  1
  O  O12  1  0.92778400  0.99218800  0.66240600  1
  O  O13  1  0.07221600  0.00781200  0.33759400  1
  O  O14  1  0.42778400  0.00781200  0.83759400  1
  O  O15  1  0.57221600  0.99218800  0.16240600  1
  O  O16  1  0.43506400  0.70686500  0.54100300  1
  O  O17  1  0.56493600  0.29313500  0.45899700  1
  O  O18  1  0.93506400  0.29313500  0.95899700  1
  O  O19  1  0.06493600  0.70686500  0.04100300  1
  O  O20  1  0.23507000  0.79253500  0.71594100  1
  O  O21  1  0.76493000  0.20746500  0.28405900  1
  O  O22  1  0.73507000  0.20746500  0.78405900  1
  O  O23  1  0.26493000  0.79253500  0.21594100  1
  O  O24  1  0.65032500  0.77505900  0.57257700  1
  O  O25  1  0.34967500  0.22494100  0.42742300  1
  O  O26  1  0.15032500  0.22494100  0.92742300  1
  O  O27  1  0.84967500  0.77505900  0.07257700  1
