# generated using pymatgen
data_NaSrTiF6
_symmetry_space_group_name_H-M   'P 1'
_cell_length_a   5.52222300
_cell_length_b   9.61513700
_cell_length_c   10.46386600
_cell_angle_alpha   90.00000000
_cell_angle_beta   90.00000000
_cell_angle_gamma   90.00000000
_symmetry_Int_Tables_number   1
_chemical_formula_structural   NaSrTiF6
_chemical_formula_sum   'Na4 Sr4 Ti4 F24'
_cell_volume   555.59916775
_cell_formula_units_Z   4
loop_
 _symmetry_equiv_pos_site_id
 _symmetry_equiv_pos_as_xyz
  1  'x, y, z'
loop_
 _atom_site_type_symbol
 _atom_site_label
 _atom_site_symmetry_multiplicity
 _atom_site_fract_x
 _atom_site_fract_y
 _atom_site_fract_z
 _atom_site_occupancy
  Na  Na0  1  0.04389400  0.64790400  0.08460600  1
  Na  Na1  1  0.45610600  0.35209600  0.58460600  1
  Na  Na2  1  0.95610600  0.14790400  0.41539400  1
  Na  Na3  1  0.54389400  0.85209600  0.91539400  1
  Sr  Sr4  1  0.50649100  0.31283500  0.17571700  1
  Sr  Sr5  1  0.99350900  0.68716500  0.67571700  1
  Sr  Sr6  1  0.49350900  0.81283500  0.32428300  1
  Sr  Sr7  1  0.00649100  0.18716500  0.82428300  1
  Ti  Ti8  1  0.03735700  0.99933900  0.12586900  1
  Ti  Ti9  1  0.46264300  0.00066100  0.62586900  1
  Ti  Ti10  1  0.96264300  0.49933900  0.37413100  1
  Ti  Ti11  1  0.53735700  0.50066100  0.87413100  1
  F  F12  1  0.20642300  0.14444000  0.58805100  1
  F  F13  1  0.29357700  0.85556000  0.08805100  1
  F  F14  1  0.79357700  0.64444000  0.91194900  1
  F  F15  1  0.70642300  0.35556000  0.41194900  1
  F  F16  1  0.21388200  0.62401500  0.29575200  1
  F  F17  1  0.28611800  0.37598500  0.79575200  1
  F  F18  1  0.78611800  0.12401500  0.20424800  1
  F  F19  1  0.71388200  0.87598500  0.70424800  1
  F  F20  1  0.22079600  0.16338800  0.04619400  1
  F  F21  1  0.27920400  0.83661200  0.54619400  1
  F  F22  1  0.77920400  0.66338800  0.45380600  1
  F  F23  1  0.72079600  0.33661200  0.95380600  1
  F  F24  1  0.16163400  0.33590900  0.31690400  1
  F  F25  1  0.33836600  0.66409100  0.81690400  1
  F  F26  1  0.83836600  0.83590900  0.18309600  1
  F  F27  1  0.66163400  0.16409100  0.68309600  1
  F  F28  1  0.35714400  0.50280100  0.03425300  1
  F  F29  1  0.14285600  0.49719900  0.53425300  1
  F  F30  1  0.64285600  0.00280100  0.46574700  1
  F  F31  1  0.85714400  0.99719900  0.96574700  1
  F  F32  1  0.22070700  0.01931200  0.28554900  1
  F  F33  1  0.27929300  0.98068800  0.78554900  1
  F  F34  1  0.77929300  0.51931200  0.21445100  1
  F  F35  1  0.72070700  0.48068800  0.71445100  1
