# generated using pymatgen
data_NaNi2(MoO5)2
_symmetry_space_group_name_H-M   'P 1'
_cell_length_a   5.76876049
_cell_length_b   5.76876049
_cell_length_c   7.89265211
_cell_angle_alpha   65.41168125
_cell_angle_beta   65.41168125
_cell_angle_gamma   61.88251296
_symmetry_Int_Tables_number   1
_chemical_formula_structural   NaNi2(MoO5)2
_chemical_formula_sum   'Na1 Ni2 Mo2 O10'
_cell_volume   202.57164239
_cell_formula_units_Z   1
loop_
 _symmetry_equiv_pos_site_id
 _symmetry_equiv_pos_as_xyz
  1  'x, y, z'
loop_
 _atom_site_type_symbol
 _atom_site_label
 _atom_site_symmetry_multiplicity
 _atom_site_fract_x
 _atom_site_fract_y
 _atom_site_fract_z
 _atom_site_occupancy
  Na  Na0  1  0.00000000  0.00000000  0.00000000  1
  Ni  Ni1  1  0.50000000  0.00000000  0.50000000  1
  Ni  Ni2  1  0.00000000  0.50000000  0.50000000  1
  Mo  Mo3  1  0.42570200  0.42570200  0.77293300  1
  Mo  Mo4  1  0.57429800  0.57429800  0.22706700  1
  O  O5  1  0.72117800  0.72117800  0.98818400  1
  O  O6  1  0.27882200  0.27882200  0.01181600  1
  O  O7  1  0.33268400  0.33268400  0.61661200  1
  O  O8  1  0.66731600  0.66731600  0.38338800  1
  O  O9  1  0.29701400  0.79133200  0.73997000  1
  O  O10  1  0.70298600  0.20866800  0.26003000  1
  O  O11  1  0.20866800  0.70298600  0.26003000  1
  O  O12  1  0.79133200  0.29701400  0.73997000  1
  O  O13  1  0.19322200  0.19322200  0.41569700  1
  O  O14  1  0.80677800  0.80677800  0.58430300  1
