# generated using pymatgen
data_NbV3F6
_symmetry_space_group_name_H-M   'P 1'
_cell_length_a   6.18023914
_cell_length_b   6.47714506
_cell_length_c   12.65310234
_cell_angle_alpha   89.38310079
_cell_angle_beta   88.68719301
_cell_angle_gamma   118.21782119
_symmetry_Int_Tables_number   1
_chemical_formula_structural   NbV3F6
_chemical_formula_sum   'Nb1 V3 F6'
_cell_volume   446.06108976
_cell_formula_units_Z   1
loop_
 _symmetry_equiv_pos_site_id
 _symmetry_equiv_pos_as_xyz
  1  'x, y, z'
loop_
 _atom_site_type_symbol
 _atom_site_label
 _atom_site_symmetry_multiplicity
 _atom_site_fract_x
 _atom_site_fract_y
 _atom_site_fract_z
 _atom_site_occupancy
  Nb  Nb0  1  0.00000000  0.00000000  0.00000000  1
  V  V1  1  0.00000000  0.00000000  0.50000000  1
  V  V2  1  0.50000000  0.50000000  0.00000000  1
  V  V3  1  0.00000000  0.50000000  0.00000000  1
  F  F4  1  0.91327700  0.23151900  0.90804200  1
  F  F5  1  0.08672300  0.76848100  0.09195800  1
  F  F6  1  0.93020400  0.99090000  0.64040400  1
  F  F7  1  0.06979600  0.00910000  0.35959600  1
  F  F8  1  0.67796100  0.78731700  0.91260100  1
  F  F9  1  0.32203900  0.21268300  0.08739900  1
