# generated using pymatgen
data_Ni2S3(NO6)2
_symmetry_space_group_name_H-M   'P 1'
_cell_length_a   10.00941300
_cell_length_b   10.00941300
_cell_length_c   10.00941300
_cell_angle_alpha   90.00000000
_cell_angle_beta   90.00000000
_cell_angle_gamma   90.00000000
_symmetry_Int_Tables_number   1
_chemical_formula_structural   Ni2S3(NO6)2
_chemical_formula_sum   'Ni8 S12 N8 O48'
_cell_volume   1002.82655897
_cell_formula_units_Z   4
loop_
 _symmetry_equiv_pos_site_id
 _symmetry_equiv_pos_as_xyz
  1  'x, y, z'
loop_
 _atom_site_type_symbol
 _atom_site_label
 _atom_site_symmetry_multiplicity
 _atom_site_fract_x
 _atom_site_fract_y
 _atom_site_fract_z
 _atom_site_occupancy
  Ni  Ni0  1  0.33631900  0.33631900  0.33631900  1
  Ni  Ni1  1  0.16368100  0.66368100  0.83631900  1
  Ni  Ni2  1  0.66368100  0.83631900  0.16368100  1
  Ni  Ni3  1  0.83631900  0.16368100  0.66368100  1
  Ni  Ni4  1  0.59902300  0.59902300  0.59902300  1
  Ni  Ni5  1  0.90097700  0.40097700  0.09902300  1
  Ni  Ni6  1  0.40097700  0.09902300  0.90097700  1
  Ni  Ni7  1  0.09902300  0.90097700  0.40097700  1
  S  S8  1  0.01711400  0.21624400  0.37554100  1
  S  S9  1  0.48288600  0.78375600  0.87554100  1
  S  S10  1  0.98288600  0.71624400  0.12445900  1
  S  S11  1  0.37554100  0.01711400  0.21624400  1
  S  S12  1  0.51711400  0.28375600  0.62445900  1
  S  S13  1  0.87554100  0.48288600  0.78375600  1
  S  S14  1  0.12445900  0.98288600  0.71624400  1
  S  S15  1  0.62445900  0.51711400  0.28375600  1
  S  S16  1  0.21624400  0.37554100  0.01711400  1
  S  S17  1  0.71624400  0.12445900  0.98288600  1
  S  S18  1  0.28375600  0.62445900  0.51711400  1
  S  S19  1  0.78375600  0.87554100  0.48288600  1
  N  N20  1  0.04807000  0.04807000  0.04807000  1
  N  N21  1  0.45193000  0.95193000  0.54807000  1
  N  N22  1  0.95193000  0.54807000  0.45193000  1
  N  N23  1  0.54807000  0.45193000  0.95193000  1
  N  N24  1  0.81627500  0.81627500  0.81627500  1
  N  N25  1  0.68372500  0.18372500  0.31627500  1
  N  N26  1  0.18372500  0.31627500  0.68372500  1
  N  N27  1  0.31627500  0.68372500  0.18372500  1
  O  O28  1  0.01194900  0.07424300  0.33124200  1
  O  O29  1  0.48805100  0.92575700  0.83124200  1
  O  O30  1  0.98805100  0.57424300  0.16875800  1
  O  O31  1  0.33124200  0.01194900  0.07424300  1
  O  O32  1  0.51194900  0.42575700  0.66875800  1
  O  O33  1  0.83124200  0.48805100  0.92575700  1
  O  O34  1  0.16875800  0.98805100  0.57424300  1
  O  O35  1  0.66875800  0.51194900  0.42575700  1
  O  O36  1  0.07424300  0.33124200  0.01194900  1
  O  O37  1  0.57424300  0.16875800  0.98805100  1
  O  O38  1  0.42575700  0.66875800  0.51194900  1
  O  O39  1  0.92575700  0.83124200  0.48805100  1
  O  O40  1  0.26718100  0.49950400  0.44044700  1
  O  O41  1  0.23281900  0.50049600  0.94044700  1
  O  O42  1  0.73281900  0.99950400  0.05955300  1
  O  O43  1  0.44044700  0.26718100  0.49950400  1
  O  O44  1  0.76718100  0.00049600  0.55955300  1
  O  O45  1  0.94044700  0.23281900  0.50049600  1
  O  O46  1  0.05955300  0.73281900  0.99950400  1
  O  O47  1  0.55955300  0.76718100  0.00049600  1
  O  O48  1  0.49950400  0.44044700  0.26718100  1
  O  O49  1  0.99950400  0.05955300  0.73281900  1
  O  O50  1  0.00049600  0.55955300  0.76718100  1
  O  O51  1  0.50049600  0.94044700  0.23281900  1
  O  O52  1  0.04156600  0.80350000  0.22672300  1
  O  O53  1  0.45843400  0.19650000  0.72672300  1
  O  O54  1  0.95843400  0.30350000  0.27327700  1
  O  O55  1  0.22672300  0.04156600  0.80350000  1
  O  O56  1  0.54156600  0.69650000  0.77327700  1
  O  O57  1  0.72672300  0.45843400  0.19650000  1
  O  O58  1  0.27327700  0.95843400  0.30350000  1
  O  O59  1  0.77327700  0.54156600  0.69650000  1
  O  O60  1  0.80350000  0.22672300  0.04156600  1
  O  O61  1  0.30350000  0.27327700  0.95843400  1
  O  O62  1  0.69650000  0.77327700  0.54156600  1
  O  O63  1  0.19650000  0.72672300  0.45843400  1
  O  O64  1  0.15807500  0.25285700  0.40109400  1
  O  O65  1  0.34192500  0.74714300  0.90109400  1
  O  O66  1  0.84192500  0.75285700  0.09890600  1
  O  O67  1  0.40109400  0.15807500  0.25285700  1
  O  O68  1  0.65807500  0.24714300  0.59890600  1
  O  O69  1  0.90109400  0.34192500  0.74714300  1
  O  O70  1  0.09890600  0.84192500  0.75285700  1
  O  O71  1  0.59890600  0.65807500  0.24714300  1
  O  O72  1  0.25285700  0.40109400  0.15807500  1
  O  O73  1  0.75285700  0.09890600  0.84192500  1
  O  O74  1  0.24714300  0.59890600  0.65807500  1
  O  O75  1  0.74714300  0.90109400  0.34192500  1
