# generated using pymatgen
data_Nd4Fe
_symmetry_space_group_name_H-M   'P 1'
_cell_length_a   7.78096342
_cell_length_b   7.78096342
_cell_length_c   7.78096342
_cell_angle_alpha   60.00000000
_cell_angle_beta   60.00000000
_cell_angle_gamma   60.00000000
_symmetry_Int_Tables_number   1
_chemical_formula_structural   Nd4Fe
_chemical_formula_sum   'Nd8 Fe2'
_cell_volume   333.10804635
_cell_formula_units_Z   2
loop_
 _symmetry_equiv_pos_site_id
 _symmetry_equiv_pos_as_xyz
  1  'x, y, z'
loop_
 _atom_site_type_symbol
 _atom_site_label
 _atom_site_symmetry_multiplicity
 _atom_site_fract_x
 _atom_site_fract_y
 _atom_site_fract_z
 _atom_site_occupancy
  Nd  Nd0  1  0.61605800  0.61605800  0.61605800  1
  Nd  Nd1  1  0.15182700  0.61605800  0.61605800  1
  Nd  Nd2  1  0.61605800  0.15182700  0.61605800  1
  Nd  Nd3  1  0.59817300  0.13394200  0.13394200  1
  Nd  Nd4  1  0.13394200  0.13394200  0.13394200  1
  Nd  Nd5  1  0.61605800  0.61605800  0.15182700  1
  Nd  Nd6  1  0.13394200  0.59817300  0.13394200  1
  Nd  Nd7  1  0.13394200  0.13394200  0.59817300  1
  Fe  Fe8  1  0.00000000  0.00000000  0.00000000  1
  Fe  Fe9  1  0.75000000  0.75000000  0.75000000  1
