# generated using pymatgen
data_ScRu(NF)6
_symmetry_space_group_name_H-M   'P 1'
_cell_length_a   8.92098900
_cell_length_b   8.92098900
_cell_length_c   8.92098900
_cell_angle_alpha   90.00000000
_cell_angle_beta   90.00000000
_cell_angle_gamma   90.00000000
_symmetry_Int_Tables_number   1
_chemical_formula_structural   ScRu(NF)6
_chemical_formula_sum   'Sc4 Ru4 N24 F24'
_cell_volume   709.96838768
_cell_formula_units_Z   4
loop_
 _symmetry_equiv_pos_site_id
 _symmetry_equiv_pos_as_xyz
  1  'x, y, z'
loop_
 _atom_site_type_symbol
 _atom_site_label
 _atom_site_symmetry_multiplicity
 _atom_site_fract_x
 _atom_site_fract_y
 _atom_site_fract_z
 _atom_site_occupancy
  Sc  Sc0  1  0.50000000  0.50000000  0.50000000  1
  Sc  Sc1  1  0.00000000  0.50000000  0.00000000  1
  Sc  Sc2  1  0.50000000  0.00000000  0.00000000  1
  Sc  Sc3  1  0.00000000  0.00000000  0.50000000  1
  Ru  Ru4  1  0.00000000  0.00000000  0.00000000  1
  Ru  Ru5  1  0.50000000  0.00000000  0.50000000  1
  Ru  Ru6  1  0.00000000  0.50000000  0.50000000  1
  Ru  Ru7  1  0.50000000  0.50000000  0.00000000  1
  N  N8  1  0.22368500  0.48493800  0.48020300  1
  N  N9  1  0.77631500  0.51506200  0.51979700  1
  N  N10  1  0.27631500  0.51506200  0.98020300  1
  N  N11  1  0.77631500  0.98493800  0.01979700  1
  N  N12  1  0.48020300  0.22368500  0.48493800  1
  N  N13  1  0.72368500  0.48493800  0.01979700  1
  N  N14  1  0.22368500  0.01506200  0.98020300  1
  N  N15  1  0.51979700  0.77631500  0.51506200  1
  N  N16  1  0.72368500  0.01506200  0.51979700  1
  N  N17  1  0.98020300  0.27631500  0.51506200  1
  N  N18  1  0.27631500  0.98493800  0.48020300  1
  N  N19  1  0.01979700  0.72368500  0.48493800  1
  N  N20  1  0.01979700  0.77631500  0.98493800  1
  N  N21  1  0.98020300  0.22368500  0.01506200  1
  N  N22  1  0.51979700  0.72368500  0.01506200  1
  N  N23  1  0.48020300  0.27631500  0.98493800  1
  N  N24  1  0.48493800  0.48020300  0.22368500  1
  N  N25  1  0.51506200  0.51979700  0.77631500  1
  N  N26  1  0.98493800  0.01979700  0.77631500  1
  N  N27  1  0.01506200  0.98020300  0.22368500  1
  N  N28  1  0.01506200  0.51979700  0.72368500  1
  N  N29  1  0.98493800  0.48020300  0.27631500  1
  N  N30  1  0.51506200  0.98020300  0.27631500  1
  N  N31  1  0.48493800  0.01979700  0.72368500  1
  F  F32  1  0.12536500  0.28793200  0.06015100  1
  F  F33  1  0.87463500  0.71206800  0.93984900  1
  F  F34  1  0.37463500  0.71206800  0.56015100  1
  F  F35  1  0.87463500  0.78793200  0.43984900  1
  F  F36  1  0.06015100  0.12536500  0.28793200  1
  F  F37  1  0.62536500  0.28793200  0.43984900  1
  F  F38  1  0.12536500  0.21206800  0.56015100  1
  F  F39  1  0.93984900  0.87463500  0.71206800  1
  F  F40  1  0.62536500  0.21206800  0.93984900  1
  F  F41  1  0.56015100  0.37463500  0.71206800  1
  F  F42  1  0.37463500  0.78793200  0.06015100  1
  F  F43  1  0.43984900  0.62536500  0.28793200  1
  F  F44  1  0.43984900  0.87463500  0.78793200  1
  F  F45  1  0.56015100  0.12536500  0.21206800  1
  F  F46  1  0.93984900  0.62536500  0.21206800  1
  F  F47  1  0.06015100  0.37463500  0.78793200  1
  F  F48  1  0.28793200  0.06015100  0.12536500  1
  F  F49  1  0.71206800  0.93984900  0.87463500  1
  F  F50  1  0.78793200  0.43984900  0.87463500  1
  F  F51  1  0.21206800  0.56015100  0.12536500  1
  F  F52  1  0.21206800  0.93984900  0.62536500  1
  F  F53  1  0.78793200  0.06015100  0.37463500  1
  F  F54  1  0.71206800  0.56015100  0.37463500  1
  F  F55  1  0.28793200  0.43984900  0.62536500  1
