# generated using pymatgen
data_Rb5(Pb3Cl8)2
_symmetry_space_group_name_H-M   'P 1'
_cell_length_a   12.15636700
_cell_length_b   12.15636700
_cell_length_c   10.89917900
_cell_angle_alpha   90.00000000
_cell_angle_beta   90.00000000
_cell_angle_gamma   90.00000000
_symmetry_Int_Tables_number   1
_chemical_formula_structural   Rb5(Pb3Cl8)2
_chemical_formula_sum   'Rb10 Pb12 Cl32'
_cell_volume   1610.65079403
_cell_formula_units_Z   2
loop_
 _symmetry_equiv_pos_site_id
 _symmetry_equiv_pos_as_xyz
  1  'x, y, z'
loop_
 _atom_site_type_symbol
 _atom_site_label
 _atom_site_symmetry_multiplicity
 _atom_site_fract_x
 _atom_site_fract_y
 _atom_site_fract_z
 _atom_site_occupancy
  Rb  Rb0  1  0.13528900  0.63528900  0.50000000  1
  Rb  Rb1  1  0.86471100  0.36471100  0.50000000  1
  Rb  Rb2  1  0.63528900  0.86471100  0.50000000  1
  Rb  Rb3  1  0.36471100  0.13528900  0.50000000  1
  Rb  Rb4  1  0.11964200  0.61964200  0.00000000  1
  Rb  Rb5  1  0.88035800  0.38035800  0.00000000  1
  Rb  Rb6  1  0.61964200  0.88035800  0.00000000  1
  Rb  Rb7  1  0.38035800  0.11964200  0.00000000  1
  Rb  Rb8  1  0.00000000  0.00000000  0.00000000  1
  Rb  Rb9  1  0.50000000  0.50000000  0.00000000  1
  Pb  Pb10  1  0.00000000  0.00000000  0.34954900  1
  Pb  Pb11  1  0.00000000  0.00000000  0.65045100  1
  Pb  Pb12  1  0.50000000  0.50000000  0.65045100  1
  Pb  Pb13  1  0.50000000  0.50000000  0.34954900  1
  Pb  Pb14  1  0.67814300  0.17814300  0.26601600  1
  Pb  Pb15  1  0.32185700  0.82185700  0.73398400  1
  Pb  Pb16  1  0.32185700  0.82185700  0.26601600  1
  Pb  Pb17  1  0.17814300  0.32185700  0.26601600  1
  Pb  Pb18  1  0.17814300  0.32185700  0.73398400  1
  Pb  Pb19  1  0.67814300  0.17814300  0.73398400  1
  Pb  Pb20  1  0.82185700  0.67814300  0.73398400  1
  Pb  Pb21  1  0.82185700  0.67814300  0.26601600  1
  Cl  Cl22  1  0.20052100  0.08504700  0.22063800  1
  Cl  Cl23  1  0.79947900  0.91495300  0.77936200  1
  Cl  Cl24  1  0.79947900  0.91495300  0.22063800  1
  Cl  Cl25  1  0.08504700  0.79947900  0.22063800  1
  Cl  Cl26  1  0.70052100  0.41495300  0.77936200  1
  Cl  Cl27  1  0.20052100  0.08504700  0.77936200  1
  Cl  Cl28  1  0.91495300  0.20052100  0.77936200  1
  Cl  Cl29  1  0.29947900  0.58504700  0.22063800  1
  Cl  Cl30  1  0.91495300  0.20052100  0.22063800  1
  Cl  Cl31  1  0.29947900  0.58504700  0.77936200  1
  Cl  Cl32  1  0.08504700  0.79947900  0.77936200  1
  Cl  Cl33  1  0.70052100  0.41495300  0.22063800  1
  Cl  Cl34  1  0.58504700  0.70052100  0.77936200  1
  Cl  Cl35  1  0.41495300  0.29947900  0.22063800  1
  Cl  Cl36  1  0.41495300  0.29947900  0.77936200  1
  Cl  Cl37  1  0.58504700  0.70052100  0.22063800  1
  Cl  Cl38  1  0.50000000  0.00000000  0.27950900  1
  Cl  Cl39  1  0.50000000  0.00000000  0.72049100  1
  Cl  Cl40  1  0.00000000  0.50000000  0.27950900  1
  Cl  Cl41  1  0.00000000  0.50000000  0.72049100  1
  Cl  Cl42  1  0.09157800  0.21347900  0.50000000  1
  Cl  Cl43  1  0.90842200  0.78652000  0.50000000  1
  Cl  Cl44  1  0.21347900  0.90842200  0.50000000  1
  Cl  Cl45  1  0.59157800  0.28652100  0.50000000  1
  Cl  Cl46  1  0.78652000  0.09157800  0.50000000  1
  Cl  Cl47  1  0.40842200  0.71348000  0.50000000  1
  Cl  Cl48  1  0.71348000  0.59157800  0.50000000  1
  Cl  Cl49  1  0.28652100  0.40842200  0.50000000  1
  Cl  Cl50  1  0.65808600  0.15808600  0.00000000  1
  Cl  Cl51  1  0.34191400  0.84191400  0.00000000  1
  Cl  Cl52  1  0.15808600  0.34191400  0.00000000  1
  Cl  Cl53  1  0.84191400  0.65808600  0.00000000  1
