# generated using pymatgen
data_NaNb2Bi2O9
_symmetry_space_group_name_H-M   'P 1'
_cell_length_a   5.58523000
_cell_length_b   5.67599400
_cell_length_c   12.54198163
_cell_angle_alpha   90.00000000
_cell_angle_beta   102.86539251
_cell_angle_gamma   90.00000000
_symmetry_Int_Tables_number   1
_chemical_formula_structural   NaNb2Bi2O9
_chemical_formula_sum   'Na2 Nb4 Bi4 O18'
_cell_volume   387.62107120
_cell_formula_units_Z   2
loop_
 _symmetry_equiv_pos_site_id
 _symmetry_equiv_pos_as_xyz
  1  'x, y, z'
loop_
 _atom_site_type_symbol
 _atom_site_label
 _atom_site_symmetry_multiplicity
 _atom_site_fract_x
 _atom_site_fract_y
 _atom_site_fract_z
 _atom_site_occupancy
  Na  Na0  1  0.23647500  0.55449700  0.00000000  1
  Na  Na1  1  0.76352500  0.05449700  0.00000000  1
  Nb  Nb2  1  0.33731700  0.04218900  0.15845000  1
  Nb  Nb3  1  0.66268300  0.54218900  0.84155000  1
  Nb  Nb4  1  0.82113300  0.54218900  0.15845000  1
  Nb  Nb5  1  0.17886700  0.04218900  0.84155000  1
  Bi  Bi6  1  0.59337800  0.12511500  0.60634600  1
  Bi  Bi7  1  0.40662200  0.62511500  0.39365400  1
  Bi  Bi8  1  0.01296800  0.62511500  0.60634600  1
  Bi  Bi9  1  0.98703200  0.12511500  0.39365400  1
  O  O10  1  0.33337400  0.97898900  0.00000000  1
  O  O11  1  0.66662600  0.47898900  0.00000000  1
  O  O12  1  0.30691600  0.99072300  0.31363200  1
  O  O13  1  0.69308400  0.49072300  0.68636800  1
  O  O14  1  0.00671600  0.49072300  0.31363200  1
  O  O15  1  0.99328400  0.99072300  0.68636800  1
  O  O16  1  0.44139400  0.22237100  0.80914700  1
  O  O17  1  0.55860600  0.72237100  0.19085300  1
  O  O18  1  0.36775300  0.72237100  0.80914700  1
  O  O19  1  0.63224700  0.22237100  0.19085300  1
  O  O20  1  0.27531000  0.33108800  0.50562900  1
  O  O21  1  0.72469000  0.83108800  0.49437100  1
  O  O22  1  0.23031900  0.83108800  0.50562900  1
  O  O23  1  0.76968100  0.33108800  0.49437100  1
  O  O24  1  0.10055900  0.28227100  0.12925500  1
  O  O25  1  0.89944100  0.78227100  0.87074500  1
  O  O26  1  0.02869700  0.78227100  0.12925500  1
  O  O27  1  0.97130300  0.28227100  0.87074500  1
