# generated using pymatgen
data_Na4Al6ClO12
_symmetry_space_group_name_H-M   'P 1'
_cell_length_a   8.00463297
_cell_length_b   8.00463297
_cell_length_c   8.00463297
_cell_angle_alpha   109.47122063
_cell_angle_beta   109.47122063
_cell_angle_gamma   109.47122063
_symmetry_Int_Tables_number   1
_chemical_formula_structural   Na4Al6ClO12
_chemical_formula_sum   'Na4 Al6 Cl1 O12'
_cell_volume   394.82294110
_cell_formula_units_Z   1
loop_
 _symmetry_equiv_pos_site_id
 _symmetry_equiv_pos_as_xyz
  1  'x, y, z'
loop_
 _atom_site_type_symbol
 _atom_site_label
 _atom_site_symmetry_multiplicity
 _atom_site_fract_x
 _atom_site_fract_y
 _atom_site_fract_z
 _atom_site_occupancy
  Na  Na0  1  0.64968800  0.64968800  0.64968800  1
  Na  Na1  1  0.35031200  0.00000000  0.00000000  1
  Na  Na2  1  0.00000000  0.35031200  0.00000000  1
  Na  Na3  1  0.00000000  0.00000000  0.35031200  1
  Al  Al4  1  0.75000000  0.25000000  0.50000000  1
  Al  Al5  1  0.25000000  0.75000000  0.50000000  1
  Al  Al6  1  0.25000000  0.50000000  0.75000000  1
  Al  Al7  1  0.75000000  0.50000000  0.25000000  1
  Al  Al8  1  0.50000000  0.75000000  0.25000000  1
  Al  Al9  1  0.50000000  0.25000000  0.75000000  1
  Cl  Cl10  1  0.00000000  0.00000000  0.00000000  1
  O  O11  1  0.72124200  0.42761100  0.42761100  1
  O  O12  1  0.27875800  0.70636900  0.70636900  1
  O  O13  1  0.00000000  0.57238900  0.29363100  1
  O  O14  1  0.42761100  0.42761100  0.72124200  1
  O  O15  1  0.00000000  0.29363100  0.57238900  1
  O  O16  1  0.70636900  0.70636900  0.27875800  1
  O  O17  1  0.57238900  0.29363100  0.00000000  1
  O  O18  1  0.29363100  0.57238900  0.00000000  1
  O  O19  1  0.42761100  0.72124200  0.42761100  1
  O  O20  1  0.29363100  0.00000000  0.57238900  1
  O  O21  1  0.57238900  0.00000000  0.29363100  1
  O  O22  1  0.70636900  0.27875800  0.70636900  1
