# generated using pymatgen
data_Na5TbO6
_symmetry_space_group_name_H-M   'P 1'
_cell_length_a   5.98208211
_cell_length_b   5.98208211
_cell_length_c   11.19107895
_cell_angle_alpha   84.79990510
_cell_angle_beta   84.79990510
_cell_angle_gamma   119.73002939
_symmetry_Int_Tables_number   1
_chemical_formula_structural   Na5TbO6
_chemical_formula_sum   'Na10 Tb2 O12'
_cell_volume   342.04813727
_cell_formula_units_Z   2
loop_
 _symmetry_equiv_pos_site_id
 _symmetry_equiv_pos_as_xyz
  1  'x, y, z'
loop_
 _atom_site_type_symbol
 _atom_site_label
 _atom_site_symmetry_multiplicity
 _atom_site_fract_x
 _atom_site_fract_y
 _atom_site_fract_z
 _atom_site_occupancy
  Na  Na0  1  0.58416800  0.41583200  0.75000000  1
  Na  Na1  1  0.41583200  0.58416800  0.25000000  1
  Na  Na2  1  0.25171000  0.74829000  0.75000000  1
  Na  Na3  1  0.74829000  0.25171000  0.25000000  1
  Na  Na4  1  0.50000000  0.00000000  0.00000000  1
  Na  Na5  1  0.00000000  0.50000000  0.50000000  1
  Na  Na6  1  0.64347900  0.82135200  0.50071600  1
  Na  Na7  1  0.35652100  0.17864800  0.49928400  1
  Na  Na8  1  0.17864800  0.35652100  0.99928400  1
  Na  Na9  1  0.82135200  0.64347900  0.00071600  1
  Tb  Tb10  1  0.91604300  0.08395700  0.75000000  1
  Tb  Tb11  1  0.08395700  0.91604300  0.25000000  1
  O  O12  1  0.64747900  0.12248300  0.63076300  1
  O  O13  1  0.35252100  0.87751700  0.36923700  1
  O  O14  1  0.87751700  0.35252100  0.86923700  1
  O  O15  1  0.12248300  0.64747900  0.13076300  1
  O  O16  1  0.57065000  0.73355800  0.86812900  1
  O  O17  1  0.42935000  0.26644200  0.13187100  1
  O  O18  1  0.26644200  0.42935000  0.63187100  1
  O  O19  1  0.73355800  0.57065000  0.36812900  1
  O  O20  1  0.81410600  0.95667100  0.13303800  1
  O  O21  1  0.18589400  0.04332900  0.86696200  1
  O  O22  1  0.04332900  0.18589400  0.36696200  1
  O  O23  1  0.95667100  0.81410600  0.63303800  1
