# generated using pymatgen
data_NaCr2FeO8
_symmetry_space_group_name_H-M   'P 1'
_cell_length_a   5.05250351
_cell_length_b   5.05250351
_cell_length_c   7.17575185
_cell_angle_alpha   87.97659843
_cell_angle_beta   87.97659843
_cell_angle_gamma   65.86065817
_symmetry_Int_Tables_number   1
_chemical_formula_structural   NaCr2FeO8
_chemical_formula_sum   'Na1 Cr2 Fe1 O8'
_cell_volume   167.01459908
_cell_formula_units_Z   1
loop_
 _symmetry_equiv_pos_site_id
 _symmetry_equiv_pos_as_xyz
  1  'x, y, z'
loop_
 _atom_site_type_symbol
 _atom_site_label
 _atom_site_symmetry_multiplicity
 _atom_site_fract_x
 _atom_site_fract_y
 _atom_site_fract_z
 _atom_site_occupancy
  Na  Na0  1  0.00000000  0.00000000  0.50000000  1
  Cr  Cr1  1  0.63181500  0.63181500  0.21154200  1
  Cr  Cr2  1  0.36818500  0.36818500  0.78845800  1
  Fe  Fe3  1  0.00000000  0.00000000  0.00000000  1
  O  O4  1  0.70690600  0.70690600  0.41441300  1
  O  O5  1  0.29309400  0.29309400  0.58558700  1
  O  O6  1  0.26304000  0.77376100  0.19496800  1
  O  O7  1  0.73696000  0.22623900  0.80503200  1
  O  O8  1  0.22623900  0.73696000  0.80503200  1
  O  O9  1  0.77376100  0.26304000  0.19496800  1
  O  O10  1  0.77320200  0.77320200  0.04507800  1
  O  O11  1  0.22679800  0.22679800  0.95492200  1
