# generated using pymatgen
data_Np(MoO4)2
_symmetry_space_group_name_H-M   'P 1'
_cell_length_a   9.69393000
_cell_length_b   10.30995000
_cell_length_c   14.47792700
_cell_angle_alpha   90.00000000
_cell_angle_beta   90.00000000
_cell_angle_gamma   90.00000000
_symmetry_Int_Tables_number   1
_chemical_formula_structural   Np(MoO4)2
_chemical_formula_sum   'Np8 Mo16 O64'
_cell_volume   1446.98097480
_cell_formula_units_Z   8
loop_
 _symmetry_equiv_pos_site_id
 _symmetry_equiv_pos_as_xyz
  1  'x, y, z'
loop_
 _atom_site_type_symbol
 _atom_site_label
 _atom_site_symmetry_multiplicity
 _atom_site_fract_x
 _atom_site_fract_y
 _atom_site_fract_z
 _atom_site_occupancy
  Np  Np0  1  0.27714400  0.96617500  0.61039100  1
  Np  Np1  1  0.72285600  0.03382500  0.38960900  1
  Np  Np2  1  0.22285600  0.46617500  0.38960900  1
  Np  Np3  1  0.72285600  0.53382500  0.11039100  1
  Np  Np4  1  0.77714400  0.53382500  0.61039100  1
  Np  Np5  1  0.27714400  0.46617500  0.88960900  1
  Np  Np6  1  0.77714400  0.03382500  0.88960900  1
  Np  Np7  1  0.22285600  0.96617500  0.11039100  1
  Mo  Mo8  1  0.00127100  0.72416000  0.94057700  1
  Mo  Mo9  1  0.99872900  0.27584000  0.05942300  1
  Mo  Mo10  1  0.49872900  0.22416000  0.05942300  1
  Mo  Mo11  1  0.99872900  0.77584000  0.44057700  1
  Mo  Mo12  1  0.50127100  0.77584000  0.94057700  1
  Mo  Mo13  1  0.00127100  0.22416000  0.55942300  1
  Mo  Mo14  1  0.50127100  0.27584000  0.55942300  1
  Mo  Mo15  1  0.49872900  0.72416000  0.44057700  1
  Mo  Mo16  1  0.18136900  0.60491800  0.65178500  1
  Mo  Mo17  1  0.81863100  0.39508200  0.34821500  1
  Mo  Mo18  1  0.31863100  0.10491800  0.34821500  1
  Mo  Mo19  1  0.81863100  0.89508200  0.15178500  1
  Mo  Mo20  1  0.68136900  0.89508200  0.65178500  1
  Mo  Mo21  1  0.18136900  0.10491800  0.84821500  1
  Mo  Mo22  1  0.68136900  0.39508200  0.84821500  1
  Mo  Mo23  1  0.31863100  0.60491800  0.15178500  1
  O  O24  1  0.38756700  0.67316500  0.87531500  1
  O  O25  1  0.61243300  0.32683500  0.12468500  1
  O  O26  1  0.11243300  0.17316500  0.12468500  1
  O  O27  1  0.61243300  0.82683500  0.37531500  1
  O  O28  1  0.88756700  0.82683500  0.87531500  1
  O  O29  1  0.38756700  0.17316500  0.62468500  1
  O  O30  1  0.88756700  0.32683500  0.62468500  1
  O  O31  1  0.11243300  0.67316500  0.37531500  1
  O  O32  1  0.23762100  0.57065200  0.53676700  1
  O  O33  1  0.76237900  0.42934800  0.46323300  1
  O  O34  1  0.26237900  0.07065200  0.46323300  1
  O  O35  1  0.76237900  0.92934800  0.03676700  1
  O  O36  1  0.73762100  0.92934800  0.53676700  1
  O  O37  1  0.23762100  0.07065200  0.96323300  1
  O  O38  1  0.73762100  0.42934800  0.96323300  1
  O  O39  1  0.26237900  0.57065200  0.03676700  1
  O  O40  1  0.11947200  0.83138500  0.99731000  1
  O  O41  1  0.88052800  0.16861500  0.00269000  1
  O  O42  1  0.38052800  0.33138500  0.00269000  1
  O  O43  1  0.88052800  0.66861500  0.49731000  1
  O  O44  1  0.61947200  0.66861500  0.99731000  1
  O  O45  1  0.11947200  0.33138500  0.50269000  1
  O  O46  1  0.61947200  0.16861500  0.50269000  1
  O  O47  1  0.38052800  0.83138500  0.49731000  1
  O  O48  1  0.22958300  0.76923200  0.67754300  1
  O  O49  1  0.77041700  0.23076800  0.32245700  1
  O  O50  1  0.27041700  0.26923200  0.32245700  1
  O  O51  1  0.77041700  0.73076800  0.17754300  1
  O  O52  1  0.72958300  0.73076800  0.67754300  1
  O  O53  1  0.22958300  0.26923200  0.82245700  1
  O  O54  1  0.72958300  0.23076800  0.82245700  1
  O  O55  1  0.27041700  0.76923200  0.17754300  1
  O  O56  1  0.09436000  0.60818700  0.86871600  1
  O  O57  1  0.90564000  0.39181300  0.13128400  1
  O  O58  1  0.40564000  0.10818700  0.13128400  1
  O  O59  1  0.90564000  0.89181300  0.36871600  1
  O  O60  1  0.59436000  0.89181300  0.86871600  1
  O  O61  1  0.09436000  0.10818700  0.63128400  1
  O  O62  1  0.59436000  0.39181300  0.63128400  1
  O  O63  1  0.40564000  0.60818700  0.36871600  1
  O  O64  1  0.26464200  0.99756200  0.76803800  1
  O  O65  1  0.73535800  0.00243800  0.23196200  1
  O  O66  1  0.23535800  0.49756200  0.23196200  1
  O  O67  1  0.73535800  0.50243800  0.26803800  1
  O  O68  1  0.76464200  0.50243800  0.76803800  1
  O  O69  1  0.26464200  0.49756200  0.73196200  1
  O  O70  1  0.76464200  0.00243800  0.73196200  1
  O  O71  1  0.23535800  0.99756200  0.26803800  1
  O  O72  1  0.09358000  0.86227300  0.52678000  1
  O  O73  1  0.90642000  0.13772700  0.47322000  1
  O  O74  1  0.40642000  0.36227300  0.47322000  1
  O  O75  1  0.90642000  0.63772700  0.02678000  1
  O  O76  1  0.59358000  0.63772700  0.52678000  1
  O  O77  1  0.09358000  0.36227300  0.97322000  1
  O  O78  1  0.59358000  0.13772700  0.97322000  1
  O  O79  1  0.40642000  0.86227300  0.02678000  1
  O  O80  1  0.99807700  0.58202700  0.65591800  1
  O  O81  1  0.00192300  0.41797300  0.34408200  1
  O  O82  1  0.50192300  0.08202700  0.34408200  1
  O  O83  1  0.00192300  0.91797300  0.15591800  1
  O  O84  1  0.49807700  0.91797300  0.65591800  1
  O  O85  1  0.99807700  0.08202700  0.84408200  1
  O  O86  1  0.49807700  0.41797300  0.84408200  1
  O  O87  1  0.50192300  0.58202700  0.15591800  1
