# generated using pymatgen
data_Na2ZnH3Cl4
_symmetry_space_group_name_H-M   'P 1'
_cell_length_a   7.04683377
_cell_length_b   7.04683377
_cell_length_c   6.33923600
_cell_angle_alpha   90.00000000
_cell_angle_beta   90.00000000
_cell_angle_gamma   119.99999788
_symmetry_Int_Tables_number   1
_chemical_formula_structural   Na2ZnH3Cl4
_chemical_formula_sum   'Na2 Zn1 H3 Cl4'
_cell_volume   272.61868307
_cell_formula_units_Z   1
loop_
 _symmetry_equiv_pos_site_id
 _symmetry_equiv_pos_as_xyz
  1  'x, y, z'
loop_
 _atom_site_type_symbol
 _atom_site_label
 _atom_site_symmetry_multiplicity
 _atom_site_fract_x
 _atom_site_fract_y
 _atom_site_fract_z
 _atom_site_occupancy
  Na  Na0  1  0.66666700  0.33333300  0.68549800  1
  Na  Na1  1  0.33333300  0.66666700  0.68549800  1
  Zn  Zn2  1  0.00000000  0.00000000  0.65174600  1
  H  H3  1  0.49982400  0.49982400  0.03086000  1
  H  H4  1  0.00000000  0.50017600  0.03086000  1
  H  H5  1  0.50017600  0.00000000  0.03086000  1
  Cl  Cl6  1  0.69163400  0.69163400  0.52110200  1
  Cl  Cl7  1  0.00000000  0.30836600  0.52110200  1
  Cl  Cl8  1  0.30836600  0.00000000  0.52110200  1
  Cl  Cl9  1  0.00000000  0.00000000  0.00137200  1
