# generated using pymatgen
data_P5N6(Cl4O)2
_symmetry_space_group_name_H-M   'P 1'
_cell_length_a   8.27110500
_cell_length_b   11.42621234
_cell_length_c   12.33184965
_cell_angle_alpha   100.44002999
_cell_angle_beta   99.77667140
_cell_angle_gamma   101.60729962
_symmetry_Int_Tables_number   1
_chemical_formula_structural   P5N6(Cl4O)2
_chemical_formula_sum   'P10 N12 Cl16 O4'
_cell_volume   1096.67940088
_cell_formula_units_Z   2
loop_
 _symmetry_equiv_pos_site_id
 _symmetry_equiv_pos_as_xyz
  1  'x, y, z'
loop_
 _atom_site_type_symbol
 _atom_site_label
 _atom_site_symmetry_multiplicity
 _atom_site_fract_x
 _atom_site_fract_y
 _atom_site_fract_z
 _atom_site_occupancy
  P  P0  1  0.18332200  0.32405600  0.63468600  1
  P  P1  1  0.81667800  0.67594400  0.36531400  1
  P  P2  1  0.50854100  0.24756100  0.31675600  1
  P  P3  1  0.49145900  0.75243900  0.68324400  1
  P  P4  1  0.42374800  0.21549800  0.08906800  1
  P  P5  1  0.57625200  0.78450200  0.91093200  1
  P  P6  1  0.10998300  0.84102500  0.31243800  1
  P  P7  1  0.89001700  0.15897500  0.68756200  1
  P  P8  1  0.25475500  0.34603500  0.23037100  1
  P  P9  1  0.74524500  0.65396500  0.76962900  1
  N  N10  1  0.30103400  0.30310500  0.11162700  1
  N  N11  1  0.69896600  0.69689500  0.88837300  1
  N  N12  1  0.00203900  0.75535200  0.37477700  1
  N  N13  1  0.99796100  0.24464800  0.62522300  1
  N  N14  1  0.36383700  0.31232700  0.33874900  1
  N  N15  1  0.63616300  0.68767300  0.66125100  1
  N  N16  1  0.67932000  0.27581400  0.43277000  1
  N  N17  1  0.32068000  0.72418600  0.56723000  1
  N  N18  1  0.58100900  0.17590200  0.42472100  1
  N  N19  1  0.41899100  0.82409800  0.57527900  1
  N  N20  1  0.55086900  0.19817700  0.19958000  1
  N  N21  1  0.44913100  0.80182300  0.80042000  1
  Cl  Cl22  1  0.74777600  0.54740900  0.21283100  1
  Cl  Cl23  1  0.25222400  0.45259100  0.78716900  1
  Cl  Cl24  1  0.03367000  0.78019500  0.13965200  1
  Cl  Cl25  1  0.96633000  0.21980500  0.86034800  1
  Cl  Cl26  1  0.35067800  0.21689400  0.66125200  1
  Cl  Cl27  1  0.64932200  0.78310600  0.33874800  1
  Cl  Cl28  1  0.43207400  0.72796700  0.01312300  1
  Cl  Cl29  1  0.56792600  0.27203300  0.98687700  1
  Cl  Cl30  1  0.01164000  0.27488900  0.22316700  1
  Cl  Cl31  1  0.98836000  0.72511100  0.77683300  1
  Cl  Cl32  1  0.27781300  0.52516400  0.26393600  1
  Cl  Cl33  1  0.72218700  0.47483600  0.73606400  1
  Cl  Cl34  1  0.04488800  0.00660200  0.33448400  1
  Cl  Cl35  1  0.95511200  0.99339800  0.66551600  1
  Cl  Cl36  1  0.29169600  0.04746000  0.00514300  1
  Cl  Cl37  1  0.70830400  0.95254000  0.99485700  1
  O  O38  1  0.70346200  0.13946600  0.65684600  1
  O  O39  1  0.29653800  0.86053400  0.34315400  1
  O  O40  1  0.21493300  0.38789300  0.54356000  1
  O  O41  1  0.78506700  0.61210700  0.45644000  1
