# generated using pymatgen
data_SrC2S2N2O3
_symmetry_space_group_name_H-M   'P 1'
_cell_length_a   7.22666600
_cell_length_b   7.69384170
_cell_length_c   13.86280075
_cell_angle_alpha   94.34905157
_cell_angle_beta   90.00000000
_cell_angle_gamma   90.00000000
_symmetry_Int_Tables_number   1
_chemical_formula_structural   SrC2S2N2O3
_chemical_formula_sum   'Sr4 C8 S8 N8 O12'
_cell_volume   768.56373831
_cell_formula_units_Z   4
loop_
 _symmetry_equiv_pos_site_id
 _symmetry_equiv_pos_as_xyz
  1  'x, y, z'
loop_
 _atom_site_type_symbol
 _atom_site_label
 _atom_site_symmetry_multiplicity
 _atom_site_fract_x
 _atom_site_fract_y
 _atom_site_fract_z
 _atom_site_occupancy
  Sr  Sr0  1  0.73688900  0.07744200  0.94508900  1
  Sr  Sr1  1  0.26311100  0.92255800  0.05491100  1
  Sr  Sr2  1  0.23688900  0.42255800  0.55491100  1
  Sr  Sr3  1  0.76311100  0.57744200  0.44508900  1
  C  C4  1  0.08486000  0.89259200  0.81333500  1
  C  C5  1  0.91514000  0.10740800  0.18666500  1
  C  C6  1  0.58486000  0.60740800  0.68666500  1
  C  C7  1  0.41514000  0.39259200  0.31333500  1
  C  C8  1  0.34649600  0.33303100  0.96457400  1
  C  C9  1  0.65350400  0.66696900  0.03542600  1
  C  C10  1  0.84649600  0.16696900  0.53542600  1
  C  C11  1  0.15350400  0.83303100  0.46457400  1
  S  S12  1  0.97353500  0.46170800  0.82359700  1
  S  S13  1  0.02646500  0.53829200  0.17640300  1
  S  S14  1  0.47353500  0.03829200  0.67640300  1
  S  S15  1  0.52646500  0.96170800  0.32359700  1
  S  S16  1  0.12592100  0.88285600  0.69858600  1
  S  S17  1  0.87407900  0.11714400  0.30141400  1
  S  S18  1  0.62592100  0.61714400  0.80141400  1
  S  S19  1  0.37407900  0.38285600  0.19858600  1
  N  N20  1  0.40374100  0.18727200  0.97166400  1
  N  N21  1  0.59625900  0.81272800  0.02833600  1
  N  N22  1  0.90374100  0.31272800  0.52833600  1
  N  N23  1  0.09625900  0.68727200  0.47166400  1
  N  N24  1  0.04894600  0.89875700  0.89768400  1
  N  N25  1  0.95105400  0.10124300  0.10231600  1
  N  N26  1  0.54894600  0.60124300  0.60231600  1
  N  N27  1  0.45105400  0.39875700  0.39768400  1
  O  O28  1  0.40406200  0.21229700  0.65763500  1
  O  O29  1  0.59593800  0.78770300  0.34236500  1
  O  O30  1  0.90406200  0.28770300  0.84236500  1
  O  O31  1  0.09593800  0.71229700  0.15763500  1
  O  O32  1  0.28679900  0.47890500  0.95856700  1
  O  O33  1  0.71320100  0.52109500  0.04143300  1
  O  O34  1  0.78679900  0.02109500  0.54143300  1
  O  O35  1  0.21320100  0.97890500  0.45856700  1
  O  O36  1  0.58154600  0.03693100  0.76562600  1
  O  O37  1  0.41845400  0.96306900  0.23437400  1
  O  O38  1  0.08154600  0.46306900  0.73437400  1
  O  O39  1  0.91845400  0.53693100  0.26562600  1
