# generated using pymatgen
data_Na3YbCl6
_symmetry_space_group_name_H-M   'P 1'
_cell_length_a   7.14351260
_cell_length_b   7.47804700
_cell_length_c   9.65014885
_cell_angle_alpha   90.00000000
_cell_angle_beta   90.23623365
_cell_angle_gamma   90.00000000
_symmetry_Int_Tables_number   1
_chemical_formula_structural   Na3YbCl6
_chemical_formula_sum   'Na6 Yb2 Cl12'
_cell_volume   515.50196635
_cell_formula_units_Z   2
loop_
 _symmetry_equiv_pos_site_id
 _symmetry_equiv_pos_as_xyz
  1  'x, y, z'
loop_
 _atom_site_type_symbol
 _atom_site_label
 _atom_site_symmetry_multiplicity
 _atom_site_fract_x
 _atom_site_fract_y
 _atom_site_fract_z
 _atom_site_occupancy
  Na  Na0  1  0.00000000  0.00000000  0.50000000  1
  Na  Na1  1  0.50000000  0.50000000  0.00000000  1
  Na  Na2  1  0.99363000  0.57345100  0.26077200  1
  Na  Na3  1  0.00637000  0.42654900  0.73922800  1
  Na  Na4  1  0.50637000  0.07345100  0.23922800  1
  Na  Na5  1  0.49363000  0.92654900  0.76077200  1
  Yb  Yb6  1  0.00000000  0.00000000  0.00000000  1
  Yb  Yb7  1  0.50000000  0.50000000  0.50000000  1
  Cl  Cl8  1  0.82426700  0.30421700  0.08982200  1
  Cl  Cl9  1  0.17573300  0.69578300  0.91017800  1
  Cl  Cl10  1  0.67573300  0.80421700  0.41017800  1
  Cl  Cl11  1  0.32426700  0.19578300  0.58982200  1
  Cl  Cl12  1  0.15539300  0.91192000  0.24481400  1
  Cl  Cl13  1  0.84460700  0.08808000  0.75518600  1
  Cl  Cl14  1  0.34460700  0.41192000  0.25518600  1
  Cl  Cl15  1  0.65539300  0.58808000  0.74481400  1
  Cl  Cl16  1  0.68735000  0.81646600  0.07336500  1
  Cl  Cl17  1  0.31265000  0.18353400  0.92663500  1
  Cl  Cl18  1  0.81265000  0.31646600  0.42663500  1
  Cl  Cl19  1  0.18735000  0.68353400  0.57336500  1
