# generated using pymatgen
data_Na4Zr2Ge5HO16
_symmetry_space_group_name_H-M   'P 1'
_cell_length_a   5.53294200
_cell_length_b   7.17018000
_cell_length_c   21.47891992
_cell_angle_alpha   72.97441490
_cell_angle_beta   90.00000000
_cell_angle_gamma   90.00000000
_symmetry_Int_Tables_number   1
_chemical_formula_structural   Na4Zr2Ge5HO16
_chemical_formula_sum   'Na8 Zr4 Ge10 H2 O32'
_cell_volume   814.77105503
_cell_formula_units_Z   2
loop_
 _symmetry_equiv_pos_site_id
 _symmetry_equiv_pos_as_xyz
  1  'x, y, z'
loop_
 _atom_site_type_symbol
 _atom_site_label
 _atom_site_symmetry_multiplicity
 _atom_site_fract_x
 _atom_site_fract_y
 _atom_site_fract_z
 _atom_site_occupancy
  Na  Na0  1  0.73980100  0.61548300  0.52679200  1
  Na  Na1  1  0.26019900  0.38451700  0.47320800  1
  Na  Na2  1  0.73980100  0.38451700  0.97320800  1
  Na  Na3  1  0.26019900  0.61548300  0.02679200  1
  Na  Na4  1  0.50474500  0.75861400  0.20933200  1
  Na  Na5  1  0.49525500  0.24138600  0.79066800  1
  Na  Na6  1  0.50474500  0.24138600  0.29066800  1
  Na  Na7  1  0.49525500  0.75861400  0.70933200  1
  Zr  Zr8  1  0.26426400  0.88653300  0.41119700  1
  Zr  Zr9  1  0.73573600  0.11346700  0.58880300  1
  Zr  Zr10  1  0.26426400  0.11346700  0.08880300  1
  Zr  Zr11  1  0.73573600  0.88653300  0.91119700  1
  Ge  Ge12  1  0.99253700  0.00000000  0.25000000  1
  Ge  Ge13  1  0.00746300  0.00000000  0.75000000  1
  Ge  Ge14  1  0.78749800  0.80686600  0.07842800  1
  Ge  Ge15  1  0.21250200  0.19313400  0.92157200  1
  Ge  Ge16  1  0.78749800  0.19313400  0.42157200  1
  Ge  Ge17  1  0.21250200  0.80686600  0.57842800  1
  Ge  Ge18  1  0.75551900  0.64630300  0.36512800  1
  Ge  Ge19  1  0.24448100  0.35369700  0.63487200  1
  Ge  Ge20  1  0.75551900  0.35369700  0.13487200  1
  Ge  Ge21  1  0.24448100  0.64630300  0.86512800  1
  H  H22  1  0.17755300  0.50000000  0.25000000  1
  H  H23  1  0.82244700  0.50000000  0.75000000  1
  O  O24  1  0.45616000  0.65701400  0.38980300  1
  O  O25  1  0.54384000  0.34298600  0.61019700  1
  O  O26  1  0.45616000  0.34298600  0.11019700  1
  O  O27  1  0.54384000  0.65701400  0.88980300  1
  O  O28  1  0.82873800  0.96580600  0.68761100  1
  O  O29  1  0.17126200  0.03419400  0.31238900  1
  O  O30  1  0.82873800  0.03419400  0.81238900  1
  O  O31  1  0.17126200  0.96580600  0.18761100  1
  O  O32  1  0.66772100  0.74579200  0.01075000  1
  O  O33  1  0.33227900  0.25420800  0.98925000  1
  O  O34  1  0.66772100  0.25420800  0.48925000  1
  O  O35  1  0.33227900  0.74579200  0.51075000  1
  O  O36  1  0.91039400  0.88190900  0.56472100  1
  O  O37  1  0.08960600  0.11809100  0.43527900  1
  O  O38  1  0.91039400  0.11809100  0.93527900  1
  O  O39  1  0.08960600  0.88190900  0.06472100  1
  O  O40  1  0.78766800  0.79948700  0.28192300  1
  O  O41  1  0.21233200  0.20051300  0.71807700  1
  O  O42  1  0.78766800  0.20051300  0.21807700  1
  O  O43  1  0.21233200  0.79948700  0.78192300  1
  O  O44  1  0.96694700  0.68744700  0.42052000  1
  O  O45  1  0.03305300  0.31255300  0.57948000  1
  O  O46  1  0.96694700  0.31255300  0.07948000  1
  O  O47  1  0.03305300  0.68744700  0.92052000  1
  O  O48  1  0.59073500  0.95828900  0.10655800  1
  O  O49  1  0.40926500  0.04171100  0.89344200  1
  O  O50  1  0.59073500  0.04171100  0.39344200  1
  O  O51  1  0.40926500  0.95828900  0.60655800  1
  O  O52  1  0.78859500  0.58849600  0.14826300  1
  O  O53  1  0.21140500  0.41150400  0.85173700  1
  O  O54  1  0.78859500  0.41150400  0.35173700  1
  O  O55  1  0.21140500  0.58849600  0.64826300  1
