# generated using pymatgen
data_Pr5NiSb2
_symmetry_space_group_name_H-M   'P 1'
_cell_length_a   8.30641000
_cell_length_b   9.09485700
_cell_length_c   12.68869100
_cell_angle_alpha   90.00000000
_cell_angle_beta   90.00000000
_cell_angle_gamma   90.00000000
_symmetry_Int_Tables_number   1
_chemical_formula_structural   Pr5NiSb2
_chemical_formula_sum   'Pr20 Ni4 Sb8'
_cell_volume   958.57491608
_cell_formula_units_Z   4
loop_
 _symmetry_equiv_pos_site_id
 _symmetry_equiv_pos_as_xyz
  1  'x, y, z'
loop_
 _atom_site_type_symbol
 _atom_site_label
 _atom_site_symmetry_multiplicity
 _atom_site_fract_x
 _atom_site_fract_y
 _atom_site_fract_z
 _atom_site_occupancy
  Pr  Pr0  1  0.66390400  0.75000000  0.70792800  1
  Pr  Pr1  1  0.33609600  0.25000000  0.29207200  1
  Pr  Pr2  1  0.16390400  0.25000000  0.79207200  1
  Pr  Pr3  1  0.83609600  0.75000000  0.20792800  1
  Pr  Pr4  1  0.14170200  0.75000000  0.80221300  1
  Pr  Pr5  1  0.85829800  0.25000000  0.19778700  1
  Pr  Pr6  1  0.64170200  0.25000000  0.69778700  1
  Pr  Pr7  1  0.35829800  0.75000000  0.30221300  1
  Pr  Pr8  1  0.53949200  0.75000000  0.99874800  1
  Pr  Pr9  1  0.46050800  0.25000000  0.00125200  1
  Pr  Pr10  1  0.03949200  0.25000000  0.50125200  1
  Pr  Pr11  1  0.96050800  0.75000000  0.49874800  1
  Pr  Pr12  1  0.82071400  0.46511400  0.93287100  1
  Pr  Pr13  1  0.17928600  0.53488600  0.06712900  1
  Pr  Pr14  1  0.32071400  0.53488600  0.56712900  1
  Pr  Pr15  1  0.17928600  0.96511400  0.06712900  1
  Pr  Pr16  1  0.67928600  0.46511400  0.43287100  1
  Pr  Pr17  1  0.82071400  0.03488600  0.93287100  1
  Pr  Pr18  1  0.67928600  0.03488600  0.43287100  1
  Pr  Pr19  1  0.32071400  0.96511400  0.56712900  1
  Ni  Ni20  1  0.92546900  0.75000000  0.99046100  1
  Ni  Ni21  1  0.07453100  0.25000000  0.00953900  1
  Ni  Ni22  1  0.42546900  0.25000000  0.50953900  1
  Ni  Ni23  1  0.57453100  0.75000000  0.49046100  1
  Sb  Sb24  1  0.93924500  0.00525300  0.67541900  1
  Sb  Sb25  1  0.06075500  0.99474700  0.32458100  1
  Sb  Sb26  1  0.43924500  0.99474700  0.82458100  1
  Sb  Sb27  1  0.06075500  0.50525300  0.32458100  1
  Sb  Sb28  1  0.56075500  0.00525300  0.17541900  1
  Sb  Sb29  1  0.93924500  0.49474700  0.67541900  1
  Sb  Sb30  1  0.56075500  0.49474700  0.17541900  1
  Sb  Sb31  1  0.43924500  0.50525300  0.82458100  1
