# generated using pymatgen
data_Na3P3N3O7
_symmetry_space_group_name_H-M   'P 1'
_cell_length_a   7.94045698
_cell_length_b   7.94045698
_cell_length_c   7.74239869
_cell_angle_alpha   78.83092302
_cell_angle_beta   78.83092302
_cell_angle_gamma   100.42786373
_symmetry_Int_Tables_number   1
_chemical_formula_structural   Na3P3N3O7
_chemical_formula_sum   'Na6 P6 N6 O14'
_cell_volume   457.57850767
_cell_formula_units_Z   2
loop_
 _symmetry_equiv_pos_site_id
 _symmetry_equiv_pos_as_xyz
  1  'x, y, z'
loop_
 _atom_site_type_symbol
 _atom_site_label
 _atom_site_symmetry_multiplicity
 _atom_site_fract_x
 _atom_site_fract_y
 _atom_site_fract_z
 _atom_site_occupancy
  Na  Na0  1  0.72404900  0.00668200  0.37718600  1
  Na  Na1  1  0.99331800  0.27595100  0.62281400  1
  Na  Na2  1  0.35779800  0.07101600  0.57807600  1
  Na  Na3  1  0.92898400  0.64220200  0.42192400  1
  Na  Na4  1  0.01715100  0.98284900  0.00000000  1
  Na  Na5  1  0.68403300  0.31596700  0.00000000  1
  P  P6  1  0.61512500  0.66927500  0.17469500  1
  P  P7  1  0.33072500  0.38487500  0.82530500  1
  P  P8  1  0.36748200  0.90268800  0.19389500  1
  P  P9  1  0.09731200  0.63251800  0.80610500  1
  P  P10  1  0.07114400  0.38394200  0.15139400  1
  P  P11  1  0.61605800  0.92885600  0.84860600  1
  N  N12  1  0.02389000  0.55878900  0.02967500  1
  N  N13  1  0.44121100  0.97611000  0.97032500  1
  N  N14  1  0.43131700  0.72040900  0.27216100  1
  N  N15  1  0.27959100  0.56868300  0.72784000  1
  N  N16  1  0.25431700  0.33493600  0.05049800  1
  N  N17  1  0.66506400  0.74568300  0.94950200  1
  O  O18  1  0.67720400  0.32279600  0.50000000  1
  O  O19  1  0.92349400  0.22694100  0.15685700  1
  O  O20  1  0.77305900  0.07650600  0.84314300  1
  O  O21  1  0.57524600  0.91266900  0.66885300  1
  O  O22  1  0.08733100  0.42475400  0.33114700  1
  O  O23  1  0.46636200  0.04112400  0.27341000  1
  O  O24  1  0.95887600  0.53363800  0.72659000  1
  O  O25  1  0.00481000  0.99519000  0.50000000  1
  O  O26  1  0.16715100  0.86976200  0.23669200  1
  O  O27  1  0.13023800  0.83284900  0.76330800  1
  O  O28  1  0.76271800  0.77760700  0.23690800  1
  O  O29  1  0.22239300  0.23728200  0.76309200  1
  O  O30  1  0.52854900  0.40520000  0.78360200  1
  O  O31  1  0.59480000  0.47145100  0.21639800  1
