# generated using pymatgen
data_Na2SmCl5
_symmetry_space_group_name_H-M   'P 1'
_cell_length_a   7.78621900
_cell_length_b   8.39299600
_cell_length_c   12.17187900
_cell_angle_alpha   90.00000000
_cell_angle_beta   90.00000000
_cell_angle_gamma   90.00000000
_symmetry_Int_Tables_number   1
_chemical_formula_structural   Na2SmCl5
_chemical_formula_sum   'Na8 Sm4 Cl20'
_cell_volume   795.42870100
_cell_formula_units_Z   4
loop_
 _symmetry_equiv_pos_site_id
 _symmetry_equiv_pos_as_xyz
  1  'x, y, z'
loop_
 _atom_site_type_symbol
 _atom_site_label
 _atom_site_symmetry_multiplicity
 _atom_site_fract_x
 _atom_site_fract_y
 _atom_site_fract_z
 _atom_site_occupancy
  Na  Na0  1  0.54247800  0.49640700  0.67248200  1
  Na  Na1  1  0.45752200  0.50359300  0.32751800  1
  Na  Na2  1  0.04247800  0.50359300  0.82751800  1
  Na  Na3  1  0.45752200  0.99640700  0.32751800  1
  Na  Na4  1  0.95752200  0.49640700  0.17248200  1
  Na  Na5  1  0.54247800  0.00359300  0.67248200  1
  Na  Na6  1  0.95752200  0.00359300  0.17248200  1
  Na  Na7  1  0.04247800  0.99640700  0.82751800  1
  Sm  Sm8  1  0.58206900  0.75000000  0.99246300  1
  Sm  Sm9  1  0.41793100  0.25000000  0.00753700  1
  Sm  Sm10  1  0.08206900  0.25000000  0.50753700  1
  Sm  Sm11  1  0.91793100  0.75000000  0.49246300  1
  Cl  Cl12  1  0.36642000  0.75000000  0.81423200  1
  Cl  Cl13  1  0.63358000  0.25000000  0.18576800  1
  Cl  Cl14  1  0.86642000  0.25000000  0.68576800  1
  Cl  Cl15  1  0.13358000  0.75000000  0.31423200  1
  Cl  Cl16  1  0.66794800  0.45481600  0.91550700  1
  Cl  Cl17  1  0.33205200  0.54518400  0.08449300  1
  Cl  Cl18  1  0.16794800  0.54518400  0.58449300  1
  Cl  Cl19  1  0.33205200  0.95481600  0.08449300  1
  Cl  Cl20  1  0.83205200  0.45481600  0.41550700  1
  Cl  Cl21  1  0.66794800  0.04518400  0.91550700  1
  Cl  Cl22  1  0.83205200  0.04518400  0.41550700  1
  Cl  Cl23  1  0.16794800  0.95481600  0.58449300  1
  Cl  Cl24  1  0.93952900  0.75000000  0.99637500  1
  Cl  Cl25  1  0.06047100  0.25000000  0.00362500  1
  Cl  Cl26  1  0.43952900  0.25000000  0.50362500  1
  Cl  Cl27  1  0.56047100  0.75000000  0.49637500  1
  Cl  Cl28  1  0.83081000  0.75000000  0.71261600  1
  Cl  Cl29  1  0.16919000  0.25000000  0.28738400  1
  Cl  Cl30  1  0.33081000  0.25000000  0.78738400  1
  Cl  Cl31  1  0.66919000  0.75000000  0.21261600  1
