# generated using pymatgen
data_NaH8CN5O3
_symmetry_space_group_name_H-M   'P 1'
_cell_length_a   5.90269400
_cell_length_b   10.10121904
_cell_length_c   12.42476798
_cell_angle_alpha   87.49188615
_cell_angle_beta   77.70441351
_cell_angle_gamma   78.76827505
_symmetry_Int_Tables_number   1
_chemical_formula_structural   NaH8CN5O3
_chemical_formula_sum   'Na4 H32 C4 N20 O12'
_cell_volume   709.96133801
_cell_formula_units_Z   4
loop_
 _symmetry_equiv_pos_site_id
 _symmetry_equiv_pos_as_xyz
  1  'x, y, z'
loop_
 _atom_site_type_symbol
 _atom_site_label
 _atom_site_symmetry_multiplicity
 _atom_site_fract_x
 _atom_site_fract_y
 _atom_site_fract_z
 _atom_site_occupancy
  Na  Na0  1  0.20814100  0.10027200  0.00823500  1
  Na  Na1  1  0.79185900  0.89972800  0.99176500  1
  Na  Na2  1  0.28150500  0.39957100  0.50200900  1
  Na  Na3  1  0.71849500  0.60042900  0.49799100  1
  H  H4  1  0.10033300  0.52612000  0.13302500  1
  H  H5  1  0.89966700  0.47388000  0.86697500  1
  H  H6  1  0.06616300  0.12668200  0.62473300  1
  H  H7  1  0.93383700  0.87331800  0.37526700  1
  H  H8  1  0.19072700  0.81979400  0.10214700  1
  H  H9  1  0.80927300  0.18020600  0.89785300  1
  H  H10  1  0.24705400  0.64098300  0.38330400  1
  H  H11  1  0.75294600  0.35901700  0.61669600  1
  H  H12  1  0.56318300  0.17215100  0.63182000  1
  H  H13  1  0.43681700  0.82784900  0.36818000  1
  H  H14  1  0.90329300  0.21117900  0.21730000  1
  H  H15  1  0.09670700  0.78882100  0.78270000  1
  H  H16  1  0.21642900  0.67131400  0.61231600  1
  H  H17  1  0.78357100  0.32868600  0.38768400  1
  H  H18  1  0.79964500  0.31995800  0.13831600  1
  H  H19  1  0.20035500  0.68004200  0.86168400  1
  H  H20  1  0.00404800  0.92337600  0.18456900  1
  H  H21  1  0.99595200  0.07662400  0.81543100  1
  H  H22  1  0.66456200  0.43823500  0.31253000  1
  H  H23  1  0.33543800  0.56176500  0.68747000  1
  H  H24  1  0.14320700  0.54855000  0.31586200  1
  H  H25  1  0.85679300  0.45145000  0.68413800  1
  H  H26  1  0.28744200  0.38294700  0.16156000  1
  H  H27  1  0.71255800  0.61705300  0.83844000  1
  H  H28  1  0.39447000  0.28416900  0.71072600  1
  H  H29  1  0.60553000  0.71583100  0.28927400  1
  H  H30  1  0.73371300  0.01788600  0.36888400  1
  H  H31  1  0.26628700  0.98211400  0.63111600  1
  H  H32  1  0.63289600  0.12863700  0.12806900  1
  H  H33  1  0.36710400  0.87136300  0.87193100  1
  H  H34  1  0.46587500  0.03452700  0.18934200  1
  H  H35  1  0.53412500  0.96547300  0.81065800  1
  C  C36  1  0.43545200  0.54847300  0.13522900  1
  C  C37  1  0.56454800  0.45152700  0.86477100  1
  C  C38  1  0.06684200  0.04381500  0.36444400  1
  C  C39  1  0.93315800  0.95618500  0.63555600  1
  N  N40  1  0.24438600  0.48539200  0.16700300  1
  N  N41  1  0.75561400  0.51460800  0.83299700  1
  N  N42  1  0.42231400  0.67612000  0.09793700  1
  N  N43  1  0.57768600  0.32388000  0.90206300  1
  N  N44  1  0.65634000  0.49384300  0.14733900  1
  N  N45  1  0.34366000  0.50615700  0.85266100  1
  N  N46  1  0.02125700  0.17908900  0.37613100  1
  N  N47  1  0.97874300  0.82091100  0.62386900  1
  N  N48  1  0.70684200  0.00837900  0.63182400  1
  N  N49  1  0.29315800  0.99162100  0.36817600  1
  N  N50  1  0.22867800  0.20982700  0.38913600  1
  N  N51  1  0.77132200  0.79017300  0.61086400  1
  N  N52  1  0.38817200  0.09910800  0.38498600  1
  N  N53  1  0.61182800  0.90089200  0.61501400  1
  N  N54  1  0.78275300  0.59286800  0.11532000  1
  N  N55  1  0.21724700  0.40713200  0.88468000  1
  N  N56  1  0.64423300  0.70053500  0.08662400  1
  N  N57  1  0.35576700  0.29946500  0.91337600  1
  N  N58  1  0.09284900  0.03090500  0.65539000  1
  N  N59  1  0.90715100  0.96909500  0.34461000  1
  O  O60  1  0.86988400  0.22145900  0.14313800  1
  O  O61  1  0.13011600  0.77854100  0.85686200  1
  O  O62  1  0.51715100  0.07371700  0.11718200  1
  O  O63  1  0.48284900  0.92628300  0.88281800  1
  O  O64  1  0.07076600  0.90574000  0.10563200  1
  O  O65  1  0.92923400  0.09426000  0.89436800  1
  O  O66  1  0.48600200  0.27123700  0.63543400  1
  O  O67  1  0.51399800  0.72876300  0.36456600  1
  O  O68  1  0.66678600  0.41510600  0.38988200  1
  O  O69  1  0.33321400  0.58489400  0.61011800  1
  O  O70  1  0.11737000  0.59021500  0.38956300  1
  O  O71  1  0.88263000  0.40978500  0.61043700  1
