# generated using pymatgen
data_Na2ZrSi4H4O13
_symmetry_space_group_name_H-M   'P 1'
_cell_length_a   8.93193500
_cell_length_b   7.65795400
_cell_length_c   9.23589757
_cell_angle_alpha   67.14507870
_cell_angle_beta   90.00000000
_cell_angle_gamma   90.00000000
_symmetry_Int_Tables_number   1
_chemical_formula_structural   Na2ZrSi4H4O13
_chemical_formula_sum   'Na4 Zr2 Si8 H8 O26'
_cell_volume   582.14160792
_cell_formula_units_Z   2
loop_
 _symmetry_equiv_pos_site_id
 _symmetry_equiv_pos_as_xyz
  1  'x, y, z'
loop_
 _atom_site_type_symbol
 _atom_site_label
 _atom_site_symmetry_multiplicity
 _atom_site_fract_x
 _atom_site_fract_y
 _atom_site_fract_z
 _atom_site_occupancy
  Na  Na0  1  0.68812400  0.28939800  0.20875400  1
  Na  Na1  1  0.31187600  0.71060200  0.79124600  1
  Na  Na2  1  0.18812400  0.21060200  0.79124600  1
  Na  Na3  1  0.81187600  0.78939800  0.20875400  1
  Zr  Zr4  1  0.50000000  0.00000000  0.00000000  1
  Zr  Zr5  1  0.00000000  0.50000000  0.00000000  1
  Si  Si6  1  0.34236700  0.30144500  0.16860300  1
  Si  Si7  1  0.65763300  0.69855500  0.83139700  1
  Si  Si8  1  0.84236700  0.19855500  0.83139700  1
  Si  Si9  1  0.15763300  0.80144500  0.16860300  1
  Si  Si10  1  0.05898700  0.08885900  0.31866000  1
  Si  Si11  1  0.94101300  0.91114100  0.68134000  1
  Si  Si12  1  0.55898700  0.41114100  0.68134000  1
  Si  Si13  1  0.44101300  0.58885900  0.31866000  1
  H  H14  1  0.30220900  0.08090400  0.51161700  1
  H  H15  1  0.69779100  0.91909600  0.48838300  1
  H  H16  1  0.80220900  0.41909600  0.48838300  1
  H  H17  1  0.19779100  0.58090400  0.51161700  1
  H  H18  1  0.89944700  0.40342900  0.34953200  1
  H  H19  1  0.10055300  0.59657100  0.65046800  1
  H  H20  1  0.39944700  0.09657100  0.65046800  1
  H  H21  1  0.60055300  0.90342900  0.34953200  1
  O  O22  1  0.23325300  0.43371100  0.02745500  1
  O  O23  1  0.76674700  0.56628900  0.97254500  1
  O  O24  1  0.73325300  0.06628900  0.97254500  1
  O  O25  1  0.26674700  0.93371100  0.02745500  1
  O  O26  1  0.46585200  0.18379200  0.11561600  1
  O  O27  1  0.53414800  0.81620800  0.88438400  1
  O  O28  1  0.96585200  0.31620800  0.88438400  1
  O  O29  1  0.03414800  0.68379200  0.11561600  1
  O  O30  1  0.95781600  0.27036300  0.21741100  1
  O  O31  1  0.04218400  0.72963700  0.78258900  1
  O  O32  1  0.45781600  0.22963700  0.78258900  1
  O  O33  1  0.54218400  0.77036300  0.21741100  1
  O  O34  1  0.81532600  0.47015800  0.37306000  1
  O  O35  1  0.18467400  0.52984200  0.62694000  1
  O  O36  1  0.31532600  0.02984200  0.62694000  1
  O  O37  1  0.68467400  0.97015800  0.37306000  1
  O  O38  1  0.23623800  0.15490600  0.31584400  1
  O  O39  1  0.76376200  0.84509400  0.68415600  1
  O  O40  1  0.73623800  0.34509400  0.68415600  1
  O  O41  1  0.26376200  0.65490600  0.31584400  1
  O  O42  1  0.44538100  0.42152400  0.24907700  1
  O  O43  1  0.55461900  0.57847600  0.75092300  1
  O  O44  1  0.94538100  0.07847600  0.75092300  1
  O  O45  1  0.05461900  0.92152400  0.24907700  1
  O  O46  1  0.50000000  0.50000000  0.50000000  1
  O  O47  1  0.00000000  0.00000000  0.50000000  1
