# generated using pymatgen
data_Na2TmMoPO8
_symmetry_space_group_name_H-M   'P 1'
_cell_length_a   11.44794233
_cell_length_b   11.44794233
_cell_length_c   11.44794233
_cell_angle_alpha   145.08289133
_cell_angle_beta   115.93625298
_cell_angle_gamma   75.08701030
_symmetry_Int_Tables_number   1
_chemical_formula_structural   Na2TmMoPO8
_chemical_formula_sum   'Na8 Tm4 Mo4 P4 O32'
_cell_volume   757.17452637
_cell_formula_units_Z   4
loop_
 _symmetry_equiv_pos_site_id
 _symmetry_equiv_pos_as_xyz
  1  'x, y, z'
loop_
 _atom_site_type_symbol
 _atom_site_label
 _atom_site_symmetry_multiplicity
 _atom_site_fract_x
 _atom_site_fract_y
 _atom_site_fract_z
 _atom_site_occupancy
  Na  Na0  1  0.21436500  0.66624700  0.57562400  1
  Na  Na1  1  0.78563500  0.33375300  0.42437600  1
  Na  Na2  1  0.59062300  0.63874200  0.92437600  1
  Na  Na3  1  0.90937700  0.83375300  0.04811900  1
  Na  Na4  1  0.40937700  0.36125800  0.07562400  1
  Na  Na5  1  0.09062300  0.16624700  0.95188100  1
  Na  Na6  1  0.28563500  0.86125800  0.45188100  1
  Na  Na7  1  0.71436500  0.13874200  0.54811900  1
  Tm  Tm8  1  0.32192300  0.75000000  0.07192300  1
  Tm  Tm9  1  0.67807700  0.25000000  0.92807700  1
  Tm  Tm10  1  0.17807700  0.25000000  0.42807700  1
  Tm  Tm11  1  0.82192300  0.75000000  0.57192300  1
  Mo  Mo12  1  0.57264600  0.82264600  0.75000000  1
  Mo  Mo13  1  0.42735400  0.17735400  0.25000000  1
  Mo  Mo14  1  0.92735400  0.67735400  0.25000000  1
  Mo  Mo15  1  0.07264600  0.32264600  0.75000000  1
  P  P16  1  0.06890300  0.75000000  0.81890300  1
  P  P17  1  0.93109700  0.25000000  0.18109700  1
  P  P18  1  0.43109700  0.25000000  0.68109700  1
  P  P19  1  0.56890300  0.75000000  0.31890300  1
  O  O20  1  0.43959800  0.19632400  0.77172300  1
  O  O21  1  0.56040200  0.80367600  0.22827700  1
  O  O22  1  0.92460200  0.66787600  0.72827700  1
  O  O23  1  0.57539800  0.30367600  0.74327400  1
  O  O24  1  0.07539800  0.33212400  0.27172300  1
  O  O25  1  0.42460200  0.69632400  0.25672600  1
  O  O26  1  0.06040200  0.83212400  0.75672600  1
  O  O27  1  0.93959800  0.16787600  0.24327400  1
  O  O28  1  0.15757500  0.58219500  0.72322900  1
  O  O29  1  0.84242500  0.41780500  0.27677100  1
  O  O30  1  0.35896600  0.43434500  0.77677100  1
  O  O31  1  0.14103400  0.91780500  0.07537900  1
  O  O32  1  0.64103400  0.56565500  0.22322900  1
  O  O33  1  0.85896600  0.08219500  0.92462100  1
  O  O34  1  0.34242500  0.06565500  0.42462100  1
  O  O35  1  0.65757500  0.93434500  0.57537900  1
  O  O36  1  0.39468000  0.90773100  0.06279600  1
  O  O37  1  0.60532000  0.09226900  0.93720400  1
  O  O38  1  0.34493500  0.33188400  0.43720400  1
  O  O39  1  0.15506500  0.59226900  0.98694800  1
  O  O40  1  0.65506500  0.66811600  0.56279600  1
  O  O41  1  0.84493500  0.40773100  0.01305200  1
  O  O42  1  0.10532000  0.16811600  0.51305200  1
  O  O43  1  0.89468000  0.83188400  0.48694800  1
  O  O44  1  0.63701000  0.81092600  0.91221100  1
  O  O45  1  0.36299000  0.18907400  0.08778900  1
  O  O46  1  0.39871500  0.72479900  0.58778900  1
  O  O47  1  0.10128500  0.68907400  0.32608400  1
  O  O48  1  0.60128500  0.27520100  0.41221100  1
  O  O49  1  0.89871500  0.31092600  0.67391600  1
  O  O50  1  0.86299000  0.77520100  0.17391600  1
  O  O51  1  0.13701000  0.22479900  0.82608400  1
