# generated using pymatgen
data_Nb3VF6
_symmetry_space_group_name_H-M   'P 1'
_cell_length_a   5.08783263
_cell_length_b   7.69419379
_cell_length_c   8.06665945
_cell_angle_alpha   84.29226119
_cell_angle_beta   100.53574068
_cell_angle_gamma   108.86420967
_symmetry_Int_Tables_number   1
_chemical_formula_structural   Nb3VF6
_chemical_formula_sum   'Nb3 V1 F6'
_cell_volume   293.50807478
_cell_formula_units_Z   1
loop_
 _symmetry_equiv_pos_site_id
 _symmetry_equiv_pos_as_xyz
  1  'x, y, z'
loop_
 _atom_site_type_symbol
 _atom_site_label
 _atom_site_symmetry_multiplicity
 _atom_site_fract_x
 _atom_site_fract_y
 _atom_site_fract_z
 _atom_site_occupancy
  Nb  Nb0  1  0.00000000  0.00000000  0.50000000  1
  Nb  Nb1  1  0.50000000  0.50000000  0.00000000  1
  Nb  Nb2  1  0.00000000  0.50000000  0.00000000  1
  V  V3  1  0.00000000  0.00000000  0.00000000  1
  F  F4  1  0.85607400  0.22534500  0.96380300  1
  F  F5  1  0.14392600  0.77465500  0.03619700  1
  F  F6  1  0.93809200  0.98566700  0.73824900  1
  F  F7  1  0.06190800  0.01433300  0.26175100  1
  F  F8  1  0.63113300  0.78032300  0.99601700  1
  F  F9  1  0.36886700  0.21967700  0.00398300  1
