# generated using pymatgen
data_Nd23Mg4Ir7
_symmetry_space_group_name_H-M   'P 1'
_cell_length_a   10.09507080
_cell_length_b   10.09507080
_cell_length_c   22.70210500
_cell_angle_alpha   90.00000000
_cell_angle_beta   90.00000000
_cell_angle_gamma   120.00000526
_symmetry_Int_Tables_number   1
_chemical_formula_structural   Nd23Mg4Ir7
_chemical_formula_sum   'Nd46 Mg8 Ir14'
_cell_volume   2003.62054006
_cell_formula_units_Z   2
loop_
 _symmetry_equiv_pos_site_id
 _symmetry_equiv_pos_as_xyz
  1  'x, y, z'
loop_
 _atom_site_type_symbol
 _atom_site_label
 _atom_site_symmetry_multiplicity
 _atom_site_fract_x
 _atom_site_fract_y
 _atom_site_fract_z
 _atom_site_occupancy
  Nd  Nd0  1  0.20744200  0.41488300  0.71918500  1
  Nd  Nd1  1  0.20744200  0.79255800  0.71918500  1
  Nd  Nd2  1  0.79255800  0.58511700  0.21918500  1
  Nd  Nd3  1  0.58511700  0.79255800  0.71918500  1
  Nd  Nd4  1  0.79255800  0.20744200  0.21918500  1
  Nd  Nd5  1  0.41488300  0.20744200  0.21918500  1
  Nd  Nd6  1  0.79265100  0.58530300  0.94810800  1
  Nd  Nd7  1  0.79265100  0.20734900  0.94810800  1
  Nd  Nd8  1  0.20734900  0.41469700  0.44810800  1
  Nd  Nd9  1  0.41469700  0.20734900  0.94810800  1
  Nd  Nd10  1  0.20734900  0.79265100  0.44810800  1
  Nd  Nd11  1  0.58530300  0.79265100  0.44810800  1
  Nd  Nd12  1  0.20939700  0.41879300  0.99089400  1
  Nd  Nd13  1  0.20939700  0.79060300  0.99089400  1
  Nd  Nd14  1  0.79060300  0.58120700  0.49089400  1
  Nd  Nd15  1  0.58120700  0.79060300  0.99089400  1
  Nd  Nd16  1  0.79060300  0.20939700  0.49089400  1
  Nd  Nd17  1  0.41879300  0.20939700  0.49089400  1
  Nd  Nd18  1  0.87145700  0.74291400  0.63494100  1
  Nd  Nd19  1  0.87145700  0.12854300  0.63494100  1
  Nd  Nd20  1  0.12854300  0.25708600  0.13494100  1
  Nd  Nd21  1  0.25708600  0.12854300  0.63494100  1
  Nd  Nd22  1  0.12854300  0.87145700  0.13494100  1
  Nd  Nd23  1  0.74291400  0.87145700  0.13494100  1
  Nd  Nd24  1  0.45940400  0.91880800  0.85609300  1
  Nd  Nd25  1  0.45940400  0.54059600  0.85609300  1
  Nd  Nd26  1  0.54059600  0.08119200  0.35609300  1
  Nd  Nd27  1  0.08119200  0.54059600  0.85609300  1
  Nd  Nd28  1  0.54059600  0.45940400  0.35609300  1
  Nd  Nd29  1  0.91880800  0.45940400  0.35609300  1
  Nd  Nd30  1  0.00000000  0.00000000  0.00030700  1
  Nd  Nd31  1  0.00000000  0.00000000  0.50030700  1
  Nd  Nd32  1  0.46052400  0.92104900  0.58554400  1
  Nd  Nd33  1  0.46052400  0.53947600  0.58554400  1
  Nd  Nd34  1  0.53947600  0.07895100  0.08554400  1
  Nd  Nd35  1  0.07895100  0.53947600  0.58554400  1
  Nd  Nd36  1  0.53947600  0.46052400  0.08554400  1
  Nd  Nd37  1  0.92104900  0.46052400  0.08554400  1
  Nd  Nd38  1  0.79452900  0.58905900  0.78152800  1
  Nd  Nd39  1  0.79452900  0.20547100  0.78152800  1
  Nd  Nd40  1  0.20547100  0.41094100  0.28152800  1
  Nd  Nd41  1  0.41094100  0.20547100  0.78152800  1
  Nd  Nd42  1  0.20547100  0.79452900  0.28152800  1
  Nd  Nd43  1  0.58905900  0.79452900  0.28152800  1
  Nd  Nd44  1  0.66666700  0.33333300  0.64547400  1
  Nd  Nd45  1  0.33333300  0.66666700  0.14547400  1
  Mg  Mg46  1  0.00000000  0.00000000  0.75040300  1
  Mg  Mg47  1  0.00000000  0.00000000  0.25040300  1
  Mg  Mg48  1  0.10571400  0.21142900  0.86289200  1
  Mg  Mg49  1  0.10571400  0.89428600  0.86289200  1
  Mg  Mg50  1  0.89428600  0.78857100  0.36289200  1
  Mg  Mg51  1  0.78857100  0.89428600  0.86289200  1
  Mg  Mg52  1  0.89428600  0.10571400  0.36289200  1
  Mg  Mg53  1  0.21142900  0.10571400  0.36289200  1
  Ir  Ir54  1  0.52046700  0.04093300  0.70948900  1
  Ir  Ir55  1  0.52046700  0.47953300  0.70948900  1
  Ir  Ir56  1  0.47953300  0.95906700  0.20948900  1
  Ir  Ir57  1  0.95906700  0.47953300  0.70948900  1
  Ir  Ir58  1  0.47953300  0.52046700  0.20948900  1
  Ir  Ir59  1  0.04093300  0.52046700  0.20948900  1
  Ir  Ir60  1  0.66666700  0.33333300  0.86452800  1
  Ir  Ir61  1  0.33333300  0.66666700  0.36452800  1
  Ir  Ir62  1  0.14460300  0.28920700  0.56332800  1
  Ir  Ir63  1  0.14460300  0.85539700  0.56332800  1
  Ir  Ir64  1  0.85539700  0.71079300  0.06332800  1
  Ir  Ir65  1  0.71079300  0.85539700  0.56332800  1
  Ir  Ir66  1  0.85539700  0.14460300  0.06332800  1
  Ir  Ir67  1  0.28920700  0.14460300  0.06332800  1
