# generated using pymatgen
data_NaAl(SO4)2
_symmetry_space_group_name_H-M   'P 1'
_cell_length_a   5.03543300
_cell_length_b   13.99417800
_cell_length_c   8.18551300
_cell_angle_alpha   90.00000000
_cell_angle_beta   90.00000000
_cell_angle_gamma   90.00000000
_symmetry_Int_Tables_number   1
_chemical_formula_structural   NaAl(SO4)2
_chemical_formula_sum   'Na4 Al4 S8 O32'
_cell_volume   576.80646307
_cell_formula_units_Z   4
loop_
 _symmetry_equiv_pos_site_id
 _symmetry_equiv_pos_as_xyz
  1  'x, y, z'
loop_
 _atom_site_type_symbol
 _atom_site_label
 _atom_site_symmetry_multiplicity
 _atom_site_fract_x
 _atom_site_fract_y
 _atom_site_fract_z
 _atom_site_occupancy
  Na  Na0  1  0.75000000  0.58180000  0.92019400  1
  Na  Na1  1  0.25000000  0.41820000  0.07980600  1
  Na  Na2  1  0.25000000  0.91820000  0.42019400  1
  Na  Na3  1  0.75000000  0.08180000  0.57980600  1
  Al  Al4  1  0.75000000  0.65337400  0.49589100  1
  Al  Al5  1  0.25000000  0.34662600  0.50410900  1
  Al  Al6  1  0.25000000  0.84662600  0.99589100  1
  Al  Al7  1  0.75000000  0.15337400  0.00410900  1
  S  S8  1  0.75000000  0.83174300  0.75165000  1
  S  S9  1  0.25000000  0.16825700  0.24835000  1
  S  S10  1  0.25000000  0.66825700  0.25165000  1
  S  S11  1  0.75000000  0.33174300  0.74835000  1
  S  S12  1  0.75000000  0.94286700  0.19194900  1
  S  S13  1  0.25000000  0.05713300  0.80805100  1
  S  S14  1  0.25000000  0.55713300  0.69194900  1
  S  S15  1  0.75000000  0.44286700  0.30805100  1
  O  O16  1  0.75000000  0.93275800  0.71682400  1
  O  O17  1  0.25000000  0.06724200  0.28317600  1
  O  O18  1  0.25000000  0.56724200  0.21682400  1
  O  O19  1  0.75000000  0.43275800  0.78317600  1
  O  O20  1  0.75000000  0.96584300  0.36613900  1
  O  O21  1  0.25000000  0.03415700  0.63386100  1
  O  O22  1  0.25000000  0.53415700  0.86613900  1
  O  O23  1  0.75000000  0.46584300  0.13386100  1
  O  O24  1  0.75000000  0.52809300  0.41372900  1
  O  O25  1  0.25000000  0.47190700  0.58627100  1
  O  O26  1  0.25000000  0.97190700  0.91372900  1
  O  O27  1  0.75000000  0.02809300  0.08627100  1
  O  O28  1  0.00885100  0.61577800  0.65646600  1
  O  O29  1  0.99114900  0.38422200  0.34353400  1
  O  O30  1  0.99114900  0.88422200  0.15646600  1
  O  O31  1  0.50885100  0.38422200  0.34353400  1
  O  O32  1  0.00885100  0.11577800  0.84353400  1
  O  O33  1  0.49114900  0.61577800  0.65646600  1
  O  O34  1  0.49114900  0.11577800  0.84353400  1
  O  O35  1  0.50885100  0.88422200  0.15646600  1
  O  O36  1  0.75000000  0.77740200  0.59421300  1
  O  O37  1  0.25000000  0.22259800  0.40578700  1
  O  O38  1  0.25000000  0.72259800  0.09421300  1
  O  O39  1  0.75000000  0.27740200  0.90578700  1
  O  O40  1  0.98858400  0.80118600  0.84777900  1
  O  O41  1  0.01141600  0.19881400  0.15222100  1
  O  O42  1  0.01141600  0.69881400  0.34777900  1
  O  O43  1  0.48858400  0.19881400  0.15222100  1
  O  O44  1  0.98858400  0.30118600  0.65222100  1
  O  O45  1  0.51141600  0.80118600  0.84777900  1
  O  O46  1  0.51141600  0.30118600  0.65222100  1
  O  O47  1  0.48858400  0.69881400  0.34777900  1
