# generated using pymatgen
data_Rb3RuF12
_symmetry_space_group_name_H-M   'P 1'
_cell_length_a   7.10092024
_cell_length_b   8.34169635
_cell_length_c   8.95929559
_cell_angle_alpha   107.71500175
_cell_angle_beta   44.36482071
_cell_angle_gamma   115.19042494
_symmetry_Int_Tables_number   1
_chemical_formula_structural   Rb3RuF12
_chemical_formula_sum   'Rb3 Ru1 F12'
_cell_volume   335.78342280
_cell_formula_units_Z   1
loop_
 _symmetry_equiv_pos_site_id
 _symmetry_equiv_pos_as_xyz
  1  'x, y, z'
loop_
 _atom_site_type_symbol
 _atom_site_label
 _atom_site_symmetry_multiplicity
 _atom_site_fract_x
 _atom_site_fract_y
 _atom_site_fract_z
 _atom_site_occupancy
  Rb  Rb0  1  0.00000000  0.00000000  0.50000000  1
  Rb  Rb1  1  0.50000000  0.50000000  0.00000000  1
  Rb  Rb2  1  0.00000000  0.50000000  0.00000000  1
  Ru  Ru3  1  0.00000000  0.00000000  0.00000000  1
  F  F4  1  0.39105700  0.82968900  0.86403200  1
  F  F5  1  0.60894300  0.17031100  0.13596800  1
  F  F6  1  0.76019500  0.28850200  0.62521700  1
  F  F7  1  0.43863100  0.82968900  0.13596800  1
  F  F8  1  0.23980500  0.71149800  0.37478300  1
  F  F9  1  0.56136900  0.17031100  0.86403200  1
  F  F10  1  0.83059500  0.82215800  0.18824000  1
  F  F11  1  0.52830600  0.28850200  0.37478300  1
  F  F12  1  0.16940500  0.17784200  0.81176000  1
  F  F13  1  0.47169400  0.71149800  0.62521700  1
  F  F14  1  0.99156300  0.82215800  0.81176000  1
  F  F15  1  0.00843700  0.17784200  0.18824000  1
