# generated using pymatgen
data_Na2FeCl4
_symmetry_space_group_name_H-M   'P 1'
_cell_length_a   3.87158400
_cell_length_b   6.90443100
_cell_length_c   11.88652700
_cell_angle_alpha   90.00000000
_cell_angle_beta   90.00000000
_cell_angle_gamma   90.00000000
_symmetry_Int_Tables_number   1
_chemical_formula_structural   Na2FeCl4
_chemical_formula_sum   'Na4 Fe2 Cl8'
_cell_volume   317.73975870
_cell_formula_units_Z   2
loop_
 _symmetry_equiv_pos_site_id
 _symmetry_equiv_pos_as_xyz
  1  'x, y, z'
loop_
 _atom_site_type_symbol
 _atom_site_label
 _atom_site_symmetry_multiplicity
 _atom_site_fract_x
 _atom_site_fract_y
 _atom_site_fract_z
 _atom_site_occupancy
  Na  Na0  1  0.50000000  0.07386100  0.31894900  1
  Na  Na1  1  0.50000000  0.92613900  0.68105100  1
  Na  Na2  1  0.50000000  0.42613900  0.81894900  1
  Na  Na3  1  0.50000000  0.57386100  0.18105100  1
  Fe  Fe4  1  0.00000000  0.00000000  0.00000000  1
  Fe  Fe5  1  0.00000000  0.50000000  0.50000000  1
  Cl  Cl6  1  0.00000000  0.36837000  0.30970100  1
  Cl  Cl7  1  0.00000000  0.63163000  0.69029900  1
  Cl  Cl8  1  0.00000000  0.13163000  0.80970100  1
  Cl  Cl9  1  0.00000000  0.86837000  0.19029900  1
  Cl  Cl10  1  0.50000000  0.22675600  0.04971000  1
  Cl  Cl11  1  0.50000000  0.77324400  0.95029000  1
  Cl  Cl12  1  0.50000000  0.27324400  0.54971000  1
  Cl  Cl13  1  0.50000000  0.72675600  0.45029000  1
