# generated using pymatgen
data_Pr2InCuSe5
_symmetry_space_group_name_H-M   'P 1'
_cell_length_a   4.10519100
_cell_length_b   12.16225700
_cell_length_c   17.56260800
_cell_angle_alpha   90.00000000
_cell_angle_beta   90.00000000
_cell_angle_gamma   90.00000000
_symmetry_Int_Tables_number   1
_chemical_formula_structural   Pr2InCuSe5
_chemical_formula_sum   'Pr8 In4 Cu4 Se20'
_cell_volume   876.87270610
_cell_formula_units_Z   4
loop_
 _symmetry_equiv_pos_site_id
 _symmetry_equiv_pos_as_xyz
  1  'x, y, z'
loop_
 _atom_site_type_symbol
 _atom_site_label
 _atom_site_symmetry_multiplicity
 _atom_site_fract_x
 _atom_site_fract_y
 _atom_site_fract_z
 _atom_site_occupancy
  Pr  Pr0  1  0.25000000  0.52054700  0.82091200  1
  Pr  Pr1  1  0.75000000  0.47945300  0.17908800  1
  Pr  Pr2  1  0.75000000  0.97945300  0.32091200  1
  Pr  Pr3  1  0.25000000  0.02054700  0.67908800  1
  Pr  Pr4  1  0.25000000  0.86339900  0.90601300  1
  Pr  Pr5  1  0.75000000  0.13660100  0.09398700  1
  Pr  Pr6  1  0.75000000  0.63660100  0.40601300  1
  Pr  Pr7  1  0.25000000  0.36339900  0.59398700  1
  In  In8  1  0.25000000  0.80767200  0.13902200  1
  In  In9  1  0.75000000  0.19232800  0.86097800  1
  In  In10  1  0.75000000  0.69232800  0.63902200  1
  In  In11  1  0.25000000  0.30767200  0.36097800  1
  Cu  Cu12  1  0.25000000  0.92016500  0.50326000  1
  Cu  Cu13  1  0.75000000  0.07983500  0.49674000  1
  Cu  Cu14  1  0.75000000  0.57983500  0.00326000  1
  Cu  Cu15  1  0.25000000  0.42016500  0.99674000  1
  Se  Se16  1  0.25000000  0.60009200  0.07773500  1
  Se  Se17  1  0.75000000  0.39990800  0.92226500  1
  Se  Se18  1  0.75000000  0.89990800  0.57773500  1
  Se  Se19  1  0.25000000  0.10009200  0.42226500  1
  Se  Se20  1  0.25000000  0.81838100  0.38581800  1
  Se  Se21  1  0.75000000  0.18161900  0.61418200  1
  Se  Se22  1  0.75000000  0.68161900  0.88581800  1
  Se  Se23  1  0.25000000  0.31838100  0.11418200  1
  Se  Se24  1  0.25000000  0.76094000  0.73067200  1
  Se  Se25  1  0.75000000  0.23906000  0.26932800  1
  Se  Se26  1  0.75000000  0.73906000  0.23067200  1
  Se  Se27  1  0.25000000  0.26094000  0.76932800  1
  Se  Se28  1  0.25000000  0.60809300  0.53623400  1
  Se  Se29  1  0.75000000  0.39190700  0.46376600  1
  Se  Se30  1  0.75000000  0.89190700  0.03623400  1
  Se  Se31  1  0.25000000  0.10809300  0.96376600  1
  Se  Se32  1  0.25000000  0.51537200  0.30616200  1
  Se  Se33  1  0.75000000  0.48462800  0.69383800  1
  Se  Se34  1  0.75000000  0.98462800  0.80616200  1
  Se  Se35  1  0.25000000  0.01537200  0.19383800  1
