# generated using pymatgen
data_NaFe9Si6B3H3O31
_symmetry_space_group_name_H-M   'P 1'
_cell_length_a   9.85006884
_cell_length_b   9.85006884
_cell_length_c   9.85006899
_cell_angle_alpha   113.50949890
_cell_angle_beta   113.50949890
_cell_angle_gamma   113.50950176
_symmetry_Int_Tables_number   1
_chemical_formula_structural   NaFe9Si6B3H3O31
_chemical_formula_sum   'Na1 Fe9 Si6 B3 H3 O31'
_cell_volume   601.16404846
_cell_formula_units_Z   1
loop_
 _symmetry_equiv_pos_site_id
 _symmetry_equiv_pos_as_xyz
  1  'x, y, z'
loop_
 _atom_site_type_symbol
 _atom_site_label
 _atom_site_symmetry_multiplicity
 _atom_site_fract_x
 _atom_site_fract_y
 _atom_site_fract_z
 _atom_site_occupancy
  Na  Na0  1  0.46211800  0.46211800  0.46211800  1
  Fe  Fe1  1  0.80687900  0.57714400  0.14261300  1
  Fe  Fe2  1  0.57714400  0.14261300  0.80687900  1
  Fe  Fe3  1  0.80687900  0.14261300  0.57714400  1
  Fe  Fe4  1  0.14261300  0.80687900  0.57714400  1
  Fe  Fe5  1  0.57714400  0.80687900  0.14261300  1
  Fe  Fe6  1  0.14261300  0.57714400  0.80687900  1
  Fe  Fe7  1  0.99854400  0.81353600  0.81353600  1
  Fe  Fe8  1  0.81353600  0.81353600  0.99854400  1
  Fe  Fe9  1  0.81353600  0.99854400  0.81353600  1
  Si  Si10  1  0.03988200  0.41398000  0.22503300  1
  Si  Si11  1  0.41398000  0.22503300  0.03988200  1
  Si  Si12  1  0.03988200  0.22503300  0.41398000  1
  Si  Si13  1  0.22503300  0.03988200  0.41398000  1
  Si  Si14  1  0.41398000  0.03988200  0.22503300  1
  Si  Si15  1  0.22503300  0.41398000  0.03988200  1
  B  B16  1  0.47010900  0.79698400  0.79698400  1
  B  B17  1  0.79698400  0.79698400  0.47010900  1
  B  B18  1  0.79698400  0.47010900  0.79698400  1
  H  H19  1  0.86311700  0.49521000  0.49521000  1
  H  H20  1  0.49521000  0.49521000  0.86311700  1
  H  H21  1  0.49521000  0.86311700  0.49521000  1
  O  O22  1  0.99659300  0.61810400  0.61810400  1
  O  O23  1  0.61810400  0.61810400  0.99659300  1
  O  O24  1  0.61810400  0.99659300  0.61810400  1
  O  O25  1  0.73020300  0.40480400  0.87477400  1
  O  O26  1  0.40480400  0.87477400  0.73020300  1
  O  O27  1  0.73020300  0.87477400  0.40480400  1
  O  O28  1  0.87477400  0.73020300  0.40480400  1
  O  O29  1  0.40480400  0.73020300  0.87477400  1
  O  O30  1  0.87477400  0.40480400  0.73020300  1
  O  O31  1  0.83103000  0.20529700  0.00562200  1
  O  O32  1  0.20529700  0.00562200  0.83103000  1
  O  O33  1  0.83103000  0.00562200  0.20529700  1
  O  O34  1  0.00562200  0.83103000  0.20529700  1
  O  O35  1  0.20529700  0.83103000  0.00562200  1
  O  O36  1  0.00562200  0.20529700  0.83103000  1
  O  O37  1  0.49212200  0.22040800  0.22040800  1
  O  O38  1  0.22040800  0.22040800  0.49212200  1
  O  O39  1  0.22040800  0.49212200  0.22040800  1
  O  O40  1  0.58059700  0.30460400  0.02290900  1
  O  O41  1  0.30460400  0.02290900  0.58059700  1
  O  O42  1  0.58059700  0.02290900  0.30460400  1
  O  O43  1  0.02290900  0.58059700  0.30460400  1
  O  O44  1  0.30460400  0.58059700  0.02290900  1
  O  O45  1  0.02290900  0.30460400  0.58059700  1
  O  O46  1  0.11385700  0.38565200  0.38565200  1
  O  O47  1  0.38565200  0.38565200  0.11385700  1
  O  O48  1  0.38565200  0.11385700  0.38565200  1
  O  O49  1  0.99692900  0.99692900  0.99692900  1
  O  O50  1  0.60447800  0.78681200  0.78681200  1
  O  O51  1  0.78681200  0.78681200  0.60447800  1
  O  O52  1  0.78681200  0.60447800  0.78681200  1
