# generated using pymatgen
data_Nd23Mg4Ru7
_symmetry_space_group_name_H-M   'P 1'
_cell_length_a   10.07952190
_cell_length_b   10.07952190
_cell_length_c   22.64545200
_cell_angle_alpha   90.00000000
_cell_angle_beta   90.00000000
_cell_angle_gamma   119.99999937
_symmetry_Int_Tables_number   1
_chemical_formula_structural   Nd23Mg4Ru7
_chemical_formula_sum   'Nd46 Mg8 Ru14'
_cell_volume   1992.46863698
_cell_formula_units_Z   2
loop_
 _symmetry_equiv_pos_site_id
 _symmetry_equiv_pos_as_xyz
  1  'x, y, z'
loop_
 _atom_site_type_symbol
 _atom_site_label
 _atom_site_symmetry_multiplicity
 _atom_site_fract_x
 _atom_site_fract_y
 _atom_site_fract_z
 _atom_site_occupancy
  Nd  Nd0  1  0.20871500  0.41743000  0.71844800  1
  Nd  Nd1  1  0.20871500  0.79128500  0.71844800  1
  Nd  Nd2  1  0.79128500  0.58257000  0.21844800  1
  Nd  Nd3  1  0.58257000  0.79128500  0.71844800  1
  Nd  Nd4  1  0.79128500  0.20871500  0.21844800  1
  Nd  Nd5  1  0.41743000  0.20871500  0.21844800  1
  Nd  Nd6  1  0.79205400  0.58410900  0.94865600  1
  Nd  Nd7  1  0.79205400  0.20794600  0.94865600  1
  Nd  Nd8  1  0.20794600  0.41589100  0.44865600  1
  Nd  Nd9  1  0.41589100  0.20794600  0.94865600  1
  Nd  Nd10  1  0.20794600  0.79205400  0.44865600  1
  Nd  Nd11  1  0.58410900  0.79205400  0.44865600  1
  Nd  Nd12  1  0.20881000  0.41762000  0.99145400  1
  Nd  Nd13  1  0.20881000  0.79119000  0.99145400  1
  Nd  Nd14  1  0.79119000  0.58238000  0.49145400  1
  Nd  Nd15  1  0.58238000  0.79119000  0.99145400  1
  Nd  Nd16  1  0.79119000  0.20881000  0.49145400  1
  Nd  Nd17  1  0.41762000  0.20881000  0.49145400  1
  Nd  Nd18  1  0.87276200  0.74552400  0.63550300  1
  Nd  Nd19  1  0.87276200  0.12723800  0.63550300  1
  Nd  Nd20  1  0.12723800  0.25447600  0.13550300  1
  Nd  Nd21  1  0.25447600  0.12723800  0.63550300  1
  Nd  Nd22  1  0.12723800  0.87276200  0.13550300  1
  Nd  Nd23  1  0.74552400  0.87276200  0.13550300  1
  Nd  Nd24  1  0.45924600  0.91849300  0.85546800  1
  Nd  Nd25  1  0.45924600  0.54075400  0.85546800  1
  Nd  Nd26  1  0.54075400  0.08150700  0.35546800  1
  Nd  Nd27  1  0.08150700  0.54075400  0.85546800  1
  Nd  Nd28  1  0.54075400  0.45924600  0.35546800  1
  Nd  Nd29  1  0.91849300  0.45924600  0.35546800  1
  Nd  Nd30  1  0.00000000  0.00000000  0.00313200  1
  Nd  Nd31  1  0.00000000  0.00000000  0.50313200  1
  Nd  Nd32  1  0.45878300  0.91756600  0.58457000  1
  Nd  Nd33  1  0.45878300  0.54121700  0.58457000  1
  Nd  Nd34  1  0.54121700  0.08243400  0.08457000  1
  Nd  Nd35  1  0.08243400  0.54121700  0.58457000  1
  Nd  Nd36  1  0.54121700  0.45878300  0.08457000  1
  Nd  Nd37  1  0.91756600  0.45878300  0.08457000  1
  Nd  Nd38  1  0.79196200  0.58392400  0.78120700  1
  Nd  Nd39  1  0.79196200  0.20803800  0.78120700  1
  Nd  Nd40  1  0.20803800  0.41607600  0.28120700  1
  Nd  Nd41  1  0.41607600  0.20803800  0.78120700  1
  Nd  Nd42  1  0.20803800  0.79196200  0.28120700  1
  Nd  Nd43  1  0.58392400  0.79196200  0.28120700  1
  Nd  Nd44  1  0.66666700  0.33333300  0.64481900  1
  Nd  Nd45  1  0.33333300  0.66666700  0.14481900  1
  Mg  Mg46  1  0.00000000  0.00000000  0.75139400  1
  Mg  Mg47  1  0.00000000  0.00000000  0.25139400  1
  Mg  Mg48  1  0.10482500  0.20965000  0.86303000  1
  Mg  Mg49  1  0.10482500  0.89517500  0.86303000  1
  Mg  Mg50  1  0.89517500  0.79035000  0.36303000  1
  Mg  Mg51  1  0.79035000  0.89517500  0.86303000  1
  Mg  Mg52  1  0.89517500  0.10482500  0.36303000  1
  Mg  Mg53  1  0.20965000  0.10482500  0.36303000  1
  Ru  Ru54  1  0.51767500  0.03535100  0.70908600  1
  Ru  Ru55  1  0.51767500  0.48232500  0.70908600  1
  Ru  Ru56  1  0.48232500  0.96464900  0.20908600  1
  Ru  Ru57  1  0.96464900  0.48232500  0.70908600  1
  Ru  Ru58  1  0.48232500  0.51767500  0.20908600  1
  Ru  Ru59  1  0.03535100  0.51767500  0.20908600  1
  Ru  Ru60  1  0.66666700  0.33333300  0.86743800  1
  Ru  Ru61  1  0.33333300  0.66666700  0.36743800  1
  Ru  Ru62  1  0.14693600  0.29387200  0.56255700  1
  Ru  Ru63  1  0.14693600  0.85306400  0.56255700  1
  Ru  Ru64  1  0.85306400  0.70612800  0.06255700  1
  Ru  Ru65  1  0.70612800  0.85306400  0.56255700  1
  Ru  Ru66  1  0.85306400  0.14693600  0.06255700  1
  Ru  Ru67  1  0.29387200  0.14693600  0.06255700  1
