# generated using pymatgen
data_Na3Mg2(MoO4)3
_symmetry_space_group_name_H-M   'P 1'
_cell_length_a   9.20309665
_cell_length_b   9.20309665
_cell_length_c   7.19172178
_cell_angle_alpha   74.79048500
_cell_angle_beta   74.79048500
_cell_angle_gamma   95.41729150
_symmetry_Int_Tables_number   1
_chemical_formula_structural   Na3Mg2(MoO4)3
_chemical_formula_sum   'Na6 Mg4 Mo6 O24'
_cell_volume   558.41022379
_cell_formula_units_Z   2
loop_
 _symmetry_equiv_pos_site_id
 _symmetry_equiv_pos_as_xyz
  1  'x, y, z'
loop_
 _atom_site_type_symbol
 _atom_site_label
 _atom_site_symmetry_multiplicity
 _atom_site_fract_x
 _atom_site_fract_y
 _atom_site_fract_z
 _atom_site_occupancy
  Na  Na0  1  0.23568900  0.76431100  0.25000000  1
  Na  Na1  1  0.76431100  0.23568900  0.75000000  1
  Na  Na2  1  0.00000000  0.00000000  0.00000000  1
  Na  Na3  1  0.00000000  0.00000000  0.50000000  1
  Na  Na4  1  0.52887800  0.47112200  0.25000000  1
  Na  Na5  1  0.47112200  0.52887800  0.75000000  1
  Mg  Mg6  1  0.55517300  0.87028200  0.37410700  1
  Mg  Mg7  1  0.44482700  0.12971800  0.62589300  1
  Mg  Mg8  1  0.12971800  0.44482700  0.12589300  1
  Mg  Mg9  1  0.87028200  0.55517300  0.87410700  1
  Mo  Mo10  1  0.78159000  0.21841000  0.25000000  1
  Mo  Mo11  1  0.21841000  0.78159000  0.75000000  1
  Mo  Mo12  1  0.37873300  0.15973100  0.12611600  1
  Mo  Mo13  1  0.62126700  0.84026900  0.87388400  1
  Mo  Mo14  1  0.84026900  0.62126700  0.37388400  1
  Mo  Mo15  1  0.15973100  0.37873300  0.62611600  1
  O  O16  1  0.45630100  0.09760900  0.33773900  1
  O  O17  1  0.54369900  0.90239100  0.66226100  1
  O  O18  1  0.90239100  0.54369900  0.16226100  1
  O  O19  1  0.09760900  0.45630100  0.83773900  1
  O  O20  1  0.50626300  0.84989400  0.11238200  1
  O  O21  1  0.49373700  0.15010600  0.88761800  1
  O  O22  1  0.15010600  0.49373700  0.38761800  1
  O  O23  1  0.84989400  0.50626300  0.61238200  1
  O  O24  1  0.20411400  0.03650000  0.18967200  1
  O  O25  1  0.79588600  0.96350000  0.81032800  1
  O  O26  1  0.96350000  0.79588600  0.31032800  1
  O  O27  1  0.03650000  0.20411400  0.68967200  1
  O  O28  1  0.75749600  0.02093200  0.22655200  1
  O  O29  1  0.24250400  0.97906800  0.77344800  1
  O  O30  1  0.97906800  0.24250400  0.27344800  1
  O  O31  1  0.02093200  0.75749600  0.72655200  1
  O  O32  1  0.65807800  0.26291400  0.47484300  1
  O  O33  1  0.34192200  0.73708600  0.52515700  1
  O  O34  1  0.73708600  0.34192200  0.02515700  1
  O  O35  1  0.26291400  0.65807800  0.97484300  1
  O  O36  1  0.64683100  0.66105900  0.40485700  1
  O  O37  1  0.35316900  0.33894100  0.59514300  1
  O  O38  1  0.33894100  0.35316900  0.09514300  1
  O  O39  1  0.66105900  0.64683100  0.90485700  1
