# generated using pymatgen
data_Na3CrO4
_symmetry_space_group_name_H-M   'P 1'
_cell_length_a   7.90905300
_cell_length_b   7.90905300
_cell_length_c   7.90905300
_cell_angle_alpha   90.00000000
_cell_angle_beta   90.00000000
_cell_angle_gamma   90.00000000
_symmetry_Int_Tables_number   1
_chemical_formula_structural   Na3CrO4
_chemical_formula_sum   'Na12 Cr4 O16'
_cell_volume   494.73593631
_cell_formula_units_Z   4
loop_
 _symmetry_equiv_pos_site_id
 _symmetry_equiv_pos_as_xyz
  1  'x, y, z'
loop_
 _atom_site_type_symbol
 _atom_site_label
 _atom_site_symmetry_multiplicity
 _atom_site_fract_x
 _atom_site_fract_y
 _atom_site_fract_z
 _atom_site_occupancy
  Na  Na0  1  0.00514300  0.00514300  0.00514300  1
  Na  Na1  1  0.49485700  0.99485700  0.50514300  1
  Na  Na2  1  0.99485700  0.50514300  0.49485700  1
  Na  Na3  1  0.50514300  0.49485700  0.99485700  1
  Na  Na4  1  0.21464200  0.21464200  0.21464200  1
  Na  Na5  1  0.28535800  0.78535800  0.71464200  1
  Na  Na6  1  0.78535800  0.71464200  0.28535800  1
  Na  Na7  1  0.71464200  0.28535800  0.78535800  1
  Na  Na8  1  0.74197900  0.74197900  0.74197900  1
  Na  Na9  1  0.75802100  0.25802100  0.24197900  1
  Na  Na10  1  0.25802100  0.24197900  0.75802100  1
  Na  Na11  1  0.24197900  0.75802100  0.25802100  1
  Cr  Cr12  1  0.49777400  0.49777400  0.49777400  1
  Cr  Cr13  1  0.00222600  0.50222600  0.99777400  1
  Cr  Cr14  1  0.50222600  0.99777400  0.00222600  1
  Cr  Cr15  1  0.99777400  0.00222600  0.50222600  1
  O  O16  1  0.37340700  0.37340700  0.37340700  1
  O  O17  1  0.12659300  0.62659300  0.87340700  1
  O  O18  1  0.62659300  0.87340700  0.12659300  1
  O  O19  1  0.87340700  0.12659300  0.62659300  1
  O  O20  1  0.97069200  0.05811400  0.29074900  1
  O  O21  1  0.52930800  0.94188600  0.79074900  1
  O  O22  1  0.02930800  0.55811400  0.20925100  1
  O  O23  1  0.29074900  0.97069200  0.05811400  1
  O  O24  1  0.47069200  0.44188600  0.70925100  1
  O  O25  1  0.79074900  0.52930800  0.94188600  1
  O  O26  1  0.20925100  0.02930800  0.55811400  1
  O  O27  1  0.70925100  0.47069200  0.44188600  1
  O  O28  1  0.05811400  0.29074900  0.97069200  1
  O  O29  1  0.55811400  0.20925100  0.02930800  1
  O  O30  1  0.44188600  0.70925100  0.47069200  1
  O  O31  1  0.94188600  0.79074900  0.52930800  1
