# generated using pymatgen
data_Na2VHgF6
_symmetry_space_group_name_H-M   'P 1'
_cell_length_a   6.62167900
_cell_length_b   6.62167905
_cell_length_c   6.62167901
_cell_angle_alpha   59.99999665
_cell_angle_beta   59.99999507
_cell_angle_gamma   59.99999526
_symmetry_Int_Tables_number   1
_chemical_formula_structural   Na2VHgF6
_chemical_formula_sum   'Na2 V1 Hg1 F6'
_cell_volume   205.30018198
_cell_formula_units_Z   1
loop_
 _symmetry_equiv_pos_site_id
 _symmetry_equiv_pos_as_xyz
  1  'x, y, z'
loop_
 _atom_site_type_symbol
 _atom_site_label
 _atom_site_symmetry_multiplicity
 _atom_site_fract_x
 _atom_site_fract_y
 _atom_site_fract_z
 _atom_site_occupancy
  Na  Na0  1  0.25000000  0.25000000  0.25000000  1
  Na  Na1  1  0.75000000  0.75000000  0.75000000  1
  V  V2  1  0.00000000  0.00000000  0.00000000  1
  Hg  Hg3  1  0.50000000  0.50000000  0.50000000  1
  F  F4  1  0.19939300  0.80060700  0.19939300  1
  F  F5  1  0.80060700  0.80060700  0.19939300  1
  F  F6  1  0.80060700  0.19939300  0.80060700  1
  F  F7  1  0.80060700  0.19939300  0.19939300  1
  F  F8  1  0.19939300  0.80060700  0.80060700  1
  F  F9  1  0.19939300  0.19939300  0.80060700  1
