# generated using pymatgen
data_Rb2MgCr2O14
_symmetry_space_group_name_H-M   'P 1'
_cell_length_a   6.59575973
_cell_length_b   8.00947849
_cell_length_c   14.16027600
_cell_angle_alpha   90.00000000
_cell_angle_beta   90.00000000
_cell_angle_gamma   101.18206333
_symmetry_Int_Tables_number   1
_chemical_formula_structural   Rb2MgCr2O14
_chemical_formula_sum   'Rb4 Mg2 Cr4 O28'
_cell_volume   733.86611738
_cell_formula_units_Z   2
loop_
 _symmetry_equiv_pos_site_id
 _symmetry_equiv_pos_as_xyz
  1  'x, y, z'
loop_
 _atom_site_type_symbol
 _atom_site_label
 _atom_site_symmetry_multiplicity
 _atom_site_fract_x
 _atom_site_fract_y
 _atom_site_fract_z
 _atom_site_occupancy
  Rb  Rb0  1  0.84057100  0.63633800  0.15863500  1
  Rb  Rb1  1  0.15942900  0.36366200  0.84136500  1
  Rb  Rb2  1  0.15942900  0.86366200  0.65863500  1
  Rb  Rb3  1  0.84057100  0.13633800  0.34136500  1
  Mg  Mg4  1  0.50000000  0.00000000  0.00000000  1
  Mg  Mg5  1  0.50000000  0.50000000  0.50000000  1
  Cr  Cr6  1  0.75077900  0.60640600  0.86121600  1
  Cr  Cr7  1  0.24922100  0.39359400  0.13878400  1
  Cr  Cr8  1  0.24922100  0.89359400  0.36121600  1
  Cr  Cr9  1  0.75077900  0.10640600  0.63878400  1
  O  O10  1  0.52513900  0.61859600  0.81945300  1
  O  O11  1  0.47486100  0.38140400  0.18054700  1
  O  O12  1  0.47486100  0.88140400  0.31945300  1
  O  O13  1  0.52513900  0.11859600  0.68054700  1
  O  O14  1  0.74346600  0.93936500  0.57105700  1
  O  O15  1  0.25653400  0.06063500  0.42894300  1
  O  O16  1  0.25653400  0.56063500  0.07105700  1
  O  O17  1  0.74346600  0.43936500  0.92894300  1
  O  O18  1  0.32703900  0.92786100  0.86618700  1
  O  O19  1  0.67296100  0.07213900  0.13381300  1
  O  O20  1  0.67296100  0.57213900  0.36618700  1
  O  O21  1  0.32703900  0.42786100  0.63381300  1
  O  O22  1  0.84127200  0.79762600  0.93893400  1
  O  O23  1  0.15872800  0.20237400  0.06106600  1
  O  O24  1  0.15872800  0.70237400  0.43893400  1
  O  O25  1  0.84127200  0.29762600  0.56106600  1
  O  O26  1  0.37724900  0.59280300  0.61869400  1
  O  O27  1  0.62275100  0.40719700  0.38130600  1
  O  O28  1  0.62275100  0.90719700  0.11869400  1
  O  O29  1  0.37724900  0.09280300  0.88130600  1
  O  O30  1  0.74129600  0.92964500  0.93624800  1
  O  O31  1  0.25870400  0.07035500  0.06375200  1
  O  O32  1  0.25870400  0.57035500  0.43624800  1
  O  O33  1  0.74129600  0.42964500  0.56375200  1
  O  O34  1  0.92532200  0.60977400  0.77814100  1
  O  O35  1  0.07467800  0.39022600  0.22185900  1
  O  O36  1  0.07467800  0.89022600  0.27814100  1
  O  O37  1  0.92532200  0.10977400  0.72185900  1
