# generated using pymatgen
data_NaSi2O5
_symmetry_space_group_name_H-M   'P 1'
_cell_length_a   8.70578425
_cell_length_b   8.70578425
_cell_length_c   8.70578425
_cell_angle_alpha   106.97649844
_cell_angle_beta   106.97649844
_cell_angle_gamma   114.58489998
_symmetry_Int_Tables_number   1
_chemical_formula_structural   NaSi2O5
_chemical_formula_sum   'Na4 Si8 O20'
_cell_volume   504.86550533
_cell_formula_units_Z   4
loop_
 _symmetry_equiv_pos_site_id
 _symmetry_equiv_pos_as_xyz
  1  'x, y, z'
loop_
 _atom_site_type_symbol
 _atom_site_label
 _atom_site_symmetry_multiplicity
 _atom_site_fract_x
 _atom_site_fract_y
 _atom_site_fract_z
 _atom_site_occupancy
  Na  Na0  1  0.52163000  0.26006400  0.54507100  1
  Na  Na1  1  0.71499300  0.97655900  0.45492900  1
  Na  Na2  1  0.73993600  0.28500700  0.26156500  1
  Na  Na3  1  0.02344100  0.47837000  0.73843500  1
  Si  Si4  1  0.09667000  0.16250600  0.31360700  1
  Si  Si5  1  0.84889900  0.78306300  0.68639300  1
  Si  Si6  1  0.83749400  0.15110100  0.93416400  1
  Si  Si7  1  0.21693700  0.90333000  0.06583600  1
  Si  Si8  1  0.39599200  0.60407000  0.50160300  1
  Si  Si9  1  0.10246700  0.89438900  0.49839700  1
  Si  Si10  1  0.39593000  0.89753300  0.79192200  1
  Si  Si11  1  0.10561100  0.60400800  0.20807800  1
  O  O12  1  0.34912600  0.68686300  0.66451500  1
  O  O13  1  0.02234800  0.68461100  0.33548500  1
  O  O14  1  0.31313700  0.97765200  0.66226300  1
  O  O15  1  0.31538900  0.65087400  0.33773700  1
  O  O16  1  0.62289900  0.71935500  0.57169000  1
  O  O17  1  0.14766500  0.05120900  0.42831000  1
  O  O18  1  0.28064500  0.85233500  0.90354400  1
  O  O19  1  0.94879100  0.37710100  0.09645600  1
  O  O20  1  0.80613200  0.55579400  0.60158000  1
  O  O21  1  0.95421400  0.20455200  0.39842000  1
  O  O22  1  0.44420600  0.04578600  0.25033800  1
  O  O23  1  0.79544800  0.19386800  0.74966200  1
  O  O24  1  0.30506300  0.37871200  0.43617900  1
  O  O25  1  0.94253300  0.86888400  0.56382100  1
  O  O26  1  0.62128800  0.05746700  0.92635100  1
  O  O27  1  0.13111600  0.69493700  0.07364900  1
  O  O28  1  0.97194200  0.80040400  0.88577600  1
  O  O29  1  0.91462700  0.08616500  0.11422400  1
  O  O30  1  0.19959600  0.08537300  0.17153800  1
  O  O31  1  0.91383500  0.02805800  0.82846200  1
