# generated using pymatgen
data_NaCr(SO4)2
_symmetry_space_group_name_H-M   'P 1'
_cell_length_a   5.16413600
_cell_length_b   14.27293800
_cell_length_c   8.23770800
_cell_angle_alpha   90.00000000
_cell_angle_beta   90.00000000
_cell_angle_gamma   90.00000000
_symmetry_Int_Tables_number   1
_chemical_formula_structural   NaCr(SO4)2
_chemical_formula_sum   'Na4 Cr4 S8 O32'
_cell_volume   607.17998058
_cell_formula_units_Z   4
loop_
 _symmetry_equiv_pos_site_id
 _symmetry_equiv_pos_as_xyz
  1  'x, y, z'
loop_
 _atom_site_type_symbol
 _atom_site_label
 _atom_site_symmetry_multiplicity
 _atom_site_fract_x
 _atom_site_fract_y
 _atom_site_fract_z
 _atom_site_occupancy
  Na  Na0  1  0.75000000  0.58370400  0.92141900  1
  Na  Na1  1  0.25000000  0.41629600  0.07858100  1
  Na  Na2  1  0.25000000  0.91629600  0.42141900  1
  Na  Na3  1  0.75000000  0.08370400  0.57858100  1
  Cr  Cr4  1  0.75000000  0.65171400  0.49890600  1
  Cr  Cr5  1  0.25000000  0.34828600  0.50109400  1
  Cr  Cr6  1  0.25000000  0.84828600  0.99890600  1
  Cr  Cr7  1  0.75000000  0.15171400  0.00109400  1
  S  S8  1  0.75000000  0.83667500  0.74664000  1
  S  S9  1  0.25000000  0.16332500  0.25336000  1
  S  S10  1  0.25000000  0.66332500  0.24664000  1
  S  S11  1  0.75000000  0.33667500  0.75336000  1
  S  S12  1  0.75000000  0.94209100  0.19585500  1
  S  S13  1  0.25000000  0.05790900  0.80414500  1
  S  S14  1  0.25000000  0.55790900  0.69585500  1
  S  S15  1  0.75000000  0.44209100  0.30414500  1
  O  O16  1  0.75000000  0.93661500  0.71799500  1
  O  O17  1  0.25000000  0.06338500  0.28200500  1
  O  O18  1  0.25000000  0.56338500  0.21799500  1
  O  O19  1  0.75000000  0.43661500  0.78200500  1
  O  O20  1  0.75000000  0.97367000  0.36401100  1
  O  O21  1  0.25000000  0.02633000  0.63598900  1
  O  O22  1  0.25000000  0.52633000  0.86401100  1
  O  O23  1  0.75000000  0.47367000  0.13598900  1
  O  O24  1  0.75000000  0.51823800  0.42572100  1
  O  O25  1  0.25000000  0.48176200  0.57427900  1
  O  O26  1  0.25000000  0.98176200  0.92572100  1
  O  O27  1  0.75000000  0.01823800  0.07427900  1
  O  O28  1  0.01414100  0.61802000  0.67085700  1
  O  O29  1  0.98585900  0.38198000  0.32914300  1
  O  O30  1  0.98585900  0.88198000  0.17085700  1
  O  O31  1  0.51414100  0.38198000  0.32914300  1
  O  O32  1  0.01414100  0.11802000  0.82914300  1
  O  O33  1  0.48585900  0.61802000  0.67085700  1
  O  O34  1  0.48585900  0.11802000  0.82914300  1
  O  O35  1  0.51414100  0.88198000  0.17085700  1
  O  O36  1  0.75000000  0.78589600  0.58653700  1
  O  O37  1  0.25000000  0.21410400  0.41346300  1
  O  O38  1  0.25000000  0.71410400  0.08653700  1
  O  O39  1  0.75000000  0.28589600  0.91346300  1
  O  O40  1  0.98418500  0.80442500  0.83868400  1
  O  O41  1  0.01581500  0.19557500  0.16131600  1
  O  O42  1  0.01581500  0.69557500  0.33868400  1
  O  O43  1  0.48418500  0.19557500  0.16131600  1
  O  O44  1  0.98418500  0.30442500  0.66131600  1
  O  O45  1  0.51581500  0.80442500  0.83868400  1
  O  O46  1  0.51581500  0.30442500  0.66131600  1
  O  O47  1  0.48418500  0.69557500  0.33868400  1
