# generated using pymatgen
data_MoSCl
_symmetry_space_group_name_H-M   'P 1'
_cell_length_a   6.93287793
_cell_length_b   6.93287793
_cell_length_c   6.93287793
_cell_angle_alpha   60.00000000
_cell_angle_beta   60.00000000
_cell_angle_gamma   60.00000000
_symmetry_Int_Tables_number   1
_chemical_formula_structural   MoSCl
_chemical_formula_sum   'Mo4 S4 Cl4'
_cell_volume   235.62733063
_cell_formula_units_Z   4
loop_
 _symmetry_equiv_pos_site_id
 _symmetry_equiv_pos_as_xyz
  1  'x, y, z'
loop_
 _atom_site_type_symbol
 _atom_site_label
 _atom_site_symmetry_multiplicity
 _atom_site_fract_x
 _atom_site_fract_y
 _atom_site_fract_z
 _atom_site_occupancy
  Mo  Mo0  1  0.35095500  0.35095500  0.35095500  1
  Mo  Mo1  1  0.35095500  0.35095500  0.94713500  1
  Mo  Mo2  1  0.35095500  0.94713500  0.35095500  1
  Mo  Mo3  1  0.94713500  0.35095500  0.35095500  1
  S  S4  1  0.11607800  0.11607800  0.11607800  1
  S  S5  1  0.11607800  0.11607800  0.65176700  1
  S  S6  1  0.11607800  0.65176700  0.11607800  1
  S  S7  1  0.65176700  0.11607800  0.11607800  1
  Cl  Cl8  1  0.61797400  0.61797400  0.61797400  1
  Cl  Cl9  1  0.61797400  0.61797400  0.14607700  1
  Cl  Cl10  1  0.61797400  0.14607700  0.61797400  1
  Cl  Cl11  1  0.14607700  0.61797400  0.61797400  1
