# generated using pymatgen
data_Na2SnH14S3O7
_symmetry_space_group_name_H-M   'P 1'
_cell_length_a   7.23099682
_cell_length_b   9.72810091
_cell_length_c   10.32219732
_cell_angle_alpha   92.44862557
_cell_angle_beta   92.07389482
_cell_angle_gamma   107.49243057
_symmetry_Int_Tables_number   1
_chemical_formula_structural   Na2SnH14S3O7
_chemical_formula_sum   'Na4 Sn2 H28 S6 O14'
_cell_volume   690.97699237
_cell_formula_units_Z   2
loop_
 _symmetry_equiv_pos_site_id
 _symmetry_equiv_pos_as_xyz
  1  'x, y, z'
loop_
 _atom_site_type_symbol
 _atom_site_label
 _atom_site_symmetry_multiplicity
 _atom_site_fract_x
 _atom_site_fract_y
 _atom_site_fract_z
 _atom_site_occupancy
  Na  Na0  1  0.19510300  0.14190000  0.55282200  1
  Na  Na1  1  0.80489700  0.85810000  0.44717800  1
  Na  Na2  1  0.40466400  0.02937800  0.84662900  1
  Na  Na3  1  0.59533600  0.97062200  0.15337100  1
  Sn  Sn4  1  0.07339600  0.41180400  0.11993200  1
  Sn  Sn5  1  0.92660400  0.58819600  0.88006800  1
  H  H6  1  0.06039800  0.07264100  0.28548600  1
  H  H7  1  0.93960200  0.92735900  0.71451400  1
  H  H8  1  0.24001700  0.74865500  0.22987300  1
  H  H9  1  0.75998300  0.25134500  0.77012700  1
  H  H10  1  0.07815000  0.66660400  0.43312600  1
  H  H11  1  0.92185000  0.33339600  0.56687400  1
  H  H12  1  0.45293300  0.31574800  0.74824500  1
  H  H13  1  0.54706700  0.68425200  0.25175500  1
  H  H14  1  0.56499900  0.35299000  0.49989200  1
  H  H15  1  0.43500100  0.64701000  0.50010800  1
  H  H16  1  0.32985900  0.15858800  0.07988600  1
  H  H17  1  0.67014100  0.84141200  0.92011400  1
  H  H18  1  0.44782200  0.33610000  0.36762900  1
  H  H19  1  0.55217800  0.66390000  0.63237100  1
  H  H20  1  0.55406800  0.09805700  0.39278200  1
  H  H21  1  0.44593200  0.90194300  0.60721800  1
  H  H22  1  0.04174800  0.35762200  0.44201600  1
  H  H23  1  0.95825200  0.64237800  0.55798400  1
  H  H24  1  0.25837100  0.29928100  0.81323000  1
  H  H25  1  0.74162900  0.70071900  0.18677000  1
  H  H26  1  0.77473700  0.13743400  0.40840100  1
  H  H27  1  0.22526300  0.86256600  0.59159900  1
  H  H28  1  0.55130600  0.24013100  0.06377500  1
  H  H29  1  0.44869400  0.75986900  0.93622500  1
  H  H30  1  0.14592100  0.94650800  0.30895100  1
  H  H31  1  0.85407900  0.05349200  0.69104900  1
  H  H32  1  0.16883200  0.83383900  0.12023600  1
  H  H33  1  0.83116800  0.16616100  0.87976400  1
  S  S34  1  0.01013500  0.16133600  0.08932400  1
  S  S35  1  0.98986500  0.83866400  0.91067600  1
  S  S36  1  0.24221400  0.53798100  0.31357100  1
  S  S37  1  0.75778600  0.46201900  0.68642900  1
  S  S38  1  0.77158400  0.47768300  0.07792800  1
  S  S39  1  0.22841600  0.52231700  0.92207200  1
  O  O40  1  0.66039300  0.05830900  0.37387800  1
  O  O41  1  0.33960700  0.94169100  0.62612200  1
  O  O42  1  0.02752300  0.71854600  0.50129700  1
  O  O43  1  0.97247700  0.28145400  0.49870300  1
  O  O44  1  0.47205300  0.28172900  0.44042700  1
  O  O45  1  0.52794700  0.71827100  0.55957300  1
  O  O46  1  0.08318700  0.01145600  0.35469300  1
  O  O47  1  0.91681300  0.98854400  0.64530700  1
  O  O48  1  0.25098900  0.84701300  0.20121000  1
  O  O49  1  0.74901100  0.15298700  0.79879000  1
  O  O50  1  0.32576900  0.24451400  0.76071500  1
  O  O51  1  0.67423100  0.75548600  0.23928500  1
  O  O52  1  0.45697900  0.14320800  0.06329500  1
  O  O53  1  0.54302100  0.85679200  0.93670500  1
