# generated using pymatgen
data_NiSeO5
_symmetry_space_group_name_H-M   'P 1'
_cell_length_a   9.21860500
_cell_length_b   7.02843600
_cell_length_c   7.57499735
_cell_angle_alpha   58.45829009
_cell_angle_beta   90.00000000
_cell_angle_gamma   90.00000000
_symmetry_Int_Tables_number   1
_chemical_formula_structural   NiSeO5
_chemical_formula_sum   'Ni4 Se4 O20'
_cell_volume   418.29076286
_cell_formula_units_Z   4
loop_
 _symmetry_equiv_pos_site_id
 _symmetry_equiv_pos_as_xyz
  1  'x, y, z'
loop_
 _atom_site_type_symbol
 _atom_site_label
 _atom_site_symmetry_multiplicity
 _atom_site_fract_x
 _atom_site_fract_y
 _atom_site_fract_z
 _atom_site_occupancy
  Ni  Ni0  1  0.14885700  0.90289100  0.09647400  1
  Ni  Ni1  1  0.85114300  0.09710900  0.90352600  1
  Ni  Ni2  1  0.64885700  0.09710900  0.40352600  1
  Ni  Ni3  1  0.35114300  0.90289100  0.59647400  1
  Se  Se4  1  0.62603300  0.84023800  0.92062400  1
  Se  Se5  1  0.37396700  0.15976200  0.07937600  1
  Se  Se6  1  0.12603300  0.15976200  0.57937600  1
  Se  Se7  1  0.87396700  0.84023800  0.42062400  1
  O  O8  1  0.23581000  0.60073900  0.47505700  1
  O  O9  1  0.76419000  0.39926100  0.52494300  1
  O  O10  1  0.73581000  0.39926100  0.02494300  1
  O  O11  1  0.26419000  0.60073900  0.97505700  1
  O  O12  1  0.55700600  0.88212500  0.68455300  1
  O  O13  1  0.44299400  0.11787500  0.31544700  1
  O  O14  1  0.05700600  0.11787500  0.81544700  1
  O  O15  1  0.94299400  0.88212500  0.18455300  1
  O  O16  1  0.80632800  0.84800700  0.86104200  1
  O  O17  1  0.19367200  0.15199300  0.13895800  1
  O  O18  1  0.30632800  0.15199300  0.63895800  1
  O  O19  1  0.69367200  0.84800700  0.36104200  1
  O  O20  1  0.15338700  0.61974200  0.05935800  1
  O  O21  1  0.84661300  0.38025800  0.94064200  1
  O  O22  1  0.65338700  0.38025800  0.44064200  1
  O  O23  1  0.34661300  0.61974200  0.55935800  1
  O  O24  1  0.36416700  0.90099000  0.09828200  1
  O  O25  1  0.63583300  0.09901000  0.90171800  1
  O  O26  1  0.86416700  0.09901000  0.40171800  1
  O  O27  1  0.13583300  0.90099000  0.59828200  1
