# generated using pymatgen
data_Pd(SN)4
_symmetry_space_group_name_H-M   'P 1'
_cell_length_a   15.07017500
_cell_length_b   9.00895200
_cell_length_c   13.34677403
_cell_angle_alpha   89.30672547
_cell_angle_beta   90.00000000
_cell_angle_gamma   90.00000000
_symmetry_Int_Tables_number   1
_chemical_formula_structural   Pd(SN)4
_chemical_formula_sum   'Pd8 S32 N32'
_cell_volume   1811.91192428
_cell_formula_units_Z   8
loop_
 _symmetry_equiv_pos_site_id
 _symmetry_equiv_pos_as_xyz
  1  'x, y, z'
loop_
 _atom_site_type_symbol
 _atom_site_label
 _atom_site_symmetry_multiplicity
 _atom_site_fract_x
 _atom_site_fract_y
 _atom_site_fract_z
 _atom_site_occupancy
  Pd  Pd0  1  0.87290500  0.63128100  0.13332900  1
  Pd  Pd1  1  0.12709500  0.36871900  0.86667100  1
  Pd  Pd2  1  0.37290500  0.86871900  0.86667100  1
  Pd  Pd3  1  0.62709500  0.13128100  0.13332900  1
  Pd  Pd4  1  0.62387000  0.69426400  0.63478900  1
  Pd  Pd5  1  0.37613000  0.30573600  0.36521100  1
  Pd  Pd6  1  0.12387000  0.80573600  0.36521100  1
  Pd  Pd7  1  0.87613000  0.19426400  0.63478900  1
  S  S8  1  0.87155300  0.52427400  0.58130800  1
  S  S9  1  0.12844700  0.47572600  0.41869200  1
  S  S10  1  0.37155300  0.97572600  0.41869200  1
  S  S11  1  0.62844700  0.02427400  0.58130800  1
  S  S12  1  0.88386900  0.87454500  0.09645200  1
  S  S13  1  0.11613100  0.12545500  0.90354800  1
  S  S14  1  0.38386900  0.62545500  0.90354800  1
  S  S15  1  0.61613100  0.37454500  0.09645200  1
  S  S16  1  0.62891300  0.76707500  0.47302100  1
  S  S17  1  0.37108700  0.23292500  0.52697900  1
  S  S18  1  0.12891300  0.73292500  0.52697900  1
  S  S19  1  0.87108700  0.26707500  0.47302100  1
  S  S20  1  0.37172300  0.54234500  0.19972600  1
  S  S21  1  0.62827700  0.45765500  0.80027400  1
  S  S22  1  0.87172300  0.95765500  0.80027400  1
  S  S23  1  0.12827700  0.04234500  0.19972600  1
  S  S24  1  0.89070200  0.95335000  0.59613200  1
  S  S25  1  0.10929800  0.04665000  0.40386800  1
  S  S26  1  0.39070200  0.54665000  0.40386800  1
  S  S27  1  0.60929800  0.45335000  0.59613200  1
  S  S28  1  0.36480000  0.93513300  0.02844100  1
  S  S29  1  0.63520000  0.06486700  0.97155900  1
  S  S30  1  0.86480000  0.56486700  0.97155900  1
  S  S31  1  0.13520000  0.43513300  0.02844100  1
  S  S32  1  0.86558600  0.85840400  0.30062500  1
  S  S33  1  0.13441400  0.14159600  0.69937500  1
  S  S34  1  0.36558600  0.64159600  0.69937500  1
  S  S35  1  0.63441400  0.35840400  0.30062500  1
  S  S36  1  0.62392200  0.80375000  0.07883200  1
  S  S37  1  0.37607800  0.19625000  0.92116800  1
  S  S38  1  0.12392200  0.69625000  0.92116800  1
  S  S39  1  0.87607800  0.30375000  0.07883200  1
  N  N40  1  0.88620000  0.85844300  0.70107000  1
  N  N41  1  0.11380000  0.14155700  0.29893000  1
  N  N42  1  0.38620000  0.64155700  0.29893000  1
  N  N43  1  0.61380000  0.35844300  0.70107000  1
  N  N44  1  0.13345200  0.61568900  0.03000100  1
  N  N45  1  0.86654800  0.38431100  0.96999900  1
  N  N46  1  0.63345200  0.88431100  0.96999900  1
  N  N47  1  0.36654800  0.11568900  0.03000100  1
  N  N48  1  0.87915700  0.96364400  0.20222300  1
  N  N49  1  0.12084300  0.03635600  0.79777700  1
  N  N50  1  0.37915700  0.53635600  0.79777700  1
  N  N51  1  0.62084300  0.46364400  0.20222300  1
  N  N52  1  0.86337500  0.69120600  0.27761200  1
  N  N53  1  0.13662500  0.30879400  0.72238800  1
  N  N54  1  0.36337500  0.80879400  0.72238800  1
  N  N55  1  0.63662500  0.19120600  0.27761200  1
  N  N56  1  0.62570500  0.91100600  0.66913000  1
  N  N57  1  0.37429500  0.08899400  0.33087000  1
  N  N58  1  0.12570500  0.58899400  0.33087000  1
  N  N59  1  0.87429500  0.41100600  0.66913000  1
  N  N60  1  0.62140400  0.91353200  0.16693000  1
  N  N61  1  0.37859600  0.08646800  0.83307000  1
  N  N62  1  0.12140400  0.58646800  0.83307000  1
  N  N63  1  0.87859600  0.41353200  0.16693000  1
  N  N64  1  0.13247200  0.87384000  0.22121800  1
  N  N65  1  0.86752800  0.12616000  0.77878200  1
  N  N66  1  0.63247200  0.62616000  0.77878200  1
  N  N67  1  0.36752800  0.37384000  0.22121800  1
  N  N68  1  0.63198200  0.94744100  0.47190300  1
  N  N69  1  0.36801800  0.05255900  0.52809700  1
  N  N70  1  0.13198200  0.55255900  0.52809700  1
  N  N71  1  0.86801800  0.44744100  0.47190300  1
