# generated using pymatgen
data_Na3GdV2O8
_symmetry_space_group_name_H-M   'P 1'
_cell_length_a   5.95860809
_cell_length_b   5.95860809
_cell_length_c   7.28492900
_cell_angle_alpha   90.00000000
_cell_angle_beta   90.00000000
_cell_angle_gamma   120.00000097
_symmetry_Int_Tables_number   1
_chemical_formula_structural   Na3GdV2O8
_chemical_formula_sum   'Na3 Gd1 V2 O8'
_cell_volume   223.99874975
_cell_formula_units_Z   1
loop_
 _symmetry_equiv_pos_site_id
 _symmetry_equiv_pos_as_xyz
  1  'x, y, z'
loop_
 _atom_site_type_symbol
 _atom_site_label
 _atom_site_symmetry_multiplicity
 _atom_site_fract_x
 _atom_site_fract_y
 _atom_site_fract_z
 _atom_site_occupancy
  Na  Na0  1  0.33333300  0.66666700  0.69385600  1
  Na  Na1  1  0.66666700  0.33333300  0.30614400  1
  Na  Na2  1  0.00000000  0.00000000  0.00000000  1
  Gd  Gd3  1  0.00000000  0.00000000  0.50000000  1
  V  V4  1  0.33333300  0.66666700  0.22422700  1
  V  V5  1  0.66666700  0.33333300  0.77577300  1
  O  O6  1  0.33333300  0.66666700  0.99360400  1
  O  O7  1  0.66666700  0.33333300  0.00639600  1
  O  O8  1  0.17368500  0.82631500  0.30935600  1
  O  O9  1  0.82631500  0.17368500  0.69064400  1
  O  O10  1  0.17368500  0.34737100  0.30935600  1
  O  O11  1  0.82631500  0.65262900  0.69064400  1
  O  O12  1  0.65262900  0.82631500  0.30935600  1
  O  O13  1  0.34737100  0.17368500  0.69064400  1
