# generated using pymatgen
data_Lu4Ir
_symmetry_space_group_name_H-M   'P 1'
_cell_length_a   7.51318491
_cell_length_b   7.51318491
_cell_length_c   7.51318491
_cell_angle_alpha   60.00000000
_cell_angle_beta   60.00000000
_cell_angle_gamma   60.00000000
_symmetry_Int_Tables_number   1
_chemical_formula_structural   Lu4Ir
_chemical_formula_sum   'Lu8 Ir2'
_cell_volume   299.88672080
_cell_formula_units_Z   2
loop_
 _symmetry_equiv_pos_site_id
 _symmetry_equiv_pos_as_xyz
  1  'x, y, z'
loop_
 _atom_site_type_symbol
 _atom_site_label
 _atom_site_symmetry_multiplicity
 _atom_site_fract_x
 _atom_site_fract_y
 _atom_site_fract_z
 _atom_site_occupancy
  Lu  Lu0  1  0.61111200  0.61111200  0.61111200  1
  Lu  Lu1  1  0.16666300  0.61111200  0.61111200  1
  Lu  Lu2  1  0.61111200  0.16666300  0.61111200  1
  Lu  Lu3  1  0.58333700  0.13888800  0.13888800  1
  Lu  Lu4  1  0.13888800  0.13888800  0.13888800  1
  Lu  Lu5  1  0.61111200  0.61111200  0.16666300  1
  Lu  Lu6  1  0.13888800  0.58333700  0.13888800  1
  Lu  Lu7  1  0.13888800  0.13888800  0.58333700  1
  Ir  Ir8  1  0.00000000  0.00000000  0.00000000  1
  Ir  Ir9  1  0.75000000  0.75000000  0.75000000  1
