# generated using pymatgen
data_Na2V(SO6)2
_symmetry_space_group_name_H-M   'P 1'
_cell_length_a   5.55167029
_cell_length_b   8.07947000
_cell_length_c   11.22509826
_cell_angle_alpha   90.00000000
_cell_angle_beta   99.63504255
_cell_angle_gamma   90.00000000
_symmetry_Int_Tables_number   1
_chemical_formula_structural   Na2V(SO6)2
_chemical_formula_sum   'Na4 V2 S4 O24'
_cell_volume   496.39437296
_cell_formula_units_Z   2
loop_
 _symmetry_equiv_pos_site_id
 _symmetry_equiv_pos_as_xyz
  1  'x, y, z'
loop_
 _atom_site_type_symbol
 _atom_site_label
 _atom_site_symmetry_multiplicity
 _atom_site_fract_x
 _atom_site_fract_y
 _atom_site_fract_z
 _atom_site_occupancy
  Na  Na0  1  0.08553700  0.06148600  0.35217900  1
  Na  Na1  1  0.91446300  0.93851400  0.64782100  1
  Na  Na2  1  0.91446300  0.56148600  0.14782100  1
  Na  Na3  1  0.08553700  0.43851400  0.85217900  1
  V  V4  1  0.00000000  0.00000000  0.00000000  1
  V  V5  1  0.00000000  0.50000000  0.50000000  1
  S  S6  1  0.37381400  0.27849200  0.13523000  1
  S  S7  1  0.62618600  0.72150800  0.86477000  1
  S  S8  1  0.62618600  0.77849200  0.36477000  1
  S  S9  1  0.37381400  0.22150800  0.63523000  1
  O  O10  1  0.31485100  0.25775300  0.25889000  1
  O  O11  1  0.68514900  0.74224700  0.74111000  1
  O  O12  1  0.68514900  0.75775300  0.24111000  1
  O  O13  1  0.31485100  0.24224700  0.75889000  1
  O  O14  1  0.11611000  0.80661200  0.07074200  1
  O  O15  1  0.88389000  0.19338800  0.92925800  1
  O  O16  1  0.88389000  0.30661200  0.42925800  1
  O  O17  1  0.11611000  0.69338800  0.57074200  1
  O  O18  1  0.21242700  0.40321900  0.06653000  1
  O  O19  1  0.78757300  0.59678100  0.93347000  1
  O  O20  1  0.78757300  0.90321900  0.43347000  1
  O  O21  1  0.21242700  0.09678100  0.56653000  1
  O  O22  1  0.63097000  0.32297900  0.14033500  1
  O  O23  1  0.36903000  0.67702100  0.85966500  1
  O  O24  1  0.36903000  0.82297900  0.35966500  1
  O  O25  1  0.63097000  0.17702100  0.64033500  1
  O  O26  1  0.32813300  0.11048700  0.07346400  1
  O  O27  1  0.67186700  0.88951300  0.92653600  1
  O  O28  1  0.67186700  0.61048700  0.42653600  1
  O  O29  1  0.32813300  0.38951300  0.57346400  1
  O  O30  1  0.10111400  0.51702300  0.35409100  1
  O  O31  1  0.89888600  0.48297700  0.64590900  1
  O  O32  1  0.89888600  0.01702300  0.14590900  1
  O  O33  1  0.10111400  0.98297700  0.85409100  1
