# generated using pymatgen
data_Nb14AgO36
_symmetry_space_group_name_H-M   'P 1'
_cell_length_a   3.78603900
_cell_length_b   14.81831100
_cell_length_c   15.32558470
_cell_angle_alpha   118.91097506
_cell_angle_beta   97.09530991
_cell_angle_gamma   90.00000000
_symmetry_Int_Tables_number   1
_chemical_formula_structural   Nb14AgO36
_chemical_formula_sum   'Nb14 Ag1 O36'
_cell_volume   745.12003199
_cell_formula_units_Z   1
loop_
 _symmetry_equiv_pos_site_id
 _symmetry_equiv_pos_as_xyz
  1  'x, y, z'
loop_
 _atom_site_type_symbol
 _atom_site_label
 _atom_site_symmetry_multiplicity
 _atom_site_fract_x
 _atom_site_fract_y
 _atom_site_fract_z
 _atom_site_occupancy
  Nb  Nb0  1  0.00000000  0.18191100  0.00000000  1
  Nb  Nb1  1  0.00000000  0.81808900  0.00000000  1
  Nb  Nb2  1  0.10267900  0.47768100  0.20535800  1
  Nb  Nb3  1  0.89732100  0.52231900  0.79464200  1
  Nb  Nb4  1  0.10267900  0.72767700  0.20535800  1
  Nb  Nb5  1  0.89732100  0.27232300  0.79464200  1
  Nb  Nb6  1  0.31059100  0.31059100  0.62118200  1
  Nb  Nb7  1  0.68940900  0.68940900  0.37881800  1
  Nb  Nb8  1  0.20643800  0.39705000  0.41287600  1
  Nb  Nb9  1  0.79356200  0.60295000  0.58712500  1
  Nb  Nb10  1  0.20643800  0.01582500  0.41287600  1
  Nb  Nb11  1  0.79356200  0.98417500  0.58712500  1
  Nb  Nb12  1  0.10359800  0.10359800  0.20719700  1
  Nb  Nb13  1  0.89640200  0.89640200  0.79280300  1
  Ag  Ag14  1  0.50000000  0.50000000  0.00000000  1
  O  O15  1  0.83586800  0.33586800  0.67173700  1
  O  O16  1  0.16413200  0.66413200  0.32826300  1
  O  O17  1  0.26829700  0.36518500  0.53659400  1
  O  O18  1  0.73170300  0.63481500  0.46340600  1
  O  O19  1  0.26829700  0.17140900  0.53659400  1
  O  O20  1  0.73170300  0.82859100  0.46340600  1
  O  O21  1  0.05184100  0.34779300  0.10368300  1
  O  O22  1  0.94815900  0.65220800  0.89631700  1
  O  O23  1  0.05184100  0.75589000  0.10368300  1
  O  O24  1  0.94815900  0.24411000  0.89631700  1
  O  O25  1  0.15946900  0.45199900  0.31893700  1
  O  O26  1  0.84053100  0.54800100  0.68106300  1
  O  O27  1  0.15946900  0.86693900  0.31893700  1
  O  O28  1  0.84053100  0.13306100  0.68106300  1
  O  O29  1  0.94683800  0.44683800  0.89367600  1
  O  O30  1  0.05316200  0.55316200  0.10632400  1
  O  O31  1  0.16114300  0.26072000  0.32228500  1
  O  O32  1  0.83885700  0.73928000  0.67771500  1
  O  O33  1  0.16114300  0.06156500  0.32228500  1
  O  O34  1  0.83885700  0.93843500  0.67771500  1
  O  O35  1  0.27342400  0.56690800  0.54684800  1
  O  O36  1  0.72657600  0.43309200  0.45315200  1
  O  O37  1  0.27342400  0.97994000  0.54684800  1
  O  O38  1  0.72657600  0.02006000  0.45315200  1
  O  O39  1  0.38492000  0.47654200  0.76984000  1
  O  O40  1  0.61508000  0.52345800  0.23016000  1
  O  O41  1  0.38492000  0.29329700  0.76984000  1
  O  O42  1  0.61508000  0.70670300  0.23016000  1
  O  O43  1  0.50000000  0.78793600  0.00000000  1
  O  O44  1  0.50000000  0.21206400  0.00000000  1
  O  O45  1  0.05453100  0.15176500  0.10906100  1
  O  O46  1  0.94546900  0.84823500  0.89093900  1
  O  O47  1  0.05453100  0.95729700  0.10906100  1
  O  O48  1  0.94546900  0.04270300  0.89093900  1
  O  O49  1  0.62029600  0.12029600  0.24059100  1
  O  O50  1  0.37970400  0.87970400  0.75940900  1
