# generated using pymatgen
data_Na5Sr2B10(CO13)2
_symmetry_space_group_name_H-M   'P 1'
_cell_length_a   6.64612569
_cell_length_b   6.64612569
_cell_length_c   27.29151749
_cell_angle_alpha   86.10813460
_cell_angle_beta   86.10813460
_cell_angle_gamma   59.85105862
_symmetry_Int_Tables_number   1
_chemical_formula_structural   Na5Sr2B10(CO13)2
_chemical_formula_sum   'Na10 Sr4 B20 C4 O52'
_cell_volume   1039.21579023
_cell_formula_units_Z   2
loop_
 _symmetry_equiv_pos_site_id
 _symmetry_equiv_pos_as_xyz
  1  'x, y, z'
loop_
 _atom_site_type_symbol
 _atom_site_label
 _atom_site_symmetry_multiplicity
 _atom_site_fract_x
 _atom_site_fract_y
 _atom_site_fract_z
 _atom_site_occupancy
  Na  Na0  1  0.70224500  0.29775500  0.75000000  1
  Na  Na1  1  0.29775500  0.70224500  0.25000000  1
  Na  Na2  1  0.72239900  0.73803700  0.93053400  1
  Na  Na3  1  0.27760100  0.26196300  0.06946600  1
  Na  Na4  1  0.26196300  0.27760100  0.56946600  1
  Na  Na5  1  0.73803700  0.72239900  0.43053400  1
  Na  Na6  1  0.27211900  0.78052600  0.55048500  1
  Na  Na7  1  0.72788100  0.21947400  0.44951500  1
  Na  Na8  1  0.21947400  0.72788100  0.94951500  1
  Na  Na9  1  0.78052600  0.27211900  0.05048500  1
  Sr  Sr10  1  0.30528400  0.15955600  0.83529000  1
  Sr  Sr11  1  0.69471600  0.84044400  0.16471000  1
  Sr  Sr12  1  0.84044400  0.69471600  0.66471000  1
  Sr  Sr13  1  0.15955600  0.30528400  0.33529000  1
  B  B14  1  0.87753600  0.05873400  0.84693900  1
  B  B15  1  0.12246400  0.94126600  0.15306100  1
  B  B16  1  0.94126600  0.12246400  0.65306100  1
  B  B17  1  0.05873400  0.87753600  0.34693900  1
  B  B18  1  0.50686200  0.34924900  0.65105000  1
  B  B19  1  0.49313800  0.65075100  0.34895000  1
  B  B20  1  0.65075100  0.49313800  0.84895000  1
  B  B21  1  0.34924900  0.50686200  0.15105000  1
  B  B22  1  0.33199300  0.78078400  0.67290100  1
  B  B23  1  0.66800700  0.21921600  0.32709900  1
  B  B24  1  0.21921600  0.66800700  0.82709900  1
  B  B25  1  0.78078400  0.33199300  0.17290100  1
  B  B26  1  0.68092800  0.25758000  0.92601000  1
  B  B27  1  0.31907200  0.74242000  0.07399000  1
  B  B28  1  0.74242000  0.31907200  0.57399000  1
  B  B29  1  0.25758000  0.68092800  0.42601000  1
  B  B30  1  0.24608400  0.18233000  0.69372900  1
  B  B31  1  0.75391600  0.81767000  0.30627100  1
  B  B32  1  0.81767000  0.75391600  0.80627100  1
  B  B33  1  0.18233000  0.24608400  0.19372900  1
  C  C34  1  0.76223200  0.80249200  0.55095700  1
  C  C35  1  0.23776800  0.19750800  0.44904300  1
  C  C36  1  0.19750800  0.23776800  0.94904300  1
  C  C37  1  0.80249200  0.76223200  0.05095700  1
  O  O38  1  0.11569400  0.86574900  0.65455000  1
  O  O39  1  0.88430600  0.13425100  0.34545000  1
  O  O40  1  0.13425100  0.88430600  0.84545000  1
  O  O41  1  0.86574900  0.11569400  0.15455000  1
  O  O42  1  0.64723400  0.24346900  0.97554000  1
  O  O43  1  0.35276600  0.75653100  0.02446000  1
  O  O44  1  0.75653100  0.35276600  0.52446000  1
  O  O45  1  0.24346900  0.64723400  0.47554000  1
  O  O46  1  0.68635600  0.96628600  0.06852800  1
  O  O47  1  0.31364400  0.03371400  0.93147200  1
  O  O48  1  0.03371400  0.31364400  0.43147200  1
  O  O49  1  0.96628600  0.68635600  0.56852800  1
  O  O50  1  0.58010300  0.85175300  0.57866800  1
  O  O51  1  0.41989700  0.14824700  0.42133200  1
  O  O52  1  0.14824700  0.41989700  0.92133200  1
  O  O53  1  0.85175300  0.58010300  0.07866800  1
  O  O54  1  0.49522900  0.55012800  0.67655600  1
  O  O55  1  0.50477100  0.44987200  0.32344400  1
  O  O56  1  0.44987200  0.50477100  0.82344400  1
  O  O57  1  0.55012800  0.49522900  0.17655600  1
  O  O58  1  0.66038100  0.70771900  0.83940200  1
  O  O59  1  0.33961900  0.29228100  0.16059800  1
  O  O60  1  0.29228100  0.33961900  0.66059800  1
  O  O61  1  0.70771900  0.66038100  0.33940200  1
  O  O62  1  0.40545200  0.93080800  0.68625900  1
  O  O63  1  0.59454800  0.06919200  0.31374100  1
  O  O64  1  0.06919200  0.59454800  0.81374100  1
  O  O65  1  0.93080800  0.40545200  0.18625900  1
  O  O66  1  0.29053700  0.20406100  0.74367900  1
  O  O67  1  0.70946300  0.79593900  0.25632100  1
  O  O68  1  0.79593900  0.70946300  0.75632100  1
  O  O69  1  0.20406100  0.29053700  0.24367900  1
  O  O70  1  0.52320600  0.39339600  0.59625500  1
  O  O71  1  0.47679400  0.60660400  0.40374500  1
  O  O72  1  0.60660400  0.47679400  0.90374500  1
  O  O73  1  0.39339600  0.52320600  0.09625500  1
  O  O74  1  0.75493300  0.99805300  0.81321000  1
  O  O75  1  0.24506700  0.00194700  0.18679000  1
  O  O76  1  0.00194700  0.24506700  0.68679000  1
  O  O77  1  0.99805300  0.75493300  0.31321000  1
  O  O78  1  0.78456300  0.05603100  0.89900800  1
  O  O79  1  0.21543700  0.94396900  0.10099200  1
  O  O80  1  0.94396900  0.21543700  0.60099200  1
  O  O81  1  0.05603100  0.78456300  0.39900800  1
  O  O82  1  0.74016500  0.87551600  0.50558900  1
  O  O83  1  0.25983500  0.12448400  0.49441100  1
  O  O84  1  0.12448400  0.25983500  0.99441100  1
  O  O85  1  0.87551600  0.74016500  0.00558900  1
  O  O86  1  0.71706900  0.13975300  0.66680000  1
  O  O87  1  0.28293100  0.86024700  0.33320000  1
  O  O88  1  0.86024700  0.28293100  0.83320000  1
  O  O89  1  0.13975300  0.71706900  0.16680000  1
