# generated using pymatgen
data_Na2MnPO5F2
_symmetry_space_group_name_H-M   'P 1'
_cell_length_a   5.76125435
_cell_length_b   6.70759139
_cell_length_c   8.05069000
_cell_angle_alpha   90.00000000
_cell_angle_beta   90.00000000
_cell_angle_gamma   108.41911721
_symmetry_Int_Tables_number   1
_chemical_formula_structural   Na2MnPO5F2
_chemical_formula_sum   'Na4 Mn2 P2 O10 F4'
_cell_volume   295.17392352
_cell_formula_units_Z   2
loop_
 _symmetry_equiv_pos_site_id
 _symmetry_equiv_pos_as_xyz
  1  'x, y, z'
loop_
 _atom_site_type_symbol
 _atom_site_label
 _atom_site_symmetry_multiplicity
 _atom_site_fract_x
 _atom_site_fract_y
 _atom_site_fract_z
 _atom_site_occupancy
  Na  Na0  1  0.99403400  0.45585000  0.75000000  1
  Na  Na1  1  0.00596600  0.54415000  0.25000000  1
  Na  Na2  1  0.50000000  0.50000000  0.00000000  1
  Na  Na3  1  0.50000000  0.50000000  0.50000000  1
  Mn  Mn4  1  0.00000000  0.00000000  0.00000000  1
  Mn  Mn5  1  0.00000000  0.00000000  0.50000000  1
  P  P6  1  0.51832100  0.89851500  0.75000000  1
  P  P7  1  0.48167900  0.10148500  0.25000000  1
  O  O8  1  0.41087400  0.78850000  0.90821800  1
  O  O9  1  0.58912600  0.21150000  0.09178200  1
  O  O10  1  0.58912600  0.21150000  0.40821800  1
  O  O11  1  0.41087400  0.78850000  0.59178200  1
  O  O12  1  0.79916600  0.00681200  0.75000000  1
  O  O13  1  0.20083400  0.99318800  0.25000000  1
  O  O14  1  0.38035200  0.10276700  0.75000000  1
  O  O15  1  0.61964800  0.89723300  0.25000000  1
  O  O16  1  0.52720700  0.30315300  0.75000000  1
  O  O17  1  0.47279300  0.69684700  0.25000000  1
  F  F18  1  0.89361800  0.68689400  0.99787900  1
  F  F19  1  0.10638200  0.31310600  0.00212100  1
  F  F20  1  0.10638200  0.31310600  0.49787900  1
  F  F21  1  0.89361800  0.68689400  0.50212100  1
