# generated using pymatgen
data_Mg2Ta2Mn2O9
_symmetry_space_group_name_H-M   'P 1'
_cell_length_a   5.29941027
_cell_length_b   5.29941027
_cell_length_c   14.44829600
_cell_angle_alpha   90.00000000
_cell_angle_beta   90.00000000
_cell_angle_gamma   120.00000340
_symmetry_Int_Tables_number   1
_chemical_formula_structural   Mg2Ta2Mn2O9
_chemical_formula_sum   'Mg4 Ta4 Mn4 O18'
_cell_volume   351.40046651
_cell_formula_units_Z   2
loop_
 _symmetry_equiv_pos_site_id
 _symmetry_equiv_pos_as_xyz
  1  'x, y, z'
loop_
 _atom_site_type_symbol
 _atom_site_label
 _atom_site_symmetry_multiplicity
 _atom_site_fract_x
 _atom_site_fract_y
 _atom_site_fract_z
 _atom_site_occupancy
  Mg  Mg0  1  0.33333300  0.66666700  0.80802700  1
  Mg  Mg1  1  0.66666700  0.33333300  0.19197300  1
  Mg  Mg2  1  0.66666700  0.33333300  0.69197300  1
  Mg  Mg3  1  0.33333300  0.66666700  0.30802700  1
  Ta  Ta4  1  0.00000000  0.00000000  0.64549900  1
  Ta  Ta5  1  0.00000000  0.00000000  0.35450100  1
  Ta  Ta6  1  0.00000000  0.00000000  0.85450100  1
  Ta  Ta7  1  0.00000000  0.00000000  0.14549900  1
  Mn  Mn8  1  0.33333300  0.66666700  0.51955900  1
  Mn  Mn9  1  0.66666700  0.33333300  0.48044100  1
  Mn  Mn10  1  0.66666700  0.33333300  0.98044100  1
  Mn  Mn11  1  0.33333300  0.66666700  0.01955900  1
  O  O12  1  0.28696500  0.00000000  0.75000000  1
  O  O13  1  0.71303500  0.00000000  0.25000000  1
  O  O14  1  0.00000000  0.28696500  0.75000000  1
  O  O15  1  0.00000000  0.71303500  0.25000000  1
  O  O16  1  0.71303500  0.71303500  0.75000000  1
  O  O17  1  0.28696500  0.28696500  0.25000000  1
  O  O18  1  0.34253700  0.30855600  0.58827300  1
  O  O19  1  0.65746300  0.69144400  0.41172700  1
  O  O20  1  0.69144400  0.03398100  0.58827300  1
  O  O21  1  0.30855600  0.34253700  0.91172700  1
  O  O22  1  0.30855600  0.96601900  0.41172700  1
  O  O23  1  0.69144400  0.65746300  0.08827300  1
  O  O24  1  0.96601900  0.65746300  0.58827300  1
  O  O25  1  0.03398100  0.69144400  0.91172700  1
  O  O26  1  0.03398100  0.34253700  0.41172700  1
  O  O27  1  0.96601900  0.30855600  0.08827300  1
  O  O28  1  0.65746300  0.96601900  0.91172700  1
  O  O29  1  0.34253700  0.03398100  0.08827300  1
