# generated using pymatgen
data_MgGaBO4
_symmetry_space_group_name_H-M   'P 1'
_cell_length_a   3.11364100
_cell_length_b   9.31558500
_cell_length_c   9.40029900
_cell_angle_alpha   90.00000000
_cell_angle_beta   90.00000000
_cell_angle_gamma   90.00000000
_symmetry_Int_Tables_number   1
_chemical_formula_structural   MgGaBO4
_chemical_formula_sum   'Mg4 Ga4 B4 O16'
_cell_volume   272.65931412
_cell_formula_units_Z   4
loop_
 _symmetry_equiv_pos_site_id
 _symmetry_equiv_pos_as_xyz
  1  'x, y, z'
loop_
 _atom_site_type_symbol
 _atom_site_label
 _atom_site_symmetry_multiplicity
 _atom_site_fract_x
 _atom_site_fract_y
 _atom_site_fract_z
 _atom_site_occupancy
  Mg  Mg0  1  0.25000000  0.60392600  0.18734800  1
  Mg  Mg1  1  0.75000000  0.39607400  0.81265200  1
  Mg  Mg2  1  0.75000000  0.89607400  0.68734800  1
  Mg  Mg3  1  0.25000000  0.10392600  0.31265200  1
  Ga  Ga4  1  0.25000000  0.61541700  0.57020200  1
  Ga  Ga5  1  0.75000000  0.38458300  0.42979800  1
  Ga  Ga6  1  0.75000000  0.88458300  0.07020200  1
  Ga  Ga7  1  0.25000000  0.11541700  0.92979800  1
  B  B8  1  0.25000000  0.66371000  0.87294400  1
  B  B9  1  0.75000000  0.33629000  0.12705600  1
  B  B10  1  0.75000000  0.83629000  0.37294400  1
  B  B11  1  0.25000000  0.16371000  0.62705600  1
  O  O12  1  0.25000000  0.00801800  0.11440900  1
  O  O13  1  0.75000000  0.99198200  0.88559100  1
  O  O14  1  0.75000000  0.49198200  0.61440900  1
  O  O15  1  0.25000000  0.50801800  0.38559100  1
  O  O16  1  0.25000000  0.52001200  0.87076400  1
  O  O17  1  0.75000000  0.47998800  0.12923600  1
  O  O18  1  0.75000000  0.97998800  0.37076400  1
  O  O19  1  0.25000000  0.02001200  0.62923600  1
  O  O20  1  0.25000000  0.74084000  0.00311900  1
  O  O21  1  0.75000000  0.25916000  0.99688100  1
  O  O22  1  0.75000000  0.75916000  0.50311900  1
  O  O23  1  0.25000000  0.24084000  0.49688100  1
  O  O24  1  0.25000000  0.74159200  0.74399900  1
  O  O25  1  0.75000000  0.25840800  0.25600100  1
  O  O26  1  0.75000000  0.75840800  0.24399900  1
  O  O27  1  0.25000000  0.24159200  0.75600100  1
