# generated using pymatgen
data_Na3Cu2(MoO4)3
_symmetry_space_group_name_H-M   'P 1'
_cell_length_a   9.46267225
_cell_length_b   9.46267225
_cell_length_c   7.02488179
_cell_angle_alpha   75.86218761
_cell_angle_beta   75.86218761
_cell_angle_gamma   98.70005818
_symmetry_Int_Tables_number   1
_chemical_formula_structural   Na3Cu2(MoO4)3
_chemical_formula_sum   'Na6 Cu4 Mo6 O24'
_cell_volume   576.42346327
_cell_formula_units_Z   2
loop_
 _symmetry_equiv_pos_site_id
 _symmetry_equiv_pos_as_xyz
  1  'x, y, z'
loop_
 _atom_site_type_symbol
 _atom_site_label
 _atom_site_symmetry_multiplicity
 _atom_site_fract_x
 _atom_site_fract_y
 _atom_site_fract_z
 _atom_site_occupancy
  Na  Na0  1  0.23309200  0.76690800  0.25000000  1
  Na  Na1  1  0.76690800  0.23309200  0.75000000  1
  Na  Na2  1  0.00000000  0.00000000  0.00000000  1
  Na  Na3  1  0.00000000  0.00000000  0.50000000  1
  Na  Na4  1  0.51939500  0.48060500  0.25000000  1
  Na  Na5  1  0.48060500  0.51939500  0.75000000  1
  Cu  Cu6  1  0.55142700  0.87286500  0.38037800  1
  Cu  Cu7  1  0.44857300  0.12713500  0.61962200  1
  Cu  Cu8  1  0.12713500  0.44857300  0.11962200  1
  Cu  Cu9  1  0.87286500  0.55142700  0.88037800  1
  Mo  Mo10  1  0.78083700  0.21916300  0.25000000  1
  Mo  Mo11  1  0.21916300  0.78083700  0.75000000  1
  Mo  Mo12  1  0.37637500  0.16814400  0.11871700  1
  Mo  Mo13  1  0.62362500  0.83185600  0.88128300  1
  Mo  Mo14  1  0.83185600  0.62362500  0.38128300  1
  Mo  Mo15  1  0.16814400  0.37637500  0.61871700  1
  O  O16  1  0.45806000  0.12022500  0.32761100  1
  O  O17  1  0.54194000  0.87977500  0.67238900  1
  O  O18  1  0.87977500  0.54194000  0.17238900  1
  O  O19  1  0.12022500  0.45806000  0.82761100  1
  O  O20  1  0.50730400  0.84209800  0.12133600  1
  O  O21  1  0.49269600  0.15790200  0.87866400  1
  O  O22  1  0.15790200  0.49269600  0.37866400  1
  O  O23  1  0.84209800  0.50730400  0.62133600  1
  O  O24  1  0.19892800  0.04179200  0.18923100  1
  O  O25  1  0.80107200  0.95820800  0.81076900  1
  O  O26  1  0.95820800  0.80107200  0.31076900  1
  O  O27  1  0.04179200  0.19892800  0.68923100  1
  O  O28  1  0.74543100  0.02673700  0.24502300  1
  O  O29  1  0.25456900  0.97326300  0.75497700  1
  O  O30  1  0.97326300  0.25456900  0.25497700  1
  O  O31  1  0.02673700  0.74543100  0.74502300  1
  O  O32  1  0.66341500  0.24734900  0.47776400  1
  O  O33  1  0.33658500  0.75265100  0.52223600  1
  O  O34  1  0.75265100  0.33658500  0.02223600  1
  O  O35  1  0.24734900  0.66341500  0.97776400  1
  O  O36  1  0.64197800  0.64640800  0.41434300  1
  O  O37  1  0.35802200  0.35359200  0.58565700  1
  O  O38  1  0.35359200  0.35802200  0.08565700  1
  O  O39  1  0.64640800  0.64197800  0.91434300  1
