# generated using pymatgen
data_Mg2TiBO5
_symmetry_space_group_name_H-M   'P 1'
_cell_length_a   3.05082100
_cell_length_b   9.38839900
_cell_length_c   12.47552800
_cell_angle_alpha   90.00000000
_cell_angle_beta   90.00000000
_cell_angle_gamma   90.00000000
_symmetry_Int_Tables_number   1
_chemical_formula_structural   Mg2TiBO5
_chemical_formula_sum   'Mg8 Ti4 B4 O20'
_cell_volume   357.32812535
_cell_formula_units_Z   4
loop_
 _symmetry_equiv_pos_site_id
 _symmetry_equiv_pos_as_xyz
  1  'x, y, z'
loop_
 _atom_site_type_symbol
 _atom_site_label
 _atom_site_symmetry_multiplicity
 _atom_site_fract_x
 _atom_site_fract_y
 _atom_site_fract_z
 _atom_site_occupancy
  Mg  Mg0  1  0.50000000  0.00000000  0.50000000  1
  Mg  Mg1  1  0.50000000  0.50000000  0.00000000  1
  Mg  Mg2  1  0.50000000  0.00260100  0.21807000  1
  Mg  Mg3  1  0.50000000  0.99739900  0.78193000  1
  Mg  Mg4  1  0.50000000  0.49739900  0.71807000  1
  Mg  Mg5  1  0.50000000  0.50260100  0.28193000  1
  Mg  Mg6  1  0.00000000  0.00000000  0.00000000  1
  Mg  Mg7  1  0.00000000  0.50000000  0.50000000  1
  Ti  Ti8  1  0.00000000  0.24009900  0.38483500  1
  Ti  Ti9  1  0.00000000  0.75990100  0.61516500  1
  Ti  Ti10  1  0.00000000  0.25990100  0.88483500  1
  Ti  Ti11  1  0.00000000  0.74009900  0.11516500  1
  B  B12  1  0.00000000  0.27370800  0.13973400  1
  B  B13  1  0.00000000  0.72629200  0.86026600  1
  B  B14  1  0.00000000  0.22629200  0.63973400  1
  B  B15  1  0.00000000  0.77370800  0.36026600  1
  O  O16  1  0.00000000  0.35056600  0.04331800  1
  O  O17  1  0.00000000  0.64943400  0.95668200  1
  O  O18  1  0.00000000  0.14943400  0.54331800  1
  O  O19  1  0.00000000  0.85056600  0.45668200  1
  O  O20  1  0.50000000  0.38423900  0.42348600  1
  O  O21  1  0.50000000  0.61576100  0.57651400  1
  O  O22  1  0.50000000  0.11576100  0.92348600  1
  O  O23  1  0.50000000  0.88423900  0.07651400  1
  O  O24  1  0.00000000  0.12668300  0.14199300  1
  O  O25  1  0.00000000  0.87331700  0.85800700  1
  O  O26  1  0.00000000  0.37331700  0.64199300  1
  O  O27  1  0.00000000  0.62668300  0.35800700  1
  O  O28  1  0.50000000  0.10633300  0.35693300  1
  O  O29  1  0.50000000  0.89366700  0.64306700  1
  O  O30  1  0.50000000  0.39366700  0.85693300  1
  O  O31  1  0.50000000  0.60633300  0.14306700  1
  O  O32  1  0.00000000  0.35023900  0.23621600  1
  O  O33  1  0.00000000  0.64976100  0.76378400  1
  O  O34  1  0.00000000  0.14976100  0.73621600  1
  O  O35  1  0.00000000  0.85023900  0.26378400  1
