# generated using pymatgen
data_Nd4Rh6Pb19
_symmetry_space_group_name_H-M   'P 1'
_cell_length_a   10.28433053
_cell_length_b   10.28433053
_cell_length_c   10.28433053
_cell_angle_alpha   109.47122063
_cell_angle_beta   109.47122063
_cell_angle_gamma   109.47122063
_symmetry_Int_Tables_number   1
_chemical_formula_structural   Nd4Rh6Pb19
_chemical_formula_sum   'Nd4 Rh6 Pb19'
_cell_volume   837.34838583
_cell_formula_units_Z   1
loop_
 _symmetry_equiv_pos_site_id
 _symmetry_equiv_pos_as_xyz
  1  'x, y, z'
loop_
 _atom_site_type_symbol
 _atom_site_label
 _atom_site_symmetry_multiplicity
 _atom_site_fract_x
 _atom_site_fract_y
 _atom_site_fract_z
 _atom_site_occupancy
  Nd  Nd0  1  0.65926800  0.65926800  0.65926800  1
  Nd  Nd1  1  0.34073200  0.00000000  0.00000000  1
  Nd  Nd2  1  0.00000000  0.34073200  0.00000000  1
  Nd  Nd3  1  0.00000000  0.00000000  0.34073200  1
  Rh  Rh4  1  0.37910600  0.87910600  0.50000000  1
  Rh  Rh5  1  0.62089400  0.12089400  0.50000000  1
  Rh  Rh6  1  0.87910600  0.50000000  0.37910600  1
  Rh  Rh7  1  0.12089400  0.50000000  0.62089400  1
  Rh  Rh8  1  0.50000000  0.37910600  0.87910600  1
  Rh  Rh9  1  0.50000000  0.62089400  0.12089400  1
  Pb  Pb10  1  0.69347500  0.69347500  0.00000000  1
  Pb  Pb11  1  0.30652500  0.30652500  0.00000000  1
  Pb  Pb12  1  0.69347500  0.00000000  0.69347500  1
  Pb  Pb13  1  0.30652500  0.00000000  0.30652500  1
  Pb  Pb14  1  0.00000000  0.69347500  0.69347500  1
  Pb  Pb15  1  0.00000000  0.30652500  0.30652500  1
  Pb  Pb16  1  0.00000000  0.00000000  0.00000000  1
  Pb  Pb17  1  0.37132400  0.60110400  0.33133300  1
  Pb  Pb18  1  0.62867600  0.96000900  0.22978100  1
  Pb  Pb19  1  0.73022900  0.39889600  0.77021900  1
  Pb  Pb20  1  0.60110400  0.33133300  0.37132400  1
  Pb  Pb21  1  0.26977100  0.03999100  0.66866700  1
  Pb  Pb22  1  0.96000900  0.22978100  0.62867600  1
  Pb  Pb23  1  0.39889600  0.77021900  0.73022900  1
  Pb  Pb24  1  0.03999100  0.66866700  0.26977100  1
  Pb  Pb25  1  0.33133300  0.37132400  0.60110400  1
  Pb  Pb26  1  0.77021900  0.73022900  0.39889600  1
  Pb  Pb27  1  0.66866700  0.26977100  0.03999100  1
  Pb  Pb28  1  0.22978100  0.62867600  0.96000900  1
