# generated using pymatgen
data_MgAl2SiHO7
_symmetry_space_group_name_H-M   'P 1'
_cell_length_a   5.53196208
_cell_length_b   5.53196208
_cell_length_c   17.99236543
_cell_angle_alpha   80.15271934
_cell_angle_beta   80.15271934
_cell_angle_gamma   60.10897995
_symmetry_Int_Tables_number   1
_chemical_formula_structural   MgAl2SiHO7
_chemical_formula_sum   'Mg4 Al8 Si4 H4 O28'
_cell_volume   467.95656342
_cell_formula_units_Z   4
loop_
 _symmetry_equiv_pos_site_id
 _symmetry_equiv_pos_as_xyz
  1  'x, y, z'
loop_
 _atom_site_type_symbol
 _atom_site_label
 _atom_site_symmetry_multiplicity
 _atom_site_fract_x
 _atom_site_fract_y
 _atom_site_fract_z
 _atom_site_occupancy
  Mg  Mg0  1  0.67238700  0.16712200  0.00046900  1
  Mg  Mg1  1  0.32761300  0.83287800  0.99953100  1
  Mg  Mg2  1  0.83287800  0.32761300  0.49953100  1
  Mg  Mg3  1  0.16712200  0.67238700  0.50046900  1
  Al  Al4  1  0.90234100  0.09765900  0.75000000  1
  Al  Al5  1  0.09765900  0.90234100  0.25000000  1
  Al  Al6  1  0.40325000  0.09701600  0.75046000  1
  Al  Al7  1  0.59675000  0.90298400  0.24954000  1
  Al  Al8  1  0.90298400  0.59675000  0.74954000  1
  Al  Al9  1  0.09701600  0.40325000  0.25046000  1
  Al  Al10  1  0.50000000  0.00000000  0.50000000  1
  Al  Al11  1  0.00000000  0.50000000  0.00000000  1
  Si  Si12  1  0.43841000  0.63300000  0.65628900  1
  Si  Si13  1  0.56159000  0.36700000  0.34371100  1
  Si  Si14  1  0.36700000  0.56159000  0.84371100  1
  Si  Si15  1  0.63300000  0.43841000  0.15628900  1
  H  H16  1  0.76538600  0.96479900  0.61069000  1
  H  H17  1  0.23461400  0.03520100  0.38931000  1
  H  H18  1  0.03520100  0.23461400  0.88931000  1
  H  H19  1  0.96479900  0.76538600  0.11069000  1
  O  O20  1  0.54156300  0.73626900  0.81311600  1
  O  O21  1  0.45843700  0.26373100  0.18688400  1
  O  O22  1  0.26373100  0.45843700  0.68688400  1
  O  O23  1  0.73626900  0.54156300  0.31311600  1
  O  O24  1  0.70574000  0.82460400  0.95427100  1
  O  O25  1  0.29426000  0.17539600  0.04572900  1
  O  O26  1  0.17539600  0.29426000  0.54572900  1
  O  O27  1  0.82460400  0.70574000  0.45427100  1
  O  O28  1  0.47084100  0.67180300  0.56229700  1
  O  O29  1  0.52915900  0.32819700  0.43770300  1
  O  O30  1  0.32819700  0.52915900  0.93770300  1
  O  O31  1  0.67180300  0.47084100  0.06229700  1
  O  O32  1  0.54235800  0.24763100  0.81258800  1
  O  O33  1  0.45764200  0.75236900  0.18741200  1
  O  O34  1  0.75236900  0.45764200  0.68741200  1
  O  O35  1  0.24763100  0.54235800  0.31258800  1
  O  O36  1  0.26406600  0.94658400  0.68792000  1
  O  O37  1  0.73593400  0.05341600  0.31208000  1
  O  O38  1  0.05341600  0.73593400  0.81208000  1
  O  O39  1  0.94658400  0.26406600  0.18792000  1
  O  O40  1  0.75389900  0.94857100  0.70063000  1
  O  O41  1  0.24610100  0.05142900  0.29937000  1
  O  O42  1  0.05142900  0.24610100  0.79937000  1
  O  O43  1  0.94857100  0.75389900  0.20063000  1
  O  O44  1  0.78069700  0.98652100  0.55332100  1
  O  O45  1  0.21930300  0.01347900  0.44667900  1
  O  O46  1  0.01347900  0.21930300  0.94667900  1
  O  O47  1  0.98652100  0.78069700  0.05332100  1
