# generated using pymatgen
data_MnPO3
_symmetry_space_group_name_H-M   'P 1'
_cell_length_a   8.30972900
_cell_length_b   8.18527100
_cell_length_c   10.52884739
_cell_angle_alpha   55.12171106
_cell_angle_beta   90.00000000
_cell_angle_gamma   90.00000000
_symmetry_Int_Tables_number   1
_chemical_formula_structural   MnPO3
_chemical_formula_sum   'Mn8 P8 O24'
_cell_volume   587.50260121
_cell_formula_units_Z   8
loop_
 _symmetry_equiv_pos_site_id
 _symmetry_equiv_pos_as_xyz
  1  'x, y, z'
loop_
 _atom_site_type_symbol
 _atom_site_label
 _atom_site_symmetry_multiplicity
 _atom_site_fract_x
 _atom_site_fract_y
 _atom_site_fract_z
 _atom_site_occupancy
  Mn  Mn0  1  0.28995700  0.47392100  0.51293300  1
  Mn  Mn1  1  0.71004300  0.52607900  0.48706700  1
  Mn  Mn2  1  0.78995700  0.52607900  0.98706700  1
  Mn  Mn3  1  0.21004300  0.47392100  0.01293300  1
  Mn  Mn4  1  0.86805700  0.81849100  0.12536500  1
  Mn  Mn5  1  0.13194300  0.18150900  0.87463500  1
  Mn  Mn6  1  0.36805700  0.18150900  0.37463500  1
  Mn  Mn7  1  0.63194300  0.81849100  0.62536500  1
  P  P8  1  0.35307400  0.94953200  0.76533500  1
  P  P9  1  0.64692600  0.05046800  0.23466500  1
  P  P10  1  0.85307400  0.05046800  0.73466500  1
  P  P11  1  0.14692600  0.94953200  0.26533500  1
  P  P12  1  0.99230600  0.59702400  0.68326800  1
  P  P13  1  0.00769400  0.40297600  0.31673200  1
  P  P14  1  0.49230600  0.40297600  0.81673200  1
  P  P15  1  0.50769400  0.59702400  0.18326800  1
  O  O16  1  0.08353400  0.45717800  0.65130400  1
  O  O17  1  0.91646600  0.54282200  0.34869600  1
  O  O18  1  0.58353400  0.54282200  0.84869600  1
  O  O19  1  0.41646600  0.45717800  0.15130400  1
  O  O20  1  0.41028300  0.97201700  0.61456800  1
  O  O21  1  0.58971700  0.02798300  0.38543200  1
  O  O22  1  0.91028300  0.02798300  0.88543200  1
  O  O23  1  0.08971700  0.97201700  0.11456800  1
  O  O24  1  0.78799200  0.84781200  0.77385800  1
  O  O25  1  0.21200800  0.15218800  0.22614200  1
  O  O26  1  0.28799200  0.15218800  0.72614200  1
  O  O27  1  0.71200800  0.84781200  0.27385800  1
  O  O28  1  0.22897800  0.78341100  0.85660000  1
  O  O29  1  0.77102200  0.21658900  0.14340000  1
  O  O30  1  0.72897800  0.21658900  0.64340000  1
  O  O31  1  0.27102200  0.78341100  0.35660000  1
  O  O32  1  0.48435700  0.51607400  0.63521300  1
  O  O33  1  0.51564300  0.48392600  0.36478700  1
  O  O34  1  0.98435700  0.48392600  0.86478700  1
  O  O35  1  0.01564300  0.51607400  0.13521300  1
  O  O36  1  0.32175000  0.35260700  0.89354600  1
  O  O37  1  0.67825000  0.64739300  0.10645400  1
  O  O38  1  0.82175000  0.64739300  0.60645400  1
  O  O39  1  0.17825000  0.35260700  0.39354600  1
