# generated using pymatgen
data_Mg(AuF6)2
_symmetry_space_group_name_H-M   'P 1'
_cell_length_a   5.96319900
_cell_length_b   5.96319900
_cell_length_c   7.03618800
_cell_angle_alpha   90.00000000
_cell_angle_beta   90.00000000
_cell_angle_gamma   90.00000000
_symmetry_Int_Tables_number   1
_chemical_formula_structural   Mg(AuF6)2
_chemical_formula_sum   'Mg1 Au2 F12'
_cell_volume   250.20503215
_cell_formula_units_Z   1
loop_
 _symmetry_equiv_pos_site_id
 _symmetry_equiv_pos_as_xyz
  1  'x, y, z'
loop_
 _atom_site_type_symbol
 _atom_site_label
 _atom_site_symmetry_multiplicity
 _atom_site_fract_x
 _atom_site_fract_y
 _atom_site_fract_z
 _atom_site_occupancy
  Mg  Mg0  1  0.00000000  0.00000000  0.00000000  1
  Au  Au1  1  0.00000000  0.50000000  0.21628600  1
  Au  Au2  1  0.50000000  0.00000000  0.78371400  1
  F  F3  1  0.24176900  0.20432100  0.80064300  1
  F  F4  1  0.75823100  0.79567900  0.80064300  1
  F  F5  1  0.20432100  0.75823100  0.19935700  1
  F  F6  1  0.79567900  0.24176900  0.19935700  1
  F  F7  1  0.00000000  0.50000000  0.49113200  1
  F  F8  1  0.50000000  0.00000000  0.50886800  1
  F  F9  1  0.00000000  0.50000000  0.93968300  1
  F  F10  1  0.50000000  0.00000000  0.06031700  1
  F  F11  1  0.20432100  0.24176900  0.19935700  1
  F  F12  1  0.79567900  0.75823100  0.19935700  1
  F  F13  1  0.24176900  0.79567900  0.80064300  1
  F  F14  1  0.75823100  0.20432100  0.80064300  1
