# generated using pymatgen
data_Mg2Cr5(PO4)6
_symmetry_space_group_name_H-M   'P 1'
_cell_length_a   6.37460400
_cell_length_b   8.00108791
_cell_length_c   9.41837104
_cell_angle_alpha   105.40874449
_cell_angle_beta   108.26973730
_cell_angle_gamma   101.12418366
_symmetry_Int_Tables_number   1
_chemical_formula_structural   Mg2Cr5(PO4)6
_chemical_formula_sum   'Mg2 Cr5 P6 O24'
_cell_volume   419.26340976
_cell_formula_units_Z   1
loop_
 _symmetry_equiv_pos_site_id
 _symmetry_equiv_pos_as_xyz
  1  'x, y, z'
loop_
 _atom_site_type_symbol
 _atom_site_label
 _atom_site_symmetry_multiplicity
 _atom_site_fract_x
 _atom_site_fract_y
 _atom_site_fract_z
 _atom_site_occupancy
  Mg  Mg0  1  0.28491800  0.31049800  0.79147300  1
  Mg  Mg1  1  0.71508200  0.68950200  0.20852700  1
  Cr  Cr2  1  0.05127000  0.21751700  0.02383100  1
  Cr  Cr3  1  0.94873000  0.78248300  0.97616900  1
  Cr  Cr4  1  0.61726400  0.04121700  0.38859500  1
  Cr  Cr5  1  0.38273600  0.95878300  0.61140500  1
  Cr  Cr6  1  0.00000000  0.50000000  0.50000000  1
  P  P7  1  0.60744500  0.26615000  0.13183100  1
  P  P8  1  0.39255500  0.73385000  0.86816900  1
  P  P9  1  0.09295300  0.09406100  0.33334100  1
  P  P10  1  0.90704700  0.90593900  0.66665900  1
  P  P11  1  0.22640800  0.64818100  0.26616200  1
  P  P12  1  0.77359200  0.35181900  0.73383800  1
  O  O13  1  0.55120700  0.13052000  0.21244100  1
  O  O14  1  0.44879300  0.86948000  0.78755900  1
  O  O15  1  0.72653500  0.46163900  0.25833300  1
  O  O16  1  0.27346500  0.53836100  0.74166700  1
  O  O17  1  0.37222400  0.26440200  0.00634500  1
  O  O18  1  0.62777600  0.73559800  0.99365500  1
  O  O19  1  0.22729100  0.70333000  0.43953400  1
  O  O20  1  0.77270900  0.29667000  0.56046600  1
  O  O21  1  0.06963400  0.04835100  0.15529300  1
  O  O22  1  0.93036600  0.95164900  0.84470700  1
  O  O23  1  0.11817800  0.28830200  0.41808700  1
  O  O24  1  0.88182200  0.71169800  0.58191300  1
  O  O25  1  0.20760700  0.44844500  0.20463300  1
  O  O26  1  0.79239300  0.55155500  0.79536700  1
  O  O27  1  0.31433000  0.04181200  0.41848800  1
  O  O28  1  0.68567000  0.95818800  0.58151200  1
  O  O29  1  0.11981300  0.03639100  0.66093600  1
  O  O30  1  0.88018700  0.96360900  0.33906400  1
  O  O31  1  0.45643600  0.76349300  0.26820900  1
  O  O32  1  0.54356400  0.23650700  0.73179100  1
  O  O33  1  0.01227800  0.68779200  0.15826300  1
  O  O34  1  0.98772200  0.31220800  0.84173700  1
  O  O35  1  0.75215200  0.21441600  0.03478100  1
  O  O36  1  0.24784800  0.78558400  0.96521900  1
