# generated using pymatgen
data_Na2CaAl10(H3O10)2
_symmetry_space_group_name_H-M   'P 1'
_cell_length_a   6.99320600
_cell_length_b   13.57137100
_cell_length_c   13.58049600
_cell_angle_alpha   90.00000000
_cell_angle_beta   90.00000000
_cell_angle_gamma   90.00000000
_symmetry_Int_Tables_number   1
_chemical_formula_structural   Na2CaAl10(H3O10)2
_chemical_formula_sum   'Na4 Ca2 Al20 H12 O40'
_cell_volume   1288.88947244
_cell_formula_units_Z   2
loop_
 _symmetry_equiv_pos_site_id
 _symmetry_equiv_pos_as_xyz
  1  'x, y, z'
loop_
 _atom_site_type_symbol
 _atom_site_label
 _atom_site_symmetry_multiplicity
 _atom_site_fract_x
 _atom_site_fract_y
 _atom_site_fract_z
 _atom_site_occupancy
  Na  Na0  1  0.20007400  0.43289900  0.00000000  1
  Na  Na1  1  0.79992600  0.56710100  0.00000000  1
  Na  Na2  1  0.79992600  0.93289900  0.50000000  1
  Na  Na3  1  0.20007400  0.06710100  0.50000000  1
  Ca  Ca4  1  0.00000000  0.00000000  0.00000000  1
  Ca  Ca5  1  0.00000000  0.50000000  0.50000000  1
  Al  Al6  1  0.61484500  0.25000000  0.25000000  1
  Al  Al7  1  0.38515500  0.75000000  0.75000000  1
  Al  Al8  1  0.38515500  0.75000000  0.25000000  1
  Al  Al9  1  0.61484500  0.25000000  0.75000000  1
  Al  Al10  1  0.23106100  0.18531000  0.11712500  1
  Al  Al11  1  0.76893900  0.81469000  0.88287500  1
  Al  Al12  1  0.76893900  0.68531000  0.38287500  1
  Al  Al13  1  0.23106100  0.31469000  0.38287500  1
  Al  Al14  1  0.23106100  0.31469000  0.61712500  1
  Al  Al15  1  0.76893900  0.68531000  0.61712500  1
  Al  Al16  1  0.76893900  0.81469000  0.11712500  1
  Al  Al17  1  0.23106100  0.18531000  0.88287500  1
  Al  Al18  1  0.00124500  0.11284900  0.30716900  1
  Al  Al19  1  0.99875500  0.88715100  0.69283100  1
  Al  Al20  1  0.99875500  0.61284900  0.19283100  1
  Al  Al21  1  0.00124500  0.38715100  0.19283100  1
  Al  Al22  1  0.00124500  0.38715100  0.80716900  1
  Al  Al23  1  0.99875500  0.61284900  0.80716900  1
  Al  Al24  1  0.99875500  0.88715100  0.30716900  1
  Al  Al25  1  0.00124500  0.11284900  0.69283100  1
  H  H26  1  0.63349700  0.36192200  0.00000000  1
  H  H27  1  0.36650300  0.63807800  0.00000000  1
  H  H28  1  0.36650300  0.86192200  0.50000000  1
  H  H29  1  0.63349700  0.13807800  0.50000000  1
  H  H30  1  0.50000000  0.00000000  0.34181900  1
  H  H31  1  0.50000000  0.00000000  0.65818100  1
  H  H32  1  0.50000000  0.50000000  0.15818100  1
  H  H33  1  0.50000000  0.50000000  0.84181900  1
  H  H34  1  0.69413000  0.11542400  0.00000000  1
  H  H35  1  0.30587000  0.88457600  0.00000000  1
  H  H36  1  0.30587000  0.61542400  0.50000000  1
  H  H37  1  0.69413000  0.38457600  0.50000000  1
  O  O38  1  0.21076500  0.13119200  0.00000000  1
  O  O39  1  0.78923500  0.86880800  0.00000000  1
  O  O40  1  0.78923500  0.63119200  0.50000000  1
  O  O41  1  0.21076500  0.36880800  0.50000000  1
  O  O42  1  0.14917900  0.30901300  0.12029300  1
  O  O43  1  0.85082100  0.69098700  0.87970700  1
  O  O44  1  0.85082100  0.80901300  0.37970700  1
  O  O45  1  0.14917900  0.19098700  0.37970700  1
  O  O46  1  0.14917900  0.19098700  0.62029300  1
  O  O47  1  0.85082100  0.80901300  0.62029300  1
  O  O48  1  0.85082100  0.69098700  0.12029300  1
  O  O49  1  0.14917900  0.30901300  0.87970700  1
  O  O50  1  0.00000000  0.00000000  0.37137500  1
  O  O51  1  0.00000000  0.00000000  0.62862500  1
  O  O52  1  0.00000000  0.50000000  0.12862500  1
  O  O53  1  0.00000000  0.50000000  0.87137500  1
  O  O54  1  0.08572600  0.10465900  0.18547800  1
  O  O55  1  0.91427400  0.89534100  0.81452200  1
  O  O56  1  0.91427400  0.60465900  0.31452200  1
  O  O57  1  0.08572600  0.39534100  0.31452200  1
  O  O58  1  0.08572600  0.39534100  0.68547800  1
  O  O59  1  0.91427400  0.60465900  0.68547800  1
  O  O60  1  0.91427400  0.89534100  0.18547800  1
  O  O61  1  0.08572600  0.10465900  0.81452200  1
  O  O62  1  0.22804700  0.66428500  0.19779000  1
  O  O63  1  0.77195300  0.33571500  0.80221000  1
  O  O64  1  0.77195300  0.16428500  0.30221000  1
  O  O65  1  0.22804700  0.83571500  0.30221000  1
  O  O66  1  0.22804700  0.83571500  0.69779000  1
  O  O67  1  0.77195300  0.16428500  0.69779000  1
  O  O68  1  0.77195300  0.33571500  0.19779000  1
  O  O69  1  0.22804700  0.66428500  0.80221000  1
  O  O70  1  0.46544000  0.19706500  0.16118600  1
  O  O71  1  0.53456000  0.80293500  0.83881400  1
  O  O72  1  0.53456000  0.69706500  0.33881400  1
  O  O73  1  0.46544000  0.30293500  0.33881400  1
  O  O74  1  0.46544000  0.30293500  0.66118600  1
  O  O75  1  0.53456000  0.69706500  0.66118600  1
  O  O76  1  0.53456000  0.80293500  0.16118600  1
  O  O77  1  0.46544000  0.19706500  0.83881400  1
