# generated using pymatgen
data_Na3Nd(AsO4)2
_symmetry_space_group_name_H-M   'P 1'
_cell_length_a   5.62310700
_cell_length_b   14.32720600
_cell_length_c   19.54793200
_cell_angle_alpha   90.00000000
_cell_angle_beta   90.00000000
_cell_angle_gamma   90.00000000
_symmetry_Int_Tables_number   1
_chemical_formula_structural   Na3Nd(AsO4)2
_chemical_formula_sum   'Na24 Nd8 As16 O64'
_cell_volume   1574.84810629
_cell_formula_units_Z   8
loop_
 _symmetry_equiv_pos_site_id
 _symmetry_equiv_pos_as_xyz
  1  'x, y, z'
loop_
 _atom_site_type_symbol
 _atom_site_label
 _atom_site_symmetry_multiplicity
 _atom_site_fract_x
 _atom_site_fract_y
 _atom_site_fract_z
 _atom_site_occupancy
  Na  Na0  1  0.02103400  0.78353900  0.50609900  1
  Na  Na1  1  0.97896600  0.21646100  0.00609900  1
  Na  Na2  1  0.97896600  0.28353900  0.50609900  1
  Na  Na3  1  0.02103400  0.71646100  0.00609900  1
  Na  Na4  1  0.01731800  0.04797000  0.85287600  1
  Na  Na5  1  0.98268200  0.95203000  0.35287600  1
  Na  Na6  1  0.98268200  0.54797000  0.85287600  1
  Na  Na7  1  0.01731800  0.45203000  0.35287600  1
  Na  Na8  1  0.01180400  0.13787600  0.67304600  1
  Na  Na9  1  0.98819600  0.86212400  0.17304600  1
  Na  Na10  1  0.98819600  0.63787600  0.67304600  1
  Na  Na11  1  0.01180400  0.36212400  0.17304600  1
  Na  Na12  1  0.53181400  0.20230600  0.76805300  1
  Na  Na13  1  0.46818600  0.79769400  0.26805300  1
  Na  Na14  1  0.46818600  0.70230600  0.76805300  1
  Na  Na15  1  0.53181400  0.29769400  0.26805300  1
  Na  Na16  1  0.45715800  0.03251700  0.61231900  1
  Na  Na17  1  0.54284200  0.96748300  0.11231900  1
  Na  Na18  1  0.54284200  0.53251700  0.61231900  1
  Na  Na19  1  0.45715800  0.46748300  0.11231900  1
  Na  Na20  1  0.50627700  0.11490300  0.94811900  1
  Na  Na21  1  0.49372300  0.88509700  0.44811900  1
  Na  Na22  1  0.49372300  0.61490300  0.94811900  1
  Na  Na23  1  0.50627700  0.38509700  0.44811900  1
  Nd  Nd24  1  0.07299800  0.38863000  0.69625200  1
  Nd  Nd25  1  0.92700200  0.61137000  0.19625200  1
  Nd  Nd26  1  0.92700200  0.88863000  0.69625200  1
  Nd  Nd27  1  0.07299800  0.11137000  0.19625200  1
  Nd  Nd28  1  0.43977300  0.36188200  0.92704800  1
  Nd  Nd29  1  0.56022700  0.63811800  0.42704800  1
  Nd  Nd30  1  0.56022700  0.86188200  0.92704800  1
  Nd  Nd31  1  0.43977300  0.13811800  0.42704800  1
  As  As32  1  0.03463900  0.52478300  0.51909000  1
  As  As33  1  0.96536100  0.47521700  0.01909000  1
  As  As34  1  0.96536100  0.02478300  0.51909000  1
  As  As35  1  0.03463900  0.97521700  0.01909000  1
  As  As36  1  0.01318700  0.77535800  0.84703900  1
  As  As37  1  0.98681300  0.22464200  0.34703900  1
  As  As38  1  0.98681300  0.27535800  0.84703900  1
  As  As39  1  0.01318700  0.72464200  0.34703900  1
  As  As40  1  0.52498400  0.47576100  0.77583200  1
  As  As41  1  0.47501600  0.52423900  0.27583200  1
  As  As42  1  0.47501600  0.97576100  0.77583200  1
  As  As43  1  0.52498400  0.02423900  0.27583200  1
  As  As44  1  0.54176300  0.27380600  0.60397800  1
  As  As45  1  0.45823700  0.72619400  0.10397800  1
  As  As46  1  0.45823700  0.77380600  0.60397800  1
  As  As47  1  0.54176300  0.22619400  0.10397800  1
  O  O48  1  0.41726500  0.18767200  0.65266300  1
  O  O49  1  0.58273500  0.81232800  0.15266300  1
  O  O50  1  0.58273500  0.68767200  0.65266300  1
  O  O51  1  0.41726500  0.31232800  0.15266300  1
  O  O52  1  0.29652400  0.53312700  0.73460700  1
  O  O53  1  0.70347600  0.46687300  0.23460700  1
  O  O54  1  0.70347600  0.03312700  0.73460700  1
  O  O55  1  0.29652400  0.96687300  0.23460700  1
  O  O56  1  0.11308600  0.12829900  0.50322400  1
  O  O57  1  0.88691400  0.87170100  0.00322400  1
  O  O58  1  0.88691400  0.62829900  0.50322400  1
  O  O59  1  0.11308600  0.37170100  0.00322400  1
  O  O60  1  0.20912000  0.21857400  0.89136900  1
  O  O61  1  0.79088000  0.78142600  0.39136900  1
  O  O62  1  0.79088000  0.71857400  0.89136900  1
  O  O63  1  0.20912000  0.28142600  0.39136900  1
  O  O64  1  0.33589100  0.53662800  0.50210300  1
  O  O65  1  0.66410900  0.46337200  0.00210300  1
  O  O66  1  0.66410900  0.03662800  0.50210300  1
  O  O67  1  0.33589100  0.96337200  0.00210300  1
  O  O68  1  0.08707500  0.56133900  0.96956100  1
  O  O69  1  0.91292500  0.43866100  0.46956100  1
  O  O70  1  0.91292500  0.06133900  0.96956100  1
  O  O71  1  0.08707500  0.93866100  0.46956100  1
  O  O72  1  0.20903000  0.00567000  0.73818300  1
  O  O73  1  0.79097000  0.99433000  0.23818300  1
  O  O74  1  0.79097000  0.50567000  0.73818300  1
  O  O75  1  0.20903000  0.49433000  0.23818300  1
  O  O76  1  0.39023700  0.37674900  0.61786800  1
  O  O77  1  0.60976300  0.62325100  0.11786800  1
  O  O78  1  0.60976300  0.87674900  0.61786800  1
  O  O79  1  0.39023700  0.12325100  0.11786800  1
  O  O80  1  0.46092200  0.35909500  0.77093000  1
  O  O81  1  0.53907800  0.64090500  0.27093000  1
  O  O82  1  0.53907800  0.85909500  0.77093000  1
  O  O83  1  0.46092200  0.14090500  0.27093000  1
  O  O84  1  0.05057100  0.39188900  0.85107600  1
  O  O85  1  0.94942900  0.60811100  0.35107600  1
  O  O86  1  0.94942900  0.89188900  0.85107600  1
  O  O87  1  0.05057100  0.10811100  0.35107600  1
  O  O88  1  0.15926100  0.78644100  0.62430000  1
  O  O89  1  0.84073900  0.21355900  0.12430000  1
  O  O90  1  0.84073900  0.28644100  0.62430000  1
  O  O91  1  0.15926100  0.71355900  0.12430000  1
  O  O92  1  0.01530800  0.74367200  0.76205700  1
  O  O93  1  0.98469200  0.25632800  0.26205700  1
  O  O94  1  0.98469200  0.24367200  0.76205700  1
  O  O95  1  0.01530800  0.75632800  0.26205700  1
  O  O96  1  0.46472800  0.00534300  0.86122700  1
  O  O97  1  0.53527200  0.99465700  0.36122700  1
  O  O98  1  0.53527200  0.50534300  0.86122700  1
  O  O99  1  0.46472800  0.49465700  0.36122700  1
  O  O100  1  0.01251500  0.00320800  0.60489600  1
  O  O101  1  0.98748500  0.99679200  0.10489600  1
  O  O102  1  0.98748500  0.50320800  0.60489600  1
  O  O103  1  0.01251500  0.49679200  0.10489600  1
  O  O104  1  0.71706800  0.24564600  0.88238600  1
  O  O105  1  0.28293200  0.75435400  0.38238600  1
  O  O106  1  0.28293200  0.74564600  0.88238600  1
  O  O107  1  0.71706800  0.25435400  0.38238600  1
  O  O108  1  0.53304000  0.25297400  0.51720100  1
  O  O109  1  0.46696000  0.74702600  0.01720100  1
  O  O110  1  0.46696000  0.75297400  0.51720100  1
  O  O111  1  0.53304000  0.24702600  0.01720100  1
