# generated using pymatgen
data_Na9Hg
_symmetry_space_group_name_H-M   'P 1'
_cell_length_a   13.35626040
_cell_length_b   13.35626040
_cell_length_c   32.89713300
_cell_angle_alpha   90.00000000
_cell_angle_beta   90.00000000
_cell_angle_gamma   120.02387613
_symmetry_Int_Tables_number   1
_chemical_formula_structural   Na9Hg
_chemical_formula_sum   'Na9 Hg1'
_cell_volume   5081.05504344
_cell_formula_units_Z   1
loop_
 _symmetry_equiv_pos_site_id
 _symmetry_equiv_pos_as_xyz
  1  'x, y, z'
loop_
 _atom_site_type_symbol
 _atom_site_label
 _atom_site_symmetry_multiplicity
 _atom_site_fract_x
 _atom_site_fract_y
 _atom_site_fract_z
 _atom_site_occupancy
  Na  Na0  1  0.00000000  0.00000000  0.24829400  1
  Na  Na1  1  0.00000000  0.00000000  0.75170600  1
  Na  Na2  1  0.25215700  0.99676500  0.00000000  1
  Na  Na3  1  0.74784300  0.00323500  0.00000000  1
  Na  Na4  1  0.99676500  0.25215700  0.00000000  1
  Na  Na5  1  0.00323500  0.74784300  0.00000000  1
  Na  Na6  1  0.00000000  0.00000000  0.50000000  1
  Na  Na7  1  0.50000000  0.00000000  0.00000000  1
  Na  Na8  1  0.00000000  0.50000000  0.00000000  1
  Hg  Hg9  1  0.00000000  0.00000000  0.00000000  1
