# generated using pymatgen
data_Mg7(SiO3)8
_symmetry_space_group_name_H-M   'P 1'
_cell_length_a   10.35796616
_cell_length_b   10.35796616
_cell_length_c   5.36205965
_cell_angle_alpha   84.35268956
_cell_angle_beta   84.35268956
_cell_angle_gamma   124.81235426
_symmetry_Int_Tables_number   1
_chemical_formula_structural   Mg7(SiO3)8
_chemical_formula_sum   'Mg7 Si8 O24'
_cell_volume   461.53969912
_cell_formula_units_Z   1
loop_
 _symmetry_equiv_pos_site_id
 _symmetry_equiv_pos_as_xyz
  1  'x, y, z'
loop_
 _atom_site_type_symbol
 _atom_site_label
 _atom_site_symmetry_multiplicity
 _atom_site_fract_x
 _atom_site_fract_y
 _atom_site_fract_z
 _atom_site_occupancy
  Mg  Mg0  1  0.74440600  0.25559400  0.50000000  1
  Mg  Mg1  1  0.25559400  0.74440600  0.50000000  1
  Mg  Mg2  1  0.82169100  0.17830900  0.00000000  1
  Mg  Mg3  1  0.17830900  0.82169100  0.00000000  1
  Mg  Mg4  1  0.00000000  0.00000000  0.00000000  1
  Mg  Mg5  1  0.90827900  0.09172100  0.50000000  1
  Mg  Mg6  1  0.09172100  0.90827900  0.50000000  1
  Si  Si7  1  0.62914100  0.79715700  0.27431800  1
  Si  Si8  1  0.37085900  0.20284300  0.72568200  1
  Si  Si9  1  0.20284300  0.37085900  0.72568200  1
  Si  Si10  1  0.79715700  0.62914100  0.27431800  1
  Si  Si11  1  0.46790100  0.12846600  0.21991800  1
  Si  Si12  1  0.53209900  0.87153400  0.78008200  1
  Si  Si13  1  0.87153400  0.53209900  0.78008200  1
  Si  Si14  1  0.12846600  0.46790100  0.21991800  1
  O  O15  1  0.46916500  0.23089000  0.44212400  1
  O  O16  1  0.53083500  0.76911000  0.55787600  1
  O  O17  1  0.76911000  0.53083500  0.55787600  1
  O  O18  1  0.23089000  0.46916500  0.44212400  1
  O  O19  1  0.65775500  0.65775500  0.26992800  1
  O  O20  1  0.34224500  0.34224500  0.73007200  1
  O  O21  1  0.90657200  0.90657200  0.68468200  1
  O  O22  1  0.09342800  0.09342800  0.31531800  1
  O  O23  1  0.51830300  0.78306200  0.06549700  1
  O  O24  1  0.48169700  0.21693800  0.93450300  1
  O  O25  1  0.21693800  0.48169700  0.93450300  1
  O  O26  1  0.78306200  0.51830300  0.06549700  1
  O  O27  1  0.62698100  0.13625600  0.23207600  1
  O  O28  1  0.37301900  0.86374400  0.76792400  1
  O  O29  1  0.86374400  0.37301900  0.76792400  1
  O  O30  1  0.13625600  0.62698100  0.23207600  1
  O  O31  1  0.79948300  0.97462300  0.20709100  1
  O  O32  1  0.20051700  0.02537700  0.79290900  1
  O  O33  1  0.02537700  0.20051700  0.79290900  1
  O  O34  1  0.97462300  0.79948300  0.20709100  1
  O  O35  1  0.29747600  0.94754500  0.28506000  1
  O  O36  1  0.70252400  0.05245500  0.71494000  1
  O  O37  1  0.05245500  0.70252400  0.71494000  1
  O  O38  1  0.94754500  0.29747600  0.28506000  1
