# generated using pymatgen
data_Mn2PO4
_symmetry_space_group_name_H-M   'P 1'
_cell_length_a   4.92335500
_cell_length_b   6.59807500
_cell_length_c   10.93968500
_cell_angle_alpha   90.00000000
_cell_angle_beta   90.00000000
_cell_angle_gamma   90.00000000
_symmetry_Int_Tables_number   1
_chemical_formula_structural   Mn2PO4
_chemical_formula_sum   'Mn8 P4 O16'
_cell_volume   355.37200836
_cell_formula_units_Z   4
loop_
 _symmetry_equiv_pos_site_id
 _symmetry_equiv_pos_as_xyz
  1  'x, y, z'
loop_
 _atom_site_type_symbol
 _atom_site_label
 _atom_site_symmetry_multiplicity
 _atom_site_fract_x
 _atom_site_fract_y
 _atom_site_fract_z
 _atom_site_occupancy
  Mn  Mn0  1  0.06602300  0.75000000  0.69603300  1
  Mn  Mn1  1  0.93397700  0.25000000  0.30396700  1
  Mn  Mn2  1  0.56602300  0.25000000  0.80396700  1
  Mn  Mn3  1  0.43397700  0.75000000  0.19603300  1
  Mn  Mn4  1  0.50000000  0.50000000  0.50000000  1
  Mn  Mn5  1  0.00000000  0.50000000  0.00000000  1
  Mn  Mn6  1  0.50000000  0.00000000  0.50000000  1
  Mn  Mn7  1  0.00000000  0.00000000  0.00000000  1
  P  P8  1  0.56525900  0.75000000  0.88804100  1
  P  P9  1  0.43474100  0.25000000  0.11195900  1
  P  P10  1  0.06525900  0.25000000  0.61195900  1
  P  P11  1  0.93474100  0.75000000  0.38804100  1
  O  O12  1  0.69629500  0.56056500  0.82833100  1
  O  O13  1  0.30370500  0.43943500  0.17166900  1
  O  O14  1  0.19629500  0.43943500  0.67166900  1
  O  O15  1  0.30370500  0.06056500  0.17166900  1
  O  O16  1  0.80370500  0.56056500  0.32833100  1
  O  O17  1  0.69629500  0.93943500  0.82833100  1
  O  O18  1  0.80370500  0.93943500  0.32833100  1
  O  O19  1  0.19629500  0.06056500  0.67166900  1
  O  O20  1  0.83380000  0.75000000  0.52591600  1
  O  O21  1  0.16620000  0.25000000  0.47408400  1
  O  O22  1  0.33380000  0.25000000  0.97408400  1
  O  O23  1  0.66620000  0.75000000  0.02591600  1
  O  O24  1  0.24759900  0.75000000  0.88242700  1
  O  O25  1  0.75240100  0.25000000  0.11757300  1
  O  O26  1  0.74759900  0.25000000  0.61757300  1
  O  O27  1  0.25240100  0.75000000  0.38242700  1
