# generated using pymatgen
data_Na2NiH20C12(N2O3)6
_symmetry_space_group_name_H-M   'P 1'
_cell_length_a   7.27403800
_cell_length_b   10.48826303
_cell_length_c   10.55247009
_cell_angle_alpha   112.64445653
_cell_angle_beta   108.92354963
_cell_angle_gamma   95.15784955
_symmetry_Int_Tables_number   1
_chemical_formula_structural   Na2NiH20C12(N2O3)6
_chemical_formula_sum   'Na2 Ni1 H20 C12 N12 O18'
_cell_volume   681.25203575
_cell_formula_units_Z   1
loop_
 _symmetry_equiv_pos_site_id
 _symmetry_equiv_pos_as_xyz
  1  'x, y, z'
loop_
 _atom_site_type_symbol
 _atom_site_label
 _atom_site_symmetry_multiplicity
 _atom_site_fract_x
 _atom_site_fract_y
 _atom_site_fract_z
 _atom_site_occupancy
  Na  Na0  1  0.70387300  0.40170000  0.46606700  1
  Na  Na1  1  0.29612700  0.59830000  0.53393300  1
  Ni  Ni2  1  0.00000000  0.00000000  0.00000000  1
  H  H3  1  0.74173800  0.69017700  0.68552400  1
  H  H4  1  0.25826200  0.30982300  0.31447600  1
  H  H5  1  0.30061200  0.90180500  0.72917600  1
  H  H6  1  0.69938800  0.09819500  0.27082400  1
  H  H7  1  0.72113200  0.83771100  0.03274000  1
  H  H8  1  0.27886800  0.16228900  0.96726000  1
  H  H9  1  0.30502300  0.40526700  0.23952400  1
  H  H10  1  0.69497700  0.59473300  0.76047600  1
  H  H11  1  0.81342300  0.43977400  0.11630400  1
  H  H12  1  0.18657700  0.56022600  0.88369600  1
  H  H13  1  0.39189100  0.11690700  0.10094200  1
  H  H14  1  0.60810900  0.88309300  0.89905800  1
  H  H15  1  0.25909600  0.62988100  0.13777200  1
  H  H16  1  0.74090400  0.37011900  0.86222800  1
  H  H17  1  0.25464100  0.80568200  0.80317300  1
  H  H18  1  0.74535900  0.19431800  0.19682700  1
  H  H19  1  0.26538800  0.98688100  0.49308100  1
  H  H20  1  0.73461200  0.01311900  0.50691900  1
  H  H21  1  0.80131900  0.78835900  0.46612100  1
  H  H22  1  0.19868100  0.21164100  0.53387900  1
  C  C23  1  0.81600000  0.60390100  0.30502600  1
  C  C24  1  0.18400000  0.39609900  0.69497400  1
  C  C25  1  0.18354600  0.79857500  0.08688100  1
  C  C26  1  0.81645400  0.20142500  0.91311900  1
  C  C27  1  0.74440000  0.61062000  0.06632400  1
  C  C28  1  0.25560000  0.38938000  0.93367600  1
  C  C29  1  0.27293600  0.79881100  0.32980900  1
  C  C30  1  0.72706400  0.20118900  0.67019100  1
  C  C31  1  0.81304500  0.99649500  0.70907200  1
  C  C32  1  0.18695500  0.00350500  0.29092800  1
  C  C33  1  0.74025200  0.81099900  0.26745200  1
  C  C34  1  0.25974800  0.18900100  0.73254800  1
  N  N35  1  0.15185500  0.93091800  0.14419200  1
  N  N36  1  0.84814500  0.06908200  0.85580800  1
  N  N37  1  0.24797700  0.93563000  0.38120800  1
  N  N38  1  0.75202300  0.06437000  0.61879200  1
  N  N39  1  0.72295500  0.74572000  0.12404200  1
  N  N40  1  0.27704500  0.25428000  0.87595800  1
  N  N41  1  0.24359500  0.73488600  0.18144000  1
  N  N42  1  0.75640500  0.26511400  0.81855900  1
  N  N43  1  0.79275400  0.54283500  0.15851200  1
  N  N44  1  0.20724600  0.45716500  0.84148800  1
  N  N45  1  0.78412000  0.73812700  0.35480500  1
  N  N46  1  0.21588000  0.26187300  0.64519500  1
  O  O47  1  0.71867000  0.93563300  0.32532100  1
  O  O48  1  0.28133000  0.06436700  0.67467900  1
  O  O49  1  0.27634100  0.45570000  0.06756700  1
  O  O50  1  0.72365900  0.54430000  0.93243300  1
  O  O51  1  0.15606700  0.73434800  0.95185500  1
  O  O52  1  0.84393300  0.26565200  0.04814500  1
  O  O53  1  0.33610400  0.82136000  0.75014300  1
  O  O54  1  0.66389600  0.17864000  0.24985700  1
  O  O55  1  0.83766100  0.87273700  0.65627100  1
  O  O56  1  0.16233900  0.12726300  0.34372900  1
  O  O57  1  0.86370600  0.54290300  0.38678600  1
  O  O58  1  0.13629400  0.45709700  0.61321400  1
  O  O59  1  0.34004600  0.40075800  0.33574600  1
  O  O60  1  0.65995400  0.59924200  0.66425400  1
  O  O61  1  0.26320300  0.09763800  0.01827700  1
  O  O62  1  0.73679700  0.90236200  0.98172300  1
  O  O63  1  0.68150600  0.26214900  0.58871500  1
  O  O64  1  0.31849400  0.73785100  0.41128500  1
