# generated using pymatgen
data_MnAlBiO5
_symmetry_space_group_name_H-M   'P 1'
_cell_length_a   5.77672400
_cell_length_b   7.48662100
_cell_length_c   8.53087400
_cell_angle_alpha   90.00000000
_cell_angle_beta   90.00000000
_cell_angle_gamma   90.00000000
_symmetry_Int_Tables_number   1
_chemical_formula_structural   MnAlBiO5
_chemical_formula_sum   'Mn4 Al4 Bi4 O20'
_cell_volume   368.94446046
_cell_formula_units_Z   4
loop_
 _symmetry_equiv_pos_site_id
 _symmetry_equiv_pos_as_xyz
  1  'x, y, z'
loop_
 _atom_site_type_symbol
 _atom_site_label
 _atom_site_symmetry_multiplicity
 _atom_site_fract_x
 _atom_site_fract_y
 _atom_site_fract_z
 _atom_site_occupancy
  Mn  Mn0  1  0.24261700  0.00000000  0.50000000  1
  Mn  Mn1  1  0.75738300  0.00000000  0.50000000  1
  Mn  Mn2  1  0.75738300  0.50000000  0.00000000  1
  Mn  Mn3  1  0.24261700  0.50000000  0.00000000  1
  Al  Al4  1  0.00000000  0.11207400  0.14234700  1
  Al  Al5  1  0.00000000  0.88792600  0.85765300  1
  Al  Al6  1  0.00000000  0.38792600  0.64234700  1
  Al  Al7  1  0.00000000  0.61207400  0.35765300  1
  Bi  Bi8  1  0.50000000  0.35914400  0.33542300  1
  Bi  Bi9  1  0.50000000  0.64085600  0.66457700  1
  Bi  Bi10  1  0.50000000  0.14085600  0.83542300  1
  Bi  Bi11  1  0.50000000  0.85914400  0.16457700  1
  O  O12  1  0.00000000  0.34513100  0.07456100  1
  O  O13  1  0.00000000  0.65486900  0.92543900  1
  O  O14  1  0.00000000  0.15486900  0.57456100  1
  O  O15  1  0.00000000  0.84513100  0.42543900  1
  O  O16  1  0.20844800  0.00000000  0.00000000  1
  O  O17  1  0.79155200  0.00000000  0.00000000  1
  O  O18  1  0.79155200  0.50000000  0.50000000  1
  O  O19  1  0.20844800  0.50000000  0.50000000  1
  O  O20  1  0.24096100  0.10888100  0.29317800  1
  O  O21  1  0.75903900  0.89111900  0.70682200  1
  O  O22  1  0.24096100  0.89111900  0.70682200  1
  O  O23  1  0.75903900  0.39111900  0.79317800  1
  O  O24  1  0.75903900  0.10888100  0.29317800  1
  O  O25  1  0.24096100  0.60888100  0.20682200  1
  O  O26  1  0.75903900  0.60888100  0.20682200  1
  O  O27  1  0.24096100  0.39111900  0.79317800  1
  O  O28  1  0.50000000  0.34451000  0.05454200  1
  O  O29  1  0.50000000  0.65549000  0.94545800  1
  O  O30  1  0.50000000  0.15549000  0.55454200  1
  O  O31  1  0.50000000  0.84451000  0.44545800  1
