# generated using pymatgen
data_NdZr6(PO4)9
_symmetry_space_group_name_H-M   'P 1'
_cell_length_a   8.92211231
_cell_length_b   8.92211231
_cell_length_c   23.32313300
_cell_angle_alpha   90.00000000
_cell_angle_beta   90.00000000
_cell_angle_gamma   120.00000226
_symmetry_Int_Tables_number   1
_chemical_formula_structural   NdZr6(PO4)9
_chemical_formula_sum   'Nd2 Zr12 P18 O72'
_cell_volume   1607.87721790
_cell_formula_units_Z   2
loop_
 _symmetry_equiv_pos_site_id
 _symmetry_equiv_pos_as_xyz
  1  'x, y, z'
loop_
 _atom_site_type_symbol
 _atom_site_label
 _atom_site_symmetry_multiplicity
 _atom_site_fract_x
 _atom_site_fract_y
 _atom_site_fract_z
 _atom_site_occupancy
  Nd  Nd0  1  0.00000000  0.00000000  0.50000000  1
  Nd  Nd1  1  0.00000000  0.00000000  0.00000000  1
  Zr  Zr2  1  0.33333300  0.66666700  0.52521700  1
  Zr  Zr3  1  0.66666700  0.33333300  0.47478300  1
  Zr  Zr4  1  0.66666700  0.33333300  0.97478300  1
  Zr  Zr5  1  0.33333300  0.66666700  0.02521700  1
  Zr  Zr6  1  0.00000000  0.00000000  0.65045100  1
  Zr  Zr7  1  0.00000000  0.00000000  0.34954900  1
  Zr  Zr8  1  0.00000000  0.00000000  0.84954900  1
  Zr  Zr9  1  0.00000000  0.00000000  0.15045100  1
  Zr  Zr10  1  0.33333300  0.66666700  0.81310400  1
  Zr  Zr11  1  0.66666700  0.33333300  0.18689600  1
  Zr  Zr12  1  0.66666700  0.33333300  0.68689600  1
  Zr  Zr13  1  0.33333300  0.66666700  0.31310400  1
  P  P14  1  0.37442100  0.32227700  0.57958200  1
  P  P15  1  0.62557900  0.67772300  0.42041800  1
  P  P16  1  0.67772300  0.05214400  0.57958200  1
  P  P17  1  0.32227700  0.37442100  0.92041800  1
  P  P18  1  0.32227700  0.94785600  0.42041800  1
  P  P19  1  0.67772300  0.62557900  0.07958200  1
  P  P20  1  0.94785600  0.62557900  0.57958200  1
  P  P21  1  0.05214400  0.67772300  0.92041800  1
  P  P22  1  0.05214400  0.37442100  0.42041800  1
  P  P23  1  0.94785600  0.32227700  0.07958200  1
  P  P24  1  0.62557900  0.94785600  0.92041800  1
  P  P25  1  0.37442100  0.05214400  0.07958200  1
  P  P26  1  0.29226000  0.00000000  0.75000000  1
  P  P27  1  0.70774000  0.00000000  0.25000000  1
  P  P28  1  0.00000000  0.29226000  0.75000000  1
  P  P29  1  0.00000000  0.70774000  0.25000000  1
  P  P30  1  0.70774000  0.70774000  0.75000000  1
  P  P31  1  0.29226000  0.29226000  0.25000000  1
  O  O32  1  0.45078000  0.27877300  0.52723300  1
  O  O33  1  0.54922000  0.72122700  0.47276700  1
  O  O34  1  0.72122700  0.17200700  0.52723300  1
  O  O35  1  0.27877300  0.45078000  0.97276700  1
  O  O36  1  0.27877300  0.82799300  0.47276700  1
  O  O37  1  0.72122700  0.54922000  0.02723300  1
  O  O38  1  0.82799300  0.54922000  0.52723300  1
  O  O39  1  0.17200700  0.72122700  0.97276700  1
  O  O40  1  0.17200700  0.45078000  0.47276700  1
  O  O41  1  0.82799300  0.27877300  0.02723300  1
  O  O42  1  0.54922000  0.82799300  0.97276700  1
  O  O43  1  0.45078000  0.17200700  0.02723300  1
  O  O44  1  0.37788700  0.49509100  0.57164200  1
  O  O45  1  0.62211300  0.50490900  0.42835800  1
  O  O46  1  0.50490900  0.88279700  0.57164200  1
  O  O47  1  0.49509100  0.37788700  0.92835800  1
  O  O48  1  0.49509100  0.11720300  0.42835800  1
  O  O49  1  0.50490900  0.62211300  0.07164200  1
  O  O50  1  0.11720300  0.62211300  0.57164200  1
  O  O51  1  0.88279700  0.50490900  0.92835800  1
  O  O52  1  0.88279700  0.37788700  0.42835800  1
  O  O53  1  0.11720300  0.49509100  0.07164200  1
  O  O54  1  0.62211300  0.11720300  0.92835800  1
  O  O55  1  0.37788700  0.88279700  0.07164200  1
  O  O56  1  0.17789300  0.17297900  0.58167700  1
  O  O57  1  0.82210700  0.82702100  0.41832300  1
  O  O58  1  0.82702100  0.00491400  0.58167700  1
  O  O59  1  0.17297900  0.17789300  0.91832300  1
  O  O60  1  0.17297900  0.99508600  0.41832300  1
  O  O61  1  0.82702100  0.82210700  0.08167700  1
  O  O62  1  0.99508600  0.82210700  0.58167700  1
  O  O63  1  0.00491400  0.82702100  0.91832300  1
  O  O64  1  0.00491400  0.17789300  0.41832300  1
  O  O65  1  0.99508600  0.17297900  0.08167700  1
  O  O66  1  0.82210700  0.99508600  0.91832300  1
  O  O67  1  0.17789300  0.00491400  0.08167700  1
  O  O68  1  0.03025900  0.20513700  0.69677500  1
  O  O69  1  0.96974100  0.79486300  0.30322500  1
  O  O70  1  0.79486300  0.82512200  0.69677500  1
  O  O71  1  0.20513700  0.03025900  0.80322500  1
  O  O72  1  0.20513700  0.17487800  0.30322500  1
  O  O73  1  0.79486300  0.96974100  0.19677500  1
  O  O74  1  0.17487800  0.96974100  0.69677500  1
  O  O75  1  0.82512200  0.79486300  0.80322500  1
  O  O76  1  0.82512200  0.03025900  0.30322500  1
  O  O77  1  0.17487800  0.20513700  0.19677500  1
  O  O78  1  0.96974100  0.17487800  0.80322500  1
  O  O79  1  0.03025900  0.82512200  0.19677500  1
  O  O80  1  0.46791200  0.32607300  0.63492100  1
  O  O81  1  0.53208800  0.67392700  0.36507900  1
  O  O82  1  0.67392700  0.14183900  0.63492100  1
  O  O83  1  0.32607300  0.46791200  0.86507900  1
  O  O84  1  0.32607300  0.85816100  0.36507900  1
  O  O85  1  0.67392700  0.53208800  0.13492100  1
  O  O86  1  0.85816100  0.53208800  0.63492100  1
  O  O87  1  0.14183900  0.67392700  0.86507900  1
  O  O88  1  0.14183900  0.46791200  0.36507900  1
  O  O89  1  0.85816100  0.32607300  0.13492100  1
  O  O90  1  0.53208800  0.85816100  0.86507900  1
  O  O91  1  0.46791200  0.14183900  0.13492100  1
  O  O92  1  0.46917300  0.15946200  0.73963600  1
  O  O93  1  0.53082700  0.84053800  0.26036400  1
  O  O94  1  0.84053800  0.30971100  0.73963600  1
  O  O95  1  0.15946200  0.46917300  0.76036400  1
  O  O96  1  0.15946200  0.69028900  0.26036400  1
  O  O97  1  0.84053800  0.53082700  0.23963600  1
  O  O98  1  0.69028900  0.53082700  0.73963600  1
  O  O99  1  0.30971100  0.84053800  0.76036400  1
  O  O100  1  0.30971100  0.46917300  0.26036400  1
  O  O101  1  0.69028900  0.15946200  0.23963600  1
  O  O102  1  0.53082700  0.69028900  0.76036400  1
  O  O103  1  0.46917300  0.30971100  0.23963600  1
