# generated using pymatgen
data_Na2LiMnF6
_symmetry_space_group_name_H-M   'P 1'
_cell_length_a   5.56071400
_cell_length_b   5.56071349
_cell_length_c   5.56071407
_cell_angle_alpha   59.99999796
_cell_angle_beta   60.00000039
_cell_angle_gamma   59.99999697
_symmetry_Int_Tables_number   1
_chemical_formula_structural   Na2LiMnF6
_chemical_formula_sum   'Na2 Li1 Mn1 F6'
_cell_volume   121.58405649
_cell_formula_units_Z   1
loop_
 _symmetry_equiv_pos_site_id
 _symmetry_equiv_pos_as_xyz
  1  'x, y, z'
loop_
 _atom_site_type_symbol
 _atom_site_label
 _atom_site_symmetry_multiplicity
 _atom_site_fract_x
 _atom_site_fract_y
 _atom_site_fract_z
 _atom_site_occupancy
  Na  Na0  1  0.25000000  0.25000000  0.25000000  1
  Na  Na1  1  0.75000000  0.75000000  0.75000000  1
  Li  Li2  1  0.50000000  0.50000000  0.50000000  1
  Mn  Mn3  1  0.00000000  0.00000000  0.00000000  1
  F  F4  1  0.24639600  0.75360400  0.24639600  1
  F  F5  1  0.75360400  0.75360400  0.24639600  1
  F  F6  1  0.75360400  0.24639600  0.75360400  1
  F  F7  1  0.75360400  0.24639600  0.24639600  1
  F  F8  1  0.24639600  0.75360400  0.75360400  1
  F  F9  1  0.24639600  0.24639600  0.75360400  1
