# generated using pymatgen
data_Lu2Cu(GeO3)4
_symmetry_space_group_name_H-M   'P 1'
_cell_length_a   4.97817800
_cell_length_b   7.14697894
_cell_length_c   7.92513899
_cell_angle_alpha   113.88104310
_cell_angle_beta   86.96001328
_cell_angle_gamma   102.45079062
_symmetry_Int_Tables_number   1
_chemical_formula_structural   Lu2Cu(GeO3)4
_chemical_formula_sum   'Lu2 Cu1 Ge4 O12'
_cell_volume   251.57911254
_cell_formula_units_Z   1
loop_
 _symmetry_equiv_pos_site_id
 _symmetry_equiv_pos_as_xyz
  1  'x, y, z'
loop_
 _atom_site_type_symbol
 _atom_site_label
 _atom_site_symmetry_multiplicity
 _atom_site_fract_x
 _atom_site_fract_y
 _atom_site_fract_z
 _atom_site_occupancy
  Lu  Lu0  1  0.96183800  0.77073600  0.54899600  1
  Lu  Lu1  1  0.03816200  0.22926400  0.45100400  1
  Cu  Cu2  1  0.00000000  0.00000000  0.00000000  1
  Ge  Ge3  1  0.41947500  0.62063500  0.79138200  1
  Ge  Ge4  1  0.58052500  0.37936500  0.20861800  1
  Ge  Ge5  1  0.54466500  0.16365100  0.77526900  1
  Ge  Ge6  1  0.45533500  0.83634900  0.22473100  1
  O  O7  1  0.74585700  0.77748200  0.79950800  1
  O  O8  1  0.25414300  0.22251800  0.20049200  1
  O  O9  1  0.73588500  0.29264000  0.99108300  1
  O  O10  1  0.26411500  0.70736000  0.00891700  1
  O  O11  1  0.79130200  0.42962500  0.39774600  1
  O  O12  1  0.20869800  0.57037500  0.60225400  1
  O  O13  1  0.75178200  0.01171400  0.20784900  1
  O  O14  1  0.24821800  0.98828600  0.79215100  1
  O  O15  1  0.41803300  0.34488800  0.71393800  1
  O  O16  1  0.58196700  0.65511200  0.28606200  1
  O  O17  1  0.78027500  0.06411800  0.60698300  1
  O  O18  1  0.21972500  0.93588200  0.39301700  1
