# generated using pymatgen
data_Mg5(C2O9)2
_symmetry_space_group_name_H-M   'P 1'
_cell_length_a   9.16771600
_cell_length_b   8.40362100
_cell_length_c   10.07962571
_cell_angle_alpha   65.84415685
_cell_angle_beta   90.00000000
_cell_angle_gamma   90.00000000
_symmetry_Int_Tables_number   1
_chemical_formula_structural   Mg5(C2O9)2
_chemical_formula_sum   'Mg10 C8 O36'
_cell_volume   708.55621987
_cell_formula_units_Z   2
loop_
 _symmetry_equiv_pos_site_id
 _symmetry_equiv_pos_as_xyz
  1  'x, y, z'
loop_
 _atom_site_type_symbol
 _atom_site_label
 _atom_site_symmetry_multiplicity
 _atom_site_fract_x
 _atom_site_fract_y
 _atom_site_fract_z
 _atom_site_occupancy
  Mg  Mg0  1  0.43474900  0.49149400  0.15051200  1
  Mg  Mg1  1  0.56525100  0.50850600  0.84948800  1
  Mg  Mg2  1  0.93474900  0.00850600  0.84948800  1
  Mg  Mg3  1  0.06525100  0.99149400  0.15051200  1
  Mg  Mg4  1  0.06761800  0.35805400  0.15222200  1
  Mg  Mg5  1  0.93238200  0.64194600  0.84777800  1
  Mg  Mg6  1  0.56761800  0.14194600  0.84777800  1
  Mg  Mg7  1  0.43238200  0.85805400  0.15222200  1
  Mg  Mg8  1  0.50000000  0.50000000  0.50000000  1
  Mg  Mg9  1  0.00000000  0.00000000  0.50000000  1
  C  C10  1  0.33173300  0.23729300  0.02326600  1
  C  C11  1  0.66826700  0.76270700  0.97673400  1
  C  C12  1  0.83173300  0.26270700  0.97673400  1
  C  C13  1  0.16826700  0.73729300  0.02326600  1
  C  C14  1  0.26707100  0.26984900  0.41648900  1
  C  C15  1  0.73292900  0.73015100  0.58351100  1
  C  C16  1  0.76707100  0.23015100  0.58351100  1
  C  C17  1  0.23292900  0.76984900  0.41648900  1
  O  O18  1  0.40049800  0.38117700  0.00313600  1
  O  O19  1  0.59950200  0.61882300  0.99686400  1
  O  O20  1  0.90049800  0.11882300  0.99686400  1
  O  O21  1  0.09950200  0.88117700  0.00313600  1
  O  O22  1  0.92068200  0.44984900  0.27438100  1
  O  O23  1  0.07931800  0.55015100  0.72561900  1
  O  O24  1  0.42068200  0.05015100  0.72561900  1
  O  O25  1  0.57931800  0.94984900  0.27438100  1
  O  O26  1  0.25597000  0.36192200  0.27616000  1
  O  O27  1  0.74403000  0.63807800  0.72384000  1
  O  O28  1  0.75597000  0.13807800  0.72384000  1
  O  O29  1  0.24403000  0.86192200  0.27616000  1
  O  O30  1  0.40007600  0.11384000  0.00252700  1
  O  O31  1  0.59992400  0.88616000  0.99747300  1
  O  O32  1  0.90007600  0.38616000  0.99747300  1
  O  O33  1  0.09992400  0.61384000  0.00252700  1
  O  O34  1  0.17341000  0.15469600  0.48467400  1
  O  O35  1  0.82659000  0.84530400  0.51532600  1
  O  O36  1  0.67341000  0.34530400  0.51532600  1
  O  O37  1  0.32659000  0.65469600  0.48467400  1
  O  O38  1  0.19834500  0.21695900  0.06502200  1
  O  O39  1  0.80165500  0.78304100  0.93497800  1
  O  O40  1  0.69834500  0.28304100  0.93497800  1
  O  O41  1  0.30165500  0.71695900  0.06502200  1
  O  O42  1  0.37625000  0.29601400  0.48522000  1
  O  O43  1  0.62375000  0.70398600  0.51478000  1
  O  O44  1  0.87625000  0.20398600  0.51478000  1
  O  O45  1  0.12375000  0.79601400  0.48522000  1
  O  O46  1  0.11151900  0.18834100  0.74802200  1
  O  O47  1  0.88848100  0.81165900  0.25197800  1
  O  O48  1  0.61151900  0.31165900  0.25197800  1
  O  O49  1  0.38848100  0.68834100  0.74802200  1
  O  O50  1  0.00211000  0.11035000  0.28186600  1
  O  O51  1  0.99789000  0.88965000  0.71813400  1
  O  O52  1  0.50211000  0.38965000  0.71813400  1
  O  O53  1  0.49789000  0.61035000  0.28186600  1
