# generated using pymatgen
data_Na3Ti2Mn3Si4(O8F)2
_symmetry_space_group_name_H-M   'P 1'
_cell_length_a   9.79386728
_cell_length_b   10.75579915
_cell_length_c   13.92723561
_cell_angle_alpha   107.45094411
_cell_angle_beta   90.00000000
_cell_angle_gamma   90.00000000
_symmetry_Int_Tables_number   1
_chemical_formula_structural   Na3Ti2Mn3Si4(O8F)2
_chemical_formula_sum   'Na12 Ti8 Mn12 Si16 O64 F8'
_cell_volume   1399.58212554
_cell_formula_units_Z   4
loop_
 _symmetry_equiv_pos_site_id
 _symmetry_equiv_pos_as_xyz
  1  'x, y, z'
loop_
 _atom_site_type_symbol
 _atom_site_label
 _atom_site_symmetry_multiplicity
 _atom_site_fract_x
 _atom_site_fract_y
 _atom_site_fract_z
 _atom_site_occupancy
  Na  Na0  1  0.60773286  0.20105695  0.98987182  1
  Na  Na1  1  0.39226714  0.79894305  0.01012818  1
  Na  Na2  1  0.10773286  0.29894305  0.51012818  1
  Na  Na3  1  0.89226714  0.70105695  0.48987182  1
  Na  Na4  1  0.38078849  0.42649283  0.91936474  1
  Na  Na5  1  0.61921151  0.57350717  0.08063526  1
  Na  Na6  1  0.88078849  0.07350717  0.58063526  1
  Na  Na7  1  0.11921151  0.92649283  0.41936474  1
  Na  Na8  1  0.12467693  0.92359395  0.92084125  1
  Na  Na9  1  0.87532307  0.07640605  0.07915875  1
  Na  Na10  1  0.62467693  0.57640605  0.57915875  1
  Na  Na11  1  0.37532307  0.42359395  0.42084125  1
  Ti  Ti12  1  0.40168154  0.77918510  0.75215060  1
  Ti  Ti13  1  0.59831846  0.22081490  0.24784940  1
  Ti  Ti14  1  0.90168154  0.72081490  0.74784940  1
  Ti  Ti15  1  0.09831846  0.27918510  0.25215060  1
  Ti  Ti16  1  0.10594594  0.28367210  0.76770355  1
  Ti  Ti17  1  0.89405406  0.71632790  0.23229645  1
  Ti  Ti18  1  0.60594594  0.21632790  0.73229645  1
  Ti  Ti19  1  0.39405406  0.78367210  0.26770355  1
  Mn  Mn20  1  0.38645925  0.80339129  0.51335441  1
  Mn  Mn21  1  0.61354075  0.19660871  0.48664559  1
  Mn  Mn22  1  0.88645925  0.69660871  0.98664559  1
  Mn  Mn23  1  0.11354075  0.30339129  0.01335441  1
  Mn  Mn24  1  0.37232937  0.43563422  0.67954562  1
  Mn  Mn25  1  0.62767063  0.56436578  0.32045438  1
  Mn  Mn26  1  0.87232937  0.06436578  0.82045438  1
  Mn  Mn27  1  0.12767063  0.93563422  0.17954562  1
  Mn  Mn28  1  0.13405406  0.93570722  0.68008950  1
  Mn  Mn29  1  0.86594594  0.06429278  0.31991050  1
  Mn  Mn30  1  0.63405406  0.56429278  0.81991050  1
  Mn  Mn31  1  0.36594594  0.43570722  0.18008950  1
  Si  Si32  1  0.34172416  0.11761152  0.85609189  1
  Si  Si33  1  0.65827584  0.88238848  0.14390811  1
  Si  Si34  1  0.84172416  0.38238848  0.64390811  1
  Si  Si35  1  0.15827584  0.61761152  0.35609189  1
  Si  Si36  1  0.66870920  0.87814284  0.64282952  1
  Si  Si37  1  0.33129080  0.12185716  0.35717048  1
  Si  Si38  1  0.16870920  0.62185716  0.85717048  1
  Si  Si39  1  0.83129080  0.37814284  0.14282952  1
  Si  Si40  1  0.16550969  0.61425576  0.58510595  1
  Si  Si41  1  0.83449031  0.38574424  0.41489405  1
  Si  Si42  1  0.66550969  0.88574424  0.91489405  1
  Si  Si43  1  0.33449031  0.11425576  0.08510595  1
  Si  Si44  1  0.33616234  0.12115521  0.58569225  1
  Si  Si45  1  0.66383766  0.87884479  0.41430775  1
  Si  Si46  1  0.83616234  0.37884479  0.91430775  1
  Si  Si47  1  0.16383766  0.62115521  0.08569225  1
  O  O48  1  0.51987175  0.38181733  0.27588752  1
  O  O49  1  0.48012825  0.61818267  0.72411248  1
  O  O50  1  0.01987175  0.11818267  0.22411248  1
  O  O51  1  0.98012825  0.88181733  0.77588752  1
  O  O52  1  0.22108142  0.47484066  0.79917686  1
  O  O53  1  0.77891858  0.52515934  0.20082314  1
  O  O54  1  0.72108142  0.02515934  0.70082314  1
  O  O55  1  0.27891858  0.97484066  0.29917686  1
  O  O56  1  0.02872477  0.12206750  0.73688938  1
  O  O57  1  0.97127523  0.87793250  0.26311062  1
  O  O58  1  0.52872477  0.37793250  0.76311062  1
  O  O59  1  0.47127523  0.62206750  0.23688938  1
  O  O60  1  0.50632974  0.84452920  0.65086740  1
  O  O61  1  0.49367026  0.15547080  0.34913260  1
  O  O62  1  0.00632974  0.65547080  0.84913260  1
  O  O63  1  0.99367026  0.34452920  0.15086740  1
  O  O64  1  0.23599749  0.24167143  0.87243452  1
  O  O65  1  0.76400251  0.75832857  0.12756548  1
  O  O66  1  0.73599749  0.25832857  0.62756548  1
  O  O67  1  0.26400251  0.74167143  0.37243452  1
  O  O68  1  0.74629338  0.01943414  0.92151336  1
  O  O69  1  0.25370662  0.98056586  0.07848664  1
  O  O70  1  0.24629338  0.48056586  0.57848664  1
  O  O71  1  0.75370662  0.51943414  0.42151336  1
  O  O72  1  0.75959767  0.76297416  0.66759767  1
  O  O73  1  0.24040233  0.23702584  0.33240233  1
  O  O74  1  0.25959767  0.73702584  0.83240233  1
  O  O75  1  0.74040233  0.26297416  0.16759767  1
  O  O76  1  0.27268425  0.97802826  0.57779856  1
  O  O77  1  0.72731575  0.02197174  0.42220144  1
  O  O78  1  0.77268425  0.52197174  0.92220144  1
  O  O79  1  0.22731575  0.47802826  0.07779856  1
  O  O80  1  0.37811230  0.11234528  0.97034262  1
  O  O81  1  0.62188770  0.88765472  0.02965738  1
  O  O82  1  0.87811230  0.38765472  0.52965738  1
  O  O83  1  0.12188770  0.61234528  0.47034262  1
  O  O84  1  0.48704596  0.15329193  0.81321495  1
  O  O85  1  0.51295404  0.84670807  0.18678505  1
  O  O86  1  0.98704596  0.34670807  0.68678505  1
  O  O87  1  0.01295404  0.65329193  0.31321495  1
  O  O88  1  0.19753303  0.65160434  0.97938588  1
  O  O89  1  0.80246697  0.34839566  0.02061412  1
  O  O90  1  0.69753303  0.84839566  0.52061412  1
  O  O91  1  0.30246697  0.15160434  0.47938588  1
  O  O92  1  0.00222162  0.36735721  0.89669813  1
  O  O93  1  0.99777838  0.63264279  0.10330187  1
  O  O94  1  0.50222162  0.13264279  0.60330187  1
  O  O95  1  0.49777838  0.86735721  0.39669813  1
  O  O96  1  0.27746357  0.97641247  0.79114168  1
  O  O97  1  0.72253643  0.02358753  0.20885832  1
  O  O98  1  0.77746357  0.52358753  0.70885832  1
  O  O99  1  0.22253643  0.47641247  0.29114168  1
  O  O100  1  0.25953238  0.74631140  0.63215491  1
  O  O101  1  0.74046762  0.25368860  0.36784509  1
  O  O102  1  0.75953238  0.75368860  0.86784509  1
  O  O103  1  0.24046762  0.24631140  0.13215491  1
  O  O104  1  0.51929916  0.86669973  0.85510679  1
  O  O105  1  0.48070084  0.13330027  0.14489321  1
  O  O106  1  0.01929916  0.63330027  0.64489321  1
  O  O107  1  0.98070084  0.36669973  0.35510679  1
  O  O108  1  0.25869401  0.24198625  0.66906103  1
  O  O109  1  0.74130599  0.75801375  0.33093897  1
  O  O110  1  0.75869401  0.25801375  0.83093897  1
  O  O111  1  0.24130599  0.74198625  0.16906103  1
  F  F112  1  0.01463803  0.12185722  0.95667272  1
  F  F113  1  0.98536197  0.87814278  0.04332728  1
  F  F114  1  0.51463803  0.37814278  0.54332728  1
  F  F115  1  0.48536197  0.62185722  0.45667272  1
  F  F116  1  0.00798897  0.89040417  0.55824771  1
  F  F117  1  0.99201103  0.10959583  0.44175229  1
  F  F118  1  0.50798897  0.60959583  0.94175229  1
  F  F119  1  0.49201103  0.39040417  0.05824771  1
