# generated using pymatgen
data_Ni5P4(O8F)2
_symmetry_space_group_name_H-M   'P 1'
_cell_length_a   10.08189667
_cell_length_b   10.08189667
_cell_length_c   9.84650200
_cell_angle_alpha   90.00000000
_cell_angle_beta   90.00000000
_cell_angle_gamma   130.31718075
_symmetry_Int_Tables_number   1
_chemical_formula_structural   Ni5P4(O8F)2
_chemical_formula_sum   'Ni10 P8 O32 F4'
_cell_volume   763.11799619
_cell_formula_units_Z   2
loop_
 _symmetry_equiv_pos_site_id
 _symmetry_equiv_pos_as_xyz
  1  'x, y, z'
loop_
 _atom_site_type_symbol
 _atom_site_label
 _atom_site_symmetry_multiplicity
 _atom_site_fract_x
 _atom_site_fract_y
 _atom_site_fract_z
 _atom_site_occupancy
  Ni  Ni0  1  0.03232400  0.37650000  0.06439600  1
  Ni  Ni1  1  0.37650000  0.03232400  0.93560400  1
  Ni  Ni2  1  0.87650000  0.53232400  0.56439600  1
  Ni  Ni3  1  0.53232400  0.87650000  0.43560400  1
  Ni  Ni4  1  0.99515100  0.99515100  0.00000000  1
  Ni  Ni5  1  0.49515100  0.49515100  0.50000000  1
  Ni  Ni6  1  0.14948000  0.52266000  0.42088900  1
  Ni  Ni7  1  0.52266000  0.14948000  0.57911100  1
  Ni  Ni8  1  0.02266000  0.64948000  0.92088900  1
  Ni  Ni9  1  0.64948000  0.02266000  0.07911100  1
  P  P10  1  0.22403200  0.28349200  0.25080700  1
  P  P11  1  0.28349200  0.22403200  0.74919300  1
  P  P12  1  0.78349200  0.72403200  0.75080700  1
  P  P13  1  0.72403200  0.78349200  0.24919300  1
  P  P14  1  0.80699200  0.25577100  0.35102400  1
  P  P15  1  0.25577100  0.80699200  0.64897600  1
  P  P16  1  0.75577100  0.30699200  0.85102400  1
  P  P17  1  0.30699200  0.75577100  0.14897600  1
  O  O18  1  0.97098000  0.75351700  0.47995400  1
  O  O19  1  0.75351700  0.97098000  0.52004600  1
  O  O20  1  0.25351700  0.47098000  0.97995400  1
  O  O21  1  0.47098000  0.25351700  0.02004600  1
  O  O22  1  0.72545800  0.42270100  0.92714900  1
  O  O23  1  0.42270100  0.72545800  0.07285100  1
  O  O24  1  0.92270100  0.22545800  0.42714900  1
  O  O25  1  0.22545800  0.92270100  0.57285100  1
  O  O26  1  0.80828900  0.24055600  0.19356100  1
  O  O27  1  0.24055600  0.80828900  0.80643900  1
  O  O28  1  0.74055600  0.30828900  0.69356100  1
  O  O29  1  0.30828900  0.74055600  0.30643900  1
  O  O30  1  0.66415000  0.64738000  0.35087600  1
  O  O31  1  0.64738000  0.66415000  0.64912400  1
  O  O32  1  0.14738000  0.16415000  0.85087600  1
  O  O33  1  0.16415000  0.14738000  0.14912400  1
  O  O34  1  0.83861800  0.81067800  0.13853700  1
  O  O35  1  0.81067800  0.83861800  0.86146300  1
  O  O36  1  0.31067800  0.33861800  0.63853700  1
  O  O37  1  0.33861800  0.31067800  0.36146300  1
  O  O38  1  0.17233100  0.39358300  0.24102100  1
  O  O39  1  0.39358300  0.17233100  0.75897900  1
  O  O40  1  0.89358300  0.67233100  0.74102100  1
  O  O41  1  0.67233100  0.89358300  0.25897900  1
  O  O42  1  0.11677800  0.62526000  0.09603800  1
  O  O43  1  0.62526000  0.11677800  0.90396200  1
  O  O44  1  0.12526000  0.61677800  0.59603800  1
  O  O45  1  0.61677800  0.12526000  0.40396200  1
  O  O46  1  0.90234400  0.44958200  0.38525500  1
  O  O47  1  0.44958200  0.90234400  0.61474500  1
  O  O48  1  0.94958200  0.40234400  0.88525500  1
  O  O49  1  0.40234400  0.94958200  0.11474500  1
  F  F50  1  0.88845800  0.11020500  0.02091700  1
  F  F51  1  0.11020500  0.88845800  0.97908300  1
  F  F52  1  0.61020500  0.38845800  0.52091700  1
  F  F53  1  0.38845800  0.61020500  0.47908300  1
