# generated using pymatgen
data_Na2P2H3(SO2)2
_symmetry_space_group_name_H-M   'P 1'
_cell_length_a   8.68114662
_cell_length_b   8.50140083
_cell_length_c   14.48908295
_cell_angle_alpha   104.82689751
_cell_angle_beta   89.81946902
_cell_angle_gamma   117.56995846
_symmetry_Int_Tables_number   1
_chemical_formula_structural   Na2P2H3(SO2)2
_chemical_formula_sum   'Na8 P8 H12 S8 O16'
_cell_volume   908.00421031
_cell_formula_units_Z   4
loop_
 _symmetry_equiv_pos_site_id
 _symmetry_equiv_pos_as_xyz
  1  'x, y, z'
loop_
 _atom_site_type_symbol
 _atom_site_label
 _atom_site_symmetry_multiplicity
 _atom_site_fract_x
 _atom_site_fract_y
 _atom_site_fract_z
 _atom_site_occupancy
  Na  Na0  1  0.04303700  0.26206800  0.09706800  1
  Na  Na1  1  0.95696300  0.73793200  0.90293200  1
  Na  Na2  1  0.87923600  0.05135100  0.28032800  1
  Na  Na3  1  0.12076400  0.94864900  0.71967200  1
  Na  Na4  1  0.21562300  0.00846100  0.45966300  1
  Na  Na5  1  0.78437700  0.99153900  0.54033700  1
  Na  Na6  1  0.72221800  0.36461100  0.23481300  1
  Na  Na7  1  0.27778200  0.63538900  0.76518700  1
  P  P8  1  0.12134800  0.31965600  0.50466300  1
  P  P9  1  0.87865200  0.68034400  0.49533700  1
  P  P10  1  0.33713000  0.04281200  0.11405300  1
  P  P11  1  0.66287000  0.95718800  0.88594700  1
  P  P12  1  0.10150500  0.53503600  0.37829600  1
  P  P13  1  0.89849500  0.46496400  0.62170400  1
  P  P14  1  0.39329000  0.08836100  0.91599800  1
  P  P15  1  0.60671000  0.91163900  0.08400200  1
  H  H16  1  0.30386500  0.45671800  0.03018500  1
  H  H17  1  0.69613500  0.54328200  0.96981500  1
  H  H18  1  0.47051600  0.17123900  0.39162300  1
  H  H19  1  0.52948400  0.82876100  0.60837700  1
  H  H20  1  0.02435800  0.43964900  0.87285000  1
  H  H21  1  0.97564200  0.56035100  0.12715000  1
  H  H22  1  0.39915500  0.11014700  0.63331900  1
  H  H23  1  0.60084500  0.88985300  0.36668100  1
  H  H24  1  0.99375000  0.82186400  0.26610500  1
  H  H25  1  0.00625000  0.17813600  0.73389500  1
  H  H26  1  0.21823000  0.28662600  0.24627300  1
  H  H27  1  0.78177000  0.71337400  0.75372700  1
  S  S28  1  0.39318300  0.27445600  0.85974200  1
  S  S29  1  0.60681700  0.72554500  0.14025800  1
  S  S30  1  0.30046600  0.36005000  0.60330600  1
  S  S31  1  0.69953400  0.63995000  0.39669400  1
  S  S32  1  0.07571900  0.90076200  0.10522600  1
  S  S33  1  0.92428100  0.09923800  0.89477400  1
  S  S34  1  0.27458400  0.66427700  0.30058100  1
  S  S35  1  0.72541600  0.33572300  0.69941900  1
  O  O36  1  0.05646800  0.68830200  0.45068200  1
  O  O37  1  0.94353200  0.31169800  0.54931800  1
  O  O38  1  0.43331600  0.18243100  0.20790400  1
  O  O39  1  0.56668400  0.81756900  0.79209500  1
  O  O40  1  0.04659000  0.13819900  0.42572200  1
  O  O41  1  0.95341000  0.86180100  0.57427800  1
  O  O42  1  0.38694900  0.15367300  0.03160300  1
  O  O43  1  0.61305100  0.84632700  0.96839700  1
  O  O44  1  0.41023400  0.89496700  0.08011700  1
  O  O45  1  0.58976600  0.10503300  0.91988300  1
  O  O46  1  0.74586300  0.11144600  0.12741600  1
  O  O47  1  0.25413700  0.88855400  0.87258400  1
  O  O48  1  0.06699200  0.63672100  0.66981100  1
  O  O49  1  0.93300800  0.36327900  0.33018900  1
  O  O50  1  0.19569800  0.49477400  0.46107300  1
  O  O51  1  0.80430200  0.50522600  0.53892700  1
