# generated using pymatgen
data_MnBi2O5
_symmetry_space_group_name_H-M   'P 1'
_cell_length_a   6.55987400
_cell_length_b   7.34743400
_cell_length_c   9.71831100
_cell_angle_alpha   90.00000000
_cell_angle_beta   90.00000000
_cell_angle_gamma   90.00000000
_symmetry_Int_Tables_number   1
_chemical_formula_structural   MnBi2O5
_chemical_formula_sum   'Mn4 Bi8 O20'
_cell_volume   468.40549825
_cell_formula_units_Z   4
loop_
 _symmetry_equiv_pos_site_id
 _symmetry_equiv_pos_as_xyz
  1  'x, y, z'
loop_
 _atom_site_type_symbol
 _atom_site_label
 _atom_site_symmetry_multiplicity
 _atom_site_fract_x
 _atom_site_fract_y
 _atom_site_fract_z
 _atom_site_occupancy
  Mn  Mn0  1  0.50000000  0.35696200  0.38523200  1
  Mn  Mn1  1  0.50000000  0.64303800  0.61476800  1
  Mn  Mn2  1  0.50000000  0.14303800  0.88523200  1
  Mn  Mn3  1  0.50000000  0.85696200  0.11476800  1
  Bi  Bi4  1  0.00000000  0.04333000  0.16727500  1
  Bi  Bi5  1  0.00000000  0.95667000  0.83272500  1
  Bi  Bi6  1  0.00000000  0.45667000  0.66727500  1
  Bi  Bi7  1  0.00000000  0.54333000  0.33272500  1
  Bi  Bi8  1  0.25530600  0.00000000  0.50000000  1
  Bi  Bi9  1  0.74469400  0.00000000  0.50000000  1
  Bi  Bi10  1  0.74469400  0.50000000  0.00000000  1
  Bi  Bi11  1  0.25530600  0.50000000  0.00000000  1
  O  O12  1  0.26060900  0.00000000  0.00000000  1
  O  O13  1  0.73939100  0.00000000  0.00000000  1
  O  O14  1  0.73939100  0.50000000  0.50000000  1
  O  O15  1  0.26060900  0.50000000  0.50000000  1
  O  O16  1  0.00000000  0.34599000  0.09818900  1
  O  O17  1  0.00000000  0.65401000  0.90181100  1
  O  O18  1  0.00000000  0.15401000  0.59818900  1
  O  O19  1  0.00000000  0.84599000  0.40181100  1
  O  O20  1  0.50000000  0.33063900  0.07584000  1
  O  O21  1  0.50000000  0.66936100  0.92416000  1
  O  O22  1  0.50000000  0.16936100  0.57584000  1
  O  O23  1  0.50000000  0.83063900  0.42416000  1
  O  O24  1  0.25138300  0.16481700  0.32260100  1
  O  O25  1  0.74861700  0.83518300  0.67739900  1
  O  O26  1  0.25138300  0.83518300  0.67739900  1
  O  O27  1  0.74861700  0.33518300  0.82260100  1
  O  O28  1  0.74861700  0.16481700  0.32260100  1
  O  O29  1  0.25138300  0.66481700  0.17739900  1
  O  O30  1  0.74861700  0.66481700  0.17739900  1
  O  O31  1  0.25138300  0.33518300  0.82260100  1
