# generated using pymatgen
data_Lu3CrS6
_symmetry_space_group_name_H-M   'P 1'
_cell_length_a   3.70368300
_cell_length_b   13.04339400
_cell_length_c   15.79745900
_cell_angle_alpha   90.00000000
_cell_angle_beta   90.00000000
_cell_angle_gamma   90.00000000
_symmetry_Int_Tables_number   1
_chemical_formula_structural   Lu3CrS6
_chemical_formula_sum   'Lu12 Cr4 S24'
_cell_volume   763.15307445
_cell_formula_units_Z   4
loop_
 _symmetry_equiv_pos_site_id
 _symmetry_equiv_pos_as_xyz
  1  'x, y, z'
loop_
 _atom_site_type_symbol
 _atom_site_label
 _atom_site_symmetry_multiplicity
 _atom_site_fract_x
 _atom_site_fract_y
 _atom_site_fract_z
 _atom_site_occupancy
  Lu  Lu0  1  0.00000000  0.54965000  0.28100600  1
  Lu  Lu1  1  0.00000000  0.45035000  0.71899400  1
  Lu  Lu2  1  0.50000000  0.95035000  0.78100600  1
  Lu  Lu3  1  0.50000000  0.04965000  0.21899400  1
  Lu  Lu4  1  0.00000000  0.75178800  0.09791900  1
  Lu  Lu5  1  0.00000000  0.24821200  0.90208100  1
  Lu  Lu6  1  0.50000000  0.74821200  0.59791900  1
  Lu  Lu7  1  0.50000000  0.25178800  0.40208100  1
  Lu  Lu8  1  0.00000000  0.32005900  0.14927400  1
  Lu  Lu9  1  0.00000000  0.67994100  0.85072600  1
  Lu  Lu10  1  0.50000000  0.17994100  0.64927400  1
  Lu  Lu11  1  0.50000000  0.82005900  0.35072600  1
  Cr  Cr12  1  0.00000000  0.00000000  0.50000000  1
  Cr  Cr13  1  0.50000000  0.50000000  0.00000000  1
  Cr  Cr14  1  0.00000000  0.00000000  0.00000000  1
  Cr  Cr15  1  0.50000000  0.50000000  0.50000000  1
  S  S16  1  0.00000000  0.12133100  0.10912800  1
  S  S17  1  0.00000000  0.87866900  0.89087200  1
  S  S18  1  0.50000000  0.37866900  0.60912800  1
  S  S19  1  0.50000000  0.62133100  0.39087200  1
  S  S20  1  0.00000000  0.18806400  0.28903700  1
  S  S21  1  0.00000000  0.81193600  0.71096300  1
  S  S22  1  0.50000000  0.31193600  0.78903700  1
  S  S23  1  0.50000000  0.68806400  0.21096300  1
  S  S24  1  0.00000000  0.18181700  0.52262900  1
  S  S25  1  0.00000000  0.81818300  0.47737100  1
  S  S26  1  0.50000000  0.31818300  0.02262900  1
  S  S27  1  0.50000000  0.68181700  0.97737100  1
  S  S28  1  0.00000000  0.52370400  0.09879100  1
  S  S29  1  0.00000000  0.47629600  0.90120900  1
  S  S30  1  0.50000000  0.97629600  0.59879100  1
  S  S31  1  0.50000000  0.02370400  0.40120900  1
  S  S32  1  0.00000000  0.10330000  0.75395000  1
  S  S33  1  0.00000000  0.89670000  0.24605000  1
  S  S34  1  0.50000000  0.39670000  0.25395000  1
  S  S35  1  0.50000000  0.60330000  0.74605000  1
  S  S36  1  0.00000000  0.41513300  0.42315700  1
  S  S37  1  0.00000000  0.58486700  0.57684300  1
  S  S38  1  0.50000000  0.08486700  0.92315700  1
  S  S39  1  0.50000000  0.91513300  0.07684300  1
