# generated using pymatgen
data_LuTl(MoO4)2
_symmetry_space_group_name_H-M   'P 1'
_cell_length_a   6.09698300
_cell_length_b   15.15586400
_cell_length_c   9.05117800
_cell_angle_alpha   90.00000000
_cell_angle_beta   90.00000000
_cell_angle_gamma   90.00000000
_symmetry_Int_Tables_number   1
_chemical_formula_structural   LuTl(MoO4)2
_chemical_formula_sum   'Lu4 Tl4 Mo8 O32'
_cell_volume   836.37451183
_cell_formula_units_Z   4
loop_
 _symmetry_equiv_pos_site_id
 _symmetry_equiv_pos_as_xyz
  1  'x, y, z'
loop_
 _atom_site_type_symbol
 _atom_site_label
 _atom_site_symmetry_multiplicity
 _atom_site_fract_x
 _atom_site_fract_y
 _atom_site_fract_z
 _atom_site_occupancy
  Lu  Lu0  1  0.75000000  0.89368100  0.69498600  1
  Lu  Lu1  1  0.25000000  0.10631900  0.30501400  1
  Lu  Lu2  1  0.25000000  0.60631900  0.19498600  1
  Lu  Lu3  1  0.75000000  0.39368100  0.80501400  1
  Tl  Tl4  1  0.75000000  0.62539200  0.55566500  1
  Tl  Tl5  1  0.25000000  0.37460800  0.44433500  1
  Tl  Tl6  1  0.25000000  0.87460800  0.05566500  1
  Tl  Tl7  1  0.75000000  0.12539200  0.94433500  1
  Mo  Mo8  1  0.75000000  0.96125300  0.28312200  1
  Mo  Mo9  1  0.25000000  0.03874700  0.71687800  1
  Mo  Mo10  1  0.25000000  0.53874700  0.78312200  1
  Mo  Mo11  1  0.75000000  0.46125300  0.21687800  1
  Mo  Mo12  1  0.75000000  0.71625300  0.99726100  1
  Mo  Mo13  1  0.25000000  0.28374700  0.00273900  1
  Mo  Mo14  1  0.25000000  0.78374700  0.49726100  1
  Mo  Mo15  1  0.75000000  0.21625300  0.50273900  1
  O  O16  1  0.75000000  0.85231400  0.21866700  1
  O  O17  1  0.25000000  0.14768600  0.78133300  1
  O  O18  1  0.25000000  0.64768600  0.71866700  1
  O  O19  1  0.75000000  0.35231400  0.28133300  1
  O  O20  1  0.75000000  0.96331900  0.48091400  1
  O  O21  1  0.25000000  0.03668100  0.51908600  1
  O  O22  1  0.25000000  0.53668100  0.98091400  1
  O  O23  1  0.75000000  0.46331900  0.01908600  1
  O  O24  1  0.75000000  0.63967400  0.85261600  1
  O  O25  1  0.25000000  0.36032600  0.14738400  1
  O  O26  1  0.25000000  0.86032600  0.35261600  1
  O  O27  1  0.75000000  0.13967400  0.64738400  1
  O  O28  1  0.75000000  0.82384700  0.90762200  1
  O  O29  1  0.25000000  0.17615300  0.09237800  1
  O  O30  1  0.25000000  0.67615300  0.40762200  1
  O  O31  1  0.75000000  0.32384700  0.59237800  1
  O  O32  1  0.00203900  0.80483800  0.60281300  1
  O  O33  1  0.99796100  0.19516200  0.39718700  1
  O  O34  1  0.99796100  0.69516200  0.10281300  1
  O  O35  1  0.50203900  0.19516200  0.39718700  1
  O  O36  1  0.00203900  0.30483800  0.89718700  1
  O  O37  1  0.49796100  0.80483800  0.60281300  1
  O  O38  1  0.49796100  0.30483800  0.89718700  1
  O  O39  1  0.50203900  0.69516200  0.10281300  1
  O  O40  1  0.49093000  0.98124300  0.78853700  1
  O  O41  1  0.50907000  0.01875700  0.21146300  1
  O  O42  1  0.50907000  0.51875700  0.28853700  1
  O  O43  1  0.99093000  0.01875700  0.21146300  1
  O  O44  1  0.49093000  0.48124300  0.71146300  1
  O  O45  1  0.00907000  0.98124300  0.78853700  1
  O  O46  1  0.00907000  0.48124300  0.71146300  1
  O  O47  1  0.99093000  0.51875700  0.28853700  1
