# generated using pymatgen
data_Rb2VAgSe2
_symmetry_space_group_name_H-M   'P 1'
_cell_length_a   11.05846900
_cell_length_b   7.16209352
_cell_length_c   21.47001561
_cell_angle_alpha   78.53209778
_cell_angle_beta   75.07627769
_cell_angle_gamma   39.46492812
_symmetry_Int_Tables_number   1
_chemical_formula_structural   Rb2VAgSe2
_chemical_formula_sum   'Rb8 V4 Ag4 Se8'
_cell_volume   1044.36780190
_cell_formula_units_Z   4
loop_
 _symmetry_equiv_pos_site_id
 _symmetry_equiv_pos_as_xyz
  1  'x, y, z'
loop_
 _atom_site_type_symbol
 _atom_site_label
 _atom_site_symmetry_multiplicity
 _atom_site_fract_x
 _atom_site_fract_y
 _atom_site_fract_z
 _atom_site_occupancy
  Rb  Rb0  1  0.85933700  0.05280800  0.61087400  1
  Rb  Rb1  1  0.52978900  0.94719200  0.61087400  1
  Rb  Rb2  1  0.08785500  0.05280800  0.38912600  1
  Rb  Rb3  1  0.89066300  0.44719200  0.88912600  1
  Rb  Rb4  1  0.52301900  0.94719200  0.38912600  1
  Rb  Rb5  1  0.22021100  0.55280800  0.88912600  1
  Rb  Rb6  1  0.66214500  0.44719200  0.11087400  1
  Rb  Rb7  1  0.22698100  0.55280800  0.11087400  1
  V  V8  1  0.87500000  0.25000000  0.25000000  1
  V  V9  1  0.87500000  0.75000000  0.25000000  1
  V  V10  1  0.87500000  0.25000000  0.75000000  1
  V  V11  1  0.37500000  0.75000000  0.75000000  1
  Ag  Ag12  1  0.37500000  0.25000000  0.25000000  1
  Ag  Ag13  1  0.37500000  0.75000000  0.25000000  1
  Ag  Ag14  1  0.37500000  0.25000000  0.75000000  1
  Ag  Ag15  1  0.87500000  0.75000000  0.75000000  1
  Se  Se16  1  0.12544100  0.21302500  0.19272200  1
  Se  Se17  1  0.68183700  0.78697500  0.19272200  1
  Se  Se18  1  0.66153400  0.21302500  0.80727800  1
  Se  Se19  1  0.62455900  0.28697500  0.30727800  1
  Se  Se20  1  0.53118800  0.78697500  0.80727800  1
  Se  Se21  1  0.06816300  0.71302500  0.30727800  1
  Se  Se22  1  0.08846600  0.28697500  0.69272200  1
  Se  Se23  1  0.21881200  0.71302500  0.69272200  1
