# generated using pymatgen
data_Na3Mg5Si8(HO12)2
_symmetry_space_group_name_H-M   'P 1'
_cell_length_a   18.28244100
_cell_length_b   5.34739300
_cell_length_c   10.00307688
_cell_angle_alpha   76.77494962
_cell_angle_beta   90.00000000
_cell_angle_gamma   90.00000000
_symmetry_Int_Tables_number   1
_chemical_formula_structural   Na3Mg5Si8(HO12)2
_chemical_formula_sum   'Na6 Mg10 Si16 H4 O48'
_cell_volume   951.99894111
_cell_formula_units_Z   2
loop_
 _symmetry_equiv_pos_site_id
 _symmetry_equiv_pos_as_xyz
  1  'x, y, z'
loop_
 _atom_site_type_symbol
 _atom_site_label
 _atom_site_symmetry_multiplicity
 _atom_site_fract_x
 _atom_site_fract_y
 _atom_site_fract_z
 _atom_site_occupancy
  Na  Na0  1  0.25000000  0.44677200  0.27214300  1
  Na  Na1  1  0.75000000  0.55322800  0.72785700  1
  Na  Na2  1  0.47673700  0.98242000  0.25941800  1
  Na  Na3  1  0.52326300  0.01758000  0.74058200  1
  Na  Na4  1  0.97673700  0.01758000  0.74058200  1
  Na  Na5  1  0.02326300  0.98242000  0.25941800  1
  Mg  Mg6  1  0.83921200  0.98580000  0.24667500  1
  Mg  Mg7  1  0.16078800  0.01420000  0.75332500  1
  Mg  Mg8  1  0.33921200  0.01420000  0.75332500  1
  Mg  Mg9  1  0.66078800  0.98580000  0.24667500  1
  Mg  Mg10  1  0.92904100  0.48727100  0.24963300  1
  Mg  Mg11  1  0.07095900  0.51272900  0.75036700  1
  Mg  Mg12  1  0.42904100  0.51272900  0.75036700  1
  Mg  Mg13  1  0.57095900  0.48727100  0.24963300  1
  Mg  Mg14  1  0.25000000  0.51506400  0.75397000  1
  Mg  Mg15  1  0.75000000  0.48493600  0.24603000  1
  Si  Si16  1  0.33419000  0.80116900  0.47459100  1
  Si  Si17  1  0.66581000  0.19883100  0.52540900  1
  Si  Si18  1  0.83419000  0.19883100  0.52540900  1
  Si  Si19  1  0.16581000  0.80116900  0.47459100  1
  Si  Si20  1  0.41831800  0.30750600  0.46476200  1
  Si  Si21  1  0.58168200  0.69249400  0.53523800  1
  Si  Si22  1  0.91831800  0.69249400  0.53523800  1
  Si  Si23  1  0.08168200  0.30750600  0.46476200  1
  Si  Si24  1  0.41922800  0.72046300  0.03805200  1
  Si  Si25  1  0.58077200  0.27953700  0.96194800  1
  Si  Si26  1  0.91922800  0.27953700  0.96194800  1
  Si  Si27  1  0.08077200  0.72046300  0.03805200  1
  Si  Si28  1  0.33491200  0.22888200  0.03008200  1
  Si  Si29  1  0.66508800  0.77111800  0.96991800  1
  Si  Si30  1  0.83491200  0.77111800  0.96991800  1
  Si  Si31  1  0.16508800  0.22888200  0.03008200  1
  H  H32  1  0.25000000  0.75530800  0.95909100  1
  H  H33  1  0.75000000  0.24469200  0.04090900  1
  H  H34  1  0.25000000  0.26638800  0.55161800  1
  H  H35  1  0.75000000  0.73361200  0.44838200  1
  O  O36  1  0.37897300  0.59545000  0.40536800  1
  O  O37  1  0.62102700  0.40455000  0.59463200  1
  O  O38  1  0.87897300  0.40455000  0.59463200  1
  O  O39  1  0.12102700  0.59545000  0.40536800  1
  O  O40  1  0.36910700  0.45603900  0.09808900  1
  O  O41  1  0.63089300  0.54396100  0.90191100  1
  O  O42  1  0.86910700  0.54396100  0.90191100  1
  O  O43  1  0.13089300  0.45603900  0.09808900  1
  O  O44  1  0.25000000  0.20632200  0.09063700  1
  O  O45  1  0.75000000  0.79367800  0.90936300  1
  O  O46  1  0.86120900  0.90094400  0.58925300  1
  O  O47  1  0.13879100  0.09905600  0.41074700  1
  O  O48  1  0.36120900  0.09905600  0.41074700  1
  O  O49  1  0.63879100  0.90094400  0.58925300  1
  O  O50  1  0.25000000  0.22239400  0.65064800  1
  O  O51  1  0.75000000  0.77760600  0.34935200  1
  O  O52  1  0.91790700  0.76223500  0.36898300  1
  O  O53  1  0.08209300  0.23776500  0.63101700  1
  O  O54  1  0.41790700  0.23776500  0.63101700  1
  O  O55  1  0.58209300  0.76223500  0.36898300  1
  O  O56  1  0.25000000  0.80418900  0.85994900  1
  O  O57  1  0.75000000  0.19581100  0.14005100  1
  O  O58  1  0.33638800  0.72844400  0.64053400  1
  O  O59  1  0.66361200  0.27155600  0.35946600  1
  O  O60  1  0.83638800  0.27155600  0.35946600  1
  O  O61  1  0.16361200  0.72844400  0.64053400  1
  O  O62  1  0.25000000  0.78124600  0.41563600  1
  O  O63  1  0.75000000  0.21875400  0.58436400  1
  O  O64  1  0.83655700  0.69878400  0.13574800  1
  O  O65  1  0.16344300  0.30121600  0.86425200  1
  O  O66  1  0.33655700  0.30121600  0.86425200  1
  O  O67  1  0.66344300  0.69878400  0.13574800  1
  O  O68  1  0.37461000  0.95277100  0.09421500  1
  O  O69  1  0.62539000  0.04722900  0.90578500  1
  O  O70  1  0.87461000  0.04722900  0.90578500  1
  O  O71  1  0.12539000  0.95277100  0.09421500  1
  O  O72  1  0.50522800  0.70218300  0.61383500  1
  O  O73  1  0.49477200  0.29781700  0.38616500  1
  O  O74  1  0.00522800  0.29781700  0.38616500  1
  O  O75  1  0.99477200  0.70218300  0.61383500  1
  O  O76  1  0.49651500  0.68772000  0.11742400  1
  O  O77  1  0.50348500  0.31228000  0.88257600  1
  O  O78  1  0.99651500  0.31228000  0.88257600  1
  O  O79  1  0.00348500  0.68772000  0.11742400  1
  O  O80  1  0.41913600  0.78801700  0.87152300  1
  O  O81  1  0.58086400  0.21198300  0.12847700  1
  O  O82  1  0.91913600  0.21198300  0.12847700  1
  O  O83  1  0.08086400  0.78801700  0.87152300  1
