# generated using pymatgen
data_NaFeBP2O11
_symmetry_space_group_name_H-M   'P 1'
_cell_length_a   9.38960125
_cell_length_b   9.38960125
_cell_length_c   15.91883100
_cell_angle_alpha   90.00000000
_cell_angle_beta   90.00000000
_cell_angle_gamma   119.99999473
_symmetry_Int_Tables_number   1
_chemical_formula_structural   NaFeBP2O11
_chemical_formula_sum   'Na6 Fe6 B6 P12 O66'
_cell_volume   1215.44727946
_cell_formula_units_Z   6
loop_
 _symmetry_equiv_pos_site_id
 _symmetry_equiv_pos_as_xyz
  1  'x, y, z'
loop_
 _atom_site_type_symbol
 _atom_site_label
 _atom_site_symmetry_multiplicity
 _atom_site_fract_x
 _atom_site_fract_y
 _atom_site_fract_z
 _atom_site_occupancy
  Na  Na0  1  0.19273200  0.38546500  0.25000000  1
  Na  Na1  1  0.61453500  0.80726800  0.58333300  1
  Na  Na2  1  0.80726800  0.61453500  0.75000000  1
  Na  Na3  1  0.38546500  0.19273200  0.08333300  1
  Na  Na4  1  0.19273200  0.80726800  0.91666700  1
  Na  Na5  1  0.80726800  0.19273200  0.41666700  1
  Fe  Fe6  1  0.55160700  0.10321400  0.25000000  1
  Fe  Fe7  1  0.89678600  0.44839300  0.58333300  1
  Fe  Fe8  1  0.44839300  0.89678600  0.75000000  1
  Fe  Fe9  1  0.10321400  0.55160700  0.08333300  1
  Fe  Fe10  1  0.55160700  0.44839300  0.91666700  1
  Fe  Fe11  1  0.44839300  0.55160700  0.41666700  1
  B  B12  1  0.84426900  0.68853800  0.25000000  1
  B  B13  1  0.31146200  0.15573100  0.58333300  1
  B  B14  1  0.15573100  0.31146200  0.75000000  1
  B  B15  1  0.68853800  0.84426900  0.08333300  1
  B  B16  1  0.84426900  0.15573100  0.91666700  1
  B  B17  1  0.15573100  0.84426900  0.41666700  1
  P  P18  1  0.39108700  0.17097900  0.41552300  1
  P  P19  1  0.82902100  0.22010800  0.74885600  1
  P  P20  1  0.60891300  0.82902100  0.91552300  1
  P  P21  1  0.17097900  0.39108700  0.91781100  1
  P  P22  1  0.77989200  0.60891300  0.08218900  1
  P  P23  1  0.17097900  0.77989200  0.24885600  1
  P  P24  1  0.22010800  0.82902100  0.58447700  1
  P  P25  1  0.82902100  0.60891300  0.41781100  1
  P  P26  1  0.22010800  0.39108700  0.58218900  1
  P  P27  1  0.77989200  0.17097900  0.08447700  1
  P  P28  1  0.60891300  0.77989200  0.25114400  1
  P  P29  1  0.39108700  0.22010800  0.75114400  1
  O  O30  1  0.42192500  0.18177000  0.51180400  1
  O  O31  1  0.81823000  0.24015500  0.84513800  1
  O  O32  1  0.57807500  0.81823000  0.01180400  1
  O  O33  1  0.18177000  0.42192500  0.82152900  1
  O  O34  1  0.75984500  0.57807500  0.17847100  1
  O  O35  1  0.18177000  0.75984500  0.34513800  1
  O  O36  1  0.24015500  0.81823000  0.48819600  1
  O  O37  1  0.81823000  0.57807500  0.32152900  1
  O  O38  1  0.24015500  0.42192500  0.67847100  1
  O  O39  1  0.75984500  0.18177000  0.98819600  1
  O  O40  1  0.57807500  0.75984500  0.15486200  1
  O  O41  1  0.42192500  0.24015500  0.65486200  1
  O  O42  1  0.14353800  0.00000000  0.00000000  1
  O  O43  1  0.00000000  0.14353800  0.33333300  1
  O  O44  1  0.85646200  0.00000000  0.50000000  1
  O  O45  1  0.85646200  0.85646200  0.66666700  1
  O  O46  1  0.00000000  0.85646200  0.83333300  1
  O  O47  1  0.14353800  0.14353800  0.16666700  1
  O  O48  1  0.62102900  0.14596000  0.12679500  1
  O  O49  1  0.85404000  0.47506900  0.46012800  1
  O  O50  1  0.37897100  0.85404000  0.62679500  1
  O  O51  1  0.14596000  0.62102900  0.20653900  1
  O  O52  1  0.52493100  0.37897100  0.79346100  1
  O  O53  1  0.14596000  0.52493100  0.96012800  1
  O  O54  1  0.47506900  0.85404000  0.87320500  1
  O  O55  1  0.85404000  0.37897100  0.70653900  1
  O  O56  1  0.47506900  0.62102900  0.29346100  1
  O  O57  1  0.52493100  0.14596000  0.37320500  1
  O  O58  1  0.37897100  0.52493100  0.53987200  1
  O  O59  1  0.62102900  0.47506900  0.03987200  1
  O  O60  1  0.38877200  0.32247600  0.38207900  1
  O  O61  1  0.67752400  0.06629700  0.71541200  1
  O  O62  1  0.61122800  0.67752400  0.88207900  1
  O  O63  1  0.32247600  0.38877200  0.95125400  1
  O  O64  1  0.93370300  0.61122800  0.04874600  1
  O  O65  1  0.32247600  0.93370300  0.21541200  1
  O  O66  1  0.06629700  0.67752400  0.61792100  1
  O  O67  1  0.67752400  0.61122800  0.45125400  1
  O  O68  1  0.06629700  0.38877200  0.54874600  1
  O  O69  1  0.93370300  0.32247600  0.11792100  1
  O  O70  1  0.61122800  0.93370300  0.28458800  1
  O  O71  1  0.38877200  0.06629700  0.78458800  1
  O  O72  1  0.21876000  0.01949900  0.39682800  1
  O  O73  1  0.98050100  0.19926100  0.73016100  1
  O  O74  1  0.78124000  0.98050100  0.89682800  1
  O  O75  1  0.01949900  0.21876000  0.93650500  1
  O  O76  1  0.80073900  0.78124000  0.06349500  1
  O  O77  1  0.01949900  0.80073900  0.23016100  1
  O  O78  1  0.19926100  0.98050100  0.60317200  1
  O  O79  1  0.98050100  0.78124000  0.43650500  1
  O  O80  1  0.19926100  0.21876000  0.56349500  1
  O  O81  1  0.80073900  0.01949900  0.10317200  1
  O  O82  1  0.78124000  0.80073900  0.26983900  1
  O  O83  1  0.21876000  0.19926100  0.76983900  1
  O  O84  1  0.27706500  0.48882100  0.10862300  1
  O  O85  1  0.51117900  0.78824400  0.44195600  1
  O  O86  1  0.72293500  0.51117900  0.60862300  1
  O  O87  1  0.48882100  0.27706500  0.22471100  1
  O  O88  1  0.21175600  0.72293500  0.77528900  1
  O  O89  1  0.48882100  0.21175600  0.94195600  1
  O  O90  1  0.78824400  0.51117900  0.89137700  1
  O  O91  1  0.51117900  0.72293500  0.72471100  1
  O  O92  1  0.78824400  0.27706500  0.27528900  1
  O  O93  1  0.21175600  0.48882100  0.39137700  1
  O  O94  1  0.72293500  0.21175600  0.55804400  1
  O  O95  1  0.27706500  0.78824400  0.05804400  1
