# generated using pymatgen
data_Li2Zn(HCl2)2
_symmetry_space_group_name_H-M   'P 1'
_cell_length_a   6.26396000
_cell_length_b   10.25037000
_cell_length_c   11.44219600
_cell_angle_alpha   90.00000000
_cell_angle_beta   90.00000000
_cell_angle_gamma   90.00000000
_symmetry_Int_Tables_number   1
_chemical_formula_structural   Li2Zn(HCl2)2
_chemical_formula_sum   'Li8 Zn4 H8 Cl16'
_cell_volume   734.67946426
_cell_formula_units_Z   4
loop_
 _symmetry_equiv_pos_site_id
 _symmetry_equiv_pos_as_xyz
  1  'x, y, z'
loop_
 _atom_site_type_symbol
 _atom_site_label
 _atom_site_symmetry_multiplicity
 _atom_site_fract_x
 _atom_site_fract_y
 _atom_site_fract_z
 _atom_site_occupancy
  Li  Li0  1  0.23411100  0.23205300  0.29078100  1
  Li  Li1  1  0.26588900  0.76794700  0.79078100  1
  Li  Li2  1  0.76588900  0.73205300  0.20921900  1
  Li  Li3  1  0.73411100  0.26794700  0.70921900  1
  Li  Li4  1  0.21541500  0.12627700  0.77788400  1
  Li  Li5  1  0.28458500  0.87372300  0.27788400  1
  Li  Li6  1  0.78458500  0.62627700  0.72211600  1
  Li  Li7  1  0.71541500  0.37372300  0.22211600  1
  Zn  Zn8  1  0.24068000  0.53263400  0.05261900  1
  Zn  Zn9  1  0.25931900  0.46736600  0.55261900  1
  Zn  Zn10  1  0.75932000  0.03263400  0.44738100  1
  Zn  Zn11  1  0.74068000  0.96736600  0.94738100  1
  H  H12  1  0.52130300  0.20221300  0.15207900  1
  H  H13  1  0.97869700  0.79778700  0.65207900  1
  H  H14  1  0.47869700  0.70221300  0.34792100  1
  H  H15  1  0.02130300  0.29778700  0.84792100  1
  H  H16  1  0.13313700  0.03184900  0.16206900  1
  H  H17  1  0.36686300  0.96815100  0.66206900  1
  H  H18  1  0.86686300  0.53184900  0.33793100  1
  H  H19  1  0.63313700  0.46815100  0.83793100  1
  Cl  Cl20  1  0.09411600  0.33600700  0.10117300  1
  Cl  Cl21  1  0.40588400  0.66399300  0.60117300  1
  Cl  Cl22  1  0.90588400  0.83600700  0.39882700  1
  Cl  Cl23  1  0.59411600  0.16399300  0.89882700  1
  Cl  Cl24  1  0.12569900  0.70986300  0.15921000  1
  Cl  Cl25  1  0.37430100  0.29013700  0.65921000  1
  Cl  Cl26  1  0.87430100  0.20986300  0.34079000  1
  Cl  Cl27  1  0.62569900  0.79013700  0.84079000  1
  Cl  Cl28  1  0.39495600  0.03879100  0.41090400  1
  Cl  Cl29  1  0.10504400  0.96120900  0.91090400  1
  Cl  Cl30  1  0.60504400  0.53879100  0.08909600  1
  Cl  Cl31  1  0.89495600  0.46120900  0.58909600  1
  Cl  Cl32  1  0.37819200  0.42752600  0.36439400  1
  Cl  Cl33  1  0.12180800  0.57247400  0.86439400  1
  Cl  Cl34  1  0.62180800  0.92752600  0.13560600  1
  Cl  Cl35  1  0.87819200  0.07247400  0.63560600  1
