# generated using pymatgen
data_Lu2InAu2
_symmetry_space_group_name_H-M   'P 1'
_cell_length_a   6.95057900
_cell_length_b   8.21777200
_cell_length_c   8.21777200
_cell_angle_alpha   90.00000000
_cell_angle_beta   90.00000000
_cell_angle_gamma   90.00000000
_symmetry_Int_Tables_number   1
_chemical_formula_structural   Lu2InAu2
_chemical_formula_sum   'Lu8 In4 Au8'
_cell_volume   469.38494857
_cell_formula_units_Z   4
loop_
 _symmetry_equiv_pos_site_id
 _symmetry_equiv_pos_as_xyz
  1  'x, y, z'
loop_
 _atom_site_type_symbol
 _atom_site_label
 _atom_site_symmetry_multiplicity
 _atom_site_fract_x
 _atom_site_fract_y
 _atom_site_fract_z
 _atom_site_occupancy
  Lu  Lu0  1  0.24809000  0.34916400  0.34916400  1
  Lu  Lu1  1  0.75191000  0.65083600  0.65083600  1
  Lu  Lu2  1  0.24809000  0.65083600  0.65083600  1
  Lu  Lu3  1  0.74809000  0.15083600  0.84916400  1
  Lu  Lu4  1  0.25191000  0.15083600  0.84916400  1
  Lu  Lu5  1  0.75191000  0.34916400  0.34916400  1
  Lu  Lu6  1  0.25191000  0.84916400  0.15083600  1
  Lu  Lu7  1  0.74809000  0.84916400  0.15083600  1
  In  In8  1  0.25000000  0.00000000  0.50000000  1
  In  In9  1  0.75000000  0.00000000  0.50000000  1
  In  In10  1  0.25000000  0.50000000  0.00000000  1
  In  In11  1  0.75000000  0.50000000  0.00000000  1
  Au  Au12  1  0.00000000  0.13927800  0.13927800  1
  Au  Au13  1  0.00000000  0.86072200  0.86072200  1
  Au  Au14  1  0.50000000  0.36072200  0.63927800  1
  Au  Au15  1  0.50000000  0.63927800  0.36072200  1
  Au  Au16  1  0.00000000  0.35692600  0.64307400  1
  Au  Au17  1  0.00000000  0.64307400  0.35692600  1
  Au  Au18  1  0.50000000  0.85692600  0.85692600  1
  Au  Au19  1  0.50000000  0.14307400  0.14307400  1
