# generated using pymatgen
data_Na6TeP6(H3O5)6
_symmetry_space_group_name_H-M   'P 1'
_cell_length_a   11.77312943
_cell_length_b   11.77312943
_cell_length_c   12.17457300
_cell_angle_alpha   90.00000000
_cell_angle_beta   90.00000000
_cell_angle_gamma   119.99999678
_symmetry_Int_Tables_number   1
_chemical_formula_structural   Na6TeP6(H3O5)6
_chemical_formula_sum   'Na12 Te2 P12 H36 O60'
_cell_volume   1461.39703112
_cell_formula_units_Z   2
loop_
 _symmetry_equiv_pos_site_id
 _symmetry_equiv_pos_as_xyz
  1  'x, y, z'
loop_
 _atom_site_type_symbol
 _atom_site_label
 _atom_site_symmetry_multiplicity
 _atom_site_fract_x
 _atom_site_fract_y
 _atom_site_fract_z
 _atom_site_occupancy
  Na  Na0  1  0.71789500  0.84728500  0.75000000  1
  Na  Na1  1  0.28210500  0.15271500  0.25000000  1
  Na  Na2  1  0.12939000  0.28210500  0.75000000  1
  Na  Na3  1  0.87061000  0.71789500  0.25000000  1
  Na  Na4  1  0.15271500  0.87061000  0.75000000  1
  Na  Na5  1  0.84728500  0.12939000  0.25000000  1
  Na  Na6  1  0.42942500  0.55881500  0.75000000  1
  Na  Na7  1  0.57057500  0.44118500  0.25000000  1
  Na  Na8  1  0.12938900  0.57057500  0.75000000  1
  Na  Na9  1  0.87061100  0.42942500  0.25000000  1
  Na  Na10  1  0.44118500  0.87061100  0.75000000  1
  Na  Na11  1  0.55881500  0.12938900  0.25000000  1
  Te  Te12  1  0.00000000  0.00000000  0.00000000  1
  Te  Te13  1  0.00000000  0.00000000  0.50000000  1
  P  P14  1  0.49753300  0.74740500  0.99314700  1
  P  P15  1  0.50246700  0.25259500  0.00685300  1
  P  P16  1  0.24987200  0.50246700  0.99314700  1
  P  P17  1  0.50246700  0.25259500  0.49314700  1
  P  P18  1  0.75012800  0.49753300  0.00685300  1
  P  P19  1  0.49753300  0.74740500  0.50685300  1
  P  P20  1  0.25259500  0.75012800  0.99314700  1
  P  P21  1  0.75012800  0.49753300  0.49314700  1
  P  P22  1  0.74740500  0.24987200  0.00685300  1
  P  P23  1  0.24987200  0.50246700  0.50685300  1
  P  P24  1  0.74740500  0.24987200  0.49314700  1
  P  P25  1  0.25259500  0.75012800  0.50685300  1
  H  H26  1  0.92967600  0.15113000  0.92759200  1
  H  H27  1  0.07032400  0.84887000  0.07240800  1
  H  H28  1  0.22145400  0.07032400  0.92759200  1
  H  H29  1  0.07032400  0.84887000  0.42759200  1
  H  H30  1  0.77854600  0.92967600  0.07240800  1
  H  H31  1  0.92967600  0.15113000  0.57240800  1
  H  H32  1  0.84887000  0.77854600  0.92759200  1
  H  H33  1  0.77854600  0.92967600  0.42759200  1
  H  H34  1  0.15113000  0.22145400  0.07240800  1
  H  H35  1  0.22145400  0.07032400  0.57240800  1
  H  H36  1  0.15113000  0.22145400  0.42759200  1
  H  H37  1  0.84887000  0.77854600  0.57240800  1
  H  H38  1  0.71204300  0.08355100  0.81455500  1
  H  H39  1  0.28795700  0.91644900  0.18544500  1
  H  H40  1  0.37150800  0.28795700  0.81455500  1
  H  H41  1  0.28795700  0.91644900  0.31455500  1
  H  H42  1  0.62849200  0.71204300  0.18544500  1
  H  H43  1  0.71204300  0.08355100  0.68544500  1
  H  H44  1  0.91644900  0.62849200  0.81455500  1
  H  H45  1  0.62849200  0.71204300  0.31455500  1
  H  H46  1  0.08355100  0.37150800  0.18544500  1
  H  H47  1  0.37150800  0.28795700  0.68544500  1
  H  H48  1  0.08355100  0.37150800  0.31455500  1
  H  H49  1  0.91644900  0.62849200  0.68544500  1
  H  H50  1  0.90525000  0.30438800  0.81434800  1
  H  H51  1  0.09475000  0.69561200  0.18565200  1
  H  H52  1  0.39913800  0.09475000  0.81434800  1
  H  H53  1  0.09475000  0.69561200  0.31434800  1
  H  H54  1  0.60086200  0.90525000  0.18565200  1
  H  H55  1  0.90525000  0.30438800  0.68565200  1
  H  H56  1  0.69561200  0.60086200  0.81434800  1
  H  H57  1  0.60086200  0.90525000  0.31434800  1
  H  H58  1  0.30438800  0.39913800  0.18565200  1
  H  H59  1  0.39913800  0.09475000  0.68565200  1
  H  H60  1  0.30438800  0.39913800  0.31434800  1
  H  H61  1  0.69561200  0.60086200  0.68565200  1
  O  O62  1  0.80438800  0.19352300  0.92766900  1
  O  O63  1  0.19561200  0.80647700  0.07233100  1
  O  O64  1  0.38913500  0.19561200  0.92766900  1
  O  O65  1  0.19561200  0.80647700  0.42766900  1
  O  O66  1  0.61086500  0.80438800  0.07233100  1
  O  O67  1  0.80438800  0.19352300  0.57233100  1
  O  O68  1  0.80647700  0.61086500  0.92766900  1
  O  O69  1  0.61086500  0.80438800  0.42766900  1
  O  O70  1  0.19352300  0.38913500  0.07233100  1
  O  O71  1  0.38913500  0.19561200  0.57233100  1
  O  O72  1  0.19352300  0.38913500  0.42766900  1
  O  O73  1  0.80647700  0.61086500  0.57233100  1
  O  O74  1  0.67523600  0.02562000  0.75000000  1
  O  O75  1  0.32476400  0.97438000  0.25000000  1
  O  O76  1  0.35038500  0.32476400  0.75000000  1
  O  O77  1  0.64961500  0.67523600  0.25000000  1
  O  O78  1  0.97438000  0.64961500  0.75000000  1
  O  O79  1  0.02562000  0.35038500  0.25000000  1
  O  O80  1  0.80977300  0.40388800  0.97240500  1
  O  O81  1  0.19022700  0.59611200  0.02759500  1
  O  O82  1  0.59411500  0.19022700  0.97240500  1
  O  O83  1  0.19022700  0.59611200  0.47240500  1
  O  O84  1  0.40588500  0.80977300  0.02759500  1
  O  O85  1  0.80977300  0.40388800  0.52759500  1
  O  O86  1  0.59611200  0.40588500  0.97240500  1
  O  O87  1  0.40588500  0.80977300  0.47240500  1
  O  O88  1  0.40388800  0.59411500  0.02759500  1
  O  O89  1  0.59411500  0.19022700  0.52759500  1
  O  O90  1  0.40388800  0.59411500  0.47240500  1
  O  O91  1  0.59611200  0.40588500  0.52759500  1
  O  O92  1  0.00225200  0.13541600  0.90564900  1
  O  O93  1  0.99774800  0.86458400  0.09435100  1
  O  O94  1  0.13316400  0.99774800  0.90564900  1
  O  O95  1  0.99774800  0.86458400  0.40564900  1
  O  O96  1  0.86683600  0.00225200  0.09435100  1
  O  O97  1  0.00225200  0.13541600  0.59435100  1
  O  O98  1  0.86458400  0.86683600  0.90564900  1
  O  O99  1  0.86683600  0.00225200  0.40564900  1
  O  O100  1  0.13541600  0.13316400  0.09435100  1
  O  O101  1  0.13316400  0.99774800  0.59435100  1
  O  O102  1  0.13541600  0.13316400  0.40564900  1
  O  O103  1  0.86458400  0.86683600  0.59435100  1
  O  O104  1  0.96225900  0.34535800  0.75000000  1
  O  O105  1  0.03774100  0.65464200  0.25000000  1
  O  O106  1  0.38309800  0.03774100  0.75000000  1
  O  O107  1  0.61690200  0.96225900  0.25000000  1
  O  O108  1  0.65464200  0.61690200  0.75000000  1
  O  O109  1  0.34535800  0.38309800  0.25000000  1
  O  O110  1  0.52034900  0.75798100  0.87179800  1
  O  O111  1  0.47965100  0.24201900  0.12820200  1
  O  O112  1  0.23763200  0.47965100  0.87179800  1
  O  O113  1  0.47965100  0.24201900  0.37179800  1
  O  O114  1  0.76236800  0.52034900  0.12820200  1
  O  O115  1  0.52034900  0.75798100  0.62820200  1
  O  O116  1  0.24201900  0.76236800  0.87179800  1
  O  O117  1  0.76236800  0.52034900  0.37179800  1
  O  O118  1  0.75798100  0.23763200  0.12820200  1
  O  O119  1  0.23763200  0.47965100  0.62820200  1
  O  O120  1  0.75798100  0.23763200  0.37179800  1
  O  O121  1  0.24201900  0.76236800  0.62820200  1
