# generated using pymatgen
data_Sc6TeO12
_symmetry_space_group_name_H-M   'P 1'
_cell_length_a   9.21837964
_cell_length_b   9.15948648
_cell_length_c   7.58981204
_cell_angle_alpha   126.24190215
_cell_angle_beta   108.32241965
_cell_angle_gamma   69.36135564
_symmetry_Int_Tables_number   1
_chemical_formula_structural   Sc6TeO12
_chemical_formula_sum   'Sc6 Te1 O12'
_cell_volume   478.90036740
_cell_formula_units_Z   1
loop_
 _symmetry_equiv_pos_site_id
 _symmetry_equiv_pos_as_xyz
  1  'x, y, z'
loop_
 _atom_site_type_symbol
 _atom_site_label
 _atom_site_symmetry_multiplicity
 _atom_site_fract_x
 _atom_site_fract_y
 _atom_site_fract_z
 _atom_site_occupancy
  Sc  Sc0  1  0.97765900  0.71041600  0.17051300  1
  Sc  Sc1  1  0.02234100  0.28958400  0.82948700  1
  Sc  Sc2  1  0.65114700  0.02411000  0.16248100  1
  Sc  Sc3  1  0.34885300  0.97589000  0.83751900  1
  Sc  Sc4  1  0.78436600  0.68627000  0.72168400  1
  Sc  Sc5  1  0.21563400  0.31373000  0.27831600  1
  Te  Te6  1  0.00000000  0.00000000  0.00000000  1
  O  O7  1  0.91134700  0.80788900  0.71284600  1
  O  O8  1  0.08865300  0.19211100  0.28715400  1
  O  O9  1  0.06363300  0.82712800  0.09251800  1
  O  O10  1  0.93636700  0.17287200  0.90748200  1
  O  O11  1  0.79999800  0.09100900  0.10433400  1
  O  O12  1  0.20000200  0.90899100  0.89566600  1
  O  O13  1  0.58174300  0.83447800  0.83074300  1
  O  O14  1  0.41825700  0.16552200  0.16925700  1
  O  O15  1  0.88897400  0.52930600  0.84046700  1
  O  O16  1  0.11102600  0.47069400  0.15953300  1
  O  O17  1  0.78273500  0.87259100  0.27255800  1
  O  O18  1  0.21726500  0.12740900  0.72744200  1
