# generated using pymatgen
data_Nd5(BO3)4
_symmetry_space_group_name_H-M   'P 1'
_cell_length_a   7.91950400
_cell_length_b   8.73606000
_cell_length_c   15.20718000
_cell_angle_alpha   90.00000000
_cell_angle_beta   90.00000000
_cell_angle_gamma   90.00000000
_symmetry_Int_Tables_number   1
_chemical_formula_structural   Nd5(BO3)4
_chemical_formula_sum   'Nd20 B16 O48'
_cell_volume   1052.11273432
_cell_formula_units_Z   4
loop_
 _symmetry_equiv_pos_site_id
 _symmetry_equiv_pos_as_xyz
  1  'x, y, z'
loop_
 _atom_site_type_symbol
 _atom_site_label
 _atom_site_symmetry_multiplicity
 _atom_site_fract_x
 _atom_site_fract_y
 _atom_site_fract_z
 _atom_site_occupancy
  Nd  Nd0  1  0.33695700  0.45554900  0.75000000  1
  Nd  Nd1  1  0.66304300  0.54445100  0.25000000  1
  Nd  Nd2  1  0.16304300  0.95554900  0.25000000  1
  Nd  Nd3  1  0.83695700  0.04445100  0.75000000  1
  Nd  Nd4  1  0.00377000  0.32622900  0.59748000  1
  Nd  Nd5  1  0.99623000  0.67377100  0.40252000  1
  Nd  Nd6  1  0.49623000  0.82622900  0.40252000  1
  Nd  Nd7  1  0.99623000  0.67377100  0.09748000  1
  Nd  Nd8  1  0.50377000  0.17377100  0.59748000  1
  Nd  Nd9  1  0.00377000  0.32622900  0.90252000  1
  Nd  Nd10  1  0.50377000  0.17377100  0.90252000  1
  Nd  Nd11  1  0.49623000  0.82622900  0.09748000  1
  Nd  Nd12  1  0.33302400  0.33557500  0.12901000  1
  Nd  Nd13  1  0.66697600  0.66442500  0.87099000  1
  Nd  Nd14  1  0.16697600  0.83557500  0.87099000  1
  Nd  Nd15  1  0.66697600  0.66442500  0.62901000  1
  Nd  Nd16  1  0.83302400  0.16442500  0.12901000  1
  Nd  Nd17  1  0.33302400  0.33557500  0.37099000  1
  Nd  Nd18  1  0.83302400  0.16442500  0.37099000  1
  Nd  Nd19  1  0.16697600  0.83557500  0.62901000  1
  B  B20  1  0.51401000  0.86034000  0.75000000  1
  B  B21  1  0.48599000  0.13966000  0.25000000  1
  B  B22  1  0.98599000  0.36034000  0.25000000  1
  B  B23  1  0.01401000  0.63966000  0.75000000  1
  B  B24  1  0.15632900  0.16960700  0.75000000  1
  B  B25  1  0.84367100  0.83039300  0.25000000  1
  B  B26  1  0.34367100  0.66960700  0.25000000  1
  B  B27  1  0.65632900  0.33039300  0.75000000  1
  B  B28  1  0.15599500  0.05900200  0.04036800  1
  B  B29  1  0.84400500  0.94099800  0.95963200  1
  B  B30  1  0.34400500  0.55900200  0.95963200  1
  B  B31  1  0.84400500  0.94099800  0.54036800  1
  B  B32  1  0.65599500  0.44099800  0.04036800  1
  B  B33  1  0.15599500  0.05900200  0.45963200  1
  B  B34  1  0.65599500  0.44099800  0.45963200  1
  B  B35  1  0.34400500  0.55900200  0.54036800  1
  O  O36  1  0.24460200  0.22397000  0.66920000  1
  O  O37  1  0.75539800  0.77603000  0.33080000  1
  O  O38  1  0.25539800  0.72397000  0.33080000  1
  O  O39  1  0.75539800  0.77603000  0.16920000  1
  O  O40  1  0.74460200  0.27603000  0.66920000  1
  O  O41  1  0.24460200  0.22397000  0.83080000  1
  O  O42  1  0.74460200  0.27603000  0.83080000  1
  O  O43  1  0.25539800  0.72397000  0.16920000  1
  O  O44  1  0.10184800  0.21222400  0.04278300  1
  O  O45  1  0.89815200  0.78777600  0.95721700  1
  O  O46  1  0.39815200  0.71222400  0.95721700  1
  O  O47  1  0.89815200  0.78777600  0.54278300  1
  O  O48  1  0.60184800  0.28777600  0.04278300  1
  O  O49  1  0.10184800  0.21222400  0.45721700  1
  O  O50  1  0.60184800  0.28777600  0.45721700  1
  O  O51  1  0.39815200  0.71222400  0.54278300  1
  O  O52  1  0.06508600  0.57009700  0.67001400  1
  O  O53  1  0.93491400  0.42990300  0.32998600  1
  O  O54  1  0.43491400  0.07009700  0.32998600  1
  O  O55  1  0.93491400  0.42990300  0.17001400  1
  O  O56  1  0.56508600  0.92990300  0.67001400  1
  O  O57  1  0.06508600  0.57009700  0.82998600  1
  O  O58  1  0.56508600  0.92990300  0.82998600  1
  O  O59  1  0.43491400  0.07009700  0.17001400  1
  O  O60  1  0.14040300  0.00159000  0.75000000  1
  O  O61  1  0.85959700  0.99841000  0.25000000  1
  O  O62  1  0.35959700  0.50159000  0.25000000  1
  O  O63  1  0.64040300  0.49841000  0.75000000  1
  O  O64  1  0.38283700  0.74784100  0.75000000  1
  O  O65  1  0.61716300  0.25215900  0.25000000  1
  O  O66  1  0.11716300  0.24784100  0.25000000  1
  O  O67  1  0.88283700  0.75215900  0.75000000  1
  O  O68  1  0.29382200  0.01369700  0.50830200  1
  O  O69  1  0.70617800  0.98630300  0.49169800  1
  O  O70  1  0.20617800  0.51369700  0.49169800  1
  O  O71  1  0.70617800  0.98630300  0.00830200  1
  O  O72  1  0.79382200  0.48630300  0.50830200  1
  O  O73  1  0.29382200  0.01369700  0.99169800  1
  O  O74  1  0.79382200  0.48630300  0.99169800  1
  O  O75  1  0.20617800  0.51369700  0.00830200  1
  O  O76  1  0.43550500  0.46187800  0.59527800  1
  O  O77  1  0.56449500  0.53812200  0.40472200  1
  O  O78  1  0.06449500  0.96187800  0.40472200  1
  O  O79  1  0.56449500  0.53812200  0.09527800  1
  O  O80  1  0.93550500  0.03812200  0.59527800  1
  O  O81  1  0.43550500  0.46187800  0.90472200  1
  O  O82  1  0.93550500  0.03812200  0.90472200  1
  O  O83  1  0.06449500  0.96187800  0.09527800  1
