# generated using pymatgen
data_Na2Cr2H2O7
_symmetry_space_group_name_H-M   'P 1'
_cell_length_a   10.51019200
_cell_length_b   6.34179400
_cell_length_c   13.52307365
_cell_angle_alpha   88.92669478
_cell_angle_beta   90.00000000
_cell_angle_gamma   90.00000000
_symmetry_Int_Tables_number   1
_chemical_formula_structural   Na2Cr2H2O7
_chemical_formula_sum   'Na8 Cr8 H8 O28'
_cell_volume   901.20167316
_cell_formula_units_Z   4
loop_
 _symmetry_equiv_pos_site_id
 _symmetry_equiv_pos_as_xyz
  1  'x, y, z'
loop_
 _atom_site_type_symbol
 _atom_site_label
 _atom_site_symmetry_multiplicity
 _atom_site_fract_x
 _atom_site_fract_y
 _atom_site_fract_z
 _atom_site_occupancy
  Na  Na0  1  0.83814100  0.35198400  0.23032600  1
  Na  Na1  1  0.33814100  0.64801600  0.76967400  1
  Na  Na2  1  0.32210200  0.32152200  0.01131900  1
  Na  Na3  1  0.82210200  0.67847800  0.98868100  1
  Na  Na4  1  0.33940000  0.93173300  0.23451000  1
  Na  Na5  1  0.83940000  0.06826700  0.76549000  1
  Na  Na6  1  0.87871300  0.83272600  0.47181500  1
  Na  Na7  1  0.37871300  0.16727400  0.52818500  1
  Cr  Cr8  1  0.50742100  0.43644700  0.33284700  1
  Cr  Cr9  1  0.00742100  0.56355300  0.66715300  1
  Cr  Cr10  1  0.49306900  0.84721300  0.00542200  1
  Cr  Cr11  1  0.99306900  0.15278700  0.99457800  1
  Cr  Cr12  1  0.99406200  0.85647100  0.19137000  1
  Cr  Cr13  1  0.49406200  0.14352900  0.80863000  1
  Cr  Cr14  1  0.55239900  0.66113700  0.54216300  1
  Cr  Cr15  1  0.05239900  0.33886300  0.45783700  1
  H  H16  1  0.71529700  0.97240600  0.31353100  1
  H  H17  1  0.21529700  0.02759400  0.68646900  1
  H  H18  1  0.72316000  0.67537800  0.79719100  1
  H  H19  1  0.22316000  0.32462200  0.20280900  1
  H  H20  1  0.23467800  0.84445300  0.42781800  1
  H  H21  1  0.73467800  0.15554700  0.57218200  1
  H  H22  1  0.68281600  0.33416100  0.06596300  1
  H  H23  1  0.18281600  0.66583900  0.93403700  1
  O  O24  1  0.90191100  0.66844600  0.15006000  1
  O  O25  1  0.40191100  0.33155400  0.84994000  1
  O  O26  1  0.41297900  0.61461500  0.28544200  1
  O  O27  1  0.91297900  0.38538500  0.71455800  1
  O  O28  1  0.65384800  0.47994500  0.29627300  1
  O  O29  1  0.15384800  0.52005500  0.70372700  1
  O  O30  1  0.95931800  0.09892900  0.12322300  1
  O  O31  1  0.45931800  0.90107100  0.87677700  1
  O  O32  1  0.64446200  0.87669700  0.02441700  1
  O  O33  1  0.14446200  0.12330300  0.97558300  1
  O  O34  1  0.98436300  0.37628400  0.35042800  1
  O  O35  1  0.48436300  0.62371600  0.64957200  1
  O  O36  1  0.50822500  0.88367800  0.49048700  1
  O  O37  1  0.00822500  0.11632200  0.50951300  1
  O  O38  1  0.96029800  0.79999700  0.69701800  1
  O  O39  1  0.46029800  0.20000300  0.30298200  1
  O  O40  1  0.00238800  0.55242800  0.53468500  1
  O  O41  1  0.50238800  0.44757200  0.46531500  1
  O  O42  1  0.14256900  0.79731600  0.17433200  1
  O  O43  1  0.64256900  0.20268400  0.82566800  1
  O  O44  1  0.96605400  0.89599400  0.30759600  1
  O  O45  1  0.46605400  0.10400600  0.69240400  1
  O  O46  1  0.70692700  0.65910200  0.55254700  1
  O  O47  1  0.20692700  0.34089800  0.44745300  1
  O  O48  1  0.91324400  0.98649200  0.92653500  1
  O  O49  1  0.41324400  0.01350800  0.07346500  1
  O  O50  1  0.45115700  0.60563100  0.03146500  1
  O  O51  1  0.95115700  0.39436900  0.96853500  1
