# generated using pymatgen
data_MoW11O36
_symmetry_space_group_name_H-M   'P 1'
_cell_length_a   3.86144700
_cell_length_b   7.50697000
_cell_length_c   25.99736700
_cell_angle_alpha   90.00000000
_cell_angle_beta   90.00000000
_cell_angle_gamma   90.00000000
_symmetry_Int_Tables_number   1
_chemical_formula_structural   MoW11O36
_chemical_formula_sum   'Mo1 W11 O36'
_cell_volume   753.60561164
_cell_formula_units_Z   1
loop_
 _symmetry_equiv_pos_site_id
 _symmetry_equiv_pos_as_xyz
  1  'x, y, z'
loop_
 _atom_site_type_symbol
 _atom_site_label
 _atom_site_symmetry_multiplicity
 _atom_site_fract_x
 _atom_site_fract_y
 _atom_site_fract_z
 _atom_site_occupancy
  Mo  Mo0  1  0.00000000  0.00000000  0.50000000  1
  W  W1  1  0.00000000  0.50000000  0.24898700  1
  W  W2  1  0.00000000  0.50000000  0.75101300  1
  W  W3  1  0.00000000  0.25055100  0.12408300  1
  W  W4  1  0.00000000  0.74944900  0.87591700  1
  W  W5  1  0.00000000  0.74944900  0.12408300  1
  W  W6  1  0.00000000  0.25055100  0.87591700  1
  W  W7  1  0.00000000  0.00000000  0.00000000  1
  W  W8  1  0.00000000  0.24988400  0.37426400  1
  W  W9  1  0.00000000  0.75011600  0.62573600  1
  W  W10  1  0.00000000  0.75011600  0.37426400  1
  W  W11  1  0.00000000  0.24988400  0.62573600  1
  O  O12  1  0.00000000  0.50000000  0.10549300  1
  O  O13  1  0.00000000  0.50000000  0.89450700  1
  O  O14  1  0.00000000  0.00000000  0.14161900  1
  O  O15  1  0.00000000  0.00000000  0.85838100  1
  O  O16  1  0.00000000  0.32076900  0.19570000  1
  O  O17  1  0.00000000  0.67923100  0.80430000  1
  O  O18  1  0.00000000  0.67923100  0.19570000  1
  O  O19  1  0.00000000  0.32076900  0.80430000  1
  O  O20  1  0.00000000  0.17707800  0.44584900  1
  O  O21  1  0.00000000  0.82292200  0.55415100  1
  O  O22  1  0.00000000  0.82292200  0.44584900  1
  O  O23  1  0.00000000  0.17707800  0.55415100  1
  O  O24  1  0.50000000  0.00000000  0.00000000  1
  O  O25  1  0.00000000  0.50000000  0.39306000  1
  O  O26  1  0.00000000  0.50000000  0.60694000  1
  O  O27  1  0.00000000  0.00000000  0.35592300  1
  O  O28  1  0.00000000  0.00000000  0.64407700  1
  O  O29  1  0.00000000  0.32058900  0.30253000  1
  O  O30  1  0.00000000  0.67941100  0.69747000  1
  O  O31  1  0.00000000  0.67941100  0.30253000  1
  O  O32  1  0.00000000  0.32058900  0.69747000  1
  O  O33  1  0.00000000  0.18067800  0.05280500  1
  O  O34  1  0.00000000  0.81932200  0.94719500  1
  O  O35  1  0.00000000  0.81932200  0.05280500  1
  O  O36  1  0.00000000  0.18067800  0.94719500  1
  O  O37  1  0.50000000  0.24901100  0.37359700  1
  O  O38  1  0.50000000  0.75098900  0.62640300  1
  O  O39  1  0.50000000  0.75098900  0.37359700  1
  O  O40  1  0.50000000  0.24901100  0.62640300  1
  O  O41  1  0.50000000  0.50000000  0.24844900  1
  O  O42  1  0.50000000  0.50000000  0.75155100  1
  O  O43  1  0.50000000  0.25127000  0.12430700  1
  O  O44  1  0.50000000  0.74873000  0.87569300  1
  O  O45  1  0.50000000  0.74873000  0.12430700  1
  O  O46  1  0.50000000  0.25127000  0.87569300  1
  O  O47  1  0.50000000  0.00000000  0.50000000  1
