# generated using pymatgen
data_Na4HfC8O19
_symmetry_space_group_name_H-M   'P 1'
_cell_length_a   10.21993425
_cell_length_b   10.21993425
_cell_length_c   12.26281700
_cell_angle_alpha   90.00000000
_cell_angle_beta   90.00000000
_cell_angle_gamma   136.72864441
_symmetry_Int_Tables_number   1
_chemical_formula_structural   Na4HfC8O19
_chemical_formula_sum   'Na8 Hf2 C16 O38'
_cell_volume   877.94040145
_cell_formula_units_Z   2
loop_
 _symmetry_equiv_pos_site_id
 _symmetry_equiv_pos_as_xyz
  1  'x, y, z'
loop_
 _atom_site_type_symbol
 _atom_site_label
 _atom_site_symmetry_multiplicity
 _atom_site_fract_x
 _atom_site_fract_y
 _atom_site_fract_z
 _atom_site_occupancy
  Na  Na0  1  0.02098800  0.55779800  0.33185100  1
  Na  Na1  1  0.97901200  0.44220200  0.83185100  1
  Na  Na2  1  0.44220200  0.97901200  0.16814900  1
  Na  Na3  1  0.55779800  0.02098800  0.66814900  1
  Na  Na4  1  0.14003100  0.14003100  0.00000000  1
  Na  Na5  1  0.85996900  0.85996900  0.50000000  1
  Na  Na6  1  0.58647600  0.41352400  0.25000000  1
  Na  Na7  1  0.41352400  0.58647600  0.75000000  1
  Hf  Hf8  1  0.39143300  0.60856700  0.25000000  1
  Hf  Hf9  1  0.60856700  0.39143300  0.75000000  1
  C  C10  1  0.03822700  0.22852700  0.35863000  1
  C  C11  1  0.96177300  0.77147300  0.85863000  1
  C  C12  1  0.77147300  0.96177300  0.14137000  1
  C  C13  1  0.22852700  0.03822700  0.64137000  1
  C  C14  1  0.18050500  0.21514400  0.34115500  1
  C  C15  1  0.81949500  0.78485600  0.84115500  1
  C  C16  1  0.78485600  0.81949500  0.15884500  1
  C  C17  1  0.21514400  0.18050500  0.65884500  1
  C  C18  1  0.14516600  0.55161900  0.06693700  1
  C  C19  1  0.85483400  0.44838100  0.56693700  1
  C  C20  1  0.44838100  0.85483400  0.43306300  1
  C  C21  1  0.55161900  0.14516600  0.93306300  1
  C  C22  1  0.22717200  0.48270500  0.01687900  1
  C  C23  1  0.77282800  0.51729500  0.51687900  1
  C  C24  1  0.51729500  0.77282800  0.48312100  1
  C  C25  1  0.48270500  0.22717200  0.98312100  1
  O  O26  1  0.21574800  0.62843700  0.16185800  1
  O  O27  1  0.78425200  0.37156300  0.66185800  1
  O  O28  1  0.37156300  0.78425200  0.33814200  1
  O  O29  1  0.62843700  0.21574800  0.83814200  1
  O  O30  1  0.32945200  0.35752800  0.28634600  1
  O  O31  1  0.67054800  0.64247200  0.78634600  1
  O  O32  1  0.64247200  0.67054800  0.21365400  1
  O  O33  1  0.35752800  0.32945200  0.71365400  1
  O  O34  1  0.89583200  0.57845200  0.17284300  1
  O  O35  1  0.10416800  0.42154800  0.67284300  1
  O  O36  1  0.42154800  0.10416800  0.32715700  1
  O  O37  1  0.57845200  0.89583200  0.82715700  1
  O  O38  1  0.10924400  0.38994700  0.32401100  1
  O  O39  1  0.89075600  0.61005300  0.82401100  1
  O  O40  1  0.61005300  0.89075600  0.17598900  1
  O  O41  1  0.38994700  0.10924400  0.67598900  1
  O  O42  1  0.32384300  0.48540100  0.08678600  1
  O  O43  1  0.67615700  0.51459900  0.58678600  1
  O  O44  1  0.51459900  0.67615700  0.41321400  1
  O  O45  1  0.48540100  0.32384300  0.91321400  1
  O  O46  1  0.80596100  0.57300100  0.42090500  1
  O  O47  1  0.19403900  0.42699900  0.92090500  1
  O  O48  1  0.42699900  0.19403900  0.07909500  1
  O  O49  1  0.57300100  0.80596100  0.57909500  1
  O  O50  1  0.90648900  0.12009400  0.10087300  1
  O  O51  1  0.09351100  0.87990600  0.60087300  1
  O  O52  1  0.87990600  0.09351100  0.39912700  1
  O  O53  1  0.12009400  0.90648900  0.89912700  1
  O  O54  1  0.07861400  0.14425800  0.62238800  1
  O  O55  1  0.92138600  0.85574200  0.12238800  1
  O  O56  1  0.85574200  0.92138600  0.87761200  1
  O  O57  1  0.14425800  0.07861400  0.37761200  1
  O  O58  1  0.02370800  0.52879300  0.01800000  1
  O  O59  1  0.97629200  0.47120700  0.51800000  1
  O  O60  1  0.47120700  0.97629200  0.48200000  1
  O  O61  1  0.52879300  0.02370800  0.98200000  1
  O  O62  1  0.70869600  0.29130400  0.25000000  1
  O  O63  1  0.29130400  0.70869600  0.75000000  1
