# generated using pymatgen
data_MnPNO5
_symmetry_space_group_name_H-M   'P 1'
_cell_length_a   5.31202000
_cell_length_b   5.72449300
_cell_length_c   7.96436400
_cell_angle_alpha   90.00000000
_cell_angle_beta   90.00000000
_cell_angle_gamma   90.00000000
_symmetry_Int_Tables_number   1
_chemical_formula_structural   MnPNO5
_chemical_formula_sum   'Mn2 P2 N2 O10'
_cell_volume   242.18532882
_cell_formula_units_Z   2
loop_
 _symmetry_equiv_pos_site_id
 _symmetry_equiv_pos_as_xyz
  1  'x, y, z'
loop_
 _atom_site_type_symbol
 _atom_site_label
 _atom_site_symmetry_multiplicity
 _atom_site_fract_x
 _atom_site_fract_y
 _atom_site_fract_z
 _atom_site_occupancy
  Mn  Mn0  1  0.45700400  0.00000000  0.49540000  1
  Mn  Mn1  1  0.95700400  0.50000000  0.50460000  1
  P  P2  1  0.00265500  0.00000000  0.29470200  1
  P  P3  1  0.50265500  0.50000000  0.70529800  1
  N  N4  1  0.30514700  0.00000000  0.99598900  1
  N  N5  1  0.80514700  0.50000000  0.00401100  1
  O  O6  1  0.71791500  0.00000000  0.30696500  1
  O  O7  1  0.21791500  0.50000000  0.69303500  1
  O  O8  1  0.03896900  0.00000000  0.09300400  1
  O  O9  1  0.53896900  0.50000000  0.90699600  1
  O  O10  1  0.25948700  0.00000000  0.85349200  1
  O  O11  1  0.75948700  0.50000000  0.14650800  1
  O  O12  1  0.13441200  0.21448400  0.37621000  1
  O  O13  1  0.63441200  0.28551600  0.62379000  1
  O  O14  1  0.63441200  0.71448400  0.62379000  1
  O  O15  1  0.13441200  0.78551600  0.37621000  1
