# generated using pymatgen
data_Na3La(AsO4)2
_symmetry_space_group_name_H-M   'P 1'
_cell_length_a   5.64756600
_cell_length_b   14.47504200
_cell_length_c   19.69883500
_cell_angle_alpha   90.00000000
_cell_angle_beta   90.00000000
_cell_angle_gamma   90.00000000
_symmetry_Int_Tables_number   1
_chemical_formula_structural   Na3La(AsO4)2
_chemical_formula_sum   'Na24 La8 As16 O64'
_cell_volume   1610.35523714
_cell_formula_units_Z   8
loop_
 _symmetry_equiv_pos_site_id
 _symmetry_equiv_pos_as_xyz
  1  'x, y, z'
loop_
 _atom_site_type_symbol
 _atom_site_label
 _atom_site_symmetry_multiplicity
 _atom_site_fract_x
 _atom_site_fract_y
 _atom_site_fract_z
 _atom_site_occupancy
  Na  Na0  1  0.02284300  0.78346400  0.50583300  1
  Na  Na1  1  0.97715700  0.21653600  0.00583300  1
  Na  Na2  1  0.97715700  0.28346400  0.50583300  1
  Na  Na3  1  0.02284300  0.71653600  0.00583300  1
  Na  Na4  1  0.01629900  0.04716100  0.85257100  1
  Na  Na5  1  0.98370100  0.95283900  0.35257100  1
  Na  Na6  1  0.98370100  0.54716100  0.85257100  1
  Na  Na7  1  0.01629900  0.45283900  0.35257100  1
  Na  Na8  1  0.01356000  0.13797500  0.67276200  1
  Na  Na9  1  0.98644000  0.86202500  0.17276200  1
  Na  Na10  1  0.98644000  0.63797500  0.67276200  1
  Na  Na11  1  0.01356000  0.36202500  0.17276200  1
  Na  Na12  1  0.52997700  0.20278500  0.76726200  1
  Na  Na13  1  0.47002300  0.79721500  0.26726200  1
  Na  Na14  1  0.47002300  0.70278500  0.76726200  1
  Na  Na15  1  0.52997700  0.29721500  0.26726200  1
  Na  Na16  1  0.45769700  0.03307900  0.61209200  1
  Na  Na17  1  0.54230300  0.96692100  0.11209200  1
  Na  Na18  1  0.54230300  0.53307900  0.61209200  1
  Na  Na19  1  0.45769700  0.46692100  0.11209200  1
  Na  Na20  1  0.50638700  0.11643400  0.94776700  1
  Na  Na21  1  0.49361300  0.88356600  0.44776700  1
  Na  Na22  1  0.49361300  0.61643400  0.94776700  1
  Na  Na23  1  0.50638700  0.38356600  0.44776700  1
  La  La24  1  0.06938400  0.38796200  0.69625300  1
  La  La25  1  0.93061600  0.61203800  0.19625300  1
  La  La26  1  0.93061600  0.88796200  0.69625300  1
  La  La27  1  0.06938400  0.11203800  0.19625300  1
  La  La28  1  0.44040000  0.36345900  0.92619800  1
  La  La29  1  0.55960000  0.63654100  0.42619800  1
  La  La30  1  0.55960000  0.86345900  0.92619800  1
  La  La31  1  0.44040000  0.13654100  0.42619800  1
  As  As32  1  0.03374500  0.52445700  0.51901200  1
  As  As33  1  0.96625500  0.47554300  0.01901200  1
  As  As34  1  0.96625500  0.02445700  0.51901200  1
  As  As35  1  0.03374500  0.97554300  0.01901200  1
  As  As36  1  0.01579200  0.77213400  0.84714800  1
  As  As37  1  0.98420800  0.22786600  0.34714800  1
  As  As38  1  0.98420800  0.27213400  0.84714800  1
  As  As39  1  0.01579200  0.72786600  0.34714800  1
  As  As40  1  0.52668200  0.47832400  0.77631200  1
  As  As41  1  0.47331800  0.52167600  0.27631200  1
  As  As42  1  0.47331800  0.97832400  0.77631200  1
  As  As43  1  0.52668200  0.02167600  0.27631200  1
  As  As44  1  0.54091500  0.27347400  0.60380100  1
  As  As45  1  0.45908500  0.72652600  0.10380100  1
  As  As46  1  0.45908500  0.77347400  0.60380100  1
  As  As47  1  0.54091500  0.22652600  0.10380100  1
  O  O48  1  0.41135200  0.18966100  0.65223800  1
  O  O49  1  0.58864800  0.81033900  0.15223800  1
  O  O50  1  0.58864800  0.68966100  0.65223800  1
  O  O51  1  0.41135200  0.31033900  0.15223800  1
  O  O52  1  0.29661200  0.53230300  0.73472900  1
  O  O53  1  0.70338800  0.46769700  0.23472900  1
  O  O54  1  0.70338800  0.03230300  0.73472900  1
  O  O55  1  0.29661200  0.96769700  0.23472900  1
  O  O56  1  0.10614300  0.12833700  0.50249900  1
  O  O57  1  0.89385700  0.87166300  0.00249900  1
  O  O58  1  0.89385700  0.62833700  0.50249900  1
  O  O59  1  0.10614300  0.37166300  0.00249900  1
  O  O60  1  0.20405500  0.21626400  0.89192800  1
  O  O61  1  0.79594500  0.78373600  0.39192800  1
  O  O62  1  0.79594500  0.71626400  0.89192800  1
  O  O63  1  0.20405500  0.28373600  0.39192800  1
  O  O64  1  0.33511500  0.53419200  0.50305400  1
  O  O65  1  0.66488500  0.46580800  0.00305400  1
  O  O66  1  0.66488500  0.03419200  0.50305400  1
  O  O67  1  0.33511500  0.96580800  0.00305400  1
  O  O68  1  0.09316200  0.55952700  0.96973400  1
  O  O69  1  0.90683800  0.44047300  0.46973400  1
  O  O70  1  0.90683800  0.05952700  0.96973400  1
  O  O71  1  0.09316200  0.94047300  0.46973400  1
  O  O72  1  0.20999100  0.00862300  0.73868300  1
  O  O73  1  0.79000900  0.99137700  0.23868300  1
  O  O74  1  0.79000900  0.50862300  0.73868300  1
  O  O75  1  0.20999100  0.49137700  0.23868300  1
  O  O76  1  0.39843900  0.37732700  0.61777900  1
  O  O77  1  0.60156100  0.62267300  0.11777900  1
  O  O78  1  0.60156100  0.87732700  0.61777900  1
  O  O79  1  0.39843900  0.12267300  0.11777900  1
  O  O80  1  0.47587200  0.36148000  0.77385600  1
  O  O81  1  0.52412800  0.63852000  0.27385600  1
  O  O82  1  0.52412800  0.86148000  0.77385600  1
  O  O83  1  0.47587200  0.13852000  0.27385600  1
  O  O84  1  0.04619600  0.38830600  0.85063100  1
  O  O85  1  0.95380400  0.61169400  0.35063100  1
  O  O86  1  0.95380400  0.88830600  0.85063100  1
  O  O87  1  0.04619600  0.11169400  0.35063100  1
  O  O88  1  0.15997700  0.78331400  0.62358600  1
  O  O89  1  0.84002300  0.21668600  0.12358600  1
  O  O90  1  0.84002300  0.28331400  0.62358600  1
  O  O91  1  0.15997700  0.71668600  0.12358600  1
  O  O92  1  0.01459100  0.74018100  0.76310100  1
  O  O93  1  0.98540900  0.25981900  0.26310100  1
  O  O94  1  0.98540900  0.24018100  0.76310100  1
  O  O95  1  0.01459100  0.75981900  0.26310100  1
  O  O96  1  0.46697500  0.01123600  0.86041700  1
  O  O97  1  0.53302500  0.98876400  0.36041700  1
  O  O98  1  0.53302500  0.51123600  0.86041700  1
  O  O99  1  0.46697500  0.48876400  0.36041700  1
  O  O100  1  0.01447200  0.00392900  0.60429600  1
  O  O101  1  0.98552800  0.99607100  0.10429600  1
  O  O102  1  0.98552800  0.50392900  0.60429600  1
  O  O103  1  0.01447200  0.49607100  0.10429600  1
  O  O104  1  0.71523300  0.24310300  0.88209500  1
  O  O105  1  0.28476700  0.75689700  0.38209500  1
  O  O106  1  0.28476700  0.74310300  0.88209500  1
  O  O107  1  0.71523300  0.25689700  0.38209500  1
  O  O108  1  0.53179200  0.25132500  0.51776300  1
  O  O109  1  0.46820800  0.74867500  0.01776300  1
  O  O110  1  0.46820800  0.75132500  0.51776300  1
  O  O111  1  0.53179200  0.24867500  0.01776300  1
