# generated using pymatgen
data_Pr2(N4O9)3
_symmetry_space_group_name_H-M   'P 1'
_cell_length_a   13.76016042
_cell_length_b   13.76016042
_cell_length_c   13.76016042
_cell_angle_alpha   90.00000000
_cell_angle_beta   90.00000000
_cell_angle_gamma   90.00000000
_symmetry_Int_Tables_number   1
_chemical_formula_structural   Pr2(N4O9)3
_chemical_formula_sum   'Pr8 N48 O108'
_cell_volume   2605.37649768
_cell_formula_units_Z   4
loop_
 _symmetry_equiv_pos_site_id
 _symmetry_equiv_pos_as_xyz
  1  'x, y, z'
loop_
 _atom_site_type_symbol
 _atom_site_label
 _atom_site_symmetry_multiplicity
 _atom_site_fract_x
 _atom_site_fract_y
 _atom_site_fract_z
 _atom_site_occupancy
  Pr  Pr0  1  0.06081506  0.06081506  0.06081506  1
  Pr  Pr1  1  0.43918494  0.93918494  0.56081506  1
  Pr  Pr2  1  0.93918494  0.56081506  0.43918494  1
  Pr  Pr3  1  0.81081506  0.31081506  0.18918494  1
  Pr  Pr4  1  0.56081506  0.43918494  0.93918494  1
  Pr  Pr5  1  0.68918494  0.68918494  0.68918494  1
  Pr  Pr6  1  0.31081506  0.18918494  0.81081506  1
  Pr  Pr7  1  0.18918494  0.81081506  0.31081506  1
  N  N8  1  0.09767417  0.42288815  0.35963792  1
  N  N9  1  0.40232583  0.57711185  0.85963792  1
  N  N10  1  0.90232583  0.92288815  0.14036208  1
  N  N11  1  0.35963792  0.09767417  0.42288815  1
  N  N12  1  0.17288815  0.34767417  0.89036208  1
  N  N13  1  0.59767417  0.07711185  0.64036208  1
  N  N14  1  0.85963792  0.40232583  0.57711185  1
  N  N15  1  0.32711185  0.65232583  0.39036208  1
  N  N16  1  0.14036208  0.90232583  0.92288815  1
  N  N17  1  0.67288815  0.15232583  0.10963792  1
  N  N18  1  0.64036208  0.59767417  0.07711185  1
  N  N19  1  0.82711185  0.84767417  0.60963792  1
  N  N20  1  0.42288815  0.35963792  0.09767417  1
  N  N21  1  0.84767417  0.60963792  0.82711185  1
  N  N22  1  0.92288815  0.14036208  0.90232583  1
  N  N23  1  0.65232583  0.39036208  0.32711185  1
  N  N24  1  0.07711185  0.64036208  0.59767417  1
  N  N25  1  0.34767417  0.89036208  0.17288815  1
  N  N26  1  0.57711185  0.85963792  0.40232583  1
  N  N27  1  0.15232583  0.10963792  0.67288815  1
  N  N28  1  0.89036208  0.17288815  0.34767417  1
  N  N29  1  0.39036208  0.32711185  0.65232583  1
  N  N30  1  0.60963792  0.82711185  0.84767417  1
  N  N31  1  0.10963792  0.67288815  0.15232583  1
  N  N32  1  0.12500000  0.19877702  0.44877702  1
  N  N33  1  0.37500000  0.80122298  0.94877702  1
  N  N34  1  0.87500000  0.69877702  0.05122298  1
  N  N35  1  0.44877702  0.12500000  0.19877702  1
  N  N36  1  0.94877702  0.37500000  0.80122298  1
  N  N37  1  0.62500000  0.30122298  0.55122298  1
  N  N38  1  0.55122298  0.62500000  0.30122298  1
  N  N39  1  0.05122298  0.87500000  0.69877702  1
  N  N40  1  0.19877702  0.44877702  0.12500000  1
  N  N41  1  0.69877702  0.05122298  0.87500000  1
  N  N42  1  0.30122298  0.55122298  0.62500000  1
  N  N43  1  0.80122298  0.94877702  0.37500000  1
  N  N44  1  0.12500000  0.02103714  0.27103714  1
  N  N45  1  0.37500000  0.97896286  0.77103714  1
  N  N46  1  0.87500000  0.52103714  0.22896286  1
  N  N47  1  0.27103714  0.12500000  0.02103714  1
  N  N48  1  0.77103714  0.37500000  0.97896286  1
  N  N49  1  0.62500000  0.47896286  0.72896286  1
  N  N50  1  0.72896286  0.62500000  0.47896286  1
  N  N51  1  0.22896286  0.87500000  0.52103714  1
  N  N52  1  0.02103714  0.27103714  0.12500000  1
  N  N53  1  0.52103714  0.22896286  0.87500000  1
  N  N54  1  0.47896286  0.72896286  0.62500000  1
  N  N55  1  0.97896286  0.77103714  0.37500000  1
  O  O56  1  0.12500000  0.95376122  0.20376122  1
  O  O57  1  0.37500000  0.04623878  0.70376122  1
  O  O58  1  0.87500000  0.45376122  0.29623878  1
  O  O59  1  0.20376122  0.12500000  0.95376122  1
  O  O60  1  0.70376122  0.37500000  0.04623878  1
  O  O61  1  0.62500000  0.54623878  0.79623878  1
  O  O62  1  0.79623878  0.62500000  0.54623878  1
  O  O63  1  0.29623878  0.87500000  0.45376122  1
  O  O64  1  0.95376122  0.20376122  0.12500000  1
  O  O65  1  0.45376122  0.29623878  0.87500000  1
  O  O66  1  0.54623878  0.79623878  0.62500000  1
  O  O67  1  0.04623878  0.70376122  0.37500000  1
  O  O68  1  0.09597447  0.10374845  0.24809288  1
  O  O69  1  0.40402553  0.89625155  0.74809288  1
  O  O70  1  0.90402553  0.60374845  0.25190712  1
  O  O71  1  0.24809288  0.09597447  0.10374845  1
  O  O72  1  0.85374845  0.34597447  0.00190712  1
  O  O73  1  0.59597447  0.39625155  0.75190712  1
  O  O74  1  0.74809288  0.40402553  0.89625155  1
  O  O75  1  0.64625155  0.65402553  0.50190712  1
  O  O76  1  0.25190712  0.90402553  0.60374845  1
  O  O77  1  0.35374845  0.15402553  0.99809288  1
  O  O78  1  0.75190712  0.59597447  0.39625155  1
  O  O79  1  0.14625155  0.84597447  0.49809288  1
  O  O80  1  0.10374845  0.24809288  0.09597447  1
  O  O81  1  0.84597447  0.49809288  0.14625155  1
  O  O82  1  0.60374845  0.25190712  0.90402553  1
  O  O83  1  0.65402553  0.50190712  0.64625155  1
  O  O84  1  0.39625155  0.75190712  0.59597447  1
  O  O85  1  0.34597447  0.00190712  0.85374845  1
  O  O86  1  0.89625155  0.74809288  0.40402553  1
  O  O87  1  0.15402553  0.99809288  0.35374845  1
  O  O88  1  0.00190712  0.85374845  0.34597447  1
  O  O89  1  0.50190712  0.64625155  0.65402553  1
  O  O90  1  0.49809288  0.14625155  0.84597447  1
  O  O91  1  0.99809288  0.35374845  0.15402553  1
  O  O92  1  0.04886492  0.39953114  0.43432430  1
  O  O93  1  0.45113508  0.60046886  0.93432430  1
  O  O94  1  0.95113508  0.89953114  0.06567570  1
  O  O95  1  0.43432430  0.04886492  0.39953114  1
  O  O96  1  0.14953114  0.29886492  0.81567570  1
  O  O97  1  0.54886492  0.10046886  0.56567570  1
  O  O98  1  0.93432430  0.45113508  0.60046886  1
  O  O99  1  0.35046886  0.70113508  0.31567570  1
  O  O100  1  0.06567570  0.95113508  0.89953114  1
  O  O101  1  0.64953114  0.20113508  0.18432430  1
  O  O102  1  0.56567570  0.54886492  0.10046886  1
  O  O103  1  0.85046886  0.79886492  0.68432430  1
  O  O104  1  0.39953114  0.43432430  0.04886492  1
  O  O105  1  0.79886492  0.68432430  0.85046886  1
  O  O106  1  0.89953114  0.06567570  0.95113508  1
  O  O107  1  0.70113508  0.31567570  0.35046886  1
  O  O108  1  0.10046886  0.56567570  0.54886492  1
  O  O109  1  0.29886492  0.81567570  0.14953114  1
  O  O110  1  0.60046886  0.93432430  0.45113508  1
  O  O111  1  0.20113508  0.18432430  0.64953114  1
  O  O112  1  0.81567570  0.14953114  0.29886492  1
  O  O113  1  0.31567570  0.35046886  0.70113508  1
  O  O114  1  0.68432430  0.85046886  0.79886492  1
  O  O115  1  0.18432430  0.64953114  0.20113508  1
  O  O116  1  0.15968485  0.36730017  0.32464654  1
  O  O117  1  0.34031515  0.63269983  0.82464654  1
  O  O118  1  0.84031515  0.86730017  0.17535346  1
  O  O119  1  0.32464654  0.15968485  0.36730017  1
  O  O120  1  0.11730017  0.40968485  0.92535346  1
  O  O121  1  0.65968485  0.13269983  0.67535346  1
  O  O122  1  0.82464654  0.34031515  0.63269983  1
  O  O123  1  0.38269983  0.59031515  0.42535346  1
  O  O124  1  0.17535346  0.84031515  0.86730017  1
  O  O125  1  0.61730017  0.09031515  0.07464654  1
  O  O126  1  0.67535346  0.65968485  0.13269983  1
  O  O127  1  0.88269983  0.90968485  0.57464654  1
  O  O128  1  0.36730017  0.32464654  0.15968485  1
  O  O129  1  0.90968485  0.57464654  0.88269983  1
  O  O130  1  0.86730017  0.17535346  0.84031515  1
  O  O131  1  0.59031515  0.42535346  0.38269983  1
  O  O132  1  0.13269983  0.67535346  0.65968485  1
  O  O133  1  0.40968485  0.92535346  0.11730017  1
  O  O134  1  0.63269983  0.82464654  0.34031515  1
  O  O135  1  0.09031515  0.07464654  0.61730017  1
  O  O136  1  0.92535346  0.11730017  0.40968485  1
  O  O137  1  0.42535346  0.38269983  0.59031515  1
  O  O138  1  0.57464654  0.88269983  0.90968485  1
  O  O139  1  0.07464654  0.61730017  0.09031515  1
  O  O140  1  0.08111128  0.50563764  0.32160795  1
  O  O141  1  0.41888872  0.49436236  0.82160795  1
  O  O142  1  0.91888872  0.00563764  0.17839205  1
  O  O143  1  0.32160795  0.08111128  0.50563764  1
  O  O144  1  0.25563764  0.33111128  0.92839205  1
  O  O145  1  0.58111128  0.99436236  0.67839205  1
  O  O146  1  0.82160795  0.41888872  0.49436236  1
  O  O147  1  0.24436236  0.66888872  0.42839205  1
  O  O148  1  0.17839205  0.91888872  0.00563764  1
  O  O149  1  0.75563764  0.16888872  0.07160795  1
  O  O150  1  0.67839205  0.58111128  0.99436236  1
  O  O151  1  0.74436236  0.83111128  0.57160795  1
  O  O152  1  0.50563764  0.32160795  0.08111128  1
  O  O153  1  0.83111128  0.57160795  0.74436236  1
  O  O154  1  0.00563764  0.17839205  0.91888872  1
  O  O155  1  0.66888872  0.42839205  0.24436236  1
  O  O156  1  0.99436236  0.67839205  0.58111128  1
  O  O157  1  0.33111128  0.92839205  0.25563764  1
  O  O158  1  0.49436236  0.82160795  0.41888872  1
  O  O159  1  0.16888872  0.07160795  0.75563764  1
  O  O160  1  0.92839205  0.25563764  0.33111128  1
  O  O161  1  0.42839205  0.24436236  0.66888872  1
  O  O162  1  0.57160795  0.74436236  0.83111128  1
  O  O163  1  0.07160795  0.75563764  0.16888872  1
