# generated using pymatgen
data_Mg3H12SeO9
_symmetry_space_group_name_H-M   'P 1'
_cell_length_a   8.91055400
_cell_length_b   10.27084566
_cell_length_c   10.62936603
_cell_angle_alpha   86.25596687
_cell_angle_beta   67.46160560
_cell_angle_gamma   82.87642632
_symmetry_Int_Tables_number   1
_chemical_formula_structural   Mg3H12SeO9
_chemical_formula_sum   'Mg3 H12 Se1 O9'
_cell_volume   891.38643537
_cell_formula_units_Z   1
loop_
 _symmetry_equiv_pos_site_id
 _symmetry_equiv_pos_as_xyz
  1  'x, y, z'
loop_
 _atom_site_type_symbol
 _atom_site_label
 _atom_site_symmetry_multiplicity
 _atom_site_fract_x
 _atom_site_fract_y
 _atom_site_fract_z
 _atom_site_occupancy
  Mg  Mg0  1  0.89885300  0.43991500  0.95649700  1
  Mg  Mg1  1  0.99291600  0.99820300  0.48045100  1
  Mg  Mg2  1  0.48486400  0.00857900  0.51058200  1
  H  H3  1  0.92100800  0.26916500  0.09286700  1
  H  H4  1  0.86985500  0.18803500  0.79340200  1
  H  H5  1  0.69849900  0.10186500  0.15361500  1
  H  H6  1  0.51581300  0.08101200  0.19130500  1
  H  H7  1  0.69699400  0.47706400  0.20685500  1
  H  H8  1  0.96799100  0.19739300  0.63980200  1
  H  H9  1  0.54105600  0.28571900  0.28673000  1
  H  H10  1  0.93322800  0.37638900  0.72645300  1
  H  H11  1  0.57800100  0.12916900  0.97691100  1
  H  H12  1  0.54023700  0.31284800  0.42859800  1
  H  H13  1  0.94530500  0.53804700  0.70011100  1
  H  H14  1  0.66488900  0.02907300  0.86577400  1
  Se  Se15  1  0.01422100  0.06201900  0.97530300  1
  O  O16  1  0.92221300  0.04812600  0.86696400  1
  O  O17  1  0.88535300  0.03087900  0.13321000  1
  O  O18  1  0.97833500  0.25888600  0.99353400  1
  O  O19  1  0.52094100  0.35689100  0.35135000  1
  O  O20  1  0.95370300  0.46535900  0.76083300  1
  O  O21  1  0.56469900  0.08855400  0.90130000  1
  O  O22  1  0.79688800  0.49413400  0.13085600  1
  O  O23  1  0.88699900  0.25120800  0.71373200  1
  O  O24  1  0.58905000  0.14956000  0.16296500  1
