# generated using pymatgen
data_NdIn2Ni
_symmetry_space_group_name_H-M   'P 1'
_cell_length_a   9.51776404
_cell_length_b   9.51776404
_cell_length_c   21.85743800
_cell_angle_alpha   90.00000000
_cell_angle_beta   90.00000000
_cell_angle_gamma   153.11341546
_symmetry_Int_Tables_number   1
_chemical_formula_structural   NdIn2Ni
_chemical_formula_sum   'Nd10 In20 Ni10'
_cell_volume   895.41536525
_cell_formula_units_Z   10
loop_
 _symmetry_equiv_pos_site_id
 _symmetry_equiv_pos_as_xyz
  1  'x, y, z'
loop_
 _atom_site_type_symbol
 _atom_site_label
 _atom_site_symmetry_multiplicity
 _atom_site_fract_x
 _atom_site_fract_y
 _atom_site_fract_z
 _atom_site_occupancy
  Nd  Nd0  1  0.53074800  0.46925200  0.25000000  1
  Nd  Nd1  1  0.46925200  0.53074800  0.75000000  1
  Nd  Nd2  1  0.77147900  0.22852100  0.12804200  1
  Nd  Nd3  1  0.22852100  0.77147900  0.87195800  1
  Nd  Nd4  1  0.22852100  0.77147900  0.62804200  1
  Nd  Nd5  1  0.77147900  0.22852100  0.37195800  1
  Nd  Nd6  1  0.56250500  0.43749500  0.08001600  1
  Nd  Nd7  1  0.43749500  0.56250500  0.91998400  1
  Nd  Nd8  1  0.43749500  0.56250500  0.58001600  1
  Nd  Nd9  1  0.56250500  0.43749500  0.41998400  1
  In  In10  1  0.27533000  0.72467000  0.25000000  1
  In  In11  1  0.72467000  0.27533000  0.75000000  1
  In  In12  1  0.93316300  0.06683700  0.04289700  1
  In  In13  1  0.06683700  0.93316300  0.95710300  1
  In  In14  1  0.06683700  0.93316300  0.54289700  1
  In  In15  1  0.93316300  0.06683700  0.45710300  1
  In  In16  1  0.86374400  0.13625600  0.67496700  1
  In  In17  1  0.13625600  0.86374400  0.32503300  1
  In  In18  1  0.13625600  0.86374400  0.17496700  1
  In  In19  1  0.86374400  0.13625600  0.82503300  1
  In  In20  1  0.89079800  0.10920200  0.25000000  1
  In  In21  1  0.10920200  0.89079800  0.75000000  1
  In  In22  1  0.80010600  0.19989400  0.53356800  1
  In  In23  1  0.19989400  0.80010600  0.46643200  1
  In  In24  1  0.19989400  0.80010600  0.03356800  1
  In  In25  1  0.80010600  0.19989400  0.96643200  1
  In  In26  1  0.40081600  0.59918400  0.14370700  1
  In  In27  1  0.59918400  0.40081600  0.85629300  1
  In  In28  1  0.59918400  0.40081600  0.64370700  1
  In  In29  1  0.40081600  0.59918400  0.35629300  1
  Ni  Ni30  1  0.65565500  0.34434500  0.53204500  1
  Ni  Ni31  1  0.34434500  0.65565500  0.46795500  1
  Ni  Ni32  1  0.34434500  0.65565500  0.03204500  1
  Ni  Ni33  1  0.65565500  0.34434500  0.96795500  1
  Ni  Ni34  1  0.68360600  0.31639400  0.25000000  1
  Ni  Ni35  1  0.31639400  0.68360600  0.75000000  1
  Ni  Ni36  1  0.98585100  0.01414900  0.15799900  1
  Ni  Ni37  1  0.01414900  0.98585100  0.84200100  1
  Ni  Ni38  1  0.01414900  0.98585100  0.65800000  1
  Ni  Ni39  1  0.98585100  0.01414900  0.34200100  1
