# generated using pymatgen
data_NpCrO11
_symmetry_space_group_name_H-M   'P 1'
_cell_length_a   9.00192984
_cell_length_b   9.20754546
_cell_length_c   11.30736800
_cell_angle_alpha   90.00000000
_cell_angle_beta   90.00000000
_cell_angle_gamma   93.89749610
_symmetry_Int_Tables_number   1
_chemical_formula_structural   NpCrO11
_chemical_formula_sum   'Np4 Cr4 O44'
_cell_volume   935.05131272
_cell_formula_units_Z   4
loop_
 _symmetry_equiv_pos_site_id
 _symmetry_equiv_pos_as_xyz
  1  'x, y, z'
loop_
 _atom_site_type_symbol
 _atom_site_label
 _atom_site_symmetry_multiplicity
 _atom_site_fract_x
 _atom_site_fract_y
 _atom_site_fract_z
 _atom_site_occupancy
  Np  Np0  1  0.96232400  0.66473100  0.56607900  1
  Np  Np1  1  0.03767600  0.33526900  0.43392100  1
  Np  Np2  1  0.03767600  0.83526900  0.06607900  1
  Np  Np3  1  0.96232400  0.16473100  0.93392100  1
  Cr  Cr4  1  0.81756100  0.54009000  0.86420400  1
  Cr  Cr5  1  0.18243900  0.45991000  0.13579600  1
  Cr  Cr6  1  0.18243900  0.95991000  0.36420400  1
  Cr  Cr7  1  0.81756100  0.04009000  0.63579600  1
  O  O8  1  0.88522900  0.83972600  0.16754700  1
  O  O9  1  0.11477100  0.16027400  0.83245300  1
  O  O10  1  0.11477100  0.66027400  0.66754700  1
  O  O11  1  0.88522900  0.33972600  0.33245300  1
  O  O12  1  0.80456600  0.68576900  0.47237600  1
  O  O13  1  0.19543400  0.31423100  0.52762400  1
  O  O14  1  0.19543400  0.81423100  0.97237600  1
  O  O15  1  0.80456600  0.18576900  0.02762400  1
  O  O16  1  0.65209400  0.99668700  0.58983200  1
  O  O17  1  0.34790600  0.00331300  0.41016800  1
  O  O18  1  0.34790600  0.50331300  0.08983200  1
  O  O19  1  0.65209400  0.49668700  0.91016800  1
  O  O20  1  0.91132100  0.64836900  0.96455500  1
  O  O21  1  0.08867900  0.35163100  0.03544500  1
  O  O22  1  0.08867900  0.85163100  0.46455500  1
  O  O23  1  0.91132100  0.14836900  0.53544500  1
  O  O24  1  0.55369600  0.90950500  0.99543400  1
  O  O25  1  0.44630400  0.09049500  0.00456600  1
  O  O26  1  0.44630400  0.59049500  0.49543400  1
  O  O27  1  0.55369600  0.40950500  0.50456600  1
  O  O28  1  0.80746500  0.62685900  0.73380500  1
  O  O29  1  0.19253500  0.37314100  0.26619500  1
  O  O30  1  0.19253500  0.87314100  0.23380500  1
  O  O31  1  0.80746500  0.12685900  0.76619500  1
  O  O32  1  0.91104400  0.88777300  0.65281200  1
  O  O33  1  0.08895600  0.11222700  0.34718800  1
  O  O34  1  0.08895600  0.61222700  0.15281200  1
  O  O35  1  0.91104400  0.38777300  0.84718800  1
  O  O36  1  0.45537800  0.72389000  0.76981200  1
  O  O37  1  0.54462200  0.27611000  0.23018800  1
  O  O38  1  0.54462200  0.77611000  0.26981200  1
  O  O39  1  0.45537800  0.22389000  0.73018800  1
  O  O40  1  0.32797200  0.02175700  0.67587600  1
  O  O41  1  0.67202800  0.97824300  0.32412400  1
  O  O42  1  0.67202800  0.47824300  0.17587600  1
  O  O43  1  0.32797200  0.52175700  0.82412400  1
  O  O44  1  0.40545900  0.63837800  0.85256500  1
  O  O45  1  0.59454100  0.36162200  0.14743500  1
  O  O46  1  0.59454100  0.86162200  0.35256500  1
  O  O47  1  0.40545900  0.13837800  0.64743500  1
  O  O48  1  0.91394400  0.93654000  0.93097200  1
  O  O49  1  0.08605600  0.06346000  0.06902800  1
  O  O50  1  0.08605600  0.56346000  0.43097200  1
  O  O51  1  0.91394400  0.43654000  0.56902800  1
