# generated using pymatgen
data_La3NbGa5O14
_symmetry_space_group_name_H-M   'P 1'
_cell_length_a   8.32263806
_cell_length_b   8.32263806
_cell_length_c   5.24665200
_cell_angle_alpha   90.00000000
_cell_angle_beta   90.00000000
_cell_angle_gamma   120.00000045
_symmetry_Int_Tables_number   1
_chemical_formula_structural   La3NbGa5O14
_chemical_formula_sum   'La3 Nb1 Ga5 O14'
_cell_volume   314.72765436
_cell_formula_units_Z   1
loop_
 _symmetry_equiv_pos_site_id
 _symmetry_equiv_pos_as_xyz
  1  'x, y, z'
loop_
 _atom_site_type_symbol
 _atom_site_label
 _atom_site_symmetry_multiplicity
 _atom_site_fract_x
 _atom_site_fract_y
 _atom_site_fract_z
 _atom_site_occupancy
  La  La0  1  0.57513700  0.00000000  0.00000000  1
  La  La1  1  0.00000000  0.57513700  0.00000000  1
  La  La2  1  0.42486300  0.42486300  0.00000000  1
  Nb  Nb3  1  0.00000000  0.00000000  0.00000000  1
  Ga  Ga4  1  0.33333300  0.66666700  0.52936500  1
  Ga  Ga5  1  0.66666700  0.33333300  0.47063500  1
  Ga  Ga6  1  0.24333200  0.00000000  0.50000000  1
  Ga  Ga7  1  0.00000000  0.24333200  0.50000000  1
  Ga  Ga8  1  0.75666800  0.75666800  0.50000000  1
  O  O9  1  0.14626700  0.22424700  0.24195800  1
  O  O10  1  0.77575300  0.92202000  0.24195800  1
  O  O11  1  0.22424700  0.14626700  0.75804200  1
  O  O12  1  0.07798000  0.85373300  0.24195800  1
  O  O13  1  0.92202000  0.77575300  0.75804200  1
  O  O14  1  0.85373300  0.07798000  0.75804200  1
  O  O15  1  0.33333300  0.66666700  0.18184600  1
  O  O16  1  0.66666700  0.33333300  0.81815400  1
  O  O17  1  0.45761000  0.14630200  0.30195300  1
  O  O18  1  0.85369800  0.31130800  0.30195300  1
  O  O19  1  0.14630200  0.45761000  0.69804700  1
  O  O20  1  0.68869200  0.54239000  0.30195300  1
  O  O21  1  0.31130800  0.85369800  0.69804700  1
  O  O22  1  0.54239000  0.68869200  0.69804700  1
