# generated using pymatgen
data_KVHO3
_symmetry_space_group_name_H-M   'P 1'
_cell_length_a   3.75647800
_cell_length_b   8.11469100
_cell_length_c   13.71615300
_cell_angle_alpha   90.00000000
_cell_angle_beta   90.00000000
_cell_angle_gamma   90.00000000
_symmetry_Int_Tables_number   1
_chemical_formula_structural   KVHO3
_chemical_formula_sum   'K4 V4 H4 O12'
_cell_volume   418.10480397
_cell_formula_units_Z   4
loop_
 _symmetry_equiv_pos_site_id
 _symmetry_equiv_pos_as_xyz
  1  'x, y, z'
loop_
 _atom_site_type_symbol
 _atom_site_label
 _atom_site_symmetry_multiplicity
 _atom_site_fract_x
 _atom_site_fract_y
 _atom_site_fract_z
 _atom_site_occupancy
  K  K0  1  0.75000000  0.74863200  0.23100500  1
  K  K1  1  0.25000000  0.25136800  0.76899500  1
  K  K2  1  0.25000000  0.75136800  0.73100500  1
  K  K3  1  0.75000000  0.24863200  0.26899500  1
  V  V4  1  0.75000000  0.57433000  0.91891100  1
  V  V5  1  0.25000000  0.42567000  0.08108900  1
  V  V6  1  0.25000000  0.92567000  0.41891100  1
  V  V7  1  0.75000000  0.07433000  0.58108900  1
  H  H8  1  0.75000000  0.61499300  0.58479200  1
  H  H9  1  0.25000000  0.38500700  0.41520800  1
  H  H10  1  0.25000000  0.88500700  0.08479200  1
  H  H11  1  0.75000000  0.11499300  0.91520800  1
  O  O12  1  0.75000000  0.77731500  0.90365900  1
  O  O13  1  0.25000000  0.22268500  0.09634100  1
  O  O14  1  0.25000000  0.72268500  0.40365900  1
  O  O15  1  0.75000000  0.27731500  0.59634100  1
  O  O16  1  0.75000000  0.96517700  0.44989200  1
  O  O17  1  0.25000000  0.03482300  0.55010800  1
  O  O18  1  0.25000000  0.53482300  0.94989200  1
  O  O19  1  0.75000000  0.46517700  0.05010800  1
  O  O20  1  0.75000000  0.98825100  0.69410900  1
  O  O21  1  0.25000000  0.01174900  0.30589100  1
  O  O22  1  0.25000000  0.51174900  0.19410900  1
  O  O23  1  0.75000000  0.48825100  0.80589100  1
