# generated using pymatgen
data_Sm4Co
_symmetry_space_group_name_H-M   'P 1'
_cell_length_a   7.61923820
_cell_length_b   7.61923820
_cell_length_c   7.61923820
_cell_angle_alpha   60.00000000
_cell_angle_beta   60.00000000
_cell_angle_gamma   60.00000000
_symmetry_Int_Tables_number   1
_chemical_formula_structural   Sm4Co
_chemical_formula_sum   'Sm8 Co2'
_cell_volume   312.76608638
_cell_formula_units_Z   2
loop_
 _symmetry_equiv_pos_site_id
 _symmetry_equiv_pos_as_xyz
  1  'x, y, z'
loop_
 _atom_site_type_symbol
 _atom_site_label
 _atom_site_symmetry_multiplicity
 _atom_site_fract_x
 _atom_site_fract_y
 _atom_site_fract_z
 _atom_site_occupancy
  Sm  Sm0  1  0.38521800  0.38521800  0.38521800  1
  Sm  Sm1  1  0.38521800  0.38521800  0.84434600  1
  Sm  Sm2  1  0.38521800  0.84434600  0.38521800  1
  Sm  Sm3  1  0.86478200  0.86478200  0.40565400  1
  Sm  Sm4  1  0.86478200  0.86478200  0.86478200  1
  Sm  Sm5  1  0.84434600  0.38521800  0.38521800  1
  Sm  Sm6  1  0.86478200  0.40565400  0.86478200  1
  Sm  Sm7  1  0.40565400  0.86478200  0.86478200  1
  Co  Co8  1  0.00000000  0.00000000  0.00000000  1
  Co  Co9  1  0.25000000  0.25000000  0.25000000  1
