# generated using pymatgen
data_KSmTiO4
_symmetry_space_group_name_H-M   'P 1'
_cell_length_a   5.42156100
_cell_length_b   5.50518200
_cell_length_c   13.23762200
_cell_angle_alpha   90.00000000
_cell_angle_beta   90.00000000
_cell_angle_gamma   90.00000000
_symmetry_Int_Tables_number   1
_chemical_formula_structural   KSmTiO4
_chemical_formula_sum   'K4 Sm4 Ti4 O16'
_cell_volume   395.09906818
_cell_formula_units_Z   4
loop_
 _symmetry_equiv_pos_site_id
 _symmetry_equiv_pos_as_xyz
  1  'x, y, z'
loop_
 _atom_site_type_symbol
 _atom_site_label
 _atom_site_symmetry_multiplicity
 _atom_site_fract_x
 _atom_site_fract_y
 _atom_site_fract_z
 _atom_site_occupancy
  K  K0  1  0.25000000  0.48366100  0.59333000  1
  K  K1  1  0.75000000  0.51633900  0.40667000  1
  K  K2  1  0.25000000  0.98366100  0.40667000  1
  K  K3  1  0.75000000  0.01633900  0.59333000  1
  Sm  Sm4  1  0.25000000  0.97780900  0.10344500  1
  Sm  Sm5  1  0.75000000  0.02219100  0.89655500  1
  Sm  Sm6  1  0.25000000  0.47780900  0.89655500  1
  Sm  Sm7  1  0.75000000  0.52219100  0.10344500  1
  Ti  Ti8  1  0.25000000  0.49399600  0.25154000  1
  Ti  Ti9  1  0.75000000  0.50600400  0.74846000  1
  Ti  Ti10  1  0.25000000  0.99399600  0.74846000  1
  Ti  Ti11  1  0.75000000  0.00600400  0.25154000  1
  O  O12  1  0.25000000  0.56064100  0.06401100  1
  O  O13  1  0.75000000  0.43935900  0.93598900  1
  O  O14  1  0.25000000  0.06064100  0.93598900  1
  O  O15  1  0.75000000  0.93935900  0.06401100  1
  O  O16  1  0.25000000  0.97240300  0.61586200  1
  O  O17  1  0.75000000  0.02759700  0.38413800  1
  O  O18  1  0.25000000  0.47240300  0.38413800  1
  O  O19  1  0.75000000  0.52759700  0.61586200  1
  O  O20  1  0.00000000  0.75000000  0.23064300  1
  O  O21  1  0.00000000  0.25000000  0.76935700  1
  O  O22  1  0.50000000  0.25000000  0.76935700  1
  O  O23  1  0.50000000  0.75000000  0.23064300  1
  O  O24  1  0.00000000  0.75000000  0.79026900  1
  O  O25  1  0.00000000  0.25000000  0.20973100  1
  O  O26  1  0.50000000  0.25000000  0.20973100  1
  O  O27  1  0.50000000  0.75000000  0.79026900  1
