# generated using pymatgen
data_Th(BRu)2
_symmetry_space_group_name_H-M   'P 1'
_cell_length_a   6.46632100
_cell_length_b   6.46632100
_cell_length_c   14.69745760
_cell_angle_alpha   102.70791536
_cell_angle_beta   102.70791536
_cell_angle_gamma   90.00000000
_symmetry_Int_Tables_number   1
_chemical_formula_structural   Th(BRu)2
_chemical_formula_sum   'Th8 B16 Ru16'
_cell_volume   584.05362812
_cell_formula_units_Z   8
loop_
 _symmetry_equiv_pos_site_id
 _symmetry_equiv_pos_as_xyz
  1  'x, y, z'
loop_
 _atom_site_type_symbol
 _atom_site_label
 _atom_site_symmetry_multiplicity
 _atom_site_fract_x
 _atom_site_fract_y
 _atom_site_fract_z
 _atom_site_occupancy
  Th  Th0  1  0.12500000  0.37500000  0.25000000  1
  Th  Th1  1  0.12500000  0.87500000  0.25000000  1
  Th  Th2  1  0.12500000  0.87500000  0.75000000  1
  Th  Th3  1  0.62500000  0.37500000  0.25000000  1
  Th  Th4  1  0.62500000  0.87500000  0.75000000  1
  Th  Th5  1  0.62500000  0.87500000  0.25000000  1
  Th  Th6  1  0.62500000  0.37500000  0.75000000  1
  Th  Th7  1  0.12500000  0.37500000  0.75000000  1
  B  B8  1  0.41559200  0.24840200  0.55947900  1
  B  B9  1  0.14388700  0.31107700  0.55947900  1
  B  B10  1  0.56107700  0.16559200  0.05947900  1
  B  B11  1  0.33440800  0.93892300  0.94052100  1
  B  B12  1  0.83440800  0.50159800  0.94052100  1
  B  B13  1  0.49840200  0.89388700  0.05947900  1
  B  B14  1  0.60611300  0.00159800  0.94052100  1
  B  B15  1  0.10611300  0.43892300  0.94052100  1
  B  B16  1  0.18892300  0.35611300  0.44052100  1
  B  B17  1  0.68892300  0.58440800  0.44052100  1
  B  B18  1  0.25159800  0.08440800  0.44052100  1
  B  B19  1  0.75159800  0.85611300  0.44052100  1
  B  B20  1  0.91559200  0.81107700  0.55947900  1
  B  B21  1  0.64388700  0.74840200  0.55947900  1
  B  B22  1  0.99840200  0.66559200  0.05947900  1
  B  B23  1  0.06107700  0.39388700  0.05947900  1
  Ru  Ru24  1  0.51315700  0.28582900  0.43020400  1
  Ru  Ru25  1  0.91704800  0.14437500  0.43020400  1
  Ru  Ru26  1  0.39437500  0.26315700  0.93020400  1
  Ru  Ru27  1  0.23684300  0.10562500  0.06979600  1
  Ru  Ru28  1  0.73684300  0.46417100  0.06979600  1
  Ru  Ru29  1  0.53582900  0.66704800  0.93020400  1
  Ru  Ru30  1  0.83295200  0.96417100  0.06979600  1
  Ru  Ru31  1  0.33295200  0.60562500  0.06979600  1
  Ru  Ru32  1  0.35562500  0.58295200  0.56979600  1
  Ru  Ru33  1  0.85562500  0.48684300  0.56979600  1
  Ru  Ru34  1  0.21417100  0.98684300  0.56979600  1
  Ru  Ru35  1  0.71417100  0.08295200  0.56979600  1
  Ru  Ru36  1  0.01315700  0.64437500  0.43020400  1
  Ru  Ru37  1  0.41704800  0.78582900  0.43020400  1
  Ru  Ru38  1  0.03582900  0.76315700  0.93020400  1
  Ru  Ru39  1  0.89437500  0.16704800  0.93020400  1
