# generated using pymatgen
data_Mg2P2H4O9
_symmetry_space_group_name_H-M   'P 1'
_cell_length_a   6.37804045
_cell_length_b   7.49393831
_cell_length_c   14.16533600
_cell_angle_alpha   90.00000000
_cell_angle_beta   90.00000000
_cell_angle_gamma   94.37245025
_symmetry_Int_Tables_number   1
_chemical_formula_structural   Mg2P2H4O9
_chemical_formula_sum   'Mg8 P8 H16 O36'
_cell_volume   675.08493732
_cell_formula_units_Z   4
loop_
 _symmetry_equiv_pos_site_id
 _symmetry_equiv_pos_as_xyz
  1  'x, y, z'
loop_
 _atom_site_type_symbol
 _atom_site_label
 _atom_site_symmetry_multiplicity
 _atom_site_fract_x
 _atom_site_fract_y
 _atom_site_fract_z
 _atom_site_occupancy
  Mg  Mg0  1  0.54716700  0.84826700  0.25146400  1
  Mg  Mg1  1  0.45283300  0.15173300  0.74853600  1
  Mg  Mg2  1  0.95283300  0.65173300  0.75146400  1
  Mg  Mg3  1  0.04716700  0.34826700  0.24853600  1
  Mg  Mg4  1  0.76533800  0.57769500  0.11197000  1
  Mg  Mg5  1  0.23466200  0.42230500  0.88803000  1
  Mg  Mg6  1  0.73466200  0.92230500  0.61197000  1
  Mg  Mg7  1  0.26533800  0.07769500  0.38803000  1
  P  P8  1  0.06356900  0.93034800  0.18941000  1
  P  P9  1  0.93643100  0.06965200  0.81059000  1
  P  P10  1  0.43643100  0.56965200  0.68941000  1
  P  P11  1  0.56356900  0.43034800  0.31059000  1
  P  P12  1  0.25764400  0.65074200  0.08709400  1
  P  P13  1  0.74235600  0.34925800  0.91290600  1
  P  P14  1  0.24235600  0.84925800  0.58709400  1
  P  P15  1  0.75764400  0.15074200  0.41290600  1
  H  H16  1  0.03025000  0.67436400  0.32190300  1
  H  H17  1  0.96975000  0.32563600  0.67809700  1
  H  H18  1  0.46975000  0.82563600  0.82190300  1
  H  H19  1  0.53025000  0.17436400  0.17809700  1
  H  H20  1  0.36660100  0.30176700  0.54914900  1
  H  H21  1  0.63339900  0.69823300  0.45085100  1
  H  H22  1  0.13339900  0.19823300  0.04914900  1
  H  H23  1  0.86660100  0.80176700  0.95085100  1
  H  H24  1  0.18778000  0.58264000  0.38498000  1
  H  H25  1  0.81222000  0.41736000  0.61502000  1
  H  H26  1  0.31222000  0.91736000  0.88498000  1
  H  H27  1  0.68778000  0.08264000  0.11502000  1
  H  H28  1  0.86666200  0.70339100  0.48418300  1
  H  H29  1  0.13333800  0.29660900  0.51581700  1
  H  H30  1  0.63333800  0.79660900  0.98418300  1
  H  H31  1  0.36666200  0.20339100  0.01581700  1
  O  O32  1  0.96749300  0.87637000  0.83842300  1
  O  O33  1  0.03250700  0.12363100  0.16157700  1
  O  O34  1  0.53250700  0.62363000  0.33842300  1
  O  O35  1  0.46749300  0.37637000  0.66157700  1
  O  O36  1  0.72636200  0.72747900  0.50571200  1
  O  O37  1  0.27363800  0.27252100  0.49428800  1
  O  O38  1  0.77363800  0.77252100  0.00571200  1
  O  O39  1  0.22636200  0.22747900  0.99428800  1
  O  O40  1  0.08676400  0.52397600  0.13448700  1
  O  O41  1  0.91323600  0.47602400  0.86551300  1
  O  O42  1  0.41323600  0.97602400  0.63448700  1
  O  O43  1  0.58676400  0.02397600  0.36551300  1
  O  O44  1  0.21373200  0.87600100  0.48240700  1
  O  O45  1  0.78626800  0.12399900  0.51759300  1
  O  O46  1  0.28626800  0.62399900  0.98240700  1
  O  O47  1  0.71373200  0.37600100  0.01759300  1
  O  O48  1  0.05320200  0.55999600  0.35260400  1
  O  O49  1  0.94679800  0.44000400  0.64739600  1
  O  O50  1  0.44679800  0.94000400  0.85260400  1
  O  O51  1  0.55320200  0.05999600  0.14739600  1
  O  O52  1  0.03334400  0.83841200  0.64174600  1
  O  O53  1  0.96665600  0.16158800  0.35825400  1
  O  O54  1  0.46665600  0.66158800  0.14174600  1
  O  O55  1  0.53334400  0.33841200  0.85825400  1
  O  O56  1  0.16703400  0.84758400  0.09614200  1
  O  O57  1  0.83296600  0.15241600  0.90385800  1
  O  O58  1  0.33296600  0.65241600  0.59614200  1
  O  O59  1  0.66703400  0.34758400  0.40385800  1
  O  O60  1  0.85857200  0.81475300  0.21025500  1
  O  O61  1  0.14142800  0.18524700  0.78974500  1
  O  O62  1  0.64142800  0.68524700  0.71025500  1
  O  O63  1  0.35857200  0.31475300  0.28974500  1
  O  O64  1  0.22551500  0.91040300  0.26947600  1
  O  O65  1  0.77448500  0.08959700  0.73052400  1
  O  O66  1  0.27448500  0.58959700  0.76947600  1
  O  O67  1  0.72551500  0.41040300  0.23052400  1
