# generated using pymatgen
data_KSO2
_symmetry_space_group_name_H-M   'P 1'
_cell_length_a   6.18359400
_cell_length_b   7.77566500
_cell_length_c   7.16386700
_cell_angle_alpha   90.00000000
_cell_angle_beta   90.00000000
_cell_angle_gamma   90.00000000
_symmetry_Int_Tables_number   1
_chemical_formula_structural   KSO2
_chemical_formula_sum   'K4 S4 O8'
_cell_volume   344.44986833
_cell_formula_units_Z   4
loop_
 _symmetry_equiv_pos_site_id
 _symmetry_equiv_pos_as_xyz
  1  'x, y, z'
loop_
 _atom_site_type_symbol
 _atom_site_label
 _atom_site_symmetry_multiplicity
 _atom_site_fract_x
 _atom_site_fract_y
 _atom_site_fract_z
 _atom_site_occupancy
  K  K0  1  0.75000000  0.86774100  0.35592100  1
  K  K1  1  0.25000000  0.13225900  0.64407900  1
  K  K2  1  0.25000000  0.63225900  0.85592100  1
  K  K3  1  0.75000000  0.36774100  0.14407900  1
  S  S4  1  0.75000000  0.88447700  0.85361600  1
  S  S5  1  0.25000000  0.11552300  0.14638400  1
  S  S6  1  0.25000000  0.61552300  0.35361600  1
  S  S7  1  0.75000000  0.38447700  0.64638400  1
  O  O8  1  0.95382300  0.88456500  0.73401100  1
  O  O9  1  0.04617700  0.11543500  0.26598900  1
  O  O10  1  0.04617700  0.61543500  0.23401100  1
  O  O11  1  0.45382300  0.11543500  0.26598900  1
  O  O12  1  0.95382300  0.38456500  0.76598900  1
  O  O13  1  0.54617700  0.88456500  0.73401100  1
  O  O14  1  0.54617700  0.38456500  0.76598900  1
  O  O15  1  0.45382300  0.61543500  0.23401100  1
