# generated using pymatgen
data_NiH15IO12
_symmetry_space_group_name_H-M   'P 1'
_cell_length_a   5.61490301
_cell_length_b   9.82671702
_cell_length_c   10.58184300
_cell_angle_alpha   90.00000000
_cell_angle_beta   90.00000000
_cell_angle_gamma   96.29935751
_symmetry_Int_Tables_number   1
_chemical_formula_structural   NiH15IO12
_chemical_formula_sum   'Ni2 H30 I2 O24'
_cell_volume   580.33917132
_cell_formula_units_Z   2
loop_
 _symmetry_equiv_pos_site_id
 _symmetry_equiv_pos_as_xyz
  1  'x, y, z'
loop_
 _atom_site_type_symbol
 _atom_site_label
 _atom_site_symmetry_multiplicity
 _atom_site_fract_x
 _atom_site_fract_y
 _atom_site_fract_z
 _atom_site_occupancy
  Ni  Ni0  1  0.77324400  0.33950000  0.31657400  1
  Ni  Ni1  1  0.27324400  0.83950000  0.68342600  1
  H  H2  1  0.82349300  0.90321000  0.33212300  1
  H  H3  1  0.32349300  0.40321000  0.66787700  1
  H  H4  1  0.82314100  0.60159500  0.38367600  1
  H  H5  1  0.32314100  0.10159600  0.61632400  1
  H  H6  1  0.30742400  0.64657700  0.55381700  1
  H  H7  1  0.80742400  0.14657700  0.44618300  1
  H  H8  1  0.40943000  0.58862300  0.12756000  1
  H  H9  1  0.90943000  0.08862300  0.87244000  1
  H  H10  1  0.96536400  0.85774500  0.49733200  1
  H  H11  1  0.46536400  0.35774500  0.50266800  1
  H  H12  1  0.57665700  0.46789800  0.12609300  1
  H  H13  1  0.07665700  0.96789800  0.87390700  1
  H  H14  1  0.33803100  0.69412600  0.30098900  1
  H  H15  1  0.83803100  0.19412600  0.69901100  1
  H  H16  1  0.90805300  0.63976800  0.13035700  1
  H  H17  1  0.40805300  0.13976800  0.86964300  1
  H  H18  1  0.11197000  0.08478000  0.05410900  1
  H  H19  1  0.61197000  0.58478000  0.94589100  1
  H  H20  1  0.39384900  0.01560000  0.49724100  1
  H  H21  1  0.89384900  0.51560000  0.50275900  1
  H  H22  1  0.10263400  0.25396900  0.16982400  1
  H  H23  1  0.60263400  0.75396900  0.83017600  1
  H  H24  1  0.64019200  0.87389700  0.12181700  1
  H  H25  1  0.14019200  0.37389700  0.87818300  1
  H  H26  1  0.07754000  0.65993500  0.01507000  1
  H  H27  1  0.57754000  0.15993500  0.98493000  1
  H  H28  1  0.03394300  0.38960900  0.09736300  1
  H  H29  1  0.53394300  0.88960900  0.90263700  1
  H  H30  1  0.83899400  0.77020100  0.61630600  1
  H  H31  1  0.33899400  0.27020100  0.38369400  1
  I  I32  1  0.26747300  0.93144400  0.22881200  1
  I  I33  1  0.76747300  0.43144400  0.77118800  1
  O  O34  1  0.57183800  0.56765600  0.10670700  1
  O  O35  1  0.07183800  0.06765600  0.89329300  1
  O  O36  1  0.89744800  0.51915100  0.40593600  1
  O  O37  1  0.39744800  0.01915100  0.59406400  1
  O  O38  1  0.96040500  0.84654900  0.59605400  1
  O  O39  1  0.46040500  0.34654900  0.40394600  1
  O  O40  1  0.07738400  0.66582700  0.10780700  1
  O  O41  1  0.57738400  0.16582700  0.89219300  1
  O  O42  1  0.06707600  0.35435600  0.18219500  1
  O  O43  1  0.56707600  0.85435600  0.81780500  1
  O  O44  1  0.97215200  0.86868500  0.35973000  1
  O  O45  1  0.47215200  0.36868500  0.64027000  1
  O  O46  1  0.15789400  0.10674200  0.14406800  1
  O  O47  1  0.65789400  0.60674200  0.85593200  1
  O  O48  1  0.91989600  0.54424500  0.65445300  1
  O  O49  1  0.41989600  0.04424500  0.34554700  1
  O  O50  1  0.44166300  0.78034200  0.30976600  1
  O  O51  1  0.94166300  0.28034200  0.69023400  1
  O  O52  1  0.42109500  0.71058300  0.60045300  1
  O  O53  1  0.92109500  0.21058300  0.39954700  1
  O  O54  1  0.63862100  0.31050700  0.16262800  1
  O  O55  1  0.13862100  0.81050700  0.83737200  1
  O  O56  1  0.54479300  0.94738000  0.09720100  1
  O  O57  1  0.04479300  0.44738000  0.90279900  1
