# generated using pymatgen
data_La2FeP2O
_symmetry_space_group_name_H-M   'P 1'
_cell_length_a   3.44921700
_cell_length_b   3.44921700
_cell_length_c   14.61845400
_cell_angle_alpha   90.00000000
_cell_angle_beta   90.00000000
_cell_angle_gamma   90.00000000
_symmetry_Int_Tables_number   1
_chemical_formula_structural   La2FeP2O
_chemical_formula_sum   'La2 Fe1 P2 O1'
_cell_volume   173.91717858
_cell_formula_units_Z   1
loop_
 _symmetry_equiv_pos_site_id
 _symmetry_equiv_pos_as_xyz
  1  'x, y, z'
loop_
 _atom_site_type_symbol
 _atom_site_label
 _atom_site_symmetry_multiplicity
 _atom_site_fract_x
 _atom_site_fract_y
 _atom_site_fract_z
 _atom_site_occupancy
  La  La0  1  0.50000000  0.50000000  0.14418400  1
  La  La1  1  0.50000000  0.50000000  0.85581600  1
  Fe  Fe2  1  0.50000000  0.50000000  0.50000000  1
  P  P3  1  0.50000000  0.50000000  0.65624900  1
  P  P4  1  0.50000000  0.50000000  0.34375100  1
  O  O5  1  0.50000000  0.50000000  0.00000000  1
