# generated using pymatgen
data_NpFe(OF2)3
_symmetry_space_group_name_H-M   'P 1'
_cell_length_a   6.67602973
_cell_length_b   6.67602973
_cell_length_c   8.97022100
_cell_angle_alpha   79.83412175
_cell_angle_beta   79.83412175
_cell_angle_gamma   63.25122551
_symmetry_Int_Tables_number   1
_chemical_formula_structural   NpFe(OF2)3
_chemical_formula_sum   'Np2 Fe2 O6 F12'
_cell_volume   349.26039898
_cell_formula_units_Z   2
loop_
 _symmetry_equiv_pos_site_id
 _symmetry_equiv_pos_as_xyz
  1  'x, y, z'
loop_
 _atom_site_type_symbol
 _atom_site_label
 _atom_site_symmetry_multiplicity
 _atom_site_fract_x
 _atom_site_fract_y
 _atom_site_fract_z
 _atom_site_occupancy
  Np  Np0  1  0.88807700  0.11192300  0.75000000  1
  Np  Np1  1  0.11192300  0.88807700  0.25000000  1
  Fe  Fe2  1  0.00000000  0.50000000  0.00000000  1
  Fe  Fe3  1  0.50000000  0.00000000  0.50000000  1
  O  O4  1  0.36968800  0.63031200  0.25000000  1
  O  O5  1  0.27894500  0.36541400  0.99640600  1
  O  O6  1  0.63458600  0.72105500  0.50359400  1
  O  O7  1  0.63031200  0.36968800  0.75000000  1
  O  O8  1  0.72105500  0.63458600  0.00359400  1
  O  O9  1  0.36541400  0.27894500  0.49640600  1
  F  F10  1  0.98513000  0.67956800  0.17153600  1
  F  F11  1  0.32043200  0.01487000  0.32846400  1
  F  F12  1  0.03160300  0.75949000  0.82030400  1
  F  F13  1  0.24051000  0.96839700  0.67969600  1
  F  F14  1  0.01487000  0.32043200  0.82846400  1
  F  F15  1  0.67956800  0.98513000  0.67153600  1
  F  F16  1  0.21967200  0.92057300  0.02345000  1
  F  F17  1  0.07942700  0.78032800  0.47655000  1
  F  F18  1  0.96839700  0.24051000  0.17969600  1
  F  F19  1  0.75949000  0.03160300  0.32030400  1
  F  F20  1  0.78032800  0.07942700  0.97655000  1
  F  F21  1  0.92057300  0.21967200  0.52345000  1
