# generated using pymatgen
data_KNb(BO3)2
_symmetry_space_group_name_H-M   'P 1'
_cell_length_a   3.98748600
_cell_length_b   7.55995900
_cell_length_c   9.89865100
_cell_angle_alpha   90.00000000
_cell_angle_beta   90.00000000
_cell_angle_gamma   90.00000000
_symmetry_Int_Tables_number   1
_chemical_formula_structural   KNb(BO3)2
_chemical_formula_sum   'K2 Nb2 B4 O12'
_cell_volume   298.39711775
_cell_formula_units_Z   2
loop_
 _symmetry_equiv_pos_site_id
 _symmetry_equiv_pos_as_xyz
  1  'x, y, z'
loop_
 _atom_site_type_symbol
 _atom_site_label
 _atom_site_symmetry_multiplicity
 _atom_site_fract_x
 _atom_site_fract_y
 _atom_site_fract_z
 _atom_site_occupancy
  K  K0  1  0.57305300  0.00000000  0.60880700  1
  K  K1  1  0.42694700  0.50000000  0.10880700  1
  Nb  Nb2  1  0.88820000  0.00000000  0.00269900  1
  Nb  Nb3  1  0.11180000  0.50000000  0.50269900  1
  B  B4  1  0.99077500  0.66496200  0.78966900  1
  B  B5  1  0.00922500  0.83503800  0.28966900  1
  B  B6  1  0.00922500  0.16496200  0.28966900  1
  B  B7  1  0.99077500  0.33503800  0.78966900  1
  O  O8  1  0.94312200  0.81831200  0.15556000  1
  O  O9  1  0.05687800  0.68168800  0.65556000  1
  O  O10  1  0.05687800  0.31831200  0.65556000  1
  O  O11  1  0.94312200  0.18168800  0.15556000  1
  O  O12  1  0.02750700  0.00000000  0.35570600  1
  O  O13  1  0.97249300  0.50000000  0.85570600  1
  O  O14  1  0.43068400  0.00000000  0.00271200  1
  O  O15  1  0.56931600  0.50000000  0.50271200  1
  O  O16  1  0.93350900  0.81087000  0.86611900  1
  O  O17  1  0.06649100  0.68913000  0.36611900  1
  O  O18  1  0.06649100  0.31087000  0.36611900  1
  O  O19  1  0.93350900  0.18913000  0.86611900  1
