# generated using pymatgen
data_RbPrSe2O13
_symmetry_space_group_name_H-M   'P 1'
_cell_length_a   9.62668300
_cell_length_b   6.67601900
_cell_length_c   19.46482329
_cell_angle_alpha   82.43512724
_cell_angle_beta   90.00000000
_cell_angle_gamma   90.00000000
_symmetry_Int_Tables_number   1
_chemical_formula_structural   RbPrSe2O13
_chemical_formula_sum   'Rb4 Pr4 Se8 O52'
_cell_volume   1240.07583952
_cell_formula_units_Z   4
loop_
 _symmetry_equiv_pos_site_id
 _symmetry_equiv_pos_as_xyz
  1  'x, y, z'
loop_
 _atom_site_type_symbol
 _atom_site_label
 _atom_site_symmetry_multiplicity
 _atom_site_fract_x
 _atom_site_fract_y
 _atom_site_fract_z
 _atom_site_occupancy
  Rb  Rb0  1  0.98023000  0.31126000  0.36933900  1
  Rb  Rb1  1  0.01977000  0.68874000  0.63066100  1
  Rb  Rb2  1  0.48023000  0.68874000  0.13066100  1
  Rb  Rb3  1  0.51977000  0.31126000  0.86933900  1
  Pr  Pr4  1  0.91892200  0.24507400  0.13359600  1
  Pr  Pr5  1  0.08107800  0.75492600  0.86640400  1
  Pr  Pr6  1  0.41892200  0.75492600  0.36640400  1
  Pr  Pr7  1  0.58107800  0.24507400  0.63359600  1
  Se  Se8  1  0.21841500  0.34925100  0.01191900  1
  Se  Se9  1  0.78158500  0.65074900  0.98808100  1
  Se  Se10  1  0.71841500  0.65074900  0.48808100  1
  Se  Se11  1  0.28158500  0.34925100  0.51191900  1
  Se  Se12  1  0.25057500  0.13664000  0.23312200  1
  Se  Se13  1  0.74942500  0.86336000  0.76687800  1
  Se  Se14  1  0.75057500  0.86336000  0.26687800  1
  Se  Se15  1  0.24942500  0.13664000  0.73312200  1
  O  O16  1  0.04343800  0.66298400  0.15885100  1
  O  O17  1  0.95656200  0.33701600  0.84114900  1
  O  O18  1  0.54343800  0.33701600  0.34114900  1
  O  O19  1  0.45656200  0.66298400  0.65885100  1
  O  O20  1  0.07482500  0.21937400  0.04218000  1
  O  O21  1  0.92517500  0.78062600  0.95782000  1
  O  O22  1  0.57482500  0.78062600  0.45782000  1
  O  O23  1  0.42517500  0.21937400  0.54218000  1
  O  O24  1  0.51876500  0.17893700  0.37966700  1
  O  O25  1  0.48123500  0.82106300  0.62033300  1
  O  O26  1  0.01876500  0.82106300  0.12033300  1
  O  O27  1  0.98123500  0.17893700  0.87966700  1
  O  O28  1  0.76581900  0.98890100  0.18593400  1
  O  O29  1  0.23418100  0.01109900  0.81406600  1
  O  O30  1  0.26581900  0.01109900  0.31406600  1
  O  O31  1  0.73418100  0.98890100  0.68593400  1
  O  O32  1  0.34866700  0.34762100  0.22852500  1
  O  O33  1  0.65133300  0.65237900  0.77147500  1
  O  O34  1  0.84866700  0.65237900  0.27147500  1
  O  O35  1  0.15133300  0.34762100  0.72852500  1
  O  O36  1  0.32781200  0.47314500  0.43189700  1
  O  O37  1  0.67218800  0.52685500  0.56810300  1
  O  O38  1  0.82781200  0.52685500  0.06810300  1
  O  O39  1  0.17218800  0.47314500  0.93189700  1
  O  O40  1  0.68379400  0.15845200  0.05060300  1
  O  O41  1  0.31620600  0.84154800  0.94939700  1
  O  O42  1  0.18379400  0.84154800  0.44939700  1
  O  O43  1  0.81620600  0.15845200  0.55060300  1
  O  O44  1  0.34751400  0.19879200  0.99774500  1
  O  O45  1  0.65248600  0.80120800  0.00225500  1
  O  O46  1  0.84751400  0.80120800  0.50225500  1
  O  O47  1  0.15248600  0.19879200  0.49774500  1
  O  O48  1  0.25317000  0.51918300  0.06388800  1
  O  O49  1  0.74683000  0.48081700  0.93611200  1
  O  O50  1  0.75317000  0.48081700  0.43611200  1
  O  O51  1  0.24683000  0.51918300  0.56388800  1
  O  O52  1  0.08090600  0.20481000  0.22450000  1
  O  O53  1  0.91909400  0.79519000  0.77550000  1
  O  O54  1  0.58090600  0.79519000  0.27550000  1
  O  O55  1  0.41909400  0.20481000  0.72450000  1
  O  O56  1  0.79324100  0.00866800  0.32534200  1
  O  O57  1  0.20675900  0.99133200  0.67465800  1
  O  O58  1  0.29324100  0.99133200  0.17465800  1
  O  O59  1  0.70675900  0.00866800  0.82534200  1
  O  O60  1  0.57593800  0.19992000  0.08026700  1
  O  O61  1  0.42406200  0.80008000  0.91973300  1
  O  O62  1  0.07593800  0.80008000  0.41973300  1
  O  O63  1  0.92406200  0.19992000  0.58026700  1
  O  O64  1  0.26117600  0.53312500  0.30655000  1
  O  O65  1  0.73882400  0.46687500  0.69345000  1
  O  O66  1  0.76117600  0.46687500  0.19345000  1
  O  O67  1  0.23882400  0.53312500  0.80655000  1
