# generated using pymatgen
data_La2ZrCuO6
_symmetry_space_group_name_H-M   'P 1'
_cell_length_a   7.92240600
_cell_length_b   7.90387000
_cell_length_c   8.69172228
_cell_angle_alpha   87.85235290
_cell_angle_beta   90.00000000
_cell_angle_gamma   90.00000000
_symmetry_Int_Tables_number   1
_chemical_formula_structural   La2ZrCuO6
_chemical_formula_sum   'La8 Zr4 Cu4 O24'
_cell_volume   543.87307396
_cell_formula_units_Z   4
loop_
 _symmetry_equiv_pos_site_id
 _symmetry_equiv_pos_as_xyz
  1  'x, y, z'
loop_
 _atom_site_type_symbol
 _atom_site_label
 _atom_site_symmetry_multiplicity
 _atom_site_fract_x
 _atom_site_fract_y
 _atom_site_fract_z
 _atom_site_occupancy
  La  La0  1  0.75000000  0.28486800  0.72853800  1
  La  La1  1  0.25000000  0.71513200  0.27146200  1
  La  La2  1  0.75000000  0.79658200  0.74073300  1
  La  La3  1  0.25000000  0.20341800  0.25926700  1
  La  La4  1  0.75000000  0.28325500  0.29421900  1
  La  La5  1  0.25000000  0.71674500  0.70578100  1
  La  La6  1  0.75000000  0.76904300  0.30686500  1
  La  La7  1  0.25000000  0.23095700  0.69313500  1
  Zr  Zr8  1  0.00000000  0.50000000  0.00000000  1
  Zr  Zr9  1  0.50000000  0.50000000  0.00000000  1
  Zr  Zr10  1  0.00000000  0.00000000  0.00000000  1
  Zr  Zr11  1  0.50000000  0.00000000  0.00000000  1
  Cu  Cu12  1  0.00000000  0.50000000  0.50000000  1
  Cu  Cu13  1  0.50000000  0.50000000  0.50000000  1
  Cu  Cu14  1  0.00000000  0.00000000  0.50000000  1
  Cu  Cu15  1  0.50000000  0.00000000  0.50000000  1
  O  O16  1  0.75000000  0.02866900  0.46847100  1
  O  O17  1  0.25000000  0.97133100  0.53152900  1
  O  O18  1  0.75000000  0.52920600  0.91196300  1
  O  O19  1  0.25000000  0.47079400  0.08803700  1
  O  O20  1  0.96813800  0.75052100  0.54689300  1
  O  O21  1  0.03186200  0.24947900  0.45310700  1
  O  O22  1  0.46813800  0.24947900  0.45310700  1
  O  O23  1  0.53186200  0.75052100  0.54689300  1
  O  O24  1  0.75000000  0.47208900  0.51077400  1
  O  O25  1  0.25000000  0.52791100  0.48922600  1
  O  O26  1  0.44321200  0.94211900  0.23223400  1
  O  O27  1  0.55678800  0.05788100  0.76776600  1
  O  O28  1  0.94321200  0.05788100  0.76776600  1
  O  O29  1  0.05678800  0.94211900  0.23223400  1
  O  O30  1  0.94681300  0.56622900  0.22717300  1
  O  O31  1  0.05318700  0.43377100  0.77282700  1
  O  O32  1  0.44681300  0.43377100  0.77282700  1
  O  O33  1  0.55318700  0.56622900  0.22717300  1
  O  O34  1  0.75000000  0.91429700  0.03634200  1
  O  O35  1  0.25000000  0.08570300  0.96365800  1
  O  O36  1  0.94648300  0.24810400  0.07707000  1
  O  O37  1  0.05351700  0.75189600  0.92293000  1
  O  O38  1  0.44648300  0.75189600  0.92293000  1
  O  O39  1  0.55351700  0.24810400  0.07707000  1
