# generated using pymatgen
data_KGd(MoO4)2
_symmetry_space_group_name_H-M   'P 1'
_cell_length_a   7.55595100
_cell_length_b   7.55595100
_cell_length_c   7.83865158
_cell_angle_alpha   61.70440707
_cell_angle_beta   61.70440707
_cell_angle_gamma   88.23717452
_symmetry_Int_Tables_number   1
_chemical_formula_structural   KGd(MoO4)2
_chemical_formula_sum   'K2 Gd2 Mo4 O16'
_cell_volume   335.93992759
_cell_formula_units_Z   2
loop_
 _symmetry_equiv_pos_site_id
 _symmetry_equiv_pos_as_xyz
  1  'x, y, z'
loop_
 _atom_site_type_symbol
 _atom_site_label
 _atom_site_symmetry_multiplicity
 _atom_site_fract_x
 _atom_site_fract_y
 _atom_site_fract_z
 _atom_site_occupancy
  K  K0  1  0.20019600  0.79980400  0.75000000  1
  K  K1  1  0.79980400  0.20019600  0.25000000  1
  Gd  Gd2  1  0.77062200  0.22937800  0.75000000  1
  Gd  Gd3  1  0.22937800  0.77062200  0.25000000  1
  Mo  Mo4  1  0.69425400  0.69718900  0.76075300  1
  Mo  Mo5  1  0.30574600  0.30281100  0.23924700  1
  Mo  Mo6  1  0.30281100  0.30574600  0.73924700  1
  Mo  Mo7  1  0.69718900  0.69425400  0.26075300  1
  O  O8  1  0.61370600  0.76775000  0.56188500  1
  O  O9  1  0.38629400  0.23225000  0.43811500  1
  O  O10  1  0.23225000  0.38629400  0.93811500  1
  O  O11  1  0.76775000  0.61370600  0.06188500  1
  O  O12  1  0.38341300  0.06922400  0.87322600  1
  O  O13  1  0.61658700  0.93077600  0.12677400  1
  O  O14  1  0.93077600  0.61658700  0.62677400  1
  O  O15  1  0.06922400  0.38341300  0.37322600  1
  O  O16  1  0.58417200  0.36791200  0.97196400  1
  O  O17  1  0.41582800  0.63208800  0.02803600  1
  O  O18  1  0.63208800  0.41582800  0.52803600  1
  O  O19  1  0.36791200  0.58417200  0.47196400  1
  O  O20  1  0.79372400  0.95133800  0.69065000  1
  O  O21  1  0.20627600  0.04866200  0.30935000  1
  O  O22  1  0.04866200  0.20627600  0.80935000  1
  O  O23  1  0.95133800  0.79372400  0.19065000  1
