# generated using pymatgen
data_KRuO2
_symmetry_space_group_name_H-M   'P 1'
_cell_length_a   7.75386538
_cell_length_b   7.75386538
_cell_length_c   7.75386538
_cell_angle_alpha   131.54894108
_cell_angle_beta   131.54894108
_cell_angle_gamma   70.94236517
_symmetry_Int_Tables_number   1
_chemical_formula_structural   KRuO2
_chemical_formula_sum   'K4 Ru4 O8'
_cell_volume   255.69474779
_cell_formula_units_Z   4
loop_
 _symmetry_equiv_pos_site_id
 _symmetry_equiv_pos_as_xyz
  1  'x, y, z'
loop_
 _atom_site_type_symbol
 _atom_site_label
 _atom_site_symmetry_multiplicity
 _atom_site_fract_x
 _atom_site_fract_y
 _atom_site_fract_z
 _atom_site_occupancy
  K  K0  1  0.87500000  0.62500000  0.25000000  1
  K  K1  1  0.37500000  0.62500000  0.75000000  1
  K  K2  1  0.37500000  0.62500000  0.25000000  1
  K  K3  1  0.37500000  0.12500000  0.75000000  1
  Ru  Ru4  1  0.37500000  0.12500000  0.25000000  1
  Ru  Ru5  1  0.87500000  0.12500000  0.75000000  1
  Ru  Ru6  1  0.87500000  0.12500000  0.25000000  1
  Ru  Ru7  1  0.87500000  0.62500000  0.75000000  1
  O  O8  1  0.15109700  0.33685300  0.18575500  1
  O  O9  1  0.15109700  0.96534200  0.81424500  1
  O  O10  1  0.08685300  0.40109700  0.68575500  1
  O  O11  1  0.59890300  0.91314700  0.31424500  1
  O  O12  1  0.71534200  0.40109700  0.31424500  1
  O  O13  1  0.59890300  0.28465800  0.68575500  1
  O  O14  1  0.66314700  0.84890300  0.81424500  1
  O  O15  1  0.03465800  0.84890300  0.18575500  1
