# generated using pymatgen
data_RbLaSe2O13
_symmetry_space_group_name_H-M   'P 1'
_cell_length_a   9.77464000
_cell_length_b   6.46208800
_cell_length_c   19.66555095
_cell_angle_alpha   85.89496898
_cell_angle_beta   90.00000000
_cell_angle_gamma   90.00000000
_symmetry_Int_Tables_number   1
_chemical_formula_structural   RbLaSe2O13
_chemical_formula_sum   'Rb4 La4 Se8 O52'
_cell_volume   1238.97956548
_cell_formula_units_Z   4
loop_
 _symmetry_equiv_pos_site_id
 _symmetry_equiv_pos_as_xyz
  1  'x, y, z'
loop_
 _atom_site_type_symbol
 _atom_site_label
 _atom_site_symmetry_multiplicity
 _atom_site_fract_x
 _atom_site_fract_y
 _atom_site_fract_z
 _atom_site_occupancy
  Rb  Rb0  1  0.98733600  0.29344800  0.38093100  1
  Rb  Rb1  1  0.01266400  0.70655200  0.61906900  1
  Rb  Rb2  1  0.48733600  0.70655200  0.11906900  1
  Rb  Rb3  1  0.51266400  0.29344800  0.88093100  1
  La  La4  1  0.91536700  0.29444100  0.13543500  1
  La  La5  1  0.08463300  0.70555900  0.86456500  1
  La  La6  1  0.41536700  0.70555900  0.36456500  1
  La  La7  1  0.58463300  0.29444100  0.63543500  1
  Se  Se8  1  0.21886600  0.35826800  0.02138100  1
  Se  Se9  1  0.78113400  0.64173200  0.97861900  1
  Se  Se10  1  0.71886600  0.64173200  0.47861900  1
  Se  Se11  1  0.28113400  0.35826800  0.52138100  1
  Se  Se12  1  0.23983600  0.11871300  0.23621200  1
  Se  Se13  1  0.76016400  0.88128700  0.76378800  1
  Se  Se14  1  0.73983600  0.88128700  0.26378800  1
  Se  Se15  1  0.26016400  0.11871300  0.73621200  1
  O  O16  1  0.03195100  0.68613600  0.15752400  1
  O  O17  1  0.96804900  0.31386400  0.84247600  1
  O  O18  1  0.53195100  0.31386400  0.34247600  1
  O  O19  1  0.46804900  0.68613600  0.65752400  1
  O  O20  1  0.07808700  0.22188000  0.04853700  1
  O  O21  1  0.92191300  0.77812000  0.95146300  1
  O  O22  1  0.57808700  0.77812000  0.45146300  1
  O  O23  1  0.42191300  0.22188000  0.54853700  1
  O  O24  1  0.50301600  0.16198100  0.38147600  1
  O  O25  1  0.49698400  0.83801900  0.61852400  1
  O  O26  1  0.00301600  0.83801900  0.11852400  1
  O  O27  1  0.99698400  0.16198100  0.88147600  1
  O  O28  1  0.76127400  0.00999200  0.18754800  1
  O  O29  1  0.23872600  0.99000800  0.81245200  1
  O  O30  1  0.26127400  0.99000800  0.31245200  1
  O  O31  1  0.73872600  0.00999200  0.68754800  1
  O  O32  1  0.34076500  0.37204700  0.23370600  1
  O  O33  1  0.65923500  0.62795300  0.76629400  1
  O  O34  1  0.84076500  0.62795300  0.26629400  1
  O  O35  1  0.15923500  0.37204700  0.73370600  1
  O  O36  1  0.31751400  0.46311600  0.44109900  1
  O  O37  1  0.68248600  0.53688400  0.55890100  1
  O  O38  1  0.81751400  0.53688400  0.05890100  1
  O  O39  1  0.18248600  0.46311600  0.94109900  1
  O  O40  1  0.69606500  0.14148300  0.04785900  1
  O  O41  1  0.30393500  0.85851700  0.95214100  1
  O  O42  1  0.19606500  0.85851700  0.45214100  1
  O  O43  1  0.80393500  0.14148300  0.54785900  1
  O  O44  1  0.35605600  0.21285000  0.01270200  1
  O  O45  1  0.64394400  0.78715000  0.98729800  1
  O  O46  1  0.85605600  0.78715000  0.48729800  1
  O  O47  1  0.14394400  0.21285000  0.51270200  1
  O  O48  1  0.24036300  0.54411300  0.07379800  1
  O  O49  1  0.75963700  0.45588700  0.92620200  1
  O  O50  1  0.74036300  0.45588700  0.42620200  1
  O  O51  1  0.25963700  0.54411300  0.57379800  1
  O  O52  1  0.07431700  0.19028000  0.23046900  1
  O  O53  1  0.92568300  0.80972000  0.76953100  1
  O  O54  1  0.57431700  0.80972000  0.26953100  1
  O  O55  1  0.42568300  0.19028000  0.73046900  1
  O  O56  1  0.79468400  0.00027700  0.32894000  1
  O  O57  1  0.20531600  0.99972300  0.67106000  1
  O  O58  1  0.29468400  0.99972300  0.17106000  1
  O  O59  1  0.70531600  0.00027700  0.82894000  1
  O  O60  1  0.59707800  0.20165200  0.08057600  1
  O  O61  1  0.40292200  0.79834800  0.91942400  1
  O  O62  1  0.09707800  0.79834800  0.41942400  1
  O  O63  1  0.90292200  0.20165200  0.58057600  1
  O  O64  1  0.30846600  0.49934500  0.28648200  1
  O  O65  1  0.69153400  0.50065500  0.71351800  1
  O  O66  1  0.80846600  0.50065500  0.21351800  1
  O  O67  1  0.19153400  0.49934500  0.78648200  1
