# generated using pymatgen
data_KPtN2O5
_symmetry_space_group_name_H-M   'P 1'
_cell_length_a   15.75911800
_cell_length_b   5.34756100
_cell_length_c   8.14482838
_cell_angle_alpha   61.29595767
_cell_angle_beta   90.00000000
_cell_angle_gamma   90.00000000
_symmetry_Int_Tables_number   1
_chemical_formula_structural   KPtN2O5
_chemical_formula_sum   'K4 Pt4 N8 O20'
_cell_volume   602.03921996
_cell_formula_units_Z   4
loop_
 _symmetry_equiv_pos_site_id
 _symmetry_equiv_pos_as_xyz
  1  'x, y, z'
loop_
 _atom_site_type_symbol
 _atom_site_label
 _atom_site_symmetry_multiplicity
 _atom_site_fract_x
 _atom_site_fract_y
 _atom_site_fract_z
 _atom_site_occupancy
  K  K0  1  0.65715700  0.88373100  0.06430000  1
  K  K1  1  0.34284300  0.11626900  0.93570000  1
  K  K2  1  0.15715700  0.11626900  0.43570000  1
  K  K3  1  0.84284300  0.88373100  0.56430000  1
  Pt  Pt4  1  0.96988800  0.61672800  0.12749800  1
  Pt  Pt5  1  0.03011200  0.38327200  0.87250200  1
  Pt  Pt6  1  0.46988800  0.38327200  0.37250200  1
  Pt  Pt7  1  0.53011200  0.61672800  0.62749800  1
  N  N8  1  0.53106700  0.25468500  0.20526400  1
  N  N9  1  0.46893300  0.74531500  0.79473600  1
  N  N10  1  0.03106700  0.74531500  0.29473600  1
  N  N11  1  0.96893300  0.25468500  0.70526400  1
  N  N12  1  0.85278300  0.67472100  0.20355600  1
  N  N13  1  0.14721700  0.32527900  0.79644400  1
  N  N14  1  0.35278300  0.32527900  0.29644400  1
  N  N15  1  0.64721700  0.67472100  0.70355600  1
  O  O16  1  0.80165000  0.47101400  0.26587200  1
  O  O17  1  0.19835000  0.52898600  0.73412800  1
  O  O18  1  0.30165000  0.52898600  0.23412800  1
  O  O19  1  0.69835000  0.47101400  0.76587200  1
  O  O20  1  0.57500100  0.51089500  0.43996300  1
  O  O21  1  0.42499900  0.48910500  0.56003700  1
  O  O22  1  0.07500100  0.48910500  0.06003700  1
  O  O23  1  0.92499900  0.51089500  0.93996300  1
  O  O24  1  0.99356700  0.86537500  0.37306800  1
  O  O25  1  0.00643300  0.13462500  0.62693200  1
  O  O26  1  0.49356700  0.13462500  0.12693200  1
  O  O27  1  0.50643300  0.86537500  0.87306800  1
  O  O28  1  0.83010000  0.91572000  0.17839200  1
  O  O29  1  0.16990000  0.08428000  0.82160800  1
  O  O30  1  0.33010000  0.08428000  0.32160800  1
  O  O31  1  0.66990000  0.91572000  0.67839200  1
  O  O32  1  0.60993000  0.28916800  0.18934000  1
  O  O33  1  0.39007000  0.71083200  0.81066000  1
  O  O34  1  0.10993000  0.71083200  0.31066000  1
  O  O35  1  0.89007000  0.28916800  0.68934000  1
