# generated using pymatgen
data_LuCrO5
_symmetry_space_group_name_H-M   'P 1'
_cell_length_a   8.03618710
_cell_length_b   8.15946833
_cell_length_c   11.41504500
_cell_angle_alpha   90.00000000
_cell_angle_beta   90.00000000
_cell_angle_gamma   92.13573890
_symmetry_Int_Tables_number   1
_chemical_formula_structural   LuCrO5
_chemical_formula_sum   'Lu8 Cr8 O40'
_cell_volume   747.97612850
_cell_formula_units_Z   8
loop_
 _symmetry_equiv_pos_site_id
 _symmetry_equiv_pos_as_xyz
  1  'x, y, z'
loop_
 _atom_site_type_symbol
 _atom_site_label
 _atom_site_symmetry_multiplicity
 _atom_site_fract_x
 _atom_site_fract_y
 _atom_site_fract_z
 _atom_site_occupancy
  Lu  Lu0  1  0.86709200  0.66009300  0.55867900  1
  Lu  Lu1  1  0.13290800  0.33990700  0.44132100  1
  Lu  Lu2  1  0.63290800  0.83990700  0.05867900  1
  Lu  Lu3  1  0.36709200  0.16009300  0.94132100  1
  Lu  Lu4  1  0.07184600  0.82258200  0.07588900  1
  Lu  Lu5  1  0.92815400  0.17741800  0.92411100  1
  Lu  Lu6  1  0.42815400  0.67741800  0.57588900  1
  Lu  Lu7  1  0.57184600  0.32258200  0.42411100  1
  Cr  Cr8  1  0.13592100  0.00084000  0.67214500  1
  Cr  Cr9  1  0.86407900  0.99916000  0.32785500  1
  Cr  Cr10  1  0.36407900  0.49916000  0.17214500  1
  Cr  Cr11  1  0.63592100  0.50084000  0.82785500  1
  Cr  Cr12  1  0.36270100  0.95538900  0.31020200  1
  Cr  Cr13  1  0.63729900  0.04461100  0.68979800  1
  Cr  Cr14  1  0.13729900  0.54461100  0.81020200  1
  Cr  Cr15  1  0.86270100  0.45538900  0.18979800  1
  O  O16  1  0.30688600  0.91442800  0.62797000  1
  O  O17  1  0.69311400  0.08557200  0.37203000  1
  O  O18  1  0.19311400  0.58557200  0.12797000  1
  O  O19  1  0.80688600  0.41442800  0.87203000  1
  O  O20  1  0.15562200  0.60411500  0.51301000  1
  O  O21  1  0.84437800  0.39588500  0.48699000  1
  O  O22  1  0.34437800  0.89588500  0.01301000  1
  O  O23  1  0.65562200  0.10411500  0.98699000  1
  O  O24  1  0.65883700  0.56566000  0.68730100  1
  O  O25  1  0.34116300  0.43434000  0.31269900  1
  O  O26  1  0.84116300  0.93434000  0.18730100  1
  O  O27  1  0.15883700  0.06566000  0.81269900  1
  O  O28  1  0.42428400  0.81369800  0.40343100  1
  O  O29  1  0.57571600  0.18630200  0.59656900  1
  O  O30  1  0.07571600  0.68630200  0.90343100  1
  O  O31  1  0.92428400  0.31369800  0.09656900  1
  O  O32  1  0.90117900  0.84239700  0.41597900  1
  O  O33  1  0.09882100  0.15760300  0.58402100  1
  O  O34  1  0.59882100  0.65760300  0.91597900  1
  O  O35  1  0.40117900  0.34239700  0.08402100  1
  O  O36  1  0.98742800  0.85671200  0.66517900  1
  O  O37  1  0.01257200  0.14328800  0.33482100  1
  O  O38  1  0.51257200  0.64328800  0.16517900  1
  O  O39  1  0.48742800  0.35671200  0.83482100  1
  O  O40  1  0.18222000  0.89121700  0.25533400  1
  O  O41  1  0.81778000  0.10878300  0.74466600  1
  O  O42  1  0.31778000  0.60878300  0.75533400  1
  O  O43  1  0.68222000  0.39121700  0.24466600  1
  O  O44  1  0.48846000  0.98071700  0.19317200  1
  O  O45  1  0.51154000  0.01928300  0.80682800  1
  O  O46  1  0.01154000  0.51928300  0.69317200  1
  O  O47  1  0.98846000  0.48071700  0.30682800  1
  O  O48  1  0.63941600  0.58393300  0.45978400  1
  O  O49  1  0.36058400  0.41606700  0.54021600  1
  O  O50  1  0.86058400  0.91606700  0.95978400  1
  O  O51  1  0.13941600  0.08393300  0.04021600  1
  O  O52  1  0.84755900  0.63523600  0.11855700  1
  O  O53  1  0.15244100  0.36476400  0.88144300  1
  O  O54  1  0.65244100  0.86476400  0.61855700  1
  O  O55  1  0.34755900  0.13523600  0.38144300  1
