# generated using pymatgen
data_KMg3(SiO3)4
_symmetry_space_group_name_H-M   'P 1'
_cell_length_a   5.29427065
_cell_length_b   5.29427065
_cell_length_c   20.79198206
_cell_angle_alpha   87.50933358
_cell_angle_beta   87.50933358
_cell_angle_gamma   119.71586068
_symmetry_Int_Tables_number   1
_chemical_formula_structural   KMg3(SiO3)4
_chemical_formula_sum   'K2 Mg6 Si8 O24'
_cell_volume   504.24629194
_cell_formula_units_Z   2
loop_
 _symmetry_equiv_pos_site_id
 _symmetry_equiv_pos_as_xyz
  1  'x, y, z'
loop_
 _atom_site_type_symbol
 _atom_site_label
 _atom_site_symmetry_multiplicity
 _atom_site_fract_x
 _atom_site_fract_y
 _atom_site_fract_z
 _atom_site_occupancy
  K  K0  1  0.58593500  0.41406500  0.25000000  1
  K  K1  1  0.41406500  0.58593500  0.75000000  1
  Mg  Mg2  1  0.66375600  0.82906400  0.99995300  1
  Mg  Mg3  1  0.33624400  0.17093600  0.00004700  1
  Mg  Mg4  1  0.17093600  0.33624400  0.50004700  1
  Mg  Mg5  1  0.82906400  0.66375600  0.49995300  1
  Mg  Mg6  1  0.50000000  0.00000000  0.50000000  1
  Mg  Mg7  1  0.00000000  0.50000000  0.00000000  1
  Si  Si8  1  0.28785800  0.78118700  0.13312400  1
  Si  Si9  1  0.71214200  0.21881300  0.86687600  1
  Si  Si10  1  0.21881300  0.71214200  0.36687600  1
  Si  Si11  1  0.78118700  0.28785800  0.63312400  1
  Si  Si12  1  0.88834200  0.04765100  0.36676300  1
  Si  Si13  1  0.11165800  0.95234900  0.63323700  1
  Si  Si14  1  0.95234900  0.11165800  0.13323700  1
  Si  Si15  1  0.04765100  0.88834200  0.86676300  1
  O  O16  1  0.86103600  0.03040300  0.44433300  1
  O  O17  1  0.13896400  0.96959700  0.55566700  1
  O  O18  1  0.96959700  0.13896400  0.05566700  1
  O  O19  1  0.03040300  0.86103600  0.94433300  1
  O  O20  1  0.56366600  0.88816000  0.33663600  1
  O  O21  1  0.43633400  0.11184000  0.66336400  1
  O  O22  1  0.11184000  0.43633400  0.16336400  1
  O  O23  1  0.88816000  0.56366600  0.83663600  1
  O  O24  1  0.30971100  0.81885100  0.05549400  1
  O  O25  1  0.69028900  0.18114900  0.94450600  1
  O  O26  1  0.18114900  0.69028900  0.44450600  1
  O  O27  1  0.81885100  0.30971100  0.55549400  1
  O  O28  1  0.60897400  0.93228600  0.16474100  1
  O  O29  1  0.39102600  0.06771400  0.83525900  1
  O  O30  1  0.06771400  0.39102600  0.33525900  1
  O  O31  1  0.93228600  0.60897400  0.66474100  1
  O  O32  1  0.51521100  0.35791000  0.45261900  1
  O  O33  1  0.48478900  0.64209000  0.54738100  1
  O  O34  1  0.64209000  0.48478900  0.04738100  1
  O  O35  1  0.35791000  0.51521100  0.95261900  1
  O  O36  1  0.10932000  0.93585000  0.16502300  1
  O  O37  1  0.89068000  0.06415000  0.83497700  1
  O  O38  1  0.06415000  0.89068000  0.33497700  1
  O  O39  1  0.93585000  0.10932000  0.66502300  1
