# generated using pymatgen
data_KLiYbF5
_symmetry_space_group_name_H-M   'P 1'
_cell_length_a   6.51643613
_cell_length_b   6.26804168
_cell_length_c   11.93272900
_cell_angle_alpha   90.00000000
_cell_angle_beta   90.00000000
_cell_angle_gamma   110.86329785
_symmetry_Int_Tables_number   1
_chemical_formula_structural   KLiYbF5
_chemical_formula_sum   'K4 Li4 Yb4 F20'
_cell_volume   455.43863603
_cell_formula_units_Z   4
loop_
 _symmetry_equiv_pos_site_id
 _symmetry_equiv_pos_as_xyz
  1  'x, y, z'
loop_
 _atom_site_type_symbol
 _atom_site_label
 _atom_site_symmetry_multiplicity
 _atom_site_fract_x
 _atom_site_fract_y
 _atom_site_fract_z
 _atom_site_occupancy
  K  K0  1  0.94657100  0.95028300  0.34416500  1
  K  K1  1  0.05342900  0.04971700  0.65583500  1
  K  K2  1  0.05342900  0.54971700  0.84416500  1
  K  K3  1  0.94657100  0.45028300  0.15583500  1
  Li  Li4  1  0.56368600  0.96014200  0.74715200  1
  Li  Li5  1  0.43631400  0.03985800  0.25284800  1
  Li  Li6  1  0.43631400  0.53985800  0.24715200  1
  Li  Li7  1  0.56368600  0.46014200  0.75284800  1
  Yb  Yb8  1  0.65561100  0.80276100  0.99329000  1
  Yb  Yb9  1  0.34438900  0.19723900  0.00671000  1
  Yb  Yb10  1  0.34438900  0.69723900  0.49329000  1
  Yb  Yb11  1  0.65561100  0.30276100  0.50671000  1
  F  F12  1  0.72396800  0.76977000  0.80021800  1
  F  F13  1  0.27603200  0.23023000  0.19978200  1
  F  F14  1  0.27603200  0.73023000  0.30021800  1
  F  F15  1  0.72396800  0.26977000  0.69978200  1
  F  F16  1  0.68498800  0.95130400  0.52767600  1
  F  F17  1  0.31501200  0.04869600  0.47232400  1
  F  F18  1  0.31501200  0.54869600  0.02767600  1
  F  F19  1  0.68498800  0.45130400  0.97232400  1
  F  F20  1  0.96070800  0.64018200  0.50808400  1
  F  F21  1  0.03929200  0.35981800  0.49191600  1
  F  F22  1  0.03929200  0.85981800  0.00808400  1
  F  F23  1  0.96070800  0.14018200  0.99191600  1
  F  F24  1  0.44693100  0.96263800  0.89228100  1
  F  F25  1  0.55306900  0.03736200  0.10771900  1
  F  F26  1  0.55306900  0.53736200  0.39228100  1
  F  F27  1  0.44693100  0.46263800  0.60771900  1
  F  F28  1  0.30257900  0.79027500  0.67297900  1
  F  F29  1  0.69742100  0.20972500  0.32702100  1
  F  F30  1  0.69742100  0.70972500  0.17297900  1
  F  F31  1  0.30257900  0.29027500  0.82702100  1
