# generated using pymatgen
data_KSm2Br5
_symmetry_space_group_name_H-M   'P 1'
_cell_length_a   7.52417300
_cell_length_b   9.14316300
_cell_length_c   14.05762515
_cell_angle_alpha   89.92782200
_cell_angle_beta   90.00000000
_cell_angle_gamma   90.00000000
_symmetry_Int_Tables_number   1
_chemical_formula_structural   KSm2Br5
_chemical_formula_sum   'K4 Sm8 Br20'
_cell_volume   967.08990267
_cell_formula_units_Z   4
loop_
 _symmetry_equiv_pos_site_id
 _symmetry_equiv_pos_as_xyz
  1  'x, y, z'
loop_
 _atom_site_type_symbol
 _atom_site_label
 _atom_site_symmetry_multiplicity
 _atom_site_fract_x
 _atom_site_fract_y
 _atom_site_fract_z
 _atom_site_occupancy
  K  K0  1  0.05886400  0.49781900  0.33931100  1
  K  K1  1  0.94113600  0.50218100  0.66068900  1
  K  K2  1  0.55886400  0.50218100  0.16068900  1
  K  K3  1  0.44113600  0.49781900  0.83931100  1
  Sm  Sm4  1  0.10967500  0.99155800  0.34435700  1
  Sm  Sm5  1  0.89032500  0.00844200  0.65564300  1
  Sm  Sm6  1  0.60967500  0.00844200  0.15564300  1
  Sm  Sm7  1  0.39032500  0.99155800  0.84435700  1
  Sm  Sm8  1  0.03217300  0.19971500  0.99880300  1
  Sm  Sm9  1  0.96782700  0.80028500  0.00119700  1
  Sm  Sm10  1  0.53217300  0.80028500  0.50119700  1
  Sm  Sm11  1  0.46782700  0.19971500  0.49880300  1
  Br  Br12  1  0.17611700  0.52897200  0.07382500  1
  Br  Br13  1  0.82388300  0.47102800  0.92617500  1
  Br  Br14  1  0.67611700  0.47102800  0.42617500  1
  Br  Br15  1  0.32388300  0.52897200  0.57382500  1
  Br  Br16  1  0.85581100  0.25077200  0.18512100  1
  Br  Br17  1  0.14418900  0.74922800  0.81487900  1
  Br  Br18  1  0.35581100  0.74922800  0.31487900  1
  Br  Br19  1  0.64418900  0.25077200  0.68512100  1
  Br  Br20  1  0.34048800  0.24018900  0.29369700  1
  Br  Br21  1  0.65951200  0.75981100  0.70630300  1
  Br  Br22  1  0.84048800  0.75981100  0.20630300  1
  Br  Br23  1  0.15951200  0.24018900  0.79369700  1
  Br  Br24  1  0.45198300  0.20845600  0.00022800  1
  Br  Br25  1  0.54801700  0.79154400  0.99977200  1
  Br  Br26  1  0.95198300  0.79154400  0.49977200  1
  Br  Br27  1  0.04801700  0.20845600  0.50022800  1
  Br  Br28  1  0.69376300  0.02512000  0.36596200  1
  Br  Br29  1  0.30623700  0.97488000  0.63403800  1
  Br  Br30  1  0.19376300  0.97488000  0.13403800  1
  Br  Br31  1  0.80623700  0.02512000  0.86596200  1
