# generated using pymatgen
data_LiZn(HCl)3
_symmetry_space_group_name_H-M   'P 1'
_cell_length_a   6.35433400
_cell_length_b   7.64381000
_cell_length_c   14.57500800
_cell_angle_alpha   90.00000000
_cell_angle_beta   90.00000000
_cell_angle_gamma   90.00000000
_symmetry_Int_Tables_number   1
_chemical_formula_structural   LiZn(HCl)3
_chemical_formula_sum   'Li4 Zn4 H12 Cl12'
_cell_volume   707.92740341
_cell_formula_units_Z   4
loop_
 _symmetry_equiv_pos_site_id
 _symmetry_equiv_pos_as_xyz
  1  'x, y, z'
loop_
 _atom_site_type_symbol
 _atom_site_label
 _atom_site_symmetry_multiplicity
 _atom_site_fract_x
 _atom_site_fract_y
 _atom_site_fract_z
 _atom_site_occupancy
  Li  Li0  1  0.10432900  0.25000000  0.62568700  1
  Li  Li1  1  0.89567100  0.75000000  0.37431300  1
  Li  Li2  1  0.39567100  0.75000000  0.12568700  1
  Li  Li3  1  0.60432900  0.25000000  0.87431300  1
  Zn  Zn4  1  0.31313900  0.25000000  0.17386900  1
  Zn  Zn5  1  0.68686100  0.75000000  0.82613100  1
  Zn  Zn6  1  0.18686100  0.75000000  0.67386900  1
  Zn  Zn7  1  0.81313900  0.25000000  0.32613100  1
  H  H8  1  0.19578700  0.62435700  0.33745600  1
  H  H9  1  0.80421300  0.37564300  0.66254400  1
  H  H10  1  0.30421300  0.37564300  0.83745600  1
  H  H11  1  0.80421300  0.12435700  0.66254400  1
  H  H12  1  0.69578700  0.62435700  0.16254400  1
  H  H13  1  0.19578700  0.87564300  0.33745600  1
  H  H14  1  0.69578700  0.87564300  0.16254400  1
  H  H15  1  0.30421300  0.12435700  0.83745600  1
  H  H16  1  0.29826900  0.25000000  0.83714400  1
  H  H17  1  0.70173100  0.75000000  0.16285600  1
  H  H18  1  0.20173100  0.75000000  0.33714400  1
  H  H19  1  0.79826900  0.25000000  0.66285600  1
  Cl  Cl20  1  0.21124300  0.00103200  0.10213200  1
  Cl  Cl21  1  0.78875700  0.99896800  0.89786800  1
  Cl  Cl22  1  0.28875700  0.99896800  0.60213200  1
  Cl  Cl23  1  0.78875700  0.50103200  0.89786800  1
  Cl  Cl24  1  0.71124300  0.00103200  0.39786800  1
  Cl  Cl25  1  0.21124300  0.49896800  0.10213200  1
  Cl  Cl26  1  0.71124300  0.49896800  0.39786800  1
  Cl  Cl27  1  0.28875700  0.50103200  0.60213200  1
  Cl  Cl28  1  0.18161900  0.25000000  0.32297900  1
  Cl  Cl29  1  0.81838100  0.75000000  0.67702100  1
  Cl  Cl30  1  0.31838100  0.75000000  0.82297900  1
  Cl  Cl31  1  0.68161900  0.25000000  0.17702100  1
