# generated using pymatgen
data_KDy(MoO4)2
_symmetry_space_group_name_H-M   'P 1'
_cell_length_a   7.50201371
_cell_length_b   7.50201371
_cell_length_c   7.77970902
_cell_angle_alpha   61.74712867
_cell_angle_beta   61.74712867
_cell_angle_gamma   88.11951204
_symmetry_Int_Tables_number   1
_chemical_formula_structural   KDy(MoO4)2
_chemical_formula_sum   'K2 Dy2 Mo4 O16'
_cell_volume   329.25215149
_cell_formula_units_Z   2
loop_
 _symmetry_equiv_pos_site_id
 _symmetry_equiv_pos_as_xyz
  1  'x, y, z'
loop_
 _atom_site_type_symbol
 _atom_site_label
 _atom_site_symmetry_multiplicity
 _atom_site_fract_x
 _atom_site_fract_y
 _atom_site_fract_z
 _atom_site_occupancy
  K  K0  1  0.20012800  0.79987200  0.75000000  1
  K  K1  1  0.79987200  0.20012800  0.25000000  1
  Dy  Dy2  1  0.77095600  0.22904400  0.75000000  1
  Dy  Dy3  1  0.22904400  0.77095600  0.25000000  1
  Mo  Mo4  1  0.69543100  0.69753700  0.76114800  1
  Mo  Mo5  1  0.30456900  0.30246300  0.23885200  1
  Mo  Mo6  1  0.30246300  0.30456900  0.73885200  1
  Mo  Mo7  1  0.69753700  0.69543100  0.26114800  1
  O  O8  1  0.61338000  0.76824900  0.56051800  1
  O  O9  1  0.38662000  0.23175100  0.43948200  1
  O  O10  1  0.23175100  0.38662000  0.93948200  1
  O  O11  1  0.76824900  0.61338000  0.06051800  1
  O  O12  1  0.38316300  0.06668000  0.87602900  1
  O  O13  1  0.61683700  0.93332000  0.12397100  1
  O  O14  1  0.93332000  0.61683700  0.62397100  1
  O  O15  1  0.06668000  0.38316300  0.37602900  1
  O  O16  1  0.58576400  0.36697400  0.97006700  1
  O  O17  1  0.41423600  0.63302600  0.02993300  1
  O  O18  1  0.63302600  0.41423600  0.52993300  1
  O  O19  1  0.36697400  0.58576400  0.47006700  1
  O  O20  1  0.79366100  0.95428200  0.69058800  1
  O  O21  1  0.20633900  0.04571800  0.30941200  1
  O  O22  1  0.04571800  0.20633900  0.80941200  1
  O  O23  1  0.95428200  0.79366100  0.19058800  1
