# generated using pymatgen
data_KCr(SO4)2
_symmetry_space_group_name_H-M   'P 1'
_cell_length_a   5.07501143
_cell_length_b   8.79120897
_cell_length_c   7.98759205
_cell_angle_alpha   89.99075936
_cell_angle_beta   89.99641324
_cell_angle_gamma   90.00213773
_symmetry_Int_Tables_number   1
_chemical_formula_structural   KCr(SO4)2
_chemical_formula_sum   'K2 Cr2 S4 O16'
_cell_volume   356.37029591
_cell_formula_units_Z   2
loop_
 _symmetry_equiv_pos_site_id
 _symmetry_equiv_pos_as_xyz
  1  'x, y, z'
loop_
 _atom_site_type_symbol
 _atom_site_label
 _atom_site_symmetry_multiplicity
 _atom_site_fract_x
 _atom_site_fract_y
 _atom_site_fract_z
 _atom_site_occupancy
  K  K0  1  0.00002800  0.99993900  0.50004500  1
  K  K1  1  0.49999200  0.49999200  0.49999100  1
  Cr  Cr2  1  0.49957700  0.50002300  0.99968000  1
  Cr  Cr3  1  0.00011500  0.99975800  0.00024500  1
  S  S4  1  0.50013200  0.16667200  0.78088600  1
  S  S5  1  0.99978900  0.66685200  0.78070700  1
  S  S6  1  0.99978200  0.33336700  0.21912200  1
  S  S7  1  0.50004300  0.83314300  0.21928600  1
  O  O8  1  0.49960300  0.16669400  0.59845100  1
  O  O9  1  0.99905700  0.66731200  0.59830500  1
  O  O10  1  0.99954000  0.33332400  0.40157600  1
  O  O11  1  0.49935600  0.83260900  0.40169300  1
  O  O12  1  0.76004500  0.11020900  0.84214500  1
  O  O13  1  0.25984800  0.61018300  0.84144300  1
  O  O14  1  0.28582500  0.06514700  0.84292800  1
  O  O15  1  0.78572700  0.56510900  0.84260700  1
  O  O16  1  0.25964500  0.38995800  0.15779400  1
  O  O17  1  0.76012700  0.88974900  0.15837300  1
  O  O18  1  0.45523100  0.32481700  0.84234400  1
  O  O19  1  0.95519200  0.82478700  0.84281800  1
  O  O20  1  0.78527000  0.43483900  0.15718000  1
  O  O21  1  0.28595000  0.93501000  0.15759300  1
  O  O22  1  0.95517700  0.17521200  0.15765400  1
  O  O23  1  0.45494300  0.67529800  0.15713300  1
