# generated using pymatgen
data_K3VO8
_symmetry_space_group_name_H-M   'P 1'
_cell_length_a   6.19512155
_cell_length_b   6.19512155
_cell_length_c   6.19512155
_cell_angle_alpha   113.31360426
_cell_angle_beta   113.31360426
_cell_angle_gamma   102.03287334
_symmetry_Int_Tables_number   1
_chemical_formula_structural   K3VO8
_chemical_formula_sum   'K3 V1 O8'
_cell_volume   180.76082125
_cell_formula_units_Z   1
loop_
 _symmetry_equiv_pos_site_id
 _symmetry_equiv_pos_as_xyz
  1  'x, y, z'
loop_
 _atom_site_type_symbol
 _atom_site_label
 _atom_site_symmetry_multiplicity
 _atom_site_fract_x
 _atom_site_fract_y
 _atom_site_fract_z
 _atom_site_occupancy
  K  K0  1  0.75000000  0.25000000  0.50000000  1
  K  K1  1  0.25000000  0.75000000  0.50000000  1
  K  K2  1  0.50000000  0.50000000  0.00000000  1
  V  V3  1  0.00000000  0.00000000  0.00000000  1
  O  O4  1  0.22043100  0.22043100  0.40978000  1
  O  O5  1  0.81065100  0.81065100  0.59022000  1
  O  O6  1  0.77956900  0.18934900  0.00000000  1
  O  O7  1  0.18934900  0.77956900  0.00000000  1
  O  O8  1  0.31835600  0.31835600  0.26994400  1
  O  O9  1  0.04841200  0.04841200  0.73005600  1
  O  O10  1  0.68164400  0.95158800  0.00000000  1
  O  O11  1  0.95158800  0.68164400  0.00000000  1
