# generated using pymatgen
data_KH4C6O3F5
_symmetry_space_group_name_H-M   'P 1'
_cell_length_a   10.38319467
_cell_length_b   10.38319467
_cell_length_c   7.07793449
_cell_angle_alpha   72.11196479
_cell_angle_beta   72.11196479
_cell_angle_gamma   124.70164489
_symmetry_Int_Tables_number   1
_chemical_formula_structural   KH4C6O3F5
_chemical_formula_sum   'K2 H8 C12 O6 F10'
_cell_volume   470.25568951
_cell_formula_units_Z   2
loop_
 _symmetry_equiv_pos_site_id
 _symmetry_equiv_pos_as_xyz
  1  'x, y, z'
loop_
 _atom_site_type_symbol
 _atom_site_label
 _atom_site_symmetry_multiplicity
 _atom_site_fract_x
 _atom_site_fract_y
 _atom_site_fract_z
 _atom_site_occupancy
  K  K0  1  0.43471900  0.56528100  0.75000000  1
  K  K1  1  0.56528100  0.43471900  0.25000000  1
  H  H2  1  0.78958100  0.86313800  0.10289000  1
  H  H3  1  0.21041900  0.13686200  0.89711000  1
  H  H4  1  0.13686200  0.21041900  0.39711000  1
  H  H5  1  0.86313800  0.78958100  0.60289000  1
  H  H6  1  0.81163600  0.85852700  0.74953200  1
  H  H7  1  0.18836400  0.14147300  0.25046800  1
  H  H8  1  0.14147300  0.18836400  0.75046800  1
  H  H9  1  0.85852700  0.81163600  0.24953200  1
  C  C10  1  0.67279200  0.19849100  0.65221000  1
  C  C11  1  0.32720800  0.80150900  0.34779000  1
  C  C12  1  0.80150900  0.32720800  0.84779000  1
  C  C13  1  0.19849100  0.67279200  0.15221000  1
  C  C14  1  0.74700500  0.12165100  0.65490500  1
  C  C15  1  0.25299500  0.87834900  0.34509500  1
  C  C16  1  0.87834900  0.25299500  0.84509500  1
  C  C17  1  0.12165100  0.74700500  0.15490500  1
  C  C18  1  0.69848400  0.30151600  0.75000000  1
  C  C19  1  0.30151600  0.69848400  0.25000000  1
  C  C20  1  0.85483900  0.14516100  0.75000000  1
  C  C21  1  0.14516100  0.85483900  0.25000000  1
  O  O22  1  0.92632300  0.07367700  0.75000000  1
  O  O23  1  0.07367700  0.92632300  0.25000000  1
  O  O24  1  0.26132000  0.24470400  0.74009200  1
  O  O25  1  0.73868000  0.75529600  0.25990800  1
  O  O26  1  0.75529600  0.73868000  0.75990800  1
  O  O27  1  0.24470400  0.26132000  0.24009200  1
  F  F28  1  0.57340900  0.17297300  0.55469700  1
  F  F29  1  0.42659100  0.82702700  0.44530300  1
  F  F30  1  0.82702700  0.42659100  0.94530300  1
  F  F31  1  0.17297300  0.57340900  0.05469700  1
  F  F32  1  0.71402600  0.01813900  0.56210000  1
  F  F33  1  0.28597400  0.98186100  0.43790000  1
  F  F34  1  0.98186100  0.28597400  0.93790000  1
  F  F35  1  0.01813900  0.71402600  0.06210000  1
  F  F36  1  0.62465200  0.37534800  0.75000000  1
  F  F37  1  0.37534800  0.62465200  0.25000000  1
