# generated using pymatgen
data_K2TbNb5O15
_symmetry_space_group_name_H-M   'P 1'
_cell_length_a   12.75753400
_cell_length_b   12.75753400
_cell_length_c   3.95556700
_cell_angle_alpha   90.00000000
_cell_angle_beta   90.00000000
_cell_angle_gamma   90.00000000
_symmetry_Int_Tables_number   1
_chemical_formula_structural   K2TbNb5O15
_chemical_formula_sum   'K4 Tb2 Nb10 O30'
_cell_volume   643.78701663
_cell_formula_units_Z   2
loop_
 _symmetry_equiv_pos_site_id
 _symmetry_equiv_pos_as_xyz
  1  'x, y, z'
loop_
 _atom_site_type_symbol
 _atom_site_label
 _atom_site_symmetry_multiplicity
 _atom_site_fract_x
 _atom_site_fract_y
 _atom_site_fract_z
 _atom_site_occupancy
  K  K0  1  0.67001900  0.17001900  0.50000000  1
  K  K1  1  0.32998100  0.82998100  0.50000000  1
  K  K2  1  0.17001900  0.32998100  0.50000000  1
  K  K3  1  0.82998100  0.67001900  0.50000000  1
  Tb  Tb4  1  0.00000000  0.00000000  0.50000000  1
  Tb  Tb5  1  0.50000000  0.50000000  0.50000000  1
  Nb  Nb6  1  0.50000000  0.00000000  0.00000000  1
  Nb  Nb7  1  0.00000000  0.50000000  0.00000000  1
  Nb  Nb8  1  0.21207500  0.07647100  0.00000000  1
  Nb  Nb9  1  0.78792500  0.92352900  0.00000000  1
  Nb  Nb10  1  0.07647100  0.78792500  0.00000000  1
  Nb  Nb11  1  0.71207500  0.42352900  0.00000000  1
  Nb  Nb12  1  0.92352900  0.21207500  0.00000000  1
  Nb  Nb13  1  0.28792500  0.57647100  0.00000000  1
  Nb  Nb14  1  0.57647100  0.71207500  0.00000000  1
  Nb  Nb15  1  0.42352900  0.28792500  0.00000000  1
  O  O16  1  0.18578600  0.07848200  0.50000000  1
  O  O17  1  0.81421400  0.92151800  0.50000000  1
  O  O18  1  0.07848200  0.81421400  0.50000000  1
  O  O19  1  0.68578600  0.42151800  0.50000000  1
  O  O20  1  0.92151800  0.18578600  0.50000000  1
  O  O21  1  0.31421400  0.57848200  0.50000000  1
  O  O22  1  0.57848200  0.68578600  0.50000000  1
  O  O23  1  0.42151800  0.31421400  0.50000000  1
  O  O24  1  0.21718700  0.71718700  0.00000000  1
  O  O25  1  0.78281300  0.28281300  0.00000000  1
  O  O26  1  0.71718700  0.78281300  0.00000000  1
  O  O27  1  0.28281300  0.21718700  0.00000000  1
  O  O28  1  0.50000000  0.00000000  0.50000000  1
  O  O29  1  0.00000000  0.50000000  0.50000000  1
  O  O30  1  0.05794200  0.13084800  0.00000000  1
  O  O31  1  0.94205800  0.86915200  0.00000000  1
  O  O32  1  0.13084800  0.94205800  0.00000000  1
  O  O33  1  0.55794200  0.36915200  0.00000000  1
  O  O34  1  0.86915200  0.05794200  0.00000000  1
  O  O35  1  0.44205800  0.63084800  0.00000000  1
  O  O36  1  0.63084800  0.55794200  0.00000000  1
  O  O37  1  0.36915200  0.44205800  0.00000000  1
  O  O38  1  0.34211200  0.99958500  0.00000000  1
  O  O39  1  0.65788800  0.00041500  0.00000000  1
  O  O40  1  0.99958500  0.65788800  0.00000000  1
  O  O41  1  0.84211200  0.50041500  0.00000000  1
  O  O42  1  0.00041500  0.34211200  0.00000000  1
  O  O43  1  0.15788800  0.49958500  0.00000000  1
  O  O44  1  0.49958500  0.84211200  0.00000000  1
  O  O45  1  0.50041500  0.15788800  0.00000000  1
