# generated using pymatgen
data_KAl2Si4O11
_symmetry_space_group_name_H-M   'P 1'
_cell_length_a   5.33223362
_cell_length_b   5.33223362
_cell_length_c   20.75782169
_cell_angle_alpha   87.20551927
_cell_angle_beta   87.20551927
_cell_angle_gamma   120.68462840
_symmetry_Int_Tables_number   1
_chemical_formula_structural   KAl2Si4O11
_chemical_formula_sum   'K2 Al4 Si8 O22'
_cell_volume   505.09699439
_cell_formula_units_Z   2
loop_
 _symmetry_equiv_pos_site_id
 _symmetry_equiv_pos_as_xyz
  1  'x, y, z'
loop_
 _atom_site_type_symbol
 _atom_site_label
 _atom_site_symmetry_multiplicity
 _atom_site_fract_x
 _atom_site_fract_y
 _atom_site_fract_z
 _atom_site_occupancy
  K  K0  1  0.90019100  0.09980900  0.25000000  1
  K  K1  1  0.09980900  0.90019100  0.75000000  1
  Al  Al2  1  0.63114700  0.81660900  0.00001700  1
  Al  Al3  1  0.36885300  0.18339100  0.99998300  1
  Al  Al4  1  0.18339100  0.36885300  0.49998300  1
  Al  Al5  1  0.81660900  0.63114700  0.50001700  1
  Si  Si6  1  0.53381000  0.39954500  0.36600800  1
  Si  Si7  1  0.46619000  0.60045500  0.63399200  1
  Si  Si8  1  0.60045500  0.46619000  0.13399200  1
  Si  Si9  1  0.39954500  0.53381000  0.86600800  1
  Si  Si10  1  0.29811700  0.81305100  0.13416600  1
  Si  Si11  1  0.70188300  0.18694900  0.86583400  1
  Si  Si12  1  0.18694900  0.70188300  0.36583400  1
  Si  Si13  1  0.81305100  0.29811700  0.63416600  1
  O  O14  1  0.39517100  0.12416000  0.16807800  1
  O  O15  1  0.60482900  0.87584000  0.83192200  1
  O  O16  1  0.87584000  0.60482900  0.33192200  1
  O  O17  1  0.12416000  0.39517100  0.66807800  1
  O  O18  1  0.47488600  0.66296000  0.16773000  1
  O  O19  1  0.52511400  0.33704000  0.83227000  1
  O  O20  1  0.33704000  0.52511400  0.33227000  1
  O  O21  1  0.66296000  0.47488600  0.66773000  1
  O  O22  1  0.41731900  0.05745200  0.34903300  1
  O  O23  1  0.58268100  0.94254800  0.65096700  1
  O  O24  1  0.94254800  0.58268100  0.15096700  1
  O  O25  1  0.05745200  0.41731900  0.84903300  1
  O  O26  1  0.52920000  0.45227200  0.44335300  1
  O  O27  1  0.47080000  0.54772800  0.55664700  1
  O  O28  1  0.54772800  0.47080000  0.05664700  1
  O  O29  1  0.45227200  0.52920000  0.94335300  1
  O  O30  1  0.00000000  0.00000000  0.00000000  1
  O  O31  1  0.00000000  0.00000000  0.50000000  1
  O  O32  1  0.40725900  0.89931200  0.05647100  1
  O  O33  1  0.59274100  0.10068800  0.94352900  1
  O  O34  1  0.10068800  0.59274100  0.44352900  1
  O  O35  1  0.89931200  0.40725900  0.55647100  1
