# generated using pymatgen
data_KTiSi3O11
_symmetry_space_group_name_H-M   'P 1'
_cell_length_a   9.94629700
_cell_length_b   7.29246300
_cell_length_c   13.03361853
_cell_angle_alpha   88.24145163
_cell_angle_beta   90.00000000
_cell_angle_gamma   90.00000000
_symmetry_Int_Tables_number   1
_chemical_formula_structural   KTiSi3O11
_chemical_formula_sum   'K4 Ti4 Si12 O44'
_cell_volume   944.92224409
_cell_formula_units_Z   4
loop_
 _symmetry_equiv_pos_site_id
 _symmetry_equiv_pos_as_xyz
  1  'x, y, z'
loop_
 _atom_site_type_symbol
 _atom_site_label
 _atom_site_symmetry_multiplicity
 _atom_site_fract_x
 _atom_site_fract_y
 _atom_site_fract_z
 _atom_site_occupancy
  K  K0  1  0.21406800  0.76164400  0.09916400  1
  K  K1  1  0.78593200  0.23835600  0.90083600  1
  K  K2  1  0.71406800  0.23835600  0.40083600  1
  K  K3  1  0.28593200  0.76164400  0.59916400  1
  Ti  Ti4  1  0.70645500  0.76925200  0.29543800  1
  Ti  Ti5  1  0.29354500  0.23074800  0.70456200  1
  Ti  Ti6  1  0.20645500  0.23074800  0.20456200  1
  Ti  Ti7  1  0.79354500  0.76925200  0.79543800  1
  Si  Si8  1  0.78759500  0.77407300  0.05300000  1
  Si  Si9  1  0.21240500  0.22592700  0.94700000  1
  Si  Si10  1  0.28759500  0.22592700  0.44700000  1
  Si  Si11  1  0.71240500  0.77407300  0.55300000  1
  Si  Si12  1  0.93790100  0.48685500  0.17322800  1
  Si  Si13  1  0.06209900  0.51314500  0.82677200  1
  Si  Si14  1  0.43790100  0.51314500  0.32677200  1
  Si  Si15  1  0.56209900  0.48685500  0.67322800  1
  Si  Si16  1  0.39797800  0.91975800  0.33160000  1
  Si  Si17  1  0.60202200  0.08024200  0.66840000  1
  Si  Si18  1  0.89797800  0.08024200  0.16840000  1
  Si  Si19  1  0.10202200  0.91975800  0.83160000  1
  O  O20  1  0.87128200  0.58350600  0.27524800  1
  O  O21  1  0.12871800  0.41649400  0.72475200  1
  O  O22  1  0.37128200  0.41649400  0.22475200  1
  O  O23  1  0.62871800  0.58350600  0.77524800  1
  O  O24  1  0.56142000  0.92570700  0.32115200  1
  O  O25  1  0.43858000  0.07429300  0.67884800  1
  O  O26  1  0.06142000  0.07429300  0.17884800  1
  O  O27  1  0.93858000  0.92570700  0.82115200  1
  O  O28  1  0.85177900  0.98307000  0.06091800  1
  O  O29  1  0.14822100  0.01693000  0.93908200  1
  O  O30  1  0.35177900  0.01693000  0.43908200  1
  O  O31  1  0.64822100  0.98307000  0.56091800  1
  O  O32  1  0.85216800  0.29711300  0.15521100  1
  O  O33  1  0.14783200  0.70288700  0.84478900  1
  O  O34  1  0.35216800  0.70288700  0.34478900  1
  O  O35  1  0.64783200  0.29711300  0.65521100  1
  O  O36  1  0.67881500  0.74034900  0.14573100  1
  O  O37  1  0.32118500  0.25965100  0.85426900  1
  O  O38  1  0.17881500  0.25965100  0.35426900  1
  O  O39  1  0.82118500  0.74034900  0.64573100  1
  O  O40  1  0.48173200  0.57644100  0.09000700  1
  O  O41  1  0.51826800  0.42355900  0.90999300  1
  O  O42  1  0.98173200  0.42355900  0.40999300  1
  O  O43  1  0.01826800  0.57644100  0.59000700  1
  O  O44  1  0.77182600  0.75473100  0.43806700  1
  O  O45  1  0.22817400  0.24526900  0.56193300  1
  O  O46  1  0.27182600  0.24526900  0.06193300  1
  O  O47  1  0.72817400  0.75473100  0.93806700  1
  O  O48  1  0.82144900  0.97874400  0.26389300  1
  O  O49  1  0.17855100  0.02125600  0.73610700  1
  O  O50  1  0.32144900  0.02125600  0.23610700  1
  O  O51  1  0.67855100  0.97874400  0.76389300  1
  O  O52  1  0.49433800  0.29553500  0.11001500  1
  O  O53  1  0.50566200  0.70446500  0.88998500  1
  O  O54  1  0.99433800  0.70446500  0.38998500  1
  O  O55  1  0.00566200  0.29553500  0.61001500  1
  O  O56  1  0.91400800  0.62897500  0.07369800  1
  O  O57  1  0.08599200  0.37102500  0.92630200  1
  O  O58  1  0.41400800  0.37102500  0.42630200  1
  O  O59  1  0.58599200  0.62897500  0.57369800  1
  O  O60  1  0.59628500  0.55220200  0.31660400  1
  O  O61  1  0.40371500  0.44779800  0.68339600  1
  O  O62  1  0.09628500  0.44779800  0.18339600  1
  O  O63  1  0.90371500  0.55220200  0.81660400  1
