# generated using pymatgen
data_KNaSi5SnW3O13
_symmetry_space_group_name_H-M   'P 1'
_cell_length_a   9.76475293
_cell_length_b   9.76475293
_cell_length_c   9.35149282
_cell_angle_alpha   81.47981402
_cell_angle_beta   81.47981402
_cell_angle_gamma   113.74044972
_symmetry_Int_Tables_number   1
_chemical_formula_structural   KNaSi5SnW3O13
_chemical_formula_sum   'K2 Na2 Si10 Sn2 W6 O26'
_cell_volume   785.65160942
_cell_formula_units_Z   2
loop_
 _symmetry_equiv_pos_site_id
 _symmetry_equiv_pos_as_xyz
  1  'x, y, z'
loop_
 _atom_site_type_symbol
 _atom_site_label
 _atom_site_symmetry_multiplicity
 _atom_site_fract_x
 _atom_site_fract_y
 _atom_site_fract_z
 _atom_site_occupancy
  K  K0  1  0.60209600  0.60209600  0.11628200  1
  K  K1  1  0.39790400  0.39790400  0.88371800  1
  Na  Na2  1  0.87374800  0.12625200  0.00000000  1
  Na  Na3  1  0.12625200  0.87374800  0.00000000  1
  Si  Si4  1  0.31610400  0.11680900  0.24480400  1
  Si  Si5  1  0.68389600  0.88319100  0.75519600  1
  Si  Si6  1  0.88319100  0.68389600  0.75519600  1
  Si  Si7  1  0.11680900  0.31610400  0.24480400  1
  Si  Si8  1  0.81101200  0.18898800  0.50000000  1
  Si  Si9  1  0.18898800  0.81101200  0.50000000  1
  Si  Si10  1  0.65742500  0.23103100  0.22803300  1
  Si  Si11  1  0.34257500  0.76896900  0.77196700  1
  Si  Si12  1  0.76896900  0.34257500  0.77196700  1
  Si  Si13  1  0.23103100  0.65742500  0.22803300  1
  Sn  Sn14  1  0.50000000  0.00000000  0.00000000  1
  Sn  Sn15  1  0.00000000  0.50000000  0.00000000  1
  W  W16  1  0.89815900  0.89815900  0.27259100  1
  W  W17  1  0.10184100  0.10184100  0.72740900  1
  W  W18  1  0.55116200  0.73629700  0.42409200  1
  W  W19  1  0.44883800  0.26370300  0.57590800  1
  W  W20  1  0.26370300  0.44883800  0.57590800  1
  W  W21  1  0.73629700  0.55116200  0.42409200  1
  O  O22  1  0.68753300  0.18215400  0.39622600  1
  O  O23  1  0.31246700  0.81784600  0.60377400  1
  O  O24  1  0.81784600  0.31246700  0.60377400  1
  O  O25  1  0.18215400  0.68753300  0.39622600  1
  O  O26  1  0.78042100  0.78042100  0.76735400  1
  O  O27  1  0.21957900  0.21957900  0.23264600  1
  O  O28  1  0.40394300  0.78389200  0.14334000  1
  O  O29  1  0.59605700  0.21610800  0.85666000  1
  O  O30  1  0.21610800  0.59605700  0.85666000  1
  O  O31  1  0.78389200  0.40394300  0.14334000  1
  O  O32  1  0.64053700  0.09244000  0.14400400  1
  O  O33  1  0.35946300  0.90756000  0.85599600  1
  O  O34  1  0.90756000  0.35946300  0.85599600  1
  O  O35  1  0.09244000  0.64053700  0.14400400  1
  O  O36  1  0.32252300  0.04764400  0.09825200  1
  O  O37  1  0.67747700  0.95235600  0.90174800  1
  O  O38  1  0.95235600  0.67747700  0.90174800  1
  O  O39  1  0.04764400  0.32252300  0.09825200  1
  O  O40  1  0.75731300  0.01722900  0.60043000  1
  O  O41  1  0.24268700  0.98277100  0.39957000  1
  O  O42  1  0.98277100  0.24268700  0.39957000  1
  O  O43  1  0.01722900  0.75731300  0.60043000  1
  O  O44  1  0.48897700  0.24031200  0.25300200  1
  O  O45  1  0.51102300  0.75968800  0.74699800  1
  O  O46  1  0.75968800  0.51102300  0.74699800  1
  O  O47  1  0.24031200  0.48897700  0.25300200  1
