# generated using pymatgen
data_K3(SO4)2
_symmetry_space_group_name_H-M   'P 1'
_cell_length_a   5.77549400
_cell_length_b   7.96446316
_cell_length_c   9.85225811
_cell_angle_alpha   102.30405985
_cell_angle_beta   90.00000000
_cell_angle_gamma   111.25866529
_symmetry_Int_Tables_number   1
_chemical_formula_structural   K3(SO4)2
_chemical_formula_sum   'K6 S4 O16'
_cell_volume   411.16328729
_cell_formula_units_Z   2
loop_
 _symmetry_equiv_pos_site_id
 _symmetry_equiv_pos_as_xyz
  1  'x, y, z'
loop_
 _atom_site_type_symbol
 _atom_site_label
 _atom_site_symmetry_multiplicity
 _atom_site_fract_x
 _atom_site_fract_y
 _atom_site_fract_z
 _atom_site_occupancy
  K  K0  1  0.74365300  0.00000000  0.75000000  1
  K  K1  1  0.25634700  0.00000000  0.25000000  1
  K  K2  1  0.41675500  0.38171900  0.65069300  1
  K  K3  1  0.58324500  0.61828100  0.34930700  1
  K  K4  1  0.03503600  0.61828100  0.84930700  1
  K  K5  1  0.96496400  0.38171900  0.15069300  1
  S  S6  1  0.39786500  0.22772600  0.96327800  1
  S  S7  1  0.60213500  0.77227400  0.03672200  1
  S  S8  1  0.17014000  0.77227400  0.53672200  1
  S  S9  1  0.82986000  0.22772600  0.46327800  1
  O  O10  1  0.57460800  0.69311100  0.88455800  1
  O  O11  1  0.42539200  0.30688900  0.11544200  1
  O  O12  1  0.88149700  0.30688900  0.61544200  1
  O  O13  1  0.11850300  0.69311100  0.38455800  1
  O  O14  1  0.63533700  0.30382300  0.89965200  1
  O  O15  1  0.36466300  0.69617700  0.10034800  1
  O  O16  1  0.33151400  0.69617700  0.60034800  1
  O  O17  1  0.66848500  0.30382300  0.39965200  1
  O  O18  1  0.19257600  0.25949900  0.89406900  1
  O  O19  1  0.80742400  0.74050100  0.10593100  1
  O  O20  1  0.93307800  0.74050100  0.60593100  1
  O  O21  1  0.06692200  0.25949900  0.39406900  1
  O  O22  1  0.31776600  0.01937500  0.93748900  1
  O  O23  1  0.68223400  0.98062500  0.06251100  1
  O  O24  1  0.29839100  0.98062500  0.56251100  1
  O  O25  1  0.70160900  0.01937500  0.43748900  1
