# generated using pymatgen
data_K3Ce(AsO4)2
_symmetry_space_group_name_H-M   'P 1'
_cell_length_a   5.96442700
_cell_length_b   7.75630900
_cell_length_c   10.03274212
_cell_angle_alpha   88.37392865
_cell_angle_beta   90.00000000
_cell_angle_gamma   90.00000000
_symmetry_Int_Tables_number   1
_chemical_formula_structural   K3Ce(AsO4)2
_chemical_formula_sum   'K6 Ce2 As4 O16'
_cell_volume   463.94719837
_cell_formula_units_Z   2
loop_
 _symmetry_equiv_pos_site_id
 _symmetry_equiv_pos_as_xyz
  1  'x, y, z'
loop_
 _atom_site_type_symbol
 _atom_site_label
 _atom_site_symmetry_multiplicity
 _atom_site_fract_x
 _atom_site_fract_y
 _atom_site_fract_z
 _atom_site_occupancy
  K  K0  1  0.25000000  0.85916900  0.41011400  1
  K  K1  1  0.75000000  0.14083100  0.58988600  1
  K  K2  1  0.25000000  0.29787300  0.08416500  1
  K  K3  1  0.75000000  0.70212700  0.91583500  1
  K  K4  1  0.25000000  0.00570100  0.80408700  1
  K  K5  1  0.75000000  0.99429900  0.19591300  1
  Ce  Ce6  1  0.25000000  0.51022300  0.71251700  1
  Ce  Ce7  1  0.75000000  0.48977700  0.28748300  1
  As  As8  1  0.25000000  0.30750400  0.42723600  1
  As  As9  1  0.75000000  0.69249600  0.57276400  1
  As  As10  1  0.25000000  0.73838800  0.08623600  1
  As  As11  1  0.75000000  0.26161200  0.91376400  1
  O  O12  1  0.25000000  0.68178000  0.92121300  1
  O  O13  1  0.75000000  0.31822000  0.07878700  1
  O  O14  1  0.48594900  0.25008800  0.33830800  1
  O  O15  1  0.51405100  0.74991200  0.66169200  1
  O  O16  1  0.98594900  0.74991200  0.66169200  1
  O  O17  1  0.01405100  0.25008800  0.33830800  1
  O  O18  1  0.25000000  0.20904200  0.58351900  1
  O  O19  1  0.75000000  0.79095800  0.41648100  1
  O  O20  1  0.25000000  0.95644700  0.10374100  1
  O  O21  1  0.75000000  0.04355300  0.89625900  1
  O  O22  1  0.48682200  0.65211800  0.16218000  1
  O  O23  1  0.51317800  0.34788200  0.83782000  1
  O  O24  1  0.98682200  0.34788200  0.83782000  1
  O  O25  1  0.01317800  0.65211800  0.16218000  1
  O  O26  1  0.25000000  0.52490800  0.45644400  1
  O  O27  1  0.75000000  0.47509200  0.54355600  1
