# generated using pymatgen
data_Pr10Ti9GaO34
_symmetry_space_group_name_H-M   'P 1'
_cell_length_a   5.53459600
_cell_length_b   7.79313300
_cell_length_c   32.07559898
_cell_angle_alpha   82.94303313
_cell_angle_beta   90.00000000
_cell_angle_gamma   90.00000000
_symmetry_Int_Tables_number   1
_chemical_formula_structural   Pr10Ti9GaO34
_chemical_formula_sum   'Pr20 Ti18 Ga2 O68'
_cell_volume   1372.99912818
_cell_formula_units_Z   2
loop_
 _symmetry_equiv_pos_site_id
 _symmetry_equiv_pos_as_xyz
  1  'x, y, z'
loop_
 _atom_site_type_symbol
 _atom_site_label
 _atom_site_symmetry_multiplicity
 _atom_site_fract_x
 _atom_site_fract_y
 _atom_site_fract_z
 _atom_site_occupancy
  Pr  Pr0  1  0.98454100  0.78722700  0.91773500  1
  Pr  Pr1  1  0.01545900  0.21277300  0.08226500  1
  Pr  Pr2  1  0.48454100  0.21277300  0.58226500  1
  Pr  Pr3  1  0.51545900  0.78722700  0.41773500  1
  Pr  Pr4  1  0.00312100  0.69997000  0.09552500  1
  Pr  Pr5  1  0.99687900  0.30003000  0.90447500  1
  Pr  Pr6  1  0.50312100  0.30003000  0.40447500  1
  Pr  Pr7  1  0.49687900  0.69997000  0.59552500  1
  Pr  Pr8  1  0.94948900  0.64434900  0.70139400  1
  Pr  Pr9  1  0.05051100  0.35565100  0.29860600  1
  Pr  Pr10  1  0.44948900  0.35565100  0.79860600  1
  Pr  Pr11  1  0.55051100  0.64434900  0.20139400  1
  Pr  Pr12  1  0.99206000  0.74212600  0.50625400  1
  Pr  Pr13  1  0.00794000  0.25787400  0.49374600  1
  Pr  Pr14  1  0.49206000  0.25787400  0.99374600  1
  Pr  Pr15  1  0.50794000  0.74212600  0.00625400  1
  Pr  Pr16  1  0.38608300  0.85716700  0.77938600  1
  Pr  Pr17  1  0.61391700  0.14283300  0.22061400  1
  Pr  Pr18  1  0.88608300  0.14283300  0.72061400  1
  Pr  Pr19  1  0.11391700  0.85716700  0.27938600  1
  Ti  Ti20  1  0.48579700  0.54546100  0.90638800  1
  Ti  Ti21  1  0.51420300  0.45453900  0.09361200  1
  Ti  Ti22  1  0.98579700  0.45453900  0.59361200  1
  Ti  Ti23  1  0.01420300  0.54546100  0.40638800  1
  Ti  Ti24  1  0.45380500  0.92110500  0.67593300  1
  Ti  Ti25  1  0.54619500  0.07889500  0.32406700  1
  Ti  Ti26  1  0.95380500  0.07889500  0.82406700  1
  Ti  Ti27  1  0.04619500  0.92110500  0.17593300  1
  Ti  Ti28  1  0.44516100  0.40640500  0.67856600  1
  Ti  Ti29  1  0.55483900  0.59359500  0.32143400  1
  Ti  Ti30  1  0.94516100  0.59359500  0.82143400  1
  Ti  Ti31  1  0.05483900  0.40640500  0.17856600  1
  Ti  Ti32  1  0.98386000  0.95197200  0.59270000  1
  Ti  Ti33  1  0.01614000  0.04802800  0.40730000  1
  Ti  Ti34  1  0.48386000  0.04802800  0.90730000  1
  Ti  Ti35  1  0.51614000  0.95197200  0.09270000  1
  Ti  Ti36  1  0.50000000  0.00000000  0.50000000  1
  Ti  Ti37  1  0.00000000  0.00000000  0.00000000  1
  Ga  Ga38  1  0.50000000  0.50000000  0.50000000  1
  Ga  Ga39  1  0.00000000  0.50000000  0.00000000  1
  O  O40  1  0.39898000  0.66323800  0.67103800  1
  O  O41  1  0.60102000  0.33676200  0.32896200  1
  O  O42  1  0.89898000  0.33676200  0.82896200  1
  O  O43  1  0.10102000  0.66323800  0.17103800  1
  O  O44  1  0.18641000  0.91708900  0.71062800  1
  O  O45  1  0.81359000  0.08291100  0.28937200  1
  O  O46  1  0.68641000  0.08291100  0.78937200  1
  O  O47  1  0.31359000  0.91708900  0.21062800  1
  O  O48  1  0.67254200  0.87030600  0.72053300  1
  O  O49  1  0.32745800  0.12969400  0.27946700  1
  O  O50  1  0.17254200  0.12969400  0.77946700  1
  O  O51  1  0.82745800  0.87030600  0.22053300  1
  O  O52  1  0.78701200  0.87227900  0.63698100  1
  O  O53  1  0.21298800  0.12772100  0.36301900  1
  O  O54  1  0.28701200  0.12772100  0.86301900  1
  O  O55  1  0.71298800  0.87227900  0.13698100  1
  O  O56  1  0.21779500  0.48650500  0.94870500  1
  O  O57  1  0.78220500  0.51349500  0.05129500  1
  O  O58  1  0.71779500  0.51349500  0.55129500  1
  O  O59  1  0.28220500  0.48650500  0.44870500  1
  O  O60  1  0.15628900  0.59556200  0.77418800  1
  O  O61  1  0.84371100  0.40443800  0.22581200  1
  O  O62  1  0.65628900  0.40443800  0.72581200  1
  O  O63  1  0.34371100  0.59556200  0.27418800  1
  O  O64  1  0.21698800  0.44047300  0.53608900  1
  O  O65  1  0.78301200  0.55952700  0.46391100  1
  O  O66  1  0.71698800  0.55952700  0.96391100  1
  O  O67  1  0.28301200  0.44047300  0.03608900  1
  O  O68  1  0.30216900  0.42066000  0.61934500  1
  O  O69  1  0.69783100  0.57934000  0.38065500  1
  O  O70  1  0.80216900  0.57934000  0.88065500  1
  O  O71  1  0.19783100  0.42066000  0.11934500  1
  O  O72  1  0.42261300  0.75303600  0.49678400  1
  O  O73  1  0.57738700  0.24696400  0.50321600  1
  O  O74  1  0.92261300  0.24696400  0.00321600  1
  O  O75  1  0.07738700  0.75303600  0.99678400  1
  O  O76  1  0.42909100  0.79347500  0.91096700  1
  O  O77  1  0.57090900  0.20652500  0.08903300  1
  O  O78  1  0.92909100  0.20652500  0.58903300  1
  O  O79  1  0.07090900  0.79347500  0.41096700  1
  O  O80  1  0.04465900  0.83379800  0.83070700  1
  O  O81  1  0.95534100  0.16620200  0.16929300  1
  O  O82  1  0.54465900  0.16620200  0.66929300  1
  O  O83  1  0.45534100  0.83379800  0.33070700  1
  O  O84  1  0.71512700  0.97807000  0.96425300  1
  O  O85  1  0.28487300  0.02193000  0.03574700  1
  O  O86  1  0.21512700  0.02193000  0.53574700  1
  O  O87  1  0.78487300  0.97807000  0.46425300  1
  O  O88  1  0.29349900  0.50902600  0.86182300  1
  O  O89  1  0.70650100  0.49097400  0.13817700  1
  O  O90  1  0.79349900  0.49097400  0.63817700  1
  O  O91  1  0.20650100  0.50902600  0.36182300  1
  O  O92  1  0.71229400  0.93796400  0.55050400  1
  O  O93  1  0.28770600  0.06203600  0.44949600  1
  O  O94  1  0.21229400  0.06203600  0.94949600  1
  O  O95  1  0.78770600  0.93796400  0.05050400  1
  O  O96  1  0.16436100  0.37081600  0.70484000  1
  O  O97  1  0.83563900  0.62918400  0.29516000  1
  O  O98  1  0.66436100  0.62918400  0.79516000  1
  O  O99  1  0.33563900  0.37081600  0.20484000  1
  O  O100  1  0.29919700  0.96216500  0.61913300  1
  O  O101  1  0.70080300  0.03783500  0.38086700  1
  O  O102  1  0.79919700  0.03783500  0.88086700  1
  O  O103  1  0.20080300  0.96216500  0.11913300  1
  O  O104  1  0.06895100  0.71004300  0.58091800  1
  O  O105  1  0.93104900  0.28995700  0.41908200  1
  O  O106  1  0.56895100  0.28995700  0.91908200  1
  O  O107  1  0.43104900  0.71004300  0.08091800  1
