# generated using pymatgen
data_KU6F25
_symmetry_space_group_name_H-M   'P 1'
_cell_length_a   8.18707617
_cell_length_b   8.18707617
_cell_length_c   16.61149800
_cell_angle_alpha   90.00000000
_cell_angle_beta   90.00000000
_cell_angle_gamma   120.00000141
_symmetry_Int_Tables_number   1
_chemical_formula_structural   KU6F25
_chemical_formula_sum   'K2 U12 F50'
_cell_volume   964.26651581
_cell_formula_units_Z   2
loop_
 _symmetry_equiv_pos_site_id
 _symmetry_equiv_pos_as_xyz
  1  'x, y, z'
loop_
 _atom_site_type_symbol
 _atom_site_label
 _atom_site_symmetry_multiplicity
 _atom_site_fract_x
 _atom_site_fract_y
 _atom_site_fract_z
 _atom_site_occupancy
  K  K0  1  0.33333300  0.66666700  0.75000000  1
  K  K1  1  0.66666700  0.33333300  0.25000000  1
  U  U2  1  0.16672300  0.33344500  0.11304900  1
  U  U3  1  0.83327700  0.66655500  0.88695100  1
  U  U4  1  0.66655500  0.83327700  0.11304900  1
  U  U5  1  0.83327700  0.66655500  0.61304900  1
  U  U6  1  0.33344500  0.16672300  0.88695100  1
  U  U7  1  0.16672300  0.33344500  0.38695100  1
  U  U8  1  0.16672300  0.83327700  0.11304900  1
  U  U9  1  0.33344500  0.16672300  0.61304900  1
  U  U10  1  0.83327700  0.16672300  0.88695100  1
  U  U11  1  0.66655500  0.83327700  0.38695100  1
  U  U12  1  0.83327700  0.16672300  0.61304900  1
  U  U13  1  0.16672300  0.83327700  0.38695100  1
  F  F14  1  0.00000000  0.00000000  0.07347300  1
  F  F15  1  0.00000000  0.00000000  0.92652700  1
  F  F16  1  0.00000000  0.00000000  0.57347300  1
  F  F17  1  0.00000000  0.00000000  0.42652700  1
  F  F18  1  0.18882800  0.37765700  0.25000000  1
  F  F19  1  0.81117200  0.62234300  0.75000000  1
  F  F20  1  0.62234300  0.81117200  0.25000000  1
  F  F21  1  0.37765700  0.18882800  0.75000000  1
  F  F22  1  0.18882800  0.81117200  0.25000000  1
  F  F23  1  0.81117200  0.18882800  0.75000000  1
  F  F24  1  0.13702100  0.27404100  0.66117900  1
  F  F25  1  0.86297900  0.72595900  0.33882100  1
  F  F26  1  0.72595900  0.86297900  0.66117900  1
  F  F27  1  0.86297900  0.72595900  0.16117900  1
  F  F28  1  0.27404100  0.13702100  0.33882100  1
  F  F29  1  0.13702100  0.27404100  0.83882100  1
  F  F30  1  0.13702100  0.86297900  0.66117900  1
  F  F31  1  0.27404100  0.13702100  0.16117900  1
  F  F32  1  0.86297900  0.13702100  0.33882100  1
  F  F33  1  0.72595900  0.86297900  0.83882100  1
  F  F34  1  0.86297900  0.13702100  0.16117900  1
  F  F35  1  0.13702100  0.86297900  0.83882100  1
  F  F36  1  0.32107000  0.00000000  0.00000000  1
  F  F37  1  0.67893000  0.00000000  0.00000000  1
  F  F38  1  0.00000000  0.32107000  0.00000000  1
  F  F39  1  0.67893000  0.00000000  0.50000000  1
  F  F40  1  0.00000000  0.67893000  0.00000000  1
  F  F41  1  0.32107000  0.00000000  0.50000000  1
  F  F42  1  0.67893000  0.67893000  0.00000000  1
  F  F43  1  0.00000000  0.67893000  0.50000000  1
  F  F44  1  0.32107000  0.32107000  0.00000000  1
  F  F45  1  0.00000000  0.32107000  0.50000000  1
  F  F46  1  0.32107000  0.32107000  0.50000000  1
  F  F47  1  0.67893000  0.67893000  0.50000000  1
  F  F48  1  0.33333300  0.66666700  0.06814600  1
  F  F49  1  0.66666700  0.33333300  0.93185400  1
  F  F50  1  0.66666700  0.33333300  0.56814600  1
  F  F51  1  0.33333300  0.66666700  0.43185400  1
  F  F52  1  0.51454400  0.02908800  0.64515900  1
  F  F53  1  0.48545600  0.97091200  0.35484100  1
  F  F54  1  0.97091200  0.48545600  0.64515900  1
  F  F55  1  0.48545600  0.97091200  0.14515900  1
  F  F56  1  0.02908800  0.51454400  0.35484100  1
  F  F57  1  0.51454400  0.02908800  0.85484100  1
  F  F58  1  0.51454400  0.48545600  0.64515900  1
  F  F59  1  0.02908800  0.51454400  0.14515900  1
  F  F60  1  0.48545600  0.51454400  0.35484100  1
  F  F61  1  0.97091200  0.48545600  0.85484100  1
  F  F62  1  0.48545600  0.51454400  0.14515900  1
  F  F63  1  0.51454400  0.48545600  0.85484100  1
