# generated using pymatgen
data_Mg3Si2O9
_symmetry_space_group_name_H-M   'P 1'
_cell_length_a   5.41017788
_cell_length_b   5.41017787
_cell_length_c   65.07290601
_cell_angle_alpha   90.00000000
_cell_angle_beta   90.00000000
_cell_angle_gamma   120.00000091
_symmetry_Int_Tables_number   1
_chemical_formula_structural   Mg3Si2O9
_chemical_formula_sum   'Mg27 Si18 O81'
_cell_volume   1649.50606775
_cell_formula_units_Z   9
loop_
 _symmetry_equiv_pos_site_id
 _symmetry_equiv_pos_as_xyz
  1  'x, y, z'
loop_
 _atom_site_type_symbol
 _atom_site_label
 _atom_site_symmetry_multiplicity
 _atom_site_fract_x
 _atom_site_fract_y
 _atom_site_fract_z
 _atom_site_occupancy
  Mg  Mg0  1  0.66639334  0.69026509  0.83726205  1
  Mg  Mg1  1  0.02387175  0.33360666  0.50392905  1
  Mg  Mg2  1  0.30973491  0.97612825  0.17059505  1
  Mg  Mg3  1  0.68983774  0.35645025  0.72573423  1
  Mg  Mg4  1  0.66661251  0.31016226  0.39240123  1
  Mg  Mg5  1  0.64354975  0.33338749  0.05906723  1
  Mg  Mg6  1  0.66691209  0.69005070  0.61462704  1
  Mg  Mg7  1  0.02313861  0.33308791  0.28129404  1
  Mg  Mg8  1  0.30994930  0.97686139  0.94796004  1
  Mg  Mg9  1  0.66637941  0.68980681  0.94798178  1
  Mg  Mg10  1  0.02342740  0.33362059  0.61464878  1
  Mg  Mg11  1  0.31019319  0.97657260  0.28131478  1
  Mg  Mg12  1  0.33384123  0.64331035  0.72605472  1
  Mg  Mg13  1  0.30946912  0.66615877  0.39272172  1
  Mg  Mg14  1  0.35668965  0.69053088  0.05938772  1
  Mg  Mg15  1  0.97660842  0.00044566  0.72605548  1
  Mg  Mg16  1  0.02383725  0.02339158  0.39272248  1
  Mg  Mg17  1  0.99955434  0.97616275  0.05938848  1
  Mg  Mg18  1  0.02358315  0.33305481  0.83726556  1
  Mg  Mg19  1  0.30947167  0.97641685  0.50393256  1
  Mg  Mg20  1  0.66694519  0.69052833  0.17059856  1
  Mg  Mg21  1  0.66660744  0.68935011  0.50350960  1
  Mg  Mg22  1  0.02274266  0.33339256  0.17017660  1
  Mg  Mg23  1  0.31064989  0.97725734  0.83684260  1
  Mg  Mg24  1  0.02313830  0.33341930  0.94801969  1
  Mg  Mg25  1  0.31028099  0.97686170  0.61468669  1
  Mg  Mg26  1  0.66658070  0.68971901  0.28135269  1
  Si  Si27  1  0.99984942  0.33335121  0.76948272  1
  Si  Si28  1  0.33350178  0.00015058  0.43614972  1
  Si  Si29  1  0.66664879  0.66649822  0.10281572  1
  Si  Si30  1  0.33332570  0.66706341  0.88068392  1
  Si  Si31  1  0.33373771  0.66667430  0.54735092  1
  Si  Si32  1  0.33293659  0.66626229  0.21401692  1
  Si  Si33  1  0.33307406  0.66677465  0.99160973  1
  Si  Si34  1  0.33370059  0.66692594  0.65827673  1
  Si  Si35  1  0.33322535  0.66629941  0.32494273  1
  Si  Si36  1  0.66665369  0.66650774  0.76948243  1
  Si  Si37  1  0.99985405  0.33334631  0.43614943  1
  Si  Si38  1  0.33349226  0.00014595  0.10281543  1
  Si  Si39  1  0.99964673  0.99978634  0.99160724  1
  Si  Si40  1  0.00013961  0.00035327  0.65827424  1
  Si  Si41  1  0.00021366  0.99986039  0.32494024  1
  Si  Si42  1  0.00042353  0.00000842  0.88068551  1
  Si  Si43  1  0.99958489  0.99957647  0.54735251  1
  Si  Si44  1  -0.00000842  0.00041511  0.21401851  1
  O  O45  1  0.33332784  0.66766300  0.96626232  1
  O  O46  1  0.33433516  0.66667216  0.63292932  1
  O  O47  1  0.33233700  0.66566484  0.29959532  1
  O  O48  1  0.66828525  0.02790295  0.82277190  1
  O  O49  1  0.35961770  0.33171475  0.48943890  1
  O  O50  1  0.97209705  0.64038230  0.15610490  1
  O  O51  1  0.97052058  0.63712218  0.82288154  1
  O  O52  1  0.66660161  0.02947942  0.48954854  1
  O  O53  1  0.36287782  0.33339839  0.15621454  1
  O  O54  1  0.36122220  0.33495991  0.82278618  1
  O  O55  1  0.97373772  0.63877780  0.48945318  1
  O  O56  1  0.66504009  0.02626228  0.15611918  1
  O  O57  1  0.66669318  0.84576127  0.33292214  1
  O  O58  1  0.17906809  0.33330682  0.99958914  1
  O  O59  1  0.15423873  0.82093191  0.66625514  1
  O  O60  1  0.66632886  0.84448987  0.99979603  1
  O  O61  1  0.17816101  0.33367114  0.66646303  1
  O  O62  1  0.15551013  0.82183899  0.33312903  1
  O  O63  1  0.99976963  0.33309840  0.74416274  1
  O  O64  1  0.33332877  0.00023037  0.41082974  1
  O  O65  1  0.66690160  0.66667123  0.07749574  1
  O  O66  1  0.66685783  0.84352439  0.88880121  1
  O  O67  1  0.17666656  0.33314217  0.55546821  1
  O  O68  1  0.15647561  0.82333344  0.22213421  1
  O  O69  1  0.99919399  0.99902509  0.96626235  1
  O  O70  1  0.99983110  0.00080601  0.63292935  1
  O  O71  1  0.00097491  0.00016890  0.29959535  1
  O  O72  1  0.33346769  0.48951171  0.77765254  1
  O  O73  1  0.15604402  0.66653231  0.44431954  1
  O  O74  1  0.51048829  0.84395598  0.11098554  1
  O  O75  1  0.84624014  0.51293522  0.77750272  1
  O  O76  1  0.66669508  0.15375986  0.44416972  1
  O  O77  1  0.48706478  0.33330492  0.11083572  1
  O  O78  1  0.00095535  0.99979734  0.85535263  1
  O  O79  1  0.99884199  0.99904465  0.52201963  1
  O  O80  1  0.00020266  0.00115801  0.18868563  1
  O  O81  1  0.63879404  0.99890636  0.71163800  1
  O  O82  1  0.36011232  0.36120596  0.37830500  1
  O  O83  1  0.00109364  0.63988768  0.04497100  1
  O  O84  1  0.02946176  0.69607115  0.71175246  1
  O  O85  1  0.66660940  0.97053824  0.37841946  1
  O  O86  1  0.30392885  0.33339060  0.04508546  1
  O  O87  1  0.33228692  0.30539365  0.71163978  1
  O  O88  1  0.97310673  0.66771308  0.37830678  1
  O  O89  1  0.69460635  0.02689327  0.04497278  1
  O  O90  1  0.82277505  0.00016852  0.77764336  1
  O  O91  1  0.17739347  0.17722495  0.44431036  1
  O  O92  1  -0.00016852  0.82260653  0.11097636  1
  O  O93  1  0.66633545  0.33303272  0.84864664  1
  O  O94  1  0.66669727  0.33366455  0.51531364  1
  O  O95  1  0.66696728  0.33330273  0.18197964  1
  O  O96  1  0.66663912  0.84340783  0.55558170  1
  O  O97  1  0.17676871  0.33336088  0.22224870  1
  O  O98  1  0.15659217  0.82323129  0.88891470  1
  O  O99  1  0.66635277  0.66635658  0.74416176  1
  O  O100  1  0.00000380  0.33364723  0.41082876  1
  O  O101  1  0.33364342  -0.00000380  0.07749476  1
  O  O102  1  0.66656504  0.33332985  0.95962267  1
  O  O103  1  0.66676481  0.33343496  0.62628967  1
  O  O104  1  0.66667015  0.33323519  0.29295567  1
  O  O105  1  0.66671279  0.02765738  0.93377052  1
  O  O106  1  0.36094459  0.33328721  0.60043752  1
  O  O107  1  0.97234262  0.63905541  0.26710352  1
  O  O108  1  0.17684279  0.33350439  0.88880028  1
  O  O109  1  0.15666160  0.82315721  0.55546728  1
  O  O110  1  0.66649561  0.84333840  0.22213328  1
  O  O111  1  0.66661073  0.66614689  0.40421421  1
  O  O112  1  0.99953616  0.33338927  0.07088121  1
  O  O113  1  0.33385311  0.00046384  0.73754721  1
  O  O114  1  0.33313525  0.66763755  0.85535314  1
  O  O115  1  0.33450230  0.66686475  0.52202014  1
  O  O116  1  0.33236245  0.66549770  0.18868614  1
  O  O117  1  0.66669270  0.02778431  0.60044152  1
  O  O118  1  0.36109161  0.33330730  0.26710852  1
  O  O119  1  0.97221569  0.63890839  0.93377452  1
  O  O120  1  0.66691876  0.84486090  0.66648183  1
  O  O121  1  0.17794214  0.33308124  0.33314883  1
  O  O122  1  0.15513910  0.82205786  0.99981483  1
  O  O123  1  0.36036232  0.33339286  0.93378611  1
  O  O124  1  0.97303054  0.63963768  0.60045311  1
  O  O125  1  0.66660714  0.02696946  0.26711911  1
