# generated using pymatgen
data_KB(CN)2
_symmetry_space_group_name_H-M   'P 1'
_cell_length_a   8.75522300
_cell_length_b   8.75522300
_cell_length_c   9.01603707
_cell_angle_alpha   119.04759871
_cell_angle_beta   119.04759871
_cell_angle_gamma   90.00000000
_symmetry_Int_Tables_number   1
_chemical_formula_structural   KB(CN)2
_chemical_formula_sum   'K4 B4 C8 N8'
_cell_volume   502.43109559
_cell_formula_units_Z   4
loop_
 _symmetry_equiv_pos_site_id
 _symmetry_equiv_pos_as_xyz
  1  'x, y, z'
loop_
 _atom_site_type_symbol
 _atom_site_label
 _atom_site_symmetry_multiplicity
 _atom_site_fract_x
 _atom_site_fract_y
 _atom_site_fract_z
 _atom_site_occupancy
  K  K0  1  0.62500000  0.87500000  0.25000000  1
  K  K1  1  0.62500000  0.37500000  0.25000000  1
  K  K2  1  0.62500000  0.37500000  0.75000000  1
  K  K3  1  0.12500000  0.37500000  0.75000000  1
  B  B4  1  0.12500000  0.37500000  0.25000000  1
  B  B5  1  0.12500000  0.87500000  0.25000000  1
  B  B6  1  0.12500000  0.87500000  0.75000000  1
  B  B7  1  0.62500000  0.87500000  0.75000000  1
  C  C8  1  0.21714900  0.26214900  0.16551500  1
  C  C9  1  0.94836500  0.90336600  0.16551500  1
  C  C10  1  0.15336600  0.96714900  0.66551500  1
  C  C11  1  0.03285100  0.48785100  0.33448500  1
  C  C12  1  0.51214900  0.69836500  0.66551500  1
  C  C13  1  0.30163500  0.84663400  0.33448500  1
  C  C14  1  0.09663400  0.78285100  0.83448500  1
  C  C15  1  0.73785100  0.05163400  0.83448500  1
  N  N16  1  0.30499500  0.17858800  0.10451900  1
  N  N17  1  0.79952400  0.92593100  0.10451900  1
  N  N18  1  0.17593100  0.05499500  0.60451900  1
  N  N19  1  0.94500500  0.57141200  0.39548100  1
  N  N20  1  0.42858800  0.54952400  0.60451900  1
  N  N21  1  0.45047600  0.82406900  0.39548100  1
  N  N22  1  0.07406900  0.69500500  0.89548100  1
  N  N23  1  0.82141200  0.20047600  0.89548100  1
