# generated using pymatgen
data_K2MoHOF5
_symmetry_space_group_name_H-M   'P 1'
_cell_length_a   6.36359854
_cell_length_b   6.36359854
_cell_length_c   9.19320911
_cell_angle_alpha   85.62066358
_cell_angle_beta   85.62066358
_cell_angle_gamma   90.03238033
_symmetry_Int_Tables_number   1
_chemical_formula_structural   K2MoHOF5
_chemical_formula_sum   'K4 Mo2 H2 O2 F10'
_cell_volume   370.10420396
_cell_formula_units_Z   2
loop_
 _symmetry_equiv_pos_site_id
 _symmetry_equiv_pos_as_xyz
  1  'x, y, z'
loop_
 _atom_site_type_symbol
 _atom_site_label
 _atom_site_symmetry_multiplicity
 _atom_site_fract_x
 _atom_site_fract_y
 _atom_site_fract_z
 _atom_site_occupancy
  K  K0  1  0.53255600  0.04365400  0.70930100  1
  K  K1  1  0.95634600  0.46744400  0.29069900  1
  K  K2  1  0.99546300  0.00453700  0.00000000  1
  K  K3  1  0.48208500  0.51791500  0.00000000  1
  Mo  Mo4  1  0.45745300  0.98300200  0.23861100  1
  Mo  Mo5  1  0.01699800  0.54254700  0.76138900  1
  H  H6  1  0.56308400  0.43691600  0.50000000  1
  H  H7  1  0.99513300  0.00486700  0.50000000  1
  O  O8  1  0.44016100  0.99668800  0.42655400  1
  O  O9  1  0.00331200  0.55983900  0.57344600  1
  F  F10  1  0.48116000  0.97193900  0.01320800  1
  F  F11  1  0.02806100  0.51884000  0.98679200  1
  F  F12  1  0.23332700  0.76657600  0.22437400  1
  F  F13  1  0.23342400  0.76667300  0.77562600  1
  F  F14  1  0.67517800  0.75665500  0.22507900  1
  F  F15  1  0.24334500  0.32482200  0.77492100  1
  F  F16  1  0.68522500  0.20345500  0.19052700  1
  F  F17  1  0.79654500  0.31477500  0.80947300  1
  F  F18  1  0.24438500  0.20693800  0.19153100  1
  F  F19  1  0.79306200  0.75561500  0.80846900  1
