# generated using pymatgen
data_K4C2O9
_symmetry_space_group_name_H-M   'P 1'
_cell_length_a   8.72670978
_cell_length_b   8.72670978
_cell_length_c   7.24992997
_cell_angle_alpha   69.75967918
_cell_angle_beta   69.75967918
_cell_angle_gamma   93.36361517
_symmetry_Int_Tables_number   1
_chemical_formula_structural   K4C2O9
_chemical_formula_sum   'K8 C4 O18'
_cell_volume   475.95913934
_cell_formula_units_Z   2
loop_
 _symmetry_equiv_pos_site_id
 _symmetry_equiv_pos_as_xyz
  1  'x, y, z'
loop_
 _atom_site_type_symbol
 _atom_site_label
 _atom_site_symmetry_multiplicity
 _atom_site_fract_x
 _atom_site_fract_y
 _atom_site_fract_z
 _atom_site_occupancy
  K  K0  1  0.17668800  0.82331200  0.25000000  1
  K  K1  1  0.82331200  0.17668800  0.75000000  1
  K  K2  1  0.88984700  0.11015300  0.25000000  1
  K  K3  1  0.11015300  0.88984700  0.75000000  1
  K  K4  1  0.53152600  0.76099900  0.43791300  1
  K  K5  1  0.46847400  0.23900100  0.56208700  1
  K  K6  1  0.23900100  0.46847400  0.06208700  1
  K  K7  1  0.76099900  0.53152600  0.93791300  1
  C  C8  1  0.47311700  0.14176900  0.15230000  1
  C  C9  1  0.52688300  0.85823100  0.84770000  1
  C  C10  1  0.85823100  0.52688300  0.34770000  1
  C  C11  1  0.14176900  0.47311700  0.65230000  1
  O  O12  1  0.35180400  0.05380300  0.33412800  1
  O  O13  1  0.64819600  0.94619700  0.66587200  1
  O  O14  1  0.94619700  0.64819600  0.16587200  1
  O  O15  1  0.05380300  0.35180400  0.83412800  1
  O  O16  1  0.55229500  0.81584400  0.02491700  1
  O  O17  1  0.44770500  0.18415600  0.97508300  1
  O  O18  1  0.18415600  0.44770500  0.47508300  1
  O  O19  1  0.81584400  0.55229500  0.52491700  1
  O  O20  1  0.82095100  0.88802900  0.07590500  1
  O  O21  1  0.17904900  0.11197100  0.92409500  1
  O  O22  1  0.11197100  0.17904900  0.42409500  1
  O  O23  1  0.88802900  0.82095100  0.57590500  1
  O  O24  1  0.46615900  0.53384100  0.25000000  1
  O  O25  1  0.53384100  0.46615900  0.75000000  1
  O  O26  1  0.62009700  0.18243900  0.14322300  1
  O  O27  1  0.37990300  0.81756100  0.85677700  1
  O  O28  1  0.81756100  0.37990300  0.35677700  1
  O  O29  1  0.18243900  0.62009700  0.64322300  1
