# generated using pymatgen
data_Li3Pr2Sb3
_symmetry_space_group_name_H-M   'P 1'
_cell_length_a   3.22672800
_cell_length_b   3.22672800
_cell_length_c   23.46591200
_cell_angle_alpha   90.00000000
_cell_angle_beta   90.00000000
_cell_angle_gamma   90.00000000
_symmetry_Int_Tables_number   1
_chemical_formula_structural   Li3Pr2Sb3
_chemical_formula_sum   'Li3 Pr2 Sb3'
_cell_volume   244.32176273
_cell_formula_units_Z   1
loop_
 _symmetry_equiv_pos_site_id
 _symmetry_equiv_pos_as_xyz
  1  'x, y, z'
loop_
 _atom_site_type_symbol
 _atom_site_label
 _atom_site_symmetry_multiplicity
 _atom_site_fract_x
 _atom_site_fract_y
 _atom_site_fract_z
 _atom_site_occupancy
  Li  Li0  1  0.50000000  0.50000000  0.11683700  1
  Li  Li1  1  0.50000000  0.50000000  0.88316300  1
  Li  Li2  1  0.50000000  0.50000000  0.50000000  1
  Pr  Pr3  1  0.50000000  0.50000000  0.74232800  1
  Pr  Pr4  1  0.50000000  0.50000000  0.25767200  1
  Sb  Sb5  1  0.50000000  0.50000000  0.38813800  1
  Sb  Sb6  1  0.50000000  0.50000000  0.61186200  1
  Sb  Sb7  1  0.50000000  0.50000000  0.00000000  1
