# generated using pymatgen
data_Na2ZnB6O11
_symmetry_space_group_name_H-M   'P 1'
_cell_length_a   6.60915451
_cell_length_b   6.60915451
_cell_length_c   11.62636618
_cell_angle_alpha   71.89816748
_cell_angle_beta   71.89816748
_cell_angle_gamma   68.96305354
_symmetry_Int_Tables_number   1
_chemical_formula_structural   Na2ZnB6O11
_chemical_formula_sum   'Na4 Zn2 B12 O22'
_cell_volume   439.04017540
_cell_formula_units_Z   2
loop_
 _symmetry_equiv_pos_site_id
 _symmetry_equiv_pos_as_xyz
  1  'x, y, z'
loop_
 _atom_site_type_symbol
 _atom_site_label
 _atom_site_symmetry_multiplicity
 _atom_site_fract_x
 _atom_site_fract_y
 _atom_site_fract_z
 _atom_site_occupancy
  Na  Na0  1  0.26528600  0.44268800  0.53442200  1
  Na  Na1  1  0.44268800  0.26528600  0.03442200  1
  Na  Na2  1  0.73471400  0.55731200  0.46557800  1
  Na  Na3  1  0.55731200  0.73471400  0.96557800  1
  Zn  Zn4  1  0.13181900  0.86818100  0.75000000  1
  Zn  Zn5  1  0.86818100  0.13181900  0.25000000  1
  B  B6  1  0.78753600  0.74015900  0.65411300  1
  B  B7  1  0.74015900  0.78753600  0.15411300  1
  B  B8  1  0.89283100  0.29402400  0.98784500  1
  B  B9  1  0.29402400  0.89283100  0.48784500  1
  B  B10  1  0.90798900  0.32470500  0.76573400  1
  B  B11  1  0.32470500  0.90798900  0.26573400  1
  B  B12  1  0.67529500  0.09201100  0.73426600  1
  B  B13  1  0.09201100  0.67529500  0.23426600  1
  B  B14  1  0.10716900  0.70597600  0.01215500  1
  B  B15  1  0.70597600  0.10716900  0.51215500  1
  B  B16  1  0.25984100  0.21246400  0.84588700  1
  B  B17  1  0.21246400  0.25984100  0.34588700  1
  O  O18  1  0.74607300  0.83831300  0.75021100  1
  O  O19  1  0.83831300  0.74607300  0.25021100  1
  O  O20  1  0.79047500  0.37282500  0.88867200  1
  O  O21  1  0.37282500  0.79047500  0.38867200  1
  O  O22  1  0.85212000  0.51619000  0.66248900  1
  O  O23  1  0.51619000  0.85212000  0.16248900  1
  O  O24  1  0.12652300  0.22994700  0.96562000  1
  O  O25  1  0.22994700  0.12652300  0.46562000  1
  O  O26  1  0.77005300  0.87347700  0.53438000  1
  O  O27  1  0.87347700  0.77005300  0.03438000  1
  O  O28  1  0.86864100  0.13135900  0.75000000  1
  O  O29  1  0.13135900  0.86864100  0.25000000  1
  O  O30  1  0.28616300  0.76151000  0.60322400  1
  O  O31  1  0.76151000  0.28616300  0.10322400  1
  O  O32  1  0.16168700  0.25392700  0.74978900  1
  O  O33  1  0.25392700  0.16168700  0.24978900  1
  O  O34  1  0.48381000  0.14788000  0.83751100  1
  O  O35  1  0.14788000  0.48381000  0.33751100  1
  O  O36  1  0.23849000  0.71383700  0.89677600  1
  O  O37  1  0.71383700  0.23849000  0.39677600  1
  O  O38  1  0.62717500  0.20952500  0.61132800  1
  O  O39  1  0.20952500  0.62717500  0.11132800  1
