# generated using pymatgen
data_K2SnHCl4
_symmetry_space_group_name_H-M   'P 1'
_cell_length_a   8.16235500
_cell_length_b   8.91160600
_cell_length_c   12.67929900
_cell_angle_alpha   90.00000000
_cell_angle_beta   90.00000000
_cell_angle_gamma   90.00000000
_symmetry_Int_Tables_number   1
_chemical_formula_structural   K2SnHCl4
_chemical_formula_sum   'K8 Sn4 H4 Cl16'
_cell_volume   922.28830140
_cell_formula_units_Z   4
loop_
 _symmetry_equiv_pos_site_id
 _symmetry_equiv_pos_as_xyz
  1  'x, y, z'
loop_
 _atom_site_type_symbol
 _atom_site_label
 _atom_site_symmetry_multiplicity
 _atom_site_fract_x
 _atom_site_fract_y
 _atom_site_fract_z
 _atom_site_occupancy
  K  K0  1  0.37693000  0.75000000  0.69935900  1
  K  K1  1  0.62307000  0.25000000  0.30064100  1
  K  K2  1  0.87693000  0.25000000  0.80064100  1
  K  K3  1  0.12307000  0.75000000  0.19935900  1
  K  K4  1  0.88990600  0.75000000  0.81546600  1
  K  K5  1  0.11009400  0.25000000  0.18453400  1
  K  K6  1  0.38990600  0.25000000  0.68453400  1
  K  K7  1  0.61009400  0.75000000  0.31546600  1
  Sn  Sn8  1  0.50000000  0.00000000  0.00000000  1
  Sn  Sn9  1  0.00000000  0.00000000  0.50000000  1
  Sn  Sn10  1  0.50000000  0.50000000  0.00000000  1
  Sn  Sn11  1  0.00000000  0.50000000  0.50000000  1
  H  H12  1  0.00000000  0.00000000  0.00000000  1
  H  H13  1  0.50000000  0.00000000  0.50000000  1
  H  H14  1  0.00000000  0.50000000  0.00000000  1
  H  H15  1  0.50000000  0.50000000  0.50000000  1
  Cl  Cl16  1  0.27267700  0.75000000  0.95959600  1
  Cl  Cl17  1  0.72732300  0.25000000  0.04040400  1
  Cl  Cl18  1  0.77267700  0.25000000  0.54040400  1
  Cl  Cl19  1  0.22732300  0.75000000  0.45959600  1
  Cl  Cl20  1  0.78212600  0.75000000  0.54771200  1
  Cl  Cl21  1  0.21787400  0.25000000  0.45228800  1
  Cl  Cl22  1  0.28212600  0.25000000  0.95228800  1
  Cl  Cl23  1  0.71787400  0.75000000  0.04771200  1
  Cl  Cl24  1  0.61090200  0.99605700  0.78909300  1
  Cl  Cl25  1  0.38909800  0.00394300  0.21090700  1
  Cl  Cl26  1  0.11090200  0.00394300  0.71090700  1
  Cl  Cl27  1  0.38909800  0.49605700  0.21090700  1
  Cl  Cl28  1  0.88909800  0.99605700  0.28909300  1
  Cl  Cl29  1  0.61090200  0.50394300  0.78909300  1
  Cl  Cl30  1  0.88909800  0.50394300  0.28909300  1
  Cl  Cl31  1  0.11090200  0.49605700  0.71090700  1
