# generated using pymatgen
data_Cs(FeSb)2
_symmetry_space_group_name_H-M   'P 1'
_cell_length_a   9.79934065
_cell_length_b   9.79934065
_cell_length_c   9.79934065
_cell_angle_alpha   158.29668637
_cell_angle_beta   158.29668637
_cell_angle_gamma   30.88242696
_symmetry_Int_Tables_number   1
_chemical_formula_structural   Cs(FeSb)2
_chemical_formula_sum   'Cs1 Fe2 Sb2'
_cell_volume   128.59737851
_cell_formula_units_Z   1
loop_
 _symmetry_equiv_pos_site_id
 _symmetry_equiv_pos_as_xyz
  1  'x, y, z'
loop_
 _atom_site_type_symbol
 _atom_site_label
 _atom_site_symmetry_multiplicity
 _atom_site_fract_x
 _atom_site_fract_y
 _atom_site_fract_z
 _atom_site_occupancy
  Cs  Cs0  1  0.00000000  0.00000000  0.00000000  1
  Fe  Fe1  1  0.75000000  0.25000000  0.50000000  1
  Fe  Fe2  1  0.25000000  0.75000000  0.50000000  1
  Sb  Sb3  1  0.65149100  0.65149100  0.00000000  1
  Sb  Sb4  1  0.34850900  0.34850900  0.00000000  1
