# generated using pymatgen
data_K3SI
_symmetry_space_group_name_H-M   'P 1'
_cell_length_a   13.99658237
_cell_length_b   13.99658237
_cell_length_c   8.21329100
_cell_angle_alpha   90.00000000
_cell_angle_beta   90.00000000
_cell_angle_gamma   120.00000173
_symmetry_Int_Tables_number   1
_chemical_formula_structural   K3SI
_chemical_formula_sum   'K18 S6 I6'
_cell_volume   1393.45145314
_cell_formula_units_Z   6
loop_
 _symmetry_equiv_pos_site_id
 _symmetry_equiv_pos_as_xyz
  1  'x, y, z'
loop_
 _atom_site_type_symbol
 _atom_site_label
 _atom_site_symmetry_multiplicity
 _atom_site_fract_x
 _atom_site_fract_y
 _atom_site_fract_z
 _atom_site_occupancy
  K  K0  1  0.15552400  0.00000000  0.18578100  1
  K  K1  1  0.00000000  0.15552400  0.18578100  1
  K  K2  1  0.84447600  0.00000000  0.68578100  1
  K  K3  1  0.00000000  0.84447600  0.68578100  1
  K  K4  1  0.84447600  0.84447600  0.18578100  1
  K  K5  1  0.15552400  0.15552400  0.68578100  1
  K  K6  1  0.17810200  0.51132300  0.14196200  1
  K  K7  1  0.48867700  0.66677900  0.14196200  1
  K  K8  1  0.82189800  0.48867700  0.64196200  1
  K  K9  1  0.48867700  0.82189800  0.64196200  1
  K  K10  1  0.33322100  0.82189800  0.14196200  1
  K  K11  1  0.51132300  0.33322100  0.64196200  1
  K  K12  1  0.33322100  0.51132300  0.64196200  1
  K  K13  1  0.51132300  0.17810200  0.14196200  1
  K  K14  1  0.66677900  0.17810200  0.64196200  1
  K  K15  1  0.66677900  0.48867700  0.14196200  1
  K  K16  1  0.17810200  0.66677900  0.64196200  1
  K  K17  1  0.82189800  0.33322100  0.14196200  1
  S  S18  1  0.33333300  0.66666700  0.39347400  1
  S  S19  1  0.66666700  0.33333300  0.89347400  1
  S  S20  1  0.33333300  0.66666700  0.89347400  1
  S  S21  1  0.66666700  0.33333300  0.39347400  1
  S  S22  1  0.00000000  0.00000000  0.93547200  1
  S  S23  1  0.00000000  0.00000000  0.43547200  1
  I  I24  1  0.66650300  0.00000000  0.18677600  1
  I  I25  1  0.00000000  0.66650300  0.18677600  1
  I  I26  1  0.33349700  0.00000000  0.68677600  1
  I  I27  1  0.00000000  0.33349700  0.68677600  1
  I  I28  1  0.33349700  0.33349700  0.18677600  1
  I  I29  1  0.66650300  0.66650300  0.68677600  1
