# generated using pymatgen
data_K4P4O15
_symmetry_space_group_name_H-M   'P 1'
_cell_length_a   9.81590428
_cell_length_b   9.81590428
_cell_length_c   14.53839180
_cell_angle_alpha   61.91839207
_cell_angle_beta   61.91839207
_cell_angle_gamma   41.89269849
_symmetry_Int_Tables_number   1
_chemical_formula_structural   K4P4O15
_chemical_formula_sum   'K8 P8 O30'
_cell_volume   807.86088063
_cell_formula_units_Z   2
loop_
 _symmetry_equiv_pos_site_id
 _symmetry_equiv_pos_as_xyz
  1  'x, y, z'
loop_
 _atom_site_type_symbol
 _atom_site_label
 _atom_site_symmetry_multiplicity
 _atom_site_fract_x
 _atom_site_fract_y
 _atom_site_fract_z
 _atom_site_occupancy
  K  K0  1  0.68825700  0.27026600  0.90925900  1
  K  K1  1  0.31174300  0.72973400  0.09074100  1
  K  K2  1  0.72973400  0.31174300  0.59074100  1
  K  K3  1  0.27026700  0.68825700  0.40925900  1
  K  K4  1  0.69359200  0.85134100  0.87573800  1
  K  K5  1  0.30640800  0.14865900  0.12426200  1
  K  K6  1  0.14865900  0.30640800  0.62426200  1
  K  K7  1  0.85134100  0.69359200  0.37573800  1
  P  P8  1  0.76742800  0.89155200  0.59496400  1
  P  P9  1  0.23257200  0.10844800  0.40503600  1
  P  P10  1  0.10844800  0.23257200  0.90503600  1
  P  P11  1  0.89155200  0.76742800  0.09496400  1
  P  P12  1  0.55196800  0.72916600  0.72151000  1
  P  P13  1  0.44803200  0.27083400  0.27849000  1
  P  P14  1  0.27083400  0.44803200  0.77849000  1
  P  P15  1  0.72916600  0.55196800  0.22151000  1
  O  O16  1  0.85824700  0.92241800  0.63779800  1
  O  O17  1  0.14175300  0.07758200  0.36220200  1
  O  O18  1  0.07758200  0.14175300  0.86220200  1
  O  O19  1  0.92241800  0.85824700  0.13779800  1
  O  O20  1  0.73476900  0.92130100  0.02430600  1
  O  O21  1  0.26523100  0.07869900  0.97569400  1
  O  O22  1  0.07869900  0.26523100  0.47569400  1
  O  O23  1  0.92130100  0.73476900  0.52430600  1
  O  O24  1  0.66636300  0.80673700  0.70341000  1
  O  O25  1  0.33363700  0.19326300  0.29659000  1
  O  O26  1  0.19326300  0.33363700  0.79659000  1
  O  O27  1  0.80673700  0.66636300  0.20341000  1
  O  O28  1  0.03507700  0.96492300  0.75000000  1
  O  O29  1  0.96492300  0.03507700  0.25000000  1
  O  O30  1  0.58935300  0.11720000  0.54802200  1
  O  O31  1  0.41064700  0.88280000  0.45197800  1
  O  O32  1  0.88280000  0.41064700  0.95197800  1
  O  O33  1  0.11720000  0.58935300  0.04802200  1
  O  O34  1  0.48233100  0.28113200  0.80976600  1
  O  O35  1  0.51766900  0.71886800  0.19023400  1
  O  O36  1  0.71886800  0.51766900  0.69023400  1
  O  O37  1  0.28113200  0.48233100  0.30976600  1
  O  O38  1  0.38626700  0.89783200  0.65317200  1
  O  O39  1  0.61373300  0.10216800  0.34682800  1
  O  O40  1  0.10216800  0.61373300  0.84682800  1
  O  O41  1  0.89783200  0.38626700  0.15317200  1
  O  O42  1  0.45987200  0.70957400  0.84035000  1
  O  O43  1  0.54012800  0.29042600  0.15965000  1
  O  O44  1  0.29042600  0.54012800  0.65965000  1
  O  O45  1  0.70957400  0.45987200  0.34035000  1
