# generated using pymatgen
data_Mg5Cr(Si2O9)2
_symmetry_space_group_name_H-M   'P 1'
_cell_length_a   5.33364500
_cell_length_b   5.36920009
_cell_length_c   29.48019624
_cell_angle_alpha   90.28311205
_cell_angle_beta   90.32873512
_cell_angle_gamma   119.54590694
_symmetry_Int_Tables_number   1
_chemical_formula_structural   Mg5Cr(Si2O9)2
_chemical_formula_sum   'Mg10 Cr2 Si8 O36'
_cell_volume   734.41123526
_cell_formula_units_Z   2
loop_
 _symmetry_equiv_pos_site_id
 _symmetry_equiv_pos_as_xyz
  1  'x, y, z'
loop_
 _atom_site_type_symbol
 _atom_site_label
 _atom_site_symmetry_multiplicity
 _atom_site_fract_x
 _atom_site_fract_y
 _atom_site_fract_z
 _atom_site_occupancy
  Mg  Mg0  1  0.99184100  0.38203000  0.46832200  1
  Mg  Mg1  1  0.65080700  0.03550700  0.71673800  1
  Mg  Mg2  1  0.00291000  0.68214500  0.71651800  1
  Mg  Mg3  1  0.99748800  0.36579600  0.96529800  1
  Mg  Mg4  1  0.64980400  0.33871300  0.21691500  1
  Mg  Mg5  1  0.32542200  0.35709800  0.71640700  1
  Mg  Mg6  1  0.33375600  0.03136700  0.46819300  1
  Mg  Mg7  1  0.00245800  0.04319300  0.21669700  1
  Mg  Mg8  1  0.65160100  0.71186000  0.96502500  1
  Mg  Mg9  1  0.32593400  0.69096100  0.21679700  1
  Cr  Cr10  1  0.25961300  0.97378000  0.97070100  1
  Cr  Cr11  1  0.60244500  0.63719500  0.46413100  1
  Si  Si12  1  0.66060100  0.02704500  0.31130900  1
  Si  Si13  1  0.32817300  0.02320800  0.62200900  1
  Si  Si14  1  0.99497300  0.35899800  0.62200500  1
  Si  Si15  1  0.99256100  0.35405900  0.12237400  1
  Si  Si16  1  0.65924100  0.35714800  0.81114200  1
  Si  Si17  1  0.32641200  0.69248000  0.81096300  1
  Si  Si18  1  0.32698200  0.36167900  0.31129200  1
  Si  Si19  1  0.32626900  0.01939600  0.12224500  1
  O  O20  1  0.62673300  0.05439700  0.93862300  1
  O  O21  1  0.17654800  0.68544100  0.10416400  1
  O  O22  1  0.65520700  0.35305700  0.75520300  1
  O  O23  1  0.68214500  0.02200800  0.49632800  1
  O  O24  1  0.99697300  0.35497400  0.17816100  1
  O  O25  1  0.98066200  0.01110600  0.74561900  1
  O  O26  1  0.99484800  0.18303100  0.33039900  1
  O  O27  1  0.96092400  0.72591200  0.49527100  1
  O  O28  1  0.67569800  0.69003000  0.18794800  1
  O  O29  1  0.32164300  0.68729000  0.75509400  1
  O  O30  1  0.65823000  0.20491200  0.10333900  1
  O  O31  1  0.31404200  0.73399900  0.00113800  1
  O  O32  1  0.67253300  0.70615100  0.68768500  1
  O  O33  1  0.33202500  0.02776900  0.67782800  1
  O  O34  1  0.50531700  0.02531900  0.82927900  1
  O  O35  1  0.33297500  0.02414400  0.17807900  1
  O  O36  1  0.02721700  0.74507600  0.93134700  1
  O  O37  1  0.18458200  0.21391300  0.60376800  1
  O  O38  1  0.99710800  0.36443700  0.67781700  1
  O  O39  1  0.64280600  0.39459200  0.43207100  1
  O  O40  1  0.13919600  0.16672300  0.10361300  1
  O  O41  1  0.13866200  0.69074300  0.60345400  1
  O  O42  1  0.94401200  0.99329200  0.44052300  1
  O  O43  1  0.65597400  0.02730000  0.25549200  1
  O  O44  1  0.01990100  0.02699900  0.00158200  1
  O  O45  1  0.66113500  0.16729300  0.60330300  1
  O  O46  1  0.31966600  0.35716300  0.25548600  1
  O  O47  1  0.35854000  0.69554800  0.43421400  1
  O  O48  1  0.61129300  0.32559200  0.99407400  1
  O  O49  1  0.99361800  0.53608400  0.82966000  1
  O  O50  1  0.50642000  0.20695000  0.33017700  1
  O  O51  1  0.48287700  0.51515500  0.82984300  1
  O  O52  1  0.97641600  0.69198900  0.24586100  1
  O  O53  1  0.34063500  0.33971300  0.93883800  1
  O  O54  1  0.37294400  0.41295000  0.50325600  1
  O  O55  1  0.48320500  0.69529400  0.32938100  1
