# generated using pymatgen
data_K2U(MoO4)3
_symmetry_space_group_name_H-M   'P 1'
_cell_length_a   10.89032274
_cell_length_b   10.89032274
_cell_length_c   5.29487315
_cell_angle_alpha   79.14411597
_cell_angle_beta   79.14411597
_cell_angle_gamma   68.82495859
_symmetry_Int_Tables_number   1
_chemical_formula_structural   K2U(MoO4)3
_chemical_formula_sum   'K4 U2 Mo6 O24'
_cell_volume   570.10441206
_cell_formula_units_Z   2
loop_
 _symmetry_equiv_pos_site_id
 _symmetry_equiv_pos_as_xyz
  1  'x, y, z'
loop_
 _atom_site_type_symbol
 _atom_site_label
 _atom_site_symmetry_multiplicity
 _atom_site_fract_x
 _atom_site_fract_y
 _atom_site_fract_z
 _atom_site_occupancy
  K  K0  1  0.28952800  0.04342300  0.58038100  1
  K  K1  1  0.71047200  0.95657700  0.41961900  1
  K  K2  1  0.95657700  0.71047200  0.91961900  1
  K  K3  1  0.04342300  0.28952800  0.08038100  1
  U  U4  1  0.37447400  0.62552600  0.75000000  1
  U  U5  1  0.62552600  0.37447400  0.25000000  1
  Mo  Mo6  1  0.85046900  0.14953100  0.75000000  1
  Mo  Mo7  1  0.14953100  0.85046900  0.25000000  1
  Mo  Mo8  1  0.44728100  0.24380200  0.88649200  1
  Mo  Mo9  1  0.55271900  0.75619800  0.11350800  1
  Mo  Mo10  1  0.75619800  0.55271900  0.61350800  1
  Mo  Mo11  1  0.24380200  0.44728100  0.38649200  1
  O  O12  1  0.47125100  0.38825100  0.63055700  1
  O  O13  1  0.52874900  0.61174900  0.36944300  1
  O  O14  1  0.61174900  0.52874900  0.86944300  1
  O  O15  1  0.38825100  0.47125100  0.13055700  1
  O  O16  1  0.72577100  0.19167700  0.52436700  1
  O  O17  1  0.27422900  0.80832300  0.47563300  1
  O  O18  1  0.80832300  0.27422900  0.97563300  1
  O  O19  1  0.19167700  0.72577100  0.02436700  1
  O  O20  1  0.85914400  0.99309000  0.92507000  1
  O  O21  1  0.14085600  0.00691000  0.07493000  1
  O  O22  1  0.00691000  0.14085600  0.57493000  1
  O  O23  1  0.99309000  0.85914400  0.42507000  1
  O  O24  1  0.42343100  0.78207400  0.90823400  1
  O  O25  1  0.57656900  0.21792600  0.09176600  1
  O  O26  1  0.21792600  0.57656900  0.59176600  1
  O  O27  1  0.78207400  0.42343100  0.40823400  1
  O  O28  1  0.49242400  0.09598900  0.75609400  1
  O  O29  1  0.50757600  0.90401100  0.24390600  1
  O  O30  1  0.90401100  0.50757600  0.74390600  1
  O  O31  1  0.09598900  0.49242400  0.25609400  1
  O  O32  1  0.69673200  0.73935600  0.87686800  1
  O  O33  1  0.30326800  0.26064400  0.12313200  1
  O  O34  1  0.26064400  0.30326800  0.62313200  1
  O  O35  1  0.73935600  0.69673200  0.37686800  1
