# generated using pymatgen
data_KUHSeO7
_symmetry_space_group_name_H-M   'P 1'
_cell_length_a   8.17215600
_cell_length_b   8.47458900
_cell_length_c   12.16013627
_cell_angle_alpha   70.39351182
_cell_angle_beta   90.00000000
_cell_angle_gamma   90.00000000
_symmetry_Int_Tables_number   1
_chemical_formula_structural   KUHSeO7
_chemical_formula_sum   'K4 U4 H4 Se4 O28'
_cell_volume   793.32951034
_cell_formula_units_Z   4
loop_
 _symmetry_equiv_pos_site_id
 _symmetry_equiv_pos_as_xyz
  1  'x, y, z'
loop_
 _atom_site_type_symbol
 _atom_site_label
 _atom_site_symmetry_multiplicity
 _atom_site_fract_x
 _atom_site_fract_y
 _atom_site_fract_z
 _atom_site_occupancy
  K  K0  1  0.96364300  0.94386100  0.77817300  1
  K  K1  1  0.03635700  0.05613900  0.22182700  1
  K  K2  1  0.46364300  0.05613900  0.72182700  1
  K  K3  1  0.53635700  0.94386100  0.27817300  1
  U  U4  1  0.07609500  0.45410300  0.77063100  1
  U  U5  1  0.92390500  0.54589700  0.22936900  1
  U  U6  1  0.57609500  0.54589700  0.72936900  1
  U  U7  1  0.42390500  0.45410300  0.27063100  1
  H  H8  1  0.77088100  0.70682200  0.52650100  1
  H  H9  1  0.22911900  0.29317800  0.47349900  1
  H  H10  1  0.27088100  0.29317800  0.97349900  1
  H  H11  1  0.72911900  0.70682200  0.02650100  1
  Se  Se12  1  0.25489400  0.82414200  0.53797300  1
  Se  Se13  1  0.74510600  0.17585800  0.46202700  1
  Se  Se14  1  0.75489400  0.17585800  0.96202700  1
  Se  Se15  1  0.24510600  0.82414200  0.03797300  1
  O  O16  1  0.33807900  0.50674100  0.79474600  1
  O  O17  1  0.66192100  0.49325900  0.20525400  1
  O  O18  1  0.83807900  0.49325900  0.70525400  1
  O  O19  1  0.16192100  0.50674100  0.29474600  1
  O  O20  1  0.45155400  0.75790300  0.57239300  1
  O  O21  1  0.54844600  0.24209700  0.42760700  1
  O  O22  1  0.95155400  0.24209700  0.92760700  1
  O  O23  1  0.04844600  0.75790300  0.07239300  1
  O  O24  1  0.20925000  0.96254800  0.60231000  1
  O  O25  1  0.79075000  0.03745200  0.39769000  1
  O  O26  1  0.70925000  0.03745200  0.89769000  1
  O  O27  1  0.29075000  0.96254800  0.10231000  1
  O  O28  1  0.03381200  0.60812400  0.84272000  1
  O  O29  1  0.96618800  0.39187600  0.15728000  1
  O  O30  1  0.53381200  0.39187600  0.65728000  1
  O  O31  1  0.46618800  0.60812400  0.34272000  1
  O  O32  1  0.13048900  0.65442600  0.59302200  1
  O  O33  1  0.86951100  0.34557400  0.40697800  1
  O  O34  1  0.63048900  0.34557400  0.90697800  1
  O  O35  1  0.36951100  0.65442600  0.09302200  1
  O  O36  1  0.26146000  0.89507900  0.89514000  1
  O  O37  1  0.73854000  0.10492100  0.10486000  1
  O  O38  1  0.76146000  0.10492100  0.60486000  1
  O  O39  1  0.23854000  0.89507900  0.39514000  1
  O  O40  1  0.14197300  0.28291400  0.71927400  1
  O  O41  1  0.85802700  0.71708600  0.28072600  1
  O  O42  1  0.64197300  0.71708600  0.78072600  1
  O  O43  1  0.35802700  0.28291400  0.21927400  1
