# generated using pymatgen
data_Mn2Fe5Si8(HO12)2
_symmetry_space_group_name_H-M   'P 1'
_cell_length_a   5.39710100
_cell_length_b   9.84178400
_cell_length_c   18.54128000
_cell_angle_alpha   90.00000000
_cell_angle_beta   90.00000000
_cell_angle_gamma   90.00000000
_symmetry_Int_Tables_number   1
_chemical_formula_structural   Mn2Fe5Si8(HO12)2
_chemical_formula_sum   'Mn4 Fe10 Si16 H4 O48'
_cell_volume   984.85906594
_cell_formula_units_Z   2
loop_
 _symmetry_equiv_pos_site_id
 _symmetry_equiv_pos_as_xyz
  1  'x, y, z'
loop_
 _atom_site_type_symbol
 _atom_site_label
 _atom_site_symmetry_multiplicity
 _atom_site_fract_x
 _atom_site_fract_y
 _atom_site_fract_z
 _atom_site_occupancy
  Mn  Mn0  1  0.00000000  0.50000000  0.22957300  1
  Mn  Mn1  1  0.00000000  0.50000000  0.77042700  1
  Mn  Mn2  1  0.50000000  0.00000000  0.27042700  1
  Mn  Mn3  1  0.50000000  0.00000000  0.72957300  1
  Fe  Fe4  1  0.00000000  0.50000000  0.39309300  1
  Fe  Fe5  1  0.00000000  0.50000000  0.60690700  1
  Fe  Fe6  1  0.50000000  0.00000000  0.10690700  1
  Fe  Fe7  1  0.50000000  0.00000000  0.89309300  1
  Fe  Fe8  1  0.00000000  0.00000000  0.17798800  1
  Fe  Fe9  1  0.00000000  0.00000000  0.82201200  1
  Fe  Fe10  1  0.50000000  0.50000000  0.32201200  1
  Fe  Fe11  1  0.50000000  0.50000000  0.67798800  1
  Fe  Fe12  1  0.00000000  0.00000000  0.00000000  1
  Fe  Fe13  1  0.50000000  0.50000000  0.50000000  1
  Si  Si14  1  0.16033300  0.20395900  0.33050800  1
  Si  Si15  1  0.83966700  0.79604100  0.66949200  1
  Si  Si16  1  0.83966700  0.79604100  0.33050800  1
  Si  Si17  1  0.33966700  0.70395900  0.16949200  1
  Si  Si18  1  0.16033300  0.20395900  0.66949200  1
  Si  Si19  1  0.66033300  0.29604100  0.83050800  1
  Si  Si20  1  0.66033300  0.29604100  0.16949200  1
  Si  Si21  1  0.33966700  0.70395900  0.83050800  1
  Si  Si22  1  0.16353100  0.28024700  0.08420700  1
  Si  Si23  1  0.83646900  0.71975300  0.91579300  1
  Si  Si24  1  0.83646900  0.71975300  0.08420700  1
  Si  Si25  1  0.33646900  0.78024700  0.41579300  1
  Si  Si26  1  0.16353100  0.28024700  0.91579300  1
  Si  Si27  1  0.66353100  0.21975300  0.58420700  1
  Si  Si28  1  0.66353100  0.21975300  0.41579300  1
  Si  Si29  1  0.33646900  0.78024700  0.58420700  1
  H  H30  1  0.63761700  0.99585600  0.00000000  1
  H  H31  1  0.36238300  0.00414400  0.00000000  1
  H  H32  1  0.86238300  0.49585600  0.50000000  1
  H  H33  1  0.13761700  0.50414400  0.50000000  1
  O  O34  1  0.16902600  0.36960800  0.31886600  1
  O  O35  1  0.83097400  0.63039200  0.68113400  1
  O  O36  1  0.83097400  0.63039200  0.31886600  1
  O  O37  1  0.33097400  0.86960800  0.18113400  1
  O  O38  1  0.16902600  0.36960800  0.68113400  1
  O  O39  1  0.66902600  0.13039200  0.81886600  1
  O  O40  1  0.66902600  0.13039200  0.18113400  1
  O  O41  1  0.33097400  0.86960800  0.81886600  1
  O  O42  1  0.41364800  0.34051700  0.12283000  1
  O  O43  1  0.58635200  0.65948300  0.87717000  1
  O  O44  1  0.58635200  0.65948300  0.12283000  1
  O  O45  1  0.08635200  0.84051700  0.37717000  1
  O  O46  1  0.41364800  0.34051700  0.87717000  1
  O  O47  1  0.91364800  0.15948300  0.62283000  1
  O  O48  1  0.91364800  0.15948300  0.37717000  1
  O  O49  1  0.08635200  0.84051700  0.62283000  1
  O  O50  1  0.17802300  0.11558000  0.25698600  1
  O  O51  1  0.82197700  0.88442000  0.74301400  1
  O  O52  1  0.82197700  0.88442000  0.25698600  1
  O  O53  1  0.32197700  0.61558000  0.24301400  1
  O  O54  1  0.17802300  0.11558000  0.74301400  1
  O  O55  1  0.67802300  0.38442000  0.75698600  1
  O  O56  1  0.67802300  0.38442000  0.24301400  1
  O  O57  1  0.32197700  0.61558000  0.75698600  1
  O  O58  1  0.42149300  0.15361800  0.37290600  1
  O  O59  1  0.57850700  0.84638200  0.62709400  1
  O  O60  1  0.57850700  0.84638200  0.37290600  1
  O  O61  1  0.07850700  0.65361800  0.12709400  1
  O  O62  1  0.42149300  0.15361800  0.62709400  1
  O  O63  1  0.92149300  0.34638200  0.87290600  1
  O  O64  1  0.92149300  0.34638200  0.12709400  1
  O  O65  1  0.07850700  0.65361800  0.87290600  1
  O  O66  1  0.15591100  0.11488800  0.09136400  1
  O  O67  1  0.84408900  0.88511200  0.90863600  1
  O  O68  1  0.84408900  0.88511200  0.09136400  1
  O  O69  1  0.34408900  0.61488800  0.40863600  1
  O  O70  1  0.15591100  0.11488800  0.90863600  1
  O  O71  1  0.65591100  0.38511200  0.59136400  1
  O  O72  1  0.65591100  0.38511200  0.40863600  1
  O  O73  1  0.34408900  0.61488800  0.59136400  1
  O  O74  1  0.66196200  0.09575600  0.00000000  1
  O  O75  1  0.33803800  0.90424400  0.00000000  1
  O  O76  1  0.83803800  0.59575600  0.50000000  1
  O  O77  1  0.16196200  0.40424400  0.50000000  1
  O  O78  1  0.15530100  0.32888300  0.00000000  1
  O  O79  1  0.84469900  0.67111700  0.00000000  1
  O  O80  1  0.34469900  0.82888300  0.50000000  1
  O  O81  1  0.65530100  0.17111700  0.50000000  1
