# generated using pymatgen
data_K2Ge2O3
_symmetry_space_group_name_H-M   'P 1'
_cell_length_a   7.06897220
_cell_length_b   7.06897220
_cell_length_c   7.06897220
_cell_angle_alpha   109.47122063
_cell_angle_beta   109.47122063
_cell_angle_gamma   109.47122063
_symmetry_Int_Tables_number   1
_chemical_formula_structural   K2Ge2O3
_chemical_formula_sum   'K4 Ge4 O6'
_cell_volume   271.92361776
_cell_formula_units_Z   2
loop_
 _symmetry_equiv_pos_site_id
 _symmetry_equiv_pos_as_xyz
  1  'x, y, z'
loop_
 _atom_site_type_symbol
 _atom_site_label
 _atom_site_symmetry_multiplicity
 _atom_site_fract_x
 _atom_site_fract_y
 _atom_site_fract_z
 _atom_site_occupancy
  K  K0  1  0.50552600  0.50552600  0.50552600  1
  K  K1  1  0.99447400  0.50000000  0.00000000  1
  K  K2  1  0.00000000  0.99447400  0.50000000  1
  K  K3  1  0.50000000  0.00000000  0.99447400  1
  Ge  Ge4  1  0.03523600  0.03523600  0.03523600  1
  Ge  Ge5  1  0.46476400  0.50000000  0.00000000  1
  Ge  Ge6  1  0.00000000  0.46476400  0.50000000  1
  Ge  Ge7  1  0.50000000  0.00000000  0.46476400  1
  O  O8  1  0.24514300  0.99514300  0.25000000  1
  O  O9  1  0.25485700  0.50485700  0.75000000  1
  O  O10  1  0.99514300  0.25000000  0.24514300  1
  O  O11  1  0.50485700  0.75000000  0.25485700  1
  O  O12  1  0.25000000  0.24514300  0.99514300  1
  O  O13  1  0.75000000  0.25485700  0.50485700  1
