# generated using pymatgen
data_K2SrNb5O15
_symmetry_space_group_name_H-M   'P 1'
_cell_length_a   4.05748500
_cell_length_b   12.77567500
_cell_length_c   12.77567500
_cell_angle_alpha   90.00000000
_cell_angle_beta   90.00000000
_cell_angle_gamma   90.00000000
_symmetry_Int_Tables_number   1
_chemical_formula_structural   K2SrNb5O15
_chemical_formula_sum   'K4 Sr2 Nb10 O30'
_cell_volume   662.25406618
_cell_formula_units_Z   2
loop_
 _symmetry_equiv_pos_site_id
 _symmetry_equiv_pos_as_xyz
  1  'x, y, z'
loop_
 _atom_site_type_symbol
 _atom_site_label
 _atom_site_symmetry_multiplicity
 _atom_site_fract_x
 _atom_site_fract_y
 _atom_site_fract_z
 _atom_site_occupancy
  K  K0  1  0.03275000  0.67051900  0.17051900  1
  K  K1  1  0.03275000  0.32948100  0.82948100  1
  K  K2  1  0.03275000  0.82948100  0.67051900  1
  K  K3  1  0.03275000  0.17051900  0.32948100  1
  Sr  Sr4  1  0.03154700  0.00000000  0.00000000  1
  Sr  Sr5  1  0.03154700  0.50000000  0.50000000  1
  Nb  Nb6  1  0.54147400  0.50000000  0.00000000  1
  Nb  Nb7  1  0.54147400  0.00000000  0.50000000  1
  Nb  Nb8  1  0.53445000  0.21262900  0.07577100  1
  Nb  Nb9  1  0.53445000  0.78737100  0.92422900  1
  Nb  Nb10  1  0.53445000  0.92422900  0.21262900  1
  Nb  Nb11  1  0.53445000  0.71262900  0.42422900  1
  Nb  Nb12  1  0.53445000  0.07577100  0.78737100  1
  Nb  Nb13  1  0.53445000  0.28737100  0.57577100  1
  Nb  Nb14  1  0.53445000  0.42422900  0.28737100  1
  Nb  Nb15  1  0.53445000  0.57577100  0.71262900  1
  O  O16  1  0.00013200  0.19934500  0.07121200  1
  O  O17  1  0.00013200  0.80065500  0.92878800  1
  O  O18  1  0.00013200  0.92878800  0.19934500  1
  O  O19  1  0.00013200  0.69934500  0.42878800  1
  O  O20  1  0.00013200  0.07121200  0.80065500  1
  O  O21  1  0.00013200  0.30065500  0.57121200  1
  O  O22  1  0.00013200  0.42878800  0.30065500  1
  O  O23  1  0.00013200  0.57121200  0.69934500  1
  O  O24  1  0.49096600  0.00117300  0.34420100  1
  O  O25  1  0.49096600  0.99882700  0.65579900  1
  O  O26  1  0.49096600  0.65579900  0.00117300  1
  O  O27  1  0.49096600  0.50117300  0.15579900  1
  O  O28  1  0.49096600  0.34420100  0.99882700  1
  O  O29  1  0.49096600  0.49882700  0.84420100  1
  O  O30  1  0.49096600  0.15579900  0.49882700  1
  O  O31  1  0.49096600  0.84420100  0.50117300  1
  O  O32  1  0.99933200  0.50000000  0.00000000  1
  O  O33  1  0.99933200  0.00000000  0.50000000  1
  O  O34  1  0.50495100  0.21324500  0.71324500  1
  O  O35  1  0.50495100  0.78675500  0.28675500  1
  O  O36  1  0.50495100  0.28675500  0.21324500  1
  O  O37  1  0.50495100  0.71324500  0.78675500  1
  O  O38  1  0.49446300  0.06704900  0.13643100  1
  O  O39  1  0.49446300  0.93295100  0.86356900  1
  O  O40  1  0.49446300  0.86356900  0.06704900  1
  O  O41  1  0.49446300  0.56704900  0.36356900  1
  O  O42  1  0.49446300  0.13643100  0.93295100  1
  O  O43  1  0.49446300  0.43295100  0.63643100  1
  O  O44  1  0.49446300  0.36356900  0.43295100  1
  O  O45  1  0.49446300  0.63643100  0.56704900  1
