# generated using pymatgen
data_K2MoH(OF2)2
_symmetry_space_group_name_H-M   'P 1'
_cell_length_a   6.29649400
_cell_length_b   6.29174800
_cell_length_c   18.30056672
_cell_angle_alpha   84.84597762
_cell_angle_beta   90.00000000
_cell_angle_gamma   90.00000000
_symmetry_Int_Tables_number   1
_chemical_formula_structural   K2MoH(OF2)2
_chemical_formula_sum   'K8 Mo4 H4 O8 F16'
_cell_volume   722.06310862
_cell_formula_units_Z   4
loop_
 _symmetry_equiv_pos_site_id
 _symmetry_equiv_pos_as_xyz
  1  'x, y, z'
loop_
 _atom_site_type_symbol
 _atom_site_label
 _atom_site_symmetry_multiplicity
 _atom_site_fract_x
 _atom_site_fract_y
 _atom_site_fract_z
 _atom_site_occupancy
  K  K0  1  0.64900500  0.24769600  0.25057400  1
  K  K1  1  0.35099500  0.75230400  0.74942600  1
  K  K2  1  0.14900500  0.75230400  0.24942600  1
  K  K3  1  0.85099500  0.24769600  0.75057400  1
  K  K4  1  0.66827000  0.69861600  0.39683600  1
  K  K5  1  0.33173000  0.30138400  0.60316400  1
  K  K6  1  0.16827000  0.30138400  0.10316400  1
  K  K7  1  0.83173000  0.69861600  0.89683600  1
  Mo  Mo8  1  0.65510700  0.79667700  0.13017300  1
  Mo  Mo9  1  0.34489300  0.20332300  0.86982700  1
  Mo  Mo10  1  0.15510700  0.20332300  0.36982700  1
  Mo  Mo11  1  0.84489300  0.79667700  0.63017300  1
  H  H12  1  0.18076500  0.72028400  0.00891100  1
  H  H13  1  0.81923500  0.27971600  0.99108900  1
  H  H14  1  0.68076500  0.27971600  0.49108900  1
  H  H15  1  0.31923500  0.72028400  0.50891100  1
  O  O16  1  0.67673500  0.76916200  0.03666800  1
  O  O17  1  0.32326500  0.23083800  0.96333200  1
  O  O18  1  0.17673500  0.23083800  0.46333200  1
  O  O19  1  0.82326500  0.76916200  0.53666800  1
  O  O20  1  0.46950500  0.00221000  0.13469600  1
  O  O21  1  0.53049500  0.99779000  0.86530400  1
  O  O22  1  0.96950500  0.99779000  0.36530400  1
  O  O23  1  0.03049500  0.00221000  0.63469600  1
  F  F24  1  0.90700000  0.98182000  0.13498600  1
  F  F25  1  0.09300000  0.01818000  0.86501400  1
  F  F26  1  0.40700000  0.01818000  0.36501400  1
  F  F27  1  0.59300000  0.98182000  0.63498600  1
  F  F28  1  0.87059400  0.54977000  0.15514400  1
  F  F29  1  0.12940600  0.45023000  0.84485600  1
  F  F30  1  0.37059400  0.45023000  0.34485600  1
  F  F31  1  0.62940600  0.54977000  0.65514400  1
  F  F32  1  0.68302200  0.78409100  0.24511200  1
  F  F33  1  0.31697800  0.21590900  0.75488800  1
  F  F34  1  0.18302200  0.21590900  0.25488800  1
  F  F35  1  0.81697800  0.78409100  0.74511200  1
  F  F36  1  0.94293700  0.43267100  0.34652800  1
  F  F37  1  0.05706300  0.56732900  0.65347200  1
  F  F38  1  0.44293700  0.56732900  0.15347200  1
  F  F39  1  0.55706300  0.43267100  0.84652800  1
