# generated using pymatgen
data_K2MnAs2
_symmetry_space_group_name_H-M   'P 1'
_cell_length_a   3.32068200
_cell_length_b   3.32068200
_cell_length_c   15.16347900
_cell_angle_alpha   90.00000000
_cell_angle_beta   90.00000000
_cell_angle_gamma   90.00000000
_symmetry_Int_Tables_number   1
_chemical_formula_structural   K2MnAs2
_chemical_formula_sum   'K2 Mn1 As2'
_cell_volume   167.20660549
_cell_formula_units_Z   1
loop_
 _symmetry_equiv_pos_site_id
 _symmetry_equiv_pos_as_xyz
  1  'x, y, z'
loop_
 _atom_site_type_symbol
 _atom_site_label
 _atom_site_symmetry_multiplicity
 _atom_site_fract_x
 _atom_site_fract_y
 _atom_site_fract_z
 _atom_site_occupancy
  K  K0  1  0.50000000  0.50000000  0.64172200  1
  K  K1  1  0.50000000  0.50000000  0.35827800  1
  Mn  Mn2  1  0.50000000  0.50000000  0.00000000  1
  As  As3  1  0.50000000  0.50000000  0.15543900  1
  As  As4  1  0.50000000  0.50000000  0.84456100  1
