# generated using pymatgen
data_K2PtS6
_symmetry_space_group_name_H-M   'P 1'
_cell_length_a   7.00240778
_cell_length_b   7.30907980
_cell_length_c   8.30981856
_cell_angle_alpha   108.66501842
_cell_angle_beta   107.05573033
_cell_angle_gamma   101.64525634
_symmetry_Int_Tables_number   1
_chemical_formula_structural   K2PtS6
_chemical_formula_sum   'K2 Pt1 S6'
_cell_volume   364.10615879
_cell_formula_units_Z   1
loop_
 _symmetry_equiv_pos_site_id
 _symmetry_equiv_pos_as_xyz
  1  'x, y, z'
loop_
 _atom_site_type_symbol
 _atom_site_label
 _atom_site_symmetry_multiplicity
 _atom_site_fract_x
 _atom_site_fract_y
 _atom_site_fract_z
 _atom_site_occupancy
  K  K0  1  0.70478000  0.29498900  0.50353400  1
  K  K1  1  0.29508200  0.70492600  0.49649900  1
  Pt  Pt2  1  0.00003600  0.00001900  0.99998200  1
  S  S3  1  0.72765300  0.72413500  0.75102800  1
  S  S4  1  0.27228100  0.27587900  0.24896200  1
  S  S5  1  0.01265500  0.19532300  0.81943500  1
  S  S6  1  0.98745900  0.80467900  0.18055600  1
  S  S7  1  0.20761900  0.02130200  0.82048300  1
  S  S8  1  0.79243400  0.97874800  0.17952100  1
