# generated using pymatgen
data_K2CaS2O9
_symmetry_space_group_name_H-M   'P 1'
_cell_length_a   6.25579694
_cell_length_b   7.12831100
_cell_length_c   10.10504678
_cell_angle_alpha   90.00000000
_cell_angle_beta   106.22026088
_cell_angle_gamma   90.00000000
_symmetry_Int_Tables_number   1
_chemical_formula_structural   K2CaS2O9
_chemical_formula_sum   'K4 Ca2 S4 O18'
_cell_volume   432.68021528
_cell_formula_units_Z   2
loop_
 _symmetry_equiv_pos_site_id
 _symmetry_equiv_pos_as_xyz
  1  'x, y, z'
loop_
 _atom_site_type_symbol
 _atom_site_label
 _atom_site_symmetry_multiplicity
 _atom_site_fract_x
 _atom_site_fract_y
 _atom_site_fract_z
 _atom_site_occupancy
  K  K0  1  0.19319900  0.00562800  0.84140900  1
  K  K1  1  0.80680100  0.99437200  0.15859100  1
  K  K2  1  0.80680100  0.50562800  0.15859100  1
  K  K3  1  0.19319900  0.49437200  0.84140900  1
  Ca  Ca4  1  0.34171800  0.25000000  0.45912500  1
  Ca  Ca5  1  0.65828200  0.75000000  0.54087500  1
  S  S6  1  0.84930200  0.25000000  0.49396900  1
  S  S7  1  0.15069800  0.75000000  0.50603100  1
  S  S8  1  0.27170200  0.25000000  0.13998300  1
  S  S9  1  0.72829800  0.75000000  0.86001700  1
  O  O10  1  0.04040200  0.25000000  0.62058400  1
  O  O11  1  0.95959800  0.75000000  0.37941600  1
  O  O12  1  0.29602500  0.58239600  0.51161700  1
  O  O13  1  0.70397500  0.41760400  0.48838300  1
  O  O14  1  0.70397500  0.08239600  0.48838300  1
  O  O15  1  0.29602500  0.91760400  0.51161700  1
  O  O16  1  0.47583500  0.25000000  0.71819900  1
  O  O17  1  0.52416500  0.75000000  0.28180100  1
  O  O18  1  0.05234600  0.25000000  0.03281600  1
  O  O19  1  0.94765400  0.75000000  0.96718400  1
  O  O20  1  0.94076600  0.25000000  0.37211100  1
  O  O21  1  0.05923400  0.75000000  0.62788900  1
  O  O22  1  0.28865400  0.08134900  0.23183300  1
  O  O23  1  0.71134600  0.91865100  0.76816700  1
  O  O24  1  0.71134600  0.58134900  0.76816700  1
  O  O25  1  0.28865400  0.41865100  0.23183300  1
  O  O26  1  0.45292900  0.25000000  0.07088700  1
  O  O27  1  0.54707100  0.75000000  0.92911300  1
