# generated using pymatgen
data_K2Cu(Cl2O)2
_symmetry_space_group_name_H-M   'P 1'
_cell_length_a   7.12083000
_cell_length_b   7.12083000
_cell_length_c   8.33548300
_cell_angle_alpha   90.00000000
_cell_angle_beta   90.00000000
_cell_angle_gamma   90.00000000
_symmetry_Int_Tables_number   1
_chemical_formula_structural   K2Cu(Cl2O)2
_chemical_formula_sum   'K4 Cu2 Cl8 O4'
_cell_volume   422.66083388
_cell_formula_units_Z   2
loop_
 _symmetry_equiv_pos_site_id
 _symmetry_equiv_pos_as_xyz
  1  'x, y, z'
loop_
 _atom_site_type_symbol
 _atom_site_label
 _atom_site_symmetry_multiplicity
 _atom_site_fract_x
 _atom_site_fract_y
 _atom_site_fract_z
 _atom_site_occupancy
  K  K0  1  0.00000000  0.50000000  0.25000000  1
  K  K1  1  0.00000000  0.50000000  0.75000000  1
  K  K2  1  0.50000000  0.00000000  0.25000000  1
  K  K3  1  0.50000000  0.00000000  0.75000000  1
  Cu  Cu4  1  0.00000000  0.00000000  0.00000000  1
  Cu  Cu5  1  0.50000000  0.50000000  0.50000000  1
  Cl  Cl6  1  0.21999300  0.21999300  0.00000000  1
  Cl  Cl7  1  0.78000700  0.78000700  0.00000000  1
  Cl  Cl8  1  0.28000700  0.71999300  0.50000000  1
  Cl  Cl9  1  0.71999300  0.28000700  0.50000000  1
  Cl  Cl10  1  0.28464500  0.71535500  0.00000000  1
  Cl  Cl11  1  0.71535500  0.28464500  0.00000000  1
  Cl  Cl12  1  0.78464500  0.78464500  0.50000000  1
  Cl  Cl13  1  0.21535500  0.21535500  0.50000000  1
  O  O14  1  0.00000000  0.00000000  0.21040400  1
  O  O15  1  0.00000000  0.00000000  0.78959600  1
  O  O16  1  0.50000000  0.50000000  0.71040400  1
  O  O17  1  0.50000000  0.50000000  0.28959600  1
