# generated using pymatgen
data_K3PrCl6
_symmetry_space_group_name_H-M   'P 1'
_cell_length_a   7.93426200
_cell_length_b   13.42885912
_cell_length_c   12.94552108
_cell_angle_alpha   108.81586976
_cell_angle_beta   90.00000000
_cell_angle_gamma   90.00000000
_symmetry_Int_Tables_number   1
_chemical_formula_structural   K3PrCl6
_chemical_formula_sum   'K12 Pr4 Cl24'
_cell_volume   1305.60956199
_cell_formula_units_Z   4
loop_
 _symmetry_equiv_pos_site_id
 _symmetry_equiv_pos_as_xyz
  1  'x, y, z'
loop_
 _atom_site_type_symbol
 _atom_site_label
 _atom_site_symmetry_multiplicity
 _atom_site_fract_x
 _atom_site_fract_y
 _atom_site_fract_z
 _atom_site_occupancy
  K  K0  1  0.43903200  0.68639000  0.73252400  1
  K  K1  1  0.56096800  0.31361000  0.26747600  1
  K  K2  1  0.93903200  0.31361000  0.76747600  1
  K  K3  1  0.06096800  0.68639000  0.23252400  1
  K  K4  1  0.96521700  0.90063000  0.64128500  1
  K  K5  1  0.03478300  0.09937000  0.35871500  1
  K  K6  1  0.46521700  0.09937000  0.85871500  1
  K  K7  1  0.53478300  0.90063000  0.14128500  1
  K  K8  1  0.93331900  0.67891600  0.88741800  1
  K  K9  1  0.06668100  0.32108400  0.11258200  1
  K  K10  1  0.43331900  0.32108400  0.61258200  1
  K  K11  1  0.56668100  0.67891600  0.38741800  1
  Pr  Pr12  1  0.00000000  0.50000000  0.50000000  1
  Pr  Pr13  1  0.50000000  0.50000000  0.00000000  1
  Pr  Pr14  1  0.00000000  0.00000000  0.00000000  1
  Pr  Pr15  1  0.50000000  0.00000000  0.50000000  1
  Cl  Cl16  1  0.50102500  0.88400800  0.63791100  1
  Cl  Cl17  1  0.49897500  0.11599200  0.36208900  1
  Cl  Cl18  1  0.00102500  0.11599200  0.86208900  1
  Cl  Cl19  1  0.99897500  0.88400800  0.13791100  1
  Cl  Cl20  1  0.28464000  0.65982800  0.99802400  1
  Cl  Cl21  1  0.71536000  0.34017200  0.00197600  1
  Cl  Cl22  1  0.78464000  0.34017200  0.50197600  1
  Cl  Cl23  1  0.21536000  0.65982800  0.49802400  1
  Cl  Cl24  1  0.78153600  0.65983800  0.60733300  1
  Cl  Cl25  1  0.21846400  0.34016200  0.39266700  1
  Cl  Cl26  1  0.28153600  0.34016200  0.89266700  1
  Cl  Cl27  1  0.71846400  0.65983800  0.10733300  1
  Cl  Cl28  1  0.64735300  0.50118000  0.80440500  1
  Cl  Cl29  1  0.35264700  0.49882000  0.19559500  1
  Cl  Cl30  1  0.14735300  0.49882000  0.69559500  1
  Cl  Cl31  1  0.85264700  0.50118000  0.30440500  1
  Cl  Cl32  1  0.16828800  0.85188600  0.83522400  1
  Cl  Cl33  1  0.83171200  0.14811400  0.16477600  1
  Cl  Cl34  1  0.66828800  0.14811400  0.66477600  1
  Cl  Cl35  1  0.33171200  0.85188600  0.33522400  1
  Cl  Cl36  1  0.70367700  0.89418600  0.91218300  1
  Cl  Cl37  1  0.29632300  0.10581400  0.08781700  1
  Cl  Cl38  1  0.20367700  0.10581400  0.58781700  1
  Cl  Cl39  1  0.79632300  0.89418600  0.41218300  1
