# generated using pymatgen
data_La13Al12Si18(N2O)18
_symmetry_space_group_name_H-M   'P 1'
_cell_length_a   11.73583934
_cell_length_b   11.73583934
_cell_length_c   11.73583934
_cell_angle_alpha   109.47122063
_cell_angle_beta   109.47122063
_cell_angle_gamma   109.47122063
_symmetry_Int_Tables_number   1
_chemical_formula_structural   La13Al12Si18(N2O)18
_chemical_formula_sum   'La13 Al12 Si18 N36 O18'
_cell_volume   1244.28703338
_cell_formula_units_Z   1
loop_
 _symmetry_equiv_pos_site_id
 _symmetry_equiv_pos_as_xyz
  1  'x, y, z'
loop_
 _atom_site_type_symbol
 _atom_site_label
 _atom_site_symmetry_multiplicity
 _atom_site_fract_x
 _atom_site_fract_y
 _atom_site_fract_z
 _atom_site_occupancy
  La  La0  1  0.74922200  0.42440600  0.42440600  1
  La  La1  1  0.25077800  0.67518400  0.67518400  1
  La  La2  1  0.00000000  0.57559400  0.32481600  1
  La  La3  1  0.42440600  0.42440600  0.74922200  1
  La  La4  1  0.00000000  0.32481600  0.57559400  1
  La  La5  1  0.67518400  0.67518400  0.25077800  1
  La  La6  1  0.57559400  0.32481600  0.00000000  1
  La  La7  1  0.32481600  0.57559400  0.00000000  1
  La  La8  1  0.42440600  0.74922200  0.42440600  1
  La  La9  1  0.32481600  0.00000000  0.57559400  1
  La  La10  1  0.57559400  0.00000000  0.32481600  1
  La  La11  1  0.67518400  0.25077800  0.67518400  1
  La  La12  1  0.00000000  0.00000000  0.00000000  1
  Al  Al13  1  0.59227100  0.75411800  0.75411800  1
  Al  Al14  1  0.40772900  0.16184600  0.16184600  1
  Al  Al15  1  0.00000000  0.24588200  0.83815400  1
  Al  Al16  1  0.75411800  0.75411800  0.59227100  1
  Al  Al17  1  0.00000000  0.83815400  0.24588200  1
  Al  Al18  1  0.16184600  0.16184600  0.40772900  1
  Al  Al19  1  0.24588200  0.83815400  0.00000000  1
  Al  Al20  1  0.83815400  0.24588200  0.00000000  1
  Al  Al21  1  0.75411800  0.59227100  0.75411800  1
  Al  Al22  1  0.83815400  0.00000000  0.24588200  1
  Al  Al23  1  0.24588200  0.00000000  0.83815400  1
  Al  Al24  1  0.16184600  0.40772900  0.16184600  1
  Si  Si25  1  0.70123500  0.70123500  0.00000000  1
  Si  Si26  1  0.29876500  0.29876500  0.00000000  1
  Si  Si27  1  0.70123500  0.00000000  0.70123500  1
  Si  Si28  1  0.29876500  0.00000000  0.29876500  1
  Si  Si29  1  0.00000000  0.70123500  0.70123500  1
  Si  Si30  1  0.00000000  0.29876500  0.29876500  1
  Si  Si31  1  0.30061300  0.45974200  0.45974200  1
  Si  Si32  1  0.69938700  0.15912900  0.15912900  1
  Si  Si33  1  0.00000000  0.54025800  0.84087100  1
  Si  Si34  1  0.45974200  0.45974200  0.30061300  1
  Si  Si35  1  0.00000000  0.84087100  0.54025800  1
  Si  Si36  1  0.15912900  0.15912900  0.69938700  1
  Si  Si37  1  0.54025800  0.84087100  0.00000000  1
  Si  Si38  1  0.84087100  0.54025800  0.00000000  1
  Si  Si39  1  0.45974200  0.30061300  0.45974200  1
  Si  Si40  1  0.84087100  0.00000000  0.54025800  1
  Si  Si41  1  0.54025800  0.00000000  0.84087100  1
  Si  Si42  1  0.15912900  0.69938700  0.15912900  1
  N  N43  1  0.14604900  0.44833400  0.44833400  1
  N  N44  1  0.85395100  0.30228500  0.30228500  1
  N  N45  1  0.00000000  0.55166600  0.69771500  1
  N  N46  1  0.44833400  0.44833400  0.14604900  1
  N  N47  1  0.00000000  0.69771500  0.55166600  1
  N  N48  1  0.30228500  0.30228500  0.85395100  1
  N  N49  1  0.55166600  0.69771500  0.00000000  1
  N  N50  1  0.69771500  0.55166600  0.00000000  1
  N  N51  1  0.44833400  0.14604900  0.44833400  1
  N  N52  1  0.69771500  0.00000000  0.55166600  1
  N  N53  1  0.55166600  0.00000000  0.69771500  1
  N  N54  1  0.30228500  0.85395100  0.30228500  1
  N  N55  1  0.47627400  0.32626000  0.32626000  1
  N  N56  1  0.52372600  0.84998600  0.84998600  1
  N  N57  1  0.00000000  0.67374000  0.15001400  1
  N  N58  1  0.32626000  0.32626000  0.47627400  1
  N  N59  1  0.00000000  0.15001400  0.67374000  1
  N  N60  1  0.84998600  0.84998600  0.52372600  1
  N  N61  1  0.67374000  0.15001400  0.00000000  1
  N  N62  1  0.15001400  0.67374000  0.00000000  1
  N  N63  1  0.32626000  0.47627400  0.32626000  1
  N  N64  1  0.15001400  0.00000000  0.67374000  1
  N  N65  1  0.67374000  0.00000000  0.15001400  1
  N  N66  1  0.84998600  0.52372600  0.84998600  1
  N  N67  1  0.84499200  0.68737400  0.68737400  1
  N  N68  1  0.15500800  0.84238200  0.84238200  1
  N  N69  1  0.00000000  0.31262600  0.15761800  1
  N  N70  1  0.68737400  0.68737400  0.84499200  1
  N  N71  1  0.00000000  0.15761800  0.31262600  1
  N  N72  1  0.84238200  0.84238200  0.15500800  1
  N  N73  1  0.31262600  0.15761800  0.00000000  1
  N  N74  1  0.15761800  0.31262600  0.00000000  1
  N  N75  1  0.68737400  0.84499200  0.68737400  1
  N  N76  1  0.15761800  0.00000000  0.31262600  1
  N  N77  1  0.31262600  0.00000000  0.15761800  1
  N  N78  1  0.84238200  0.15500800  0.84238200  1
  O  O79  1  0.42376600  0.60818400  0.60818400  1
  O  O80  1  0.57623400  0.18441800  0.18441800  1
  O  O81  1  0.00000000  0.39181600  0.81558200  1
  O  O82  1  0.60818400  0.60818400  0.42376600  1
  O  O83  1  0.00000000  0.81558200  0.39181600  1
  O  O84  1  0.18441800  0.18441800  0.57623400  1
  O  O85  1  0.39181600  0.81558200  0.00000000  1
  O  O86  1  0.81558200  0.39181600  0.00000000  1
  O  O87  1  0.60818400  0.42376600  0.60818400  1
  O  O88  1  0.81558200  0.00000000  0.39181600  1
  O  O89  1  0.39181600  0.00000000  0.81558200  1
  O  O90  1  0.18441800  0.57623400  0.18441800  1
  O  O91  1  0.25000000  0.75000000  0.50000000  1
  O  O92  1  0.75000000  0.25000000  0.50000000  1
  O  O93  1  0.75000000  0.50000000  0.25000000  1
  O  O94  1  0.25000000  0.50000000  0.75000000  1
  O  O95  1  0.50000000  0.25000000  0.75000000  1
  O  O96  1  0.50000000  0.75000000  0.25000000  1
