# generated using pymatgen
data_LaN(ClO)4
_symmetry_space_group_name_H-M   'P 1'
_cell_length_a   4.11100600
_cell_length_b   8.54140800
_cell_length_c   12.96940600
_cell_angle_alpha   90.00000000
_cell_angle_beta   90.00000000
_cell_angle_gamma   90.00000000
_symmetry_Int_Tables_number   1
_chemical_formula_structural   LaN(ClO)4
_chemical_formula_sum   'La2 N2 Cl8 O8'
_cell_volume   455.40486300
_cell_formula_units_Z   2
loop_
 _symmetry_equiv_pos_site_id
 _symmetry_equiv_pos_as_xyz
  1  'x, y, z'
loop_
 _atom_site_type_symbol
 _atom_site_label
 _atom_site_symmetry_multiplicity
 _atom_site_fract_x
 _atom_site_fract_y
 _atom_site_fract_z
 _atom_site_occupancy
  La  La0  1  0.42648500  0.00000000  0.50000000  1
  La  La1  1  0.57351500  0.50000000  0.00000000  1
  N  N2  1  0.05134800  0.00000000  0.00000000  1
  N  N3  1  0.94865200  0.50000000  0.50000000  1
  Cl  Cl4  1  0.64164400  0.19692900  0.08444300  1
  Cl  Cl5  1  0.64164400  0.80307100  0.91555700  1
  Cl  Cl6  1  0.35835600  0.30307100  0.58444300  1
  Cl  Cl7  1  0.35835600  0.69692900  0.41555700  1
  Cl  Cl8  1  0.13780300  0.11107500  0.30104600  1
  Cl  Cl9  1  0.13780300  0.88892500  0.69895400  1
  Cl  Cl10  1  0.86219700  0.38892500  0.80104600  1
  Cl  Cl11  1  0.86219700  0.61107500  0.19895400  1
  O  O12  1  0.07461500  0.55551700  0.09449100  1
  O  O13  1  0.07461500  0.44448300  0.90550900  1
  O  O14  1  0.92538500  0.94448300  0.59449100  1
  O  O15  1  0.92538500  0.05551700  0.40550900  1
  O  O16  1  0.86289700  0.43072600  0.42681800  1
  O  O17  1  0.86289700  0.56927400  0.57318200  1
  O  O18  1  0.13710300  0.06927400  0.92681800  1
  O  O19  1  0.13710300  0.93072600  0.07318200  1
