# generated using pymatgen
data_K2MoHO3F4
_symmetry_space_group_name_H-M   'P 1'
_cell_length_a   6.40938700
_cell_length_b   6.38176500
_cell_length_c   18.51617503
_cell_angle_alpha   84.56102556
_cell_angle_beta   90.00000000
_cell_angle_gamma   90.00000000
_symmetry_Int_Tables_number   1
_chemical_formula_structural   K2MoHO3F4
_chemical_formula_sum   'K8 Mo4 H4 O12 F16'
_cell_volume   753.96094400
_cell_formula_units_Z   4
loop_
 _symmetry_equiv_pos_site_id
 _symmetry_equiv_pos_as_xyz
  1  'x, y, z'
loop_
 _atom_site_type_symbol
 _atom_site_label
 _atom_site_symmetry_multiplicity
 _atom_site_fract_x
 _atom_site_fract_y
 _atom_site_fract_z
 _atom_site_occupancy
  K  K0  1  0.34983800  0.74786800  0.24689300  1
  K  K1  1  0.65016200  0.25213200  0.75310700  1
  K  K2  1  0.84983800  0.25213200  0.25310700  1
  K  K3  1  0.15016200  0.74786800  0.74689300  1
  K  K4  1  0.84241600  0.69759500  0.39305300  1
  K  K5  1  0.15758400  0.30240500  0.60694700  1
  K  K6  1  0.34241600  0.30240500  0.10694700  1
  K  K7  1  0.65758400  0.69759500  0.89305300  1
  Mo  Mo8  1  0.83473600  0.78850200  0.12941100  1
  Mo  Mo9  1  0.16526400  0.21149800  0.87058900  1
  Mo  Mo10  1  0.33473600  0.21149800  0.37058900  1
  Mo  Mo11  1  0.66526400  0.78850200  0.62941100  1
  H  H12  1  0.32061400  0.71171300  0.01315000  1
  H  H13  1  0.67938600  0.28828700  0.98685000  1
  H  H14  1  0.82061400  0.28828700  0.48685000  1
  H  H15  1  0.17938600  0.71171300  0.51315000  1
  O  O16  1  0.41834800  0.91284500  0.38150600  1
  O  O17  1  0.58165200  0.08715500  0.61849400  1
  O  O18  1  0.91834800  0.08715500  0.11849400  1
  O  O19  1  0.08165200  0.91284500  0.88150600  1
  O  O20  1  0.40189300  0.94859100  0.62685400  1
  O  O21  1  0.59810700  0.05140900  0.37314600  1
  O  O22  1  0.90189300  0.05140900  0.87314600  1
  O  O23  1  0.09810700  0.94859100  0.12685400  1
  O  O24  1  0.81446100  0.73708200  0.04017300  1
  O  O25  1  0.18553900  0.26291800  0.95982700  1
  O  O26  1  0.31446100  0.26291800  0.45982700  1
  O  O27  1  0.68553900  0.73708200  0.54017300  1
  F  F28  1  0.82608800  0.80836500  0.24115900  1
  F  F29  1  0.17391200  0.19163500  0.75884100  1
  F  F30  1  0.32608800  0.19163500  0.25884100  1
  F  F31  1  0.67391200  0.80836500  0.74115900  1
  F  F32  1  0.64175000  0.54466100  0.16112900  1
  F  F33  1  0.35825000  0.45533900  0.83887100  1
  F  F34  1  0.14175000  0.45533900  0.33887100  1
  F  F35  1  0.85825000  0.54466100  0.66112900  1
  F  F36  1  0.55965100  0.93734700  0.13111400  1
  F  F37  1  0.44034900  0.06265300  0.86888600  1
  F  F38  1  0.05965100  0.06265300  0.36888600  1
  F  F39  1  0.94034900  0.93734700  0.63111400  1
  F  F40  1  0.54735900  0.43956600  0.34313900  1
  F  F41  1  0.45264100  0.56043400  0.65686100  1
  F  F42  1  0.04735900  0.56043400  0.15686100  1
  F  F43  1  0.95264100  0.43956600  0.84313900  1
