# generated using pymatgen
data_Na3TiO6
_symmetry_space_group_name_H-M   'P 1'
_cell_length_a   7.90475173
_cell_length_b   7.90475173
_cell_length_c   39.83683000
_cell_angle_alpha   90.00000000
_cell_angle_beta   90.00000000
_cell_angle_gamma   111.82673158
_symmetry_Int_Tables_number   1
_chemical_formula_structural   Na3TiO6
_chemical_formula_sum   'Na3 Ti1 O6'
_cell_volume   2310.76308877
_cell_formula_units_Z   1
loop_
 _symmetry_equiv_pos_site_id
 _symmetry_equiv_pos_as_xyz
  1  'x, y, z'
loop_
 _atom_site_type_symbol
 _atom_site_label
 _atom_site_symmetry_multiplicity
 _atom_site_fract_x
 _atom_site_fract_y
 _atom_site_fract_z
 _atom_site_occupancy
  Na  Na0  1  0.00000000  0.00000000  0.50000000  1
  Na  Na1  1  0.50000000  0.00000000  0.00000000  1
  Na  Na2  1  0.00000000  0.50000000  0.00000000  1
  Ti  Ti3  1  0.00000000  0.00000000  0.00000000  1
  O  O4  1  0.00000000  0.00000000  0.23523400  1
  O  O5  1  0.00000000  0.00000000  0.76476600  1
  O  O6  1  0.24421100  0.03963700  0.00000000  1
  O  O7  1  0.75578900  0.96036300  0.00000000  1
  O  O8  1  0.03963700  0.24421100  0.00000000  1
  O  O9  1  0.96036300  0.75578900  0.00000000  1
