# generated using pymatgen
data_HoFe3(BO3)4
_symmetry_space_group_name_H-M   'P 1'
_cell_length_a   6.12574564
_cell_length_b   6.12574564
_cell_length_c   6.12574584
_cell_angle_alpha   103.96283359
_cell_angle_beta   103.96283359
_cell_angle_gamma   103.96283425
_symmetry_Int_Tables_number   1
_chemical_formula_structural   HoFe3(BO3)4
_chemical_formula_sum   'Ho1 Fe3 B4 O12'
_cell_volume   205.24404285
_cell_formula_units_Z   1
loop_
 _symmetry_equiv_pos_site_id
 _symmetry_equiv_pos_as_xyz
  1  'x, y, z'
loop_
 _atom_site_type_symbol
 _atom_site_label
 _atom_site_symmetry_multiplicity
 _atom_site_fract_x
 _atom_site_fract_y
 _atom_site_fract_z
 _atom_site_occupancy
  Ho  Ho0  1  0.50000000  0.50000000  0.50000000  1
  Fe  Fe1  1  0.04728300  0.95271700  0.50000000  1
  Fe  Fe2  1  0.95271700  0.50000000  0.04728300  1
  Fe  Fe3  1  0.50000000  0.04728300  0.95271700  1
  B  B4  1  0.45203700  0.54796300  0.00000000  1
  B  B5  1  0.54796300  0.00000000  0.45203700  1
  B  B6  1  0.00000000  0.45203700  0.54796300  1
  B  B7  1  0.00000000  0.00000000  0.00000000  1
  O  O8  1  0.29882100  0.52556800  0.13276700  1
  O  O9  1  0.52556800  0.13276700  0.29882100  1
  O  O10  1  0.70117900  0.86723300  0.47443200  1
  O  O11  1  0.13276700  0.29882100  0.52556800  1
  O  O12  1  0.47443200  0.70117900  0.86723300  1
  O  O13  1  0.86723300  0.47443200  0.70117900  1
  O  O14  1  0.85651100  0.14348900  0.00000000  1
  O  O15  1  0.14348900  0.00000000  0.85651100  1
  O  O16  1  0.00000000  0.85651100  0.14348900  1
  O  O17  1  0.59524200  0.40475800  0.00000000  1
  O  O18  1  0.40475800  0.00000000  0.59524200  1
  O  O19  1  0.00000000  0.59524200  0.40475800  1
