# generated using pymatgen
data_Mn3BPO10
_symmetry_space_group_name_H-M   'P 1'
_cell_length_a   6.48663800
_cell_length_b   15.85489500
_cell_length_c   8.07581700
_cell_angle_alpha   90.00000000
_cell_angle_beta   90.00000000
_cell_angle_gamma   90.00000000
_symmetry_Int_Tables_number   1
_chemical_formula_structural   Mn3BPO10
_chemical_formula_sum   'Mn12 B4 P4 O40'
_cell_volume   830.55711181
_cell_formula_units_Z   4
loop_
 _symmetry_equiv_pos_site_id
 _symmetry_equiv_pos_as_xyz
  1  'x, y, z'
loop_
 _atom_site_type_symbol
 _atom_site_label
 _atom_site_symmetry_multiplicity
 _atom_site_fract_x
 _atom_site_fract_y
 _atom_site_fract_z
 _atom_site_occupancy
  Mn  Mn0  1  0.75000000  0.49768400  0.88667700  1
  Mn  Mn1  1  0.25000000  0.50231600  0.11332300  1
  Mn  Mn2  1  0.25000000  0.00231600  0.38667700  1
  Mn  Mn3  1  0.75000000  0.99768400  0.61332300  1
  Mn  Mn4  1  0.50780300  0.88299600  0.88582200  1
  Mn  Mn5  1  0.49219700  0.11700400  0.11417800  1
  Mn  Mn6  1  0.49219700  0.61700400  0.38582200  1
  Mn  Mn7  1  0.00780300  0.11700400  0.11417800  1
  Mn  Mn8  1  0.50780300  0.38299600  0.61417800  1
  Mn  Mn9  1  0.99219700  0.88299600  0.88582200  1
  Mn  Mn10  1  0.99219700  0.38299600  0.61417800  1
  Mn  Mn11  1  0.00780300  0.61700400  0.38582200  1
  B  B12  1  0.75000000  0.68947600  0.91963500  1
  B  B13  1  0.25000000  0.31052400  0.08036500  1
  B  B14  1  0.25000000  0.81052400  0.41963500  1
  B  B15  1  0.75000000  0.18947600  0.58036500  1
  P  P16  1  0.75000000  0.94976300  0.22970200  1
  P  P17  1  0.25000000  0.05023700  0.77029800  1
  P  P18  1  0.25000000  0.55023700  0.72970200  1
  P  P19  1  0.75000000  0.44976300  0.27029800  1
  O  O20  1  0.75000000  0.91584600  0.40601700  1
  O  O21  1  0.25000000  0.08415400  0.59398300  1
  O  O22  1  0.25000000  0.58415400  0.90601700  1
  O  O23  1  0.75000000  0.41584600  0.09398300  1
  O  O24  1  0.45123000  0.99533500  0.79092700  1
  O  O25  1  0.54877000  0.00466500  0.20907300  1
  O  O26  1  0.54877000  0.50466500  0.29092700  1
  O  O27  1  0.95123000  0.00466500  0.20907300  1
  O  O28  1  0.45123000  0.49533500  0.70907300  1
  O  O29  1  0.04877000  0.99533500  0.79092700  1
  O  O30  1  0.04877000  0.49533500  0.70907300  1
  O  O31  1  0.95123000  0.50466500  0.29092700  1
  O  O32  1  0.91809600  0.74029400  0.84325300  1
  O  O33  1  0.08190400  0.25970600  0.15674700  1
  O  O34  1  0.08190400  0.75970600  0.34325300  1
  O  O35  1  0.41809600  0.25970600  0.15674700  1
  O  O36  1  0.91809600  0.24029400  0.65674700  1
  O  O37  1  0.58190400  0.74029400  0.84325300  1
  O  O38  1  0.58190400  0.24029400  0.65674700  1
  O  O39  1  0.41809600  0.75970600  0.34325300  1
  O  O40  1  0.75000000  0.38336700  0.41296500  1
  O  O41  1  0.25000000  0.61663300  0.58703500  1
  O  O42  1  0.25000000  0.11663300  0.91296500  1
  O  O43  1  0.75000000  0.88336700  0.08703500  1
  O  O44  1  0.75000000  0.64198300  0.46729700  1
  O  O45  1  0.25000000  0.35801700  0.53270300  1
  O  O46  1  0.25000000  0.85801700  0.96729700  1
  O  O47  1  0.75000000  0.14198300  0.03270300  1
  O  O48  1  0.75000000  0.61746500  0.99286100  1
  O  O49  1  0.25000000  0.38253500  0.00713900  1
  O  O50  1  0.25000000  0.88253500  0.49286100  1
  O  O51  1  0.75000000  0.11746500  0.50713900  1
  O  O52  1  0.75000000  0.89484500  0.76176500  1
  O  O53  1  0.25000000  0.10515500  0.23823500  1
  O  O54  1  0.25000000  0.60515500  0.26176500  1
  O  O55  1  0.75000000  0.39484500  0.73823500  1
  O  O56  1  0.75000000  0.74090600  0.71420400  1
  O  O57  1  0.25000000  0.25909400  0.28579600  1
  O  O58  1  0.25000000  0.75909400  0.21420400  1
  O  O59  1  0.75000000  0.24090600  0.78579600  1
