# generated using pymatgen
data_Mn2Be3(NF6)2
_symmetry_space_group_name_H-M   'P 1'
_cell_length_a   10.06984500
_cell_length_b   10.06984500
_cell_length_c   10.06984500
_cell_angle_alpha   90.00000000
_cell_angle_beta   90.00000000
_cell_angle_gamma   90.00000000
_symmetry_Int_Tables_number   1
_chemical_formula_structural   Mn2Be3(NF6)2
_chemical_formula_sum   'Mn8 Be12 N8 F48'
_cell_volume   1021.10019045
_cell_formula_units_Z   4
loop_
 _symmetry_equiv_pos_site_id
 _symmetry_equiv_pos_as_xyz
  1  'x, y, z'
loop_
 _atom_site_type_symbol
 _atom_site_label
 _atom_site_symmetry_multiplicity
 _atom_site_fract_x
 _atom_site_fract_y
 _atom_site_fract_z
 _atom_site_occupancy
  Mn  Mn0  1  0.33656400  0.33656400  0.33656400  1
  Mn  Mn1  1  0.16343600  0.66343600  0.83656400  1
  Mn  Mn2  1  0.66343600  0.83656400  0.16343600  1
  Mn  Mn3  1  0.83656400  0.16343600  0.66343600  1
  Mn  Mn4  1  0.60393600  0.60393600  0.60393600  1
  Mn  Mn5  1  0.89606400  0.39606400  0.10393600  1
  Mn  Mn6  1  0.39606400  0.10393600  0.89606400  1
  Mn  Mn7  1  0.10393600  0.89606400  0.39606400  1
  Be  Be8  1  0.01910200  0.21341700  0.37576000  1
  Be  Be9  1  0.48089800  0.78658300  0.87576000  1
  Be  Be10  1  0.98089800  0.71341700  0.12424000  1
  Be  Be11  1  0.37576000  0.01910200  0.21341700  1
  Be  Be12  1  0.51910200  0.28658300  0.62424000  1
  Be  Be13  1  0.87576000  0.48089800  0.78658300  1
  Be  Be14  1  0.12424000  0.98089800  0.71341700  1
  Be  Be15  1  0.62424000  0.51910200  0.28658300  1
  Be  Be16  1  0.21341700  0.37576000  0.01910200  1
  Be  Be17  1  0.71341700  0.12424000  0.98089800  1
  Be  Be18  1  0.28658300  0.62424000  0.51910200  1
  Be  Be19  1  0.78658300  0.87576000  0.48089800  1
  N  N20  1  0.04659300  0.04659300  0.04659300  1
  N  N21  1  0.45340700  0.95340700  0.54659300  1
  N  N22  1  0.95340700  0.54659300  0.45340700  1
  N  N23  1  0.54659300  0.45340700  0.95340700  1
  N  N24  1  0.81714000  0.81714000  0.81714000  1
  N  N25  1  0.68286000  0.18286000  0.31714000  1
  N  N26  1  0.18286000  0.31714000  0.68286000  1
  N  N27  1  0.31714000  0.68286000  0.18286000  1
  F  F28  1  0.01630700  0.06132400  0.33537500  1
  F  F29  1  0.48369300  0.93867600  0.83537500  1
  F  F30  1  0.98369300  0.56132400  0.16462500  1
  F  F31  1  0.33537500  0.01630700  0.06132400  1
  F  F32  1  0.51630700  0.43867600  0.66462500  1
  F  F33  1  0.83537500  0.48369300  0.93867600  1
  F  F34  1  0.16462500  0.98369300  0.56132400  1
  F  F35  1  0.66462500  0.51630700  0.43867600  1
  F  F36  1  0.06132400  0.33537500  0.01630700  1
  F  F37  1  0.56132400  0.16462500  0.98369300  1
  F  F38  1  0.43867600  0.66462500  0.51630700  1
  F  F39  1  0.93867600  0.83537500  0.48369300  1
  F  F40  1  0.27147700  0.49233700  0.43841900  1
  F  F41  1  0.22852300  0.50766300  0.93841900  1
  F  F42  1  0.72852300  0.99233700  0.06158100  1
  F  F43  1  0.43841900  0.27147700  0.49233700  1
  F  F44  1  0.77147700  0.00766300  0.56158100  1
  F  F45  1  0.93841900  0.22852300  0.50766300  1
  F  F46  1  0.06158100  0.72852300  0.99233700  1
  F  F47  1  0.56158100  0.77147700  0.00766300  1
  F  F48  1  0.49233700  0.43841900  0.27147700  1
  F  F49  1  0.99233700  0.06158100  0.72852300  1
  F  F50  1  0.00766300  0.56158100  0.77147700  1
  F  F51  1  0.50766300  0.93841900  0.22852300  1
  F  F52  1  0.04577200  0.80131900  0.23431900  1
  F  F53  1  0.45422800  0.19868100  0.73431900  1
  F  F54  1  0.95422800  0.30131900  0.26568100  1
  F  F55  1  0.23431900  0.04577200  0.80131900  1
  F  F56  1  0.54577200  0.69868100  0.76568100  1
  F  F57  1  0.73431900  0.45422800  0.19868100  1
  F  F58  1  0.26568100  0.95422800  0.30131900  1
  F  F59  1  0.76568100  0.54577200  0.69868100  1
  F  F60  1  0.80131900  0.23431900  0.04577200  1
  F  F61  1  0.30131900  0.26568100  0.95422800  1
  F  F62  1  0.69868100  0.76568100  0.54577200  1
  F  F63  1  0.19868100  0.73431900  0.45422800  1
  F  F64  1  0.16819900  0.25454700  0.39695400  1
  F  F65  1  0.33180100  0.74545300  0.89695400  1
  F  F66  1  0.83180100  0.75454700  0.10304600  1
  F  F67  1  0.39695400  0.16819900  0.25454700  1
  F  F68  1  0.66819900  0.24545300  0.60304600  1
  F  F69  1  0.89695400  0.33180100  0.74545300  1
  F  F70  1  0.10304600  0.83180100  0.75454700  1
  F  F71  1  0.60304600  0.66819900  0.24545300  1
  F  F72  1  0.25454700  0.39695400  0.16819900  1
  F  F73  1  0.75454700  0.10304600  0.83180100  1
  F  F74  1  0.24545300  0.60304600  0.66819900  1
  F  F75  1  0.74545300  0.89695400  0.33180100  1
