# generated using pymatgen
data_La4(MoO4)9
_symmetry_space_group_name_H-M   'P 1'
_cell_length_a   12.89530186
_cell_length_b   12.89530186
_cell_length_c   12.89530186
_cell_angle_alpha   109.47122063
_cell_angle_beta   109.47122063
_cell_angle_gamma   109.47122063
_symmetry_Int_Tables_number   1
_chemical_formula_structural   La4(MoO4)9
_chemical_formula_sum   'La8 Mo18 O72'
_cell_volume   1650.71708995
_cell_formula_units_Z   2
loop_
 _symmetry_equiv_pos_site_id
 _symmetry_equiv_pos_as_xyz
  1  'x, y, z'
loop_
 _atom_site_type_symbol
 _atom_site_label
 _atom_site_symmetry_multiplicity
 _atom_site_fract_x
 _atom_site_fract_y
 _atom_site_fract_z
 _atom_site_occupancy
  La  La0  1  0.03847200  0.03847200  0.03847200  1
  La  La1  1  0.46152800  0.50000000  0.00000000  1
  La  La2  1  0.00000000  0.46152800  0.50000000  1
  La  La3  1  0.53847200  0.53847200  0.53847200  1
  La  La4  1  0.50000000  0.00000000  0.46152800  1
  La  La5  1  0.96152800  0.50000000  0.00000000  1
  La  La6  1  0.50000000  0.00000000  0.96152800  1
  La  La7  1  0.00000000  0.96152800  0.50000000  1
  Mo  Mo8  1  0.44657800  0.19657800  0.25000000  1
  Mo  Mo9  1  0.05342200  0.30342200  0.75000000  1
  Mo  Mo10  1  0.19657800  0.25000000  0.44657800  1
  Mo  Mo11  1  0.94657800  0.75000000  0.69657800  1
  Mo  Mo12  1  0.30342200  0.75000000  0.05342200  1
  Mo  Mo13  1  0.55342200  0.25000000  0.80342200  1
  Mo  Mo14  1  0.25000000  0.44657800  0.19657800  1
  Mo  Mo15  1  0.69657800  0.94657800  0.75000000  1
  Mo  Mo16  1  0.75000000  0.05342200  0.30342200  1
  Mo  Mo17  1  0.80342200  0.55342200  0.25000000  1
  Mo  Mo18  1  0.75000000  0.69657800  0.94657800  1
  Mo  Mo19  1  0.25000000  0.80342200  0.55342200  1
  Mo  Mo20  1  0.12500000  0.87500000  0.25000000  1
  Mo  Mo21  1  0.37500000  0.62500000  0.75000000  1
  Mo  Mo22  1  0.87500000  0.25000000  0.12500000  1
  Mo  Mo23  1  0.62500000  0.75000000  0.37500000  1
  Mo  Mo24  1  0.25000000  0.12500000  0.87500000  1
  Mo  Mo25  1  0.75000000  0.37500000  0.62500000  1
  O  O26  1  0.99083700  0.33669400  0.85388500  1
  O  O27  1  0.50916300  0.36304800  0.34585600  1
  O  O28  1  0.51719200  0.16330600  0.15414400  1
  O  O29  1  0.33669400  0.85388500  0.99083700  1
  O  O30  1  0.49083700  0.35388500  0.83669400  1
  O  O31  1  0.98280800  0.13695200  0.64611500  1
  O  O32  1  0.36304800  0.34585600  0.50916300  1
  O  O33  1  0.00916300  0.84585600  0.86304800  1
  O  O34  1  0.16330600  0.15414400  0.51719200  1
  O  O35  1  0.01719200  0.65414400  0.66330600  1
  O  O36  1  0.13695200  0.64611500  0.98280800  1
  O  O37  1  0.48280800  0.14611500  0.63695200  1
  O  O38  1  0.85388500  0.99083700  0.33669400  1
  O  O39  1  0.83669400  0.49083700  0.35388500  1
  O  O40  1  0.15414400  0.51719200  0.16330600  1
  O  O41  1  0.66330600  0.01719200  0.65414400  1
  O  O42  1  0.64611500  0.98280800  0.13695200  1
  O  O43  1  0.63695200  0.48280800  0.14611500  1
  O  O44  1  0.34585600  0.50916300  0.36304800  1
  O  O45  1  0.86304800  0.00916300  0.84585600  1
  O  O46  1  0.35388500  0.83669400  0.49083700  1
  O  O47  1  0.84585600  0.86304800  0.00916300  1
  O  O48  1  0.14611500  0.63695200  0.48280800  1
  O  O49  1  0.65414400  0.66330600  0.01719200  1
  O  O50  1  0.12245700  0.10935600  0.90786100  1
  O  O51  1  0.37754300  0.28540500  0.98690000  1
  O  O52  1  0.79850500  0.39064400  0.51310000  1
  O  O53  1  0.10935600  0.90786100  0.12245700  1
  O  O54  1  0.62245700  0.40786100  0.60935600  1
  O  O55  1  0.70149500  0.21459500  0.59213900  1
  O  O56  1  0.28540500  0.98690000  0.37754300  1
  O  O57  1  0.87754300  0.48690000  0.78540500  1
  O  O58  1  0.39064400  0.51310000  0.79850500  1
  O  O59  1  0.29850500  0.01310000  0.89064400  1
  O  O60  1  0.21459500  0.59213900  0.70149500  1
  O  O61  1  0.20149500  0.09213900  0.71459500  1
  O  O62  1  0.90786100  0.12245700  0.10935600  1
  O  O63  1  0.60935600  0.62245700  0.40786100  1
  O  O64  1  0.51310000  0.79850500  0.39064400  1
  O  O65  1  0.89064400  0.29850500  0.01310000  1
  O  O66  1  0.59213900  0.70149500  0.21459500  1
  O  O67  1  0.71459500  0.20149500  0.09213900  1
  O  O68  1  0.98690000  0.37754300  0.28540500  1
  O  O69  1  0.78540500  0.87754300  0.48690000  1
  O  O70  1  0.40786100  0.60935600  0.62245700  1
  O  O71  1  0.48690000  0.78540500  0.87754300  1
  O  O72  1  0.09213900  0.71459500  0.20149500  1
  O  O73  1  0.01310000  0.89064400  0.29850500  1
  O  O74  1  0.14667300  0.27725200  0.12200700  1
  O  O75  1  0.35332700  0.47533300  0.13057900  1
  O  O76  1  0.84475400  0.22274800  0.36942100  1
  O  O77  1  0.27725200  0.12200700  0.14667300  1
  O  O78  1  0.64667300  0.62200700  0.77725200  1
  O  O79  1  0.65524600  0.02466700  0.37799300  1
  O  O80  1  0.47533300  0.13057900  0.35332700  1
  O  O81  1  0.85332700  0.63057900  0.97533300  1
  O  O82  1  0.22274800  0.36942100  0.84475400  1
  O  O83  1  0.34475400  0.86942100  0.72274800  1
  O  O84  1  0.02466700  0.37799300  0.65524600  1
  O  O85  1  0.15524600  0.87799300  0.52466700  1
  O  O86  1  0.12200700  0.14667300  0.27725200  1
  O  O87  1  0.77725200  0.64667300  0.62200700  1
  O  O88  1  0.36942100  0.84475400  0.22274800  1
  O  O89  1  0.72274800  0.34475400  0.86942100  1
  O  O90  1  0.37799300  0.65524600  0.02466700  1
  O  O91  1  0.52466700  0.15524600  0.87799300  1
  O  O92  1  0.13057900  0.35332700  0.47533300  1
  O  O93  1  0.97533300  0.85332700  0.63057900  1
  O  O94  1  0.62200700  0.77725200  0.64667300  1
  O  O95  1  0.63057900  0.97533300  0.85332700  1
  O  O96  1  0.87799300  0.52466700  0.15524600  1
  O  O97  1  0.86942100  0.72274800  0.34475400  1
