# generated using pymatgen
data_InSn2Cl5
_symmetry_space_group_name_H-M   'P 1'
_cell_length_a   8.07794300
_cell_length_b   8.85635400
_cell_length_c   12.58569088
_cell_angle_alpha   89.42088156
_cell_angle_beta   90.00000000
_cell_angle_gamma   90.00000000
_symmetry_Int_Tables_number   1
_chemical_formula_structural   InSn2Cl5
_chemical_formula_sum   'In4 Sn8 Cl20'
_cell_volume   900.34846441
_cell_formula_units_Z   4
loop_
 _symmetry_equiv_pos_site_id
 _symmetry_equiv_pos_as_xyz
  1  'x, y, z'
loop_
 _atom_site_type_symbol
 _atom_site_label
 _atom_site_symmetry_multiplicity
 _atom_site_fract_x
 _atom_site_fract_y
 _atom_site_fract_z
 _atom_site_occupancy
  In  In0  1  0.02272100  0.49780500  0.32857300  1
  In  In1  1  0.97727900  0.50219500  0.67142700  1
  In  In2  1  0.52272100  0.50219500  0.17142700  1
  In  In3  1  0.47727900  0.49780500  0.82857300  1
  Sn  Sn4  1  0.99072600  0.99844800  0.32731600  1
  Sn  Sn5  1  0.00927400  0.00155200  0.67268400  1
  Sn  Sn6  1  0.49072600  0.00155200  0.17268400  1
  Sn  Sn7  1  0.50927400  0.99844800  0.82731600  1
  Sn  Sn8  1  0.05875200  0.25158700  0.00665700  1
  Sn  Sn9  1  0.94124800  0.74841300  0.99334300  1
  Sn  Sn10  1  0.55875200  0.74841300  0.49334300  1
  Sn  Sn11  1  0.44124800  0.25158700  0.50665700  1
  Cl  Cl12  1  0.16316500  0.54061700  0.08484100  1
  Cl  Cl13  1  0.83683500  0.45938300  0.91515900  1
  Cl  Cl14  1  0.66316500  0.45938300  0.41515900  1
  Cl  Cl15  1  0.33683500  0.54061700  0.58484100  1
  Cl  Cl16  1  0.85343600  0.22483800  0.18442000  1
  Cl  Cl17  1  0.14656400  0.77516200  0.81558000  1
  Cl  Cl18  1  0.35343600  0.77516200  0.31558000  1
  Cl  Cl19  1  0.64656400  0.22483800  0.68442000  1
  Cl  Cl20  1  0.31591400  0.22648300  0.27744100  1
  Cl  Cl21  1  0.68408600  0.77351700  0.72255900  1
  Cl  Cl22  1  0.81591400  0.77351700  0.22255900  1
  Cl  Cl23  1  0.18408600  0.22648300  0.77744100  1
  Cl  Cl24  1  0.45935100  0.21628700  0.00276000  1
  Cl  Cl25  1  0.54064900  0.78371300  0.99724000  1
  Cl  Cl26  1  0.95935100  0.78371300  0.49724000  1
  Cl  Cl27  1  0.04064900  0.21628700  0.50276000  1
  Cl  Cl28  1  0.66795500  0.04654000  0.40256300  1
  Cl  Cl29  1  0.33204500  0.95346000  0.59743700  1
  Cl  Cl30  1  0.16795500  0.95346000  0.09743700  1
  Cl  Cl31  1  0.83204500  0.04654000  0.90256300  1
