# generated using pymatgen
data_HoTa5Ag2O15
_symmetry_space_group_name_H-M   'P 1'
_cell_length_a   12.57960500
_cell_length_b   12.57960500
_cell_length_c   3.91571300
_cell_angle_alpha   90.00000000
_cell_angle_beta   90.00000000
_cell_angle_gamma   90.00000000
_symmetry_Int_Tables_number   1
_chemical_formula_structural   HoTa5Ag2O15
_chemical_formula_sum   'Ho2 Ta10 Ag4 O30'
_cell_volume   619.64772829
_cell_formula_units_Z   2
loop_
 _symmetry_equiv_pos_site_id
 _symmetry_equiv_pos_as_xyz
  1  'x, y, z'
loop_
 _atom_site_type_symbol
 _atom_site_label
 _atom_site_symmetry_multiplicity
 _atom_site_fract_x
 _atom_site_fract_y
 _atom_site_fract_z
 _atom_site_occupancy
  Ho  Ho0  1  0.00000000  0.00000000  0.50000000  1
  Ho  Ho1  1  0.50000000  0.50000000  0.50000000  1
  Ta  Ta2  1  0.50000000  0.00000000  0.00000000  1
  Ta  Ta3  1  0.00000000  0.50000000  0.00000000  1
  Ta  Ta4  1  0.21091200  0.07854000  0.00000000  1
  Ta  Ta5  1  0.78908800  0.92146000  0.00000000  1
  Ta  Ta6  1  0.07854000  0.78908800  0.00000000  1
  Ta  Ta7  1  0.71091200  0.42146000  0.00000000  1
  Ta  Ta8  1  0.92146000  0.21091200  0.00000000  1
  Ta  Ta9  1  0.28908800  0.57854000  0.00000000  1
  Ta  Ta10  1  0.57854000  0.71091200  0.00000000  1
  Ta  Ta11  1  0.42146000  0.28908800  0.00000000  1
  Ag  Ag12  1  0.67221800  0.17221800  0.50000000  1
  Ag  Ag13  1  0.32778200  0.82778200  0.50000000  1
  Ag  Ag14  1  0.17221800  0.32778200  0.50000000  1
  Ag  Ag15  1  0.82778200  0.67221800  0.50000000  1
  O  O16  1  0.18998500  0.07996100  0.50000000  1
  O  O17  1  0.81001500  0.92003900  0.50000000  1
  O  O18  1  0.07996100  0.81001500  0.50000000  1
  O  O19  1  0.68998500  0.42003900  0.50000000  1
  O  O20  1  0.92003900  0.18998500  0.50000000  1
  O  O21  1  0.31001500  0.57996100  0.50000000  1
  O  O22  1  0.57996100  0.68998500  0.50000000  1
  O  O23  1  0.42003900  0.31001500  0.50000000  1
  O  O24  1  0.22566000  0.72566000  0.00000000  1
  O  O25  1  0.77434000  0.27434000  0.00000000  1
  O  O26  1  0.72566000  0.77434000  0.00000000  1
  O  O27  1  0.27434000  0.22566000  0.00000000  1
  O  O28  1  0.50000000  0.00000000  0.50000000  1
  O  O29  1  0.00000000  0.50000000  0.50000000  1
  O  O30  1  0.05670400  0.12904000  0.00000000  1
  O  O31  1  0.94329600  0.87096000  0.00000000  1
  O  O32  1  0.12904000  0.94329600  0.00000000  1
  O  O33  1  0.55670400  0.37096000  0.00000000  1
  O  O34  1  0.87096000  0.05670400  0.00000000  1
  O  O35  1  0.44329600  0.62904000  0.00000000  1
  O  O36  1  0.62904000  0.55670400  0.00000000  1
  O  O37  1  0.37096000  0.44329600  0.00000000  1
  O  O38  1  0.34102900  0.99774800  0.00000000  1
  O  O39  1  0.65897100  0.00225200  0.00000000  1
  O  O40  1  0.99774800  0.65897100  0.00000000  1
  O  O41  1  0.84102900  0.50225200  0.00000000  1
  O  O42  1  0.00225200  0.34102900  0.00000000  1
  O  O43  1  0.15897100  0.49774800  0.00000000  1
  O  O44  1  0.49774800  0.84102900  0.00000000  1
  O  O45  1  0.50225200  0.15897100  0.00000000  1
