# generated using pymatgen
data_K3NaMoC4(N2O)2
_symmetry_space_group_name_H-M   'P 1'
_cell_length_a   7.77044300
_cell_length_b   12.48465200
_cell_length_c   7.96551100
_cell_angle_alpha   90.00000000
_cell_angle_beta   90.00000000
_cell_angle_gamma   90.00000000
_symmetry_Int_Tables_number   1
_chemical_formula_structural   K3NaMoC4(N2O)2
_chemical_formula_sum   'K6 Na2 Mo2 C8 N8 O4'
_cell_volume   772.74439200
_cell_formula_units_Z   2
loop_
 _symmetry_equiv_pos_site_id
 _symmetry_equiv_pos_as_xyz
  1  'x, y, z'
loop_
 _atom_site_type_symbol
 _atom_site_label
 _atom_site_symmetry_multiplicity
 _atom_site_fract_x
 _atom_site_fract_y
 _atom_site_fract_z
 _atom_site_occupancy
  K  K0  1  0.75125600  0.75000000  0.75000000  1
  K  K1  1  0.24874400  0.25000000  0.25000000  1
  K  K2  1  0.24874400  0.75000000  0.25000000  1
  K  K3  1  0.75125600  0.25000000  0.75000000  1
  K  K4  1  0.00000000  0.00000000  0.00000000  1
  K  K5  1  0.00000000  0.50000000  0.50000000  1
  Na  Na6  1  0.50000000  0.00000000  0.00000000  1
  Na  Na7  1  0.50000000  0.50000000  0.50000000  1
  Mo  Mo8  1  0.00000000  0.50000000  0.00000000  1
  Mo  Mo9  1  0.00000000  0.00000000  0.50000000  1
  C  C10  1  0.00000000  0.67654800  0.00000000  1
  C  C11  1  0.00000000  0.32345200  0.00000000  1
  C  C12  1  0.00000000  0.82345200  0.50000000  1
  C  C13  1  0.00000000  0.17654800  0.50000000  1
  C  C14  1  0.77971800  0.00000000  0.67222800  1
  C  C15  1  0.22028200  0.00000000  0.32777200  1
  C  C16  1  0.22028200  0.50000000  0.17222800  1
  C  C17  1  0.77971800  0.50000000  0.82777200  1
  N  N18  1  0.67790400  0.00000000  0.78303100  1
  N  N19  1  0.32209600  0.00000000  0.21696900  1
  N  N20  1  0.32209600  0.50000000  0.28303100  1
  N  N21  1  0.67790400  0.50000000  0.71696900  1
  N  N22  1  0.00000000  0.77136200  0.00000000  1
  N  N23  1  0.00000000  0.22863800  0.00000000  1
  N  N24  1  0.00000000  0.72863800  0.50000000  1
  N  N25  1  0.00000000  0.27136200  0.50000000  1
  O  O26  1  0.85898600  0.00000000  0.31043600  1
  O  O27  1  0.14101400  0.00000000  0.68956400  1
  O  O28  1  0.14101400  0.50000000  0.81043600  1
  O  O29  1  0.85898600  0.50000000  0.18956400  1
