# generated using pymatgen
data_InSO5
_symmetry_space_group_name_H-M   'P 1'
_cell_length_a   6.69575700
_cell_length_b   7.92609800
_cell_length_c   7.70638900
_cell_angle_alpha   90.00000000
_cell_angle_beta   90.00000000
_cell_angle_gamma   90.00000000
_symmetry_Int_Tables_number   1
_chemical_formula_structural   InSO5
_chemical_formula_sum   'In4 S4 O20'
_cell_volume   408.98751354
_cell_formula_units_Z   4
loop_
 _symmetry_equiv_pos_site_id
 _symmetry_equiv_pos_as_xyz
  1  'x, y, z'
loop_
 _atom_site_type_symbol
 _atom_site_label
 _atom_site_symmetry_multiplicity
 _atom_site_fract_x
 _atom_site_fract_y
 _atom_site_fract_z
 _atom_site_occupancy
  In  In0  1  0.75000000  0.63932200  0.26023500  1
  In  In1  1  0.25000000  0.36067800  0.73976500  1
  In  In2  1  0.25000000  0.86067800  0.76023500  1
  In  In3  1  0.75000000  0.13932200  0.23976500  1
  S  S4  1  0.75000000  0.87727800  0.87161400  1
  S  S5  1  0.25000000  0.12272200  0.12838600  1
  S  S6  1  0.25000000  0.62272200  0.37161400  1
  S  S7  1  0.75000000  0.37727800  0.62838600  1
  O  O8  1  0.92653700  0.87225600  0.75339100  1
  O  O9  1  0.07346300  0.12774400  0.24660900  1
  O  O10  1  0.07346300  0.62774400  0.25339100  1
  O  O11  1  0.42653700  0.12774400  0.24660900  1
  O  O12  1  0.92653700  0.37225600  0.74660900  1
  O  O13  1  0.57346300  0.87225600  0.75339100  1
  O  O14  1  0.57346300  0.37225600  0.74660900  1
  O  O15  1  0.42653700  0.62774400  0.25339100  1
  O  O16  1  0.75000000  0.89241900  0.34902600  1
  O  O17  1  0.25000000  0.10758100  0.65097400  1
  O  O18  1  0.25000000  0.60758100  0.84902600  1
  O  O19  1  0.75000000  0.39241900  0.15097400  1
  O  O20  1  0.75000000  0.72718800  0.98529700  1
  O  O21  1  0.25000000  0.27281200  0.01470300  1
  O  O22  1  0.25000000  0.77281200  0.48529700  1
  O  O23  1  0.75000000  0.22718800  0.51470300  1
  O  O24  1  0.75000000  0.53755300  0.52937500  1
  O  O25  1  0.25000000  0.46244700  0.47062500  1
  O  O26  1  0.25000000  0.96244700  0.02937500  1
  O  O27  1  0.75000000  0.03755300  0.97062500  1
