# generated using pymatgen
data_K2CdH2C8(N3O4)2
_symmetry_space_group_name_H-M   'P 1'
_cell_length_a   8.38168017
_cell_length_b   9.33475500
_cell_length_c   10.09412603
_cell_angle_alpha   95.17045536
_cell_angle_beta   95.22636917
_cell_angle_gamma   100.21981041
_symmetry_Int_Tables_number   1
_chemical_formula_structural   K2CdH2C8(N3O4)2
_chemical_formula_sum   'K4 Cd2 H4 C16 N12 O16'
_cell_volume   769.44740808
_cell_formula_units_Z   2
loop_
 _symmetry_equiv_pos_site_id
 _symmetry_equiv_pos_as_xyz
  1  'x, y, z'
loop_
 _atom_site_type_symbol
 _atom_site_label
 _atom_site_symmetry_multiplicity
 _atom_site_fract_x
 _atom_site_fract_y
 _atom_site_fract_z
 _atom_site_occupancy
  K  K0  1  0.06462600  0.92740800  0.19085600  1
  K  K1  1  0.93537400  0.07259200  0.80914400  1
  K  K2  1  0.32912100  0.37276800  0.59922600  1
  K  K3  1  0.67087900  0.62723200  0.40077400  1
  Cd  Cd4  1  0.46403100  0.24610900  0.03104700  1
  Cd  Cd5  1  0.53596900  0.75389100  0.96895300  1
  H  H6  1  0.06767300  0.66421700  0.76267700  1
  H  H7  1  0.93232700  0.33578300  0.23732300  1
  H  H8  1  0.67826400  0.21092600  0.54513600  1
  H  H9  1  0.32173600  0.78907400  0.45486400  1
  C  C10  1  0.56947900  0.27293600  0.34696500  1
  C  C11  1  0.43052100  0.72706400  0.65303500  1
  C  C12  1  0.11314100  0.25073800  0.11396300  1
  C  C13  1  0.88685900  0.74926200  0.88603700  1
  C  C14  1  0.17330400  0.40869600  0.10793900  1
  C  C15  1  0.82669600  0.59130400  0.89206100  1
  C  C16  1  0.59723900  0.12505000  0.29963600  1
  C  C17  1  0.40276100  0.87495000  0.70036400  1
  C  C18  1  0.11466700  0.53372300  0.15502600  1
  C  C19  1  0.88533300  0.46627700  0.84497400  1
  C  C20  1  0.02215400  0.44897800  0.76585700  1
  C  C21  1  0.97784600  0.55102200  0.23414300  1
  C  C22  1  0.65875300  0.01631500  0.36503000  1
  C  C23  1  0.34124700  0.98368500  0.63497000  1
  C  C24  1  0.72406800  0.01135300  0.50517500  1
  C  C25  1  0.27593200  0.98864700  0.49482500  1
  N  N26  1  0.35142100  0.10119700  0.72697000  1
  N  N27  1  0.64857900  0.89880300  0.27303000  1
  N  N28  1  0.30478000  0.45430500  0.04432400  1
  N  N29  1  0.69522000  0.54569500  0.95567600  1
  N  N30  1  0.21201700  0.65180500  0.11717900  1
  N  N31  1  0.78798300  0.34819500  0.88282100  1
  N  N32  1  0.32526300  0.60085100  0.05207600  1
  N  N33  1  0.67473700  0.39914900  0.94792400  1
  N  N34  1  0.41476100  0.06618900  0.84237100  1
  N  N35  1  0.58523900  0.93381100  0.15762900  1
  N  N36  1  0.55372200  0.07008700  0.17041600  1
  N  N37  1  0.44627800  0.92991300  0.82958400  1
  O  O38  1  0.98824900  0.21138500  0.17449900  1
  O  O39  1  0.01175100  0.78861500  0.82550100  1
  O  O40  1  0.22587300  0.09703600  0.45665700  1
  O  O41  1  0.77412700  0.90296400  0.54334300  1
  O  O42  1  0.10322800  0.56733200  0.72202200  1
  O  O43  1  0.89677200  0.43266800  0.27797800  1
  O  O44  1  0.60534100  0.31857300  0.47179300  1
  O  O45  1  0.39465900  0.68142700  0.52820700  1
  O  O46  1  0.18776900  0.15920500  0.05532900  1
  O  O47  1  0.81223100  0.84079500  0.94467100  1
  O  O48  1  0.05999400  0.32796900  0.73879600  1
  O  O49  1  0.94000600  0.67203100  0.26120400  1
  O  O50  1  0.72665400  0.12861300  0.59086100  1
  O  O51  1  0.27334600  0.87138700  0.40913900  1
  O  O52  1  0.50997600  0.34713000  0.26220500  1
  O  O53  1  0.49002400  0.65287000  0.73779500  1
