# generated using pymatgen
data_HoMg(BO2)5
_symmetry_space_group_name_H-M   'P 1'
_cell_length_a   7.65433200
_cell_length_b   8.62461100
_cell_length_c   12.30915685
_cell_angle_alpha   49.30285205
_cell_angle_beta   90.00000000
_cell_angle_gamma   90.00000000
_symmetry_Int_Tables_number   1
_chemical_formula_structural   HoMg(BO2)5
_chemical_formula_sum   'Ho4 Mg4 B20 O40'
_cell_volume   616.08392498
_cell_formula_units_Z   4
loop_
 _symmetry_equiv_pos_site_id
 _symmetry_equiv_pos_as_xyz
  1  'x, y, z'
loop_
 _atom_site_type_symbol
 _atom_site_label
 _atom_site_symmetry_multiplicity
 _atom_site_fract_x
 _atom_site_fract_y
 _atom_site_fract_z
 _atom_site_occupancy
  Ho  Ho0  1  0.19272900  0.94753300  0.24074300  1
  Ho  Ho1  1  0.80727100  0.05246700  0.75925700  1
  Ho  Ho2  1  0.69272900  0.05246700  0.25925700  1
  Ho  Ho3  1  0.30727100  0.94753300  0.74074300  1
  Mg  Mg4  1  0.90847100  0.52822900  0.37183600  1
  Mg  Mg5  1  0.09152900  0.47177100  0.62816400  1
  Mg  Mg6  1  0.40847100  0.47177100  0.12816400  1
  Mg  Mg7  1  0.59152900  0.52822900  0.87183600  1
  B  B8  1  0.82618200  0.91197100  0.10422300  1
  B  B9  1  0.17381800  0.08802900  0.89577700  1
  B  B10  1  0.32618200  0.08802900  0.39577700  1
  B  B11  1  0.67381800  0.91197100  0.60422300  1
  B  B12  1  0.57550100  0.65925400  0.25905100  1
  B  B13  1  0.42449900  0.34074600  0.74094900  1
  B  B14  1  0.07550100  0.34074600  0.24094900  1
  B  B15  1  0.92449900  0.65925400  0.75905100  1
  B  B16  1  0.81179000  0.47632500  0.08877800  1
  B  B17  1  0.18821000  0.52367500  0.91122200  1
  B  B18  1  0.31179000  0.52367500  0.41122200  1
  B  B19  1  0.68821000  0.47632500  0.58877800  1
  B  B20  1  0.46778800  0.72203200  0.55591900  1
  B  B21  1  0.53221200  0.27796800  0.44408100  1
  B  B22  1  0.96778800  0.27796800  0.94408100  1
  B  B23  1  0.03221200  0.72203200  0.05591900  1
  B  B24  1  0.59730300  0.84472600  0.99490100  1
  B  B25  1  0.40269700  0.15527400  0.00509900  1
  B  B26  1  0.09730300  0.15527400  0.50509900  1
  B  B27  1  0.90269700  0.84472600  0.49490100  1
  O  O28  1  0.91375000  0.31074700  0.19298500  1
  O  O29  1  0.08625000  0.68925300  0.80701500  1
  O  O30  1  0.41375000  0.68925300  0.30701500  1
  O  O31  1  0.58625000  0.31074700  0.69298500  1
  O  O32  1  0.87267800  0.67270600  0.01107300  1
  O  O33  1  0.12732200  0.32729400  0.98892700  1
  O  O34  1  0.37267800  0.32729400  0.48892700  1
  O  O35  1  0.62732200  0.67270600  0.51107300  1
  O  O36  1  0.38946500  0.90604900  0.41908700  1
  O  O37  1  0.61053500  0.09395100  0.58091300  1
  O  O38  1  0.88946500  0.09395100  0.08091300  1
  O  O39  1  0.11053500  0.90604900  0.91908700  1
  O  O40  1  0.70966700  0.80468900  0.23139700  1
  O  O41  1  0.29033300  0.19531100  0.76860300  1
  O  O42  1  0.20966700  0.19531100  0.26860300  1
  O  O43  1  0.79033300  0.80468900  0.73139700  1
  O  O44  1  0.65025100  0.42224000  0.07493800  1
  O  O45  1  0.34974900  0.57776000  0.92506200  1
  O  O46  1  0.15025100  0.57776000  0.42506200  1
  O  O47  1  0.84974900  0.42224000  0.57493800  1
  O  O48  1  0.77175300  0.97146300  0.47925700  1
  O  O49  1  0.22824700  0.02853700  0.52074300  1
  O  O50  1  0.27175300  0.02853700  0.02074300  1
  O  O51  1  0.72824700  0.97146300  0.97925700  1
  O  O52  1  0.65015800  0.45355400  0.36545300  1
  O  O53  1  0.34984200  0.54644600  0.63454700  1
  O  O54  1  0.15015800  0.54644600  0.13454700  1
  O  O55  1  0.84984200  0.45355400  0.86545300  1
  O  O56  1  0.52846400  0.68932000  0.12773900  1
  O  O57  1  0.47153600  0.31068000  0.87226100  1
  O  O58  1  0.02846400  0.31068000  0.37226100  1
  O  O59  1  0.97153600  0.68932000  0.62773900  1
  O  O60  1  0.95185600  0.88230200  0.37410800  1
  O  O61  1  0.04814400  0.11769800  0.62589200  1
  O  O62  1  0.45185600  0.11769800  0.12589200  1
  O  O63  1  0.54814400  0.88230200  0.87410800  1
  O  O64  1  0.97182800  0.76639600  0.14890400  1
  O  O65  1  0.02817200  0.23360400  0.85109600  1
  O  O66  1  0.47182800  0.23360400  0.35109600  1
  O  O67  1  0.52817200  0.76639600  0.64890400  1
