# generated using pymatgen
data_InH9(SO6)2
_symmetry_space_group_name_H-M   'P 1'
_cell_length_a   5.64774700
_cell_length_b   10.08673200
_cell_length_c   18.73586900
_cell_angle_alpha   90.00000000
_cell_angle_beta   90.00000000
_cell_angle_gamma   90.00000000
_symmetry_Int_Tables_number   1
_chemical_formula_structural   InH9(SO6)2
_chemical_formula_sum   'In4 H36 S8 O48'
_cell_volume   1067.33206480
_cell_formula_units_Z   4
loop_
 _symmetry_equiv_pos_site_id
 _symmetry_equiv_pos_as_xyz
  1  'x, y, z'
loop_
 _atom_site_type_symbol
 _atom_site_label
 _atom_site_symmetry_multiplicity
 _atom_site_fract_x
 _atom_site_fract_y
 _atom_site_fract_z
 _atom_site_occupancy
  In  In0  1  0.00000000  0.00000000  0.00000000  1
  In  In1  1  0.50000000  0.50000000  0.00000000  1
  In  In2  1  0.00000000  0.00000000  0.50000000  1
  In  In3  1  0.50000000  0.50000000  0.50000000  1
  H  H4  1  0.55123200  0.49829800  0.25000000  1
  H  H5  1  0.44876800  0.50170200  0.75000000  1
  H  H6  1  0.05123200  0.00170200  0.75000000  1
  H  H7  1  0.94876800  0.99829800  0.25000000  1
  H  H8  1  0.65456600  0.09215600  0.10000000  1
  H  H9  1  0.34543400  0.90784400  0.90000000  1
  H  H10  1  0.15456600  0.40784400  0.90000000  1
  H  H11  1  0.34543400  0.90784400  0.60000000  1
  H  H12  1  0.84543400  0.59215600  0.10000000  1
  H  H13  1  0.65456600  0.09215600  0.40000000  1
  H  H14  1  0.84543400  0.59215600  0.40000000  1
  H  H15  1  0.15456600  0.40784400  0.60000000  1
  H  H16  1  0.35373800  0.06521200  0.59731200  1
  H  H17  1  0.64626200  0.93478800  0.40268800  1
  H  H18  1  0.85373800  0.43478800  0.40268800  1
  H  H19  1  0.64626200  0.93478800  0.09731200  1
  H  H20  1  0.14626200  0.56521200  0.59731200  1
  H  H21  1  0.35373800  0.06521200  0.90268800  1
  H  H22  1  0.14626200  0.56521200  0.90268800  1
  H  H23  1  0.85373800  0.43478800  0.09731200  1
  H  H24  1  0.52590100  0.65993000  0.20554300  1
  H  H25  1  0.47409900  0.34007000  0.79445700  1
  H  H26  1  0.02590100  0.84007000  0.79445700  1
  H  H27  1  0.47409900  0.34007000  0.70554300  1
  H  H28  1  0.97409900  0.15993000  0.20554300  1
  H  H29  1  0.52590100  0.65993000  0.29445700  1
  H  H30  1  0.97409900  0.15993000  0.29445700  1
  H  H31  1  0.02590100  0.84007000  0.70554300  1
  H  H32  1  0.50440300  0.31924200  0.20674900  1
  H  H33  1  0.49559700  0.68075800  0.79325100  1
  H  H34  1  0.00440300  0.18075800  0.79325100  1
  H  H35  1  0.49559700  0.68075800  0.70674900  1
  H  H36  1  0.99559700  0.81924200  0.20674900  1
  H  H37  1  0.50440300  0.31924200  0.29325100  1
  H  H38  1  0.99559700  0.81924200  0.29325100  1
  H  H39  1  0.00440300  0.18075800  0.70674900  1
  S  S40  1  0.22222200  0.25966600  0.09152100  1
  S  S41  1  0.77777800  0.74033400  0.90847900  1
  S  S42  1  0.72222200  0.24033400  0.90847900  1
  S  S43  1  0.77777800  0.74033400  0.59152100  1
  S  S44  1  0.27777800  0.75966600  0.09152100  1
  S  S45  1  0.22222200  0.25966600  0.40847900  1
  S  S46  1  0.27777800  0.75966600  0.40847900  1
  S  S47  1  0.72222200  0.24033400  0.59152100  1
  O  O48  1  0.24760900  0.40145500  0.06681600  1
  O  O49  1  0.75239100  0.59854500  0.93318400  1
  O  O50  1  0.74760900  0.09854500  0.93318400  1
  O  O51  1  0.75239100  0.59854500  0.56681600  1
  O  O52  1  0.25239100  0.90145500  0.06681600  1
  O  O53  1  0.24760900  0.40145500  0.43318400  1
  O  O54  1  0.25239100  0.90145500  0.43318400  1
  O  O55  1  0.74760900  0.09854500  0.56681600  1
  O  O56  1  0.19403700  0.17687400  0.02527100  1
  O  O57  1  0.80596300  0.82312600  0.97472900  1
  O  O58  1  0.69403700  0.32312600  0.97472900  1
  O  O59  1  0.80596300  0.82312600  0.52527100  1
  O  O60  1  0.30596300  0.67687400  0.02527100  1
  O  O61  1  0.19403700  0.17687400  0.47472900  1
  O  O62  1  0.30596300  0.67687400  0.47472900  1
  O  O63  1  0.69403700  0.32312600  0.52527100  1
  O  O64  1  0.43546100  0.21684600  0.13121200  1
  O  O65  1  0.56453900  0.78315400  0.86878800  1
  O  O66  1  0.93546100  0.28315400  0.86878800  1
  O  O67  1  0.56453900  0.78315400  0.63121200  1
  O  O68  1  0.06453900  0.71684600  0.13121200  1
  O  O69  1  0.43546100  0.21684600  0.36878800  1
  O  O70  1  0.06453900  0.71684600  0.36878800  1
  O  O71  1  0.93546100  0.28315400  0.63121200  1
  O  O72  1  0.75313000  0.01160800  0.09271600  1
  O  O73  1  0.24687000  0.98839200  0.90728400  1
  O  O74  1  0.25313000  0.48839200  0.90728400  1
  O  O75  1  0.24687000  0.98839200  0.59271600  1
  O  O76  1  0.74687000  0.51160800  0.09271600  1
  O  O77  1  0.75313000  0.01160800  0.40728400  1
  O  O78  1  0.74687000  0.51160800  0.40728400  1
  O  O79  1  0.25313000  0.48839200  0.59271600  1
  O  O80  1  0.55284600  0.36945000  0.25000000  1
  O  O81  1  0.44715400  0.63055000  0.75000000  1
  O  O82  1  0.05284600  0.13055000  0.75000000  1
  O  O83  1  0.94715400  0.86945000  0.25000000  1
  O  O84  1  0.56757600  0.60914400  0.25000000  1
  O  O85  1  0.43242400  0.39085600  0.75000000  1
  O  O86  1  0.06757600  0.89085600  0.75000000  1
  O  O87  1  0.93242400  0.10914400  0.25000000  1
  O  O88  1  0.00562600  0.25706800  0.13574600  1
  O  O89  1  0.99437400  0.74293200  0.86425400  1
  O  O90  1  0.50562600  0.24293200  0.86425400  1
  O  O91  1  0.99437400  0.74293200  0.63574600  1
  O  O92  1  0.49437400  0.75706800  0.13574600  1
  O  O93  1  0.00562600  0.25706800  0.36425400  1
  O  O94  1  0.49437400  0.75706800  0.36425400  1
  O  O95  1  0.50562600  0.24293200  0.63574600  1
