# generated using pymatgen
data_Rb2Nb2Si2O11
_symmetry_space_group_name_H-M   'P 1'
_cell_length_a   7.44305496
_cell_length_b   7.44305496
_cell_length_c   39.71365421
_cell_angle_alpha   90.00000000
_cell_angle_beta   90.00000000
_cell_angle_gamma   90.00000000
_symmetry_Int_Tables_number   1
_chemical_formula_structural   Rb2Nb2Si2O11
_chemical_formula_sum   'Rb16 Nb16 Si16 O88'
_cell_volume   2200.09939586
_cell_formula_units_Z   8
loop_
 _symmetry_equiv_pos_site_id
 _symmetry_equiv_pos_as_xyz
  1  'x, y, z'
loop_
 _atom_site_type_symbol
 _atom_site_label
 _atom_site_symmetry_multiplicity
 _atom_site_fract_x
 _atom_site_fract_y
 _atom_site_fract_z
 _atom_site_occupancy
  Rb  Rb0  1  0.03441585  0.03441585  0.37500000  1
  Rb  Rb1  1  0.96558415  0.96558415  0.87500000  1
  Rb  Rb2  1  0.96558415  0.03441585  0.62500000  1
  Rb  Rb3  1  0.03441585  0.96558415  0.12500000  1
  Rb  Rb4  1  0.01901617  0.46938128  0.07373385  1
  Rb  Rb5  1  0.98098383  0.53061872  0.57373385  1
  Rb  Rb6  1  0.53061872  0.01901617  0.32373385  1
  Rb  Rb7  1  0.98098383  0.46938128  0.92626615  1
  Rb  Rb8  1  0.46938128  0.98098383  0.82373385  1
  Rb  Rb9  1  0.01901617  0.53061872  0.42626615  1
  Rb  Rb10  1  0.46938128  0.01901617  0.67626615  1
  Rb  Rb11  1  0.53061872  0.98098383  0.17626615  1
  Rb  Rb12  1  0.50000000  0.37416797  0.00000000  1
  Rb  Rb13  1  0.50000000  0.62583203  0.50000000  1
  Rb  Rb14  1  0.62583203  0.50000000  0.25000000  1
  Rb  Rb15  1  0.37416797  0.50000000  0.75000000  1
  Nb  Nb16  1  0.27520317  0.49982168  0.16159075  1
  Nb  Nb17  1  0.72479683  0.50017832  0.66159075  1
  Nb  Nb18  1  0.50017832  0.27520317  0.41159075  1
  Nb  Nb19  1  0.72479683  0.49982168  0.83840925  1
  Nb  Nb20  1  0.49982168  0.72479683  0.91159075  1
  Nb  Nb21  1  0.27520317  0.50017832  0.33840925  1
  Nb  Nb22  1  0.49982168  0.27520317  0.58840925  1
  Nb  Nb23  1  0.50017832  0.72479683  0.08840925  1
  Nb  Nb24  1  0.50096604  0.23025493  0.09381795  1
  Nb  Nb25  1  0.49903396  0.76974507  0.59381795  1
  Nb  Nb26  1  0.76974507  0.50096604  0.34381795  1
  Nb  Nb27  1  0.49903396  0.23025493  0.90618205  1
  Nb  Nb28  1  0.23025493  0.49903396  0.84381795  1
  Nb  Nb29  1  0.50096604  0.76974507  0.40618205  1
  Nb  Nb30  1  0.23025493  0.50096604  0.65618205  1
  Nb  Nb31  1  0.76974507  0.49903396  0.15618205  1
  Si  Si32  1  0.00491420  0.22019827  0.20962931  1
  Si  Si33  1  0.99508580  0.77980173  0.70962931  1
  Si  Si34  1  0.77980173  0.00491420  0.45962931  1
  Si  Si35  1  0.99508580  0.22019827  0.79037069  1
  Si  Si36  1  0.22019827  0.99508580  0.95962931  1
  Si  Si37  1  0.00491420  0.77980173  0.29037069  1
  Si  Si38  1  0.22019827  0.00491420  0.54037069  1
  Si  Si39  1  0.77980173  0.99508580  0.04037069  1
  Si  Si40  1  0.00486467  0.21400039  0.29140991  1
  Si  Si41  1  0.99513533  0.78599961  0.79140991  1
  Si  Si42  1  0.78599961  0.00486467  0.54140991  1
  Si  Si43  1  0.99513533  0.21400039  0.70859009  1
  Si  Si44  1  0.21400039  0.99513533  0.04140991  1
  Si  Si45  1  0.00486467  0.78599961  0.20859009  1
  Si  Si46  1  0.21400039  0.00486467  0.45859009  1
  Si  Si47  1  0.78599961  0.99513533  0.95859009  1
  O  O48  1  0.29659313  0.17570428  0.05868977  1
  O  O49  1  0.70340687  0.82429572  0.55868977  1
  O  O50  1  0.82429572  0.29659313  0.30868977  1
  O  O51  1  0.70340687  0.17570428  0.94131023  1
  O  O52  1  0.17570428  0.70340687  0.80868977  1
  O  O53  1  0.29659313  0.82429572  0.44131023  1
  O  O54  1  0.17570428  0.29659313  0.69131023  1
  O  O55  1  0.82429572  0.70340687  0.19131023  1
  O  O56  1  0.32352670  0.30547245  0.12766750  1
  O  O57  1  0.67647330  0.69452755  0.62766750  1
  O  O58  1  0.69452755  0.32352670  0.37766750  1
  O  O59  1  0.67647330  0.30547245  0.87233250  1
  O  O60  1  0.30547245  0.67647330  0.87766750  1
  O  O61  1  0.32352670  0.69452755  0.37233250  1
  O  O62  1  0.30547245  0.32352670  0.62233250  1
  O  O63  1  0.69452755  0.67647330  0.12233250  1
  O  O64  1  0.00799784  0.00378223  0.20027371  1
  O  O65  1  0.99200216  0.99621777  0.70027371  1
  O  O66  1  0.99621777  0.00799784  0.45027371  1
  O  O67  1  0.99200216  0.00378223  0.79972629  1
  O  O68  1  0.00378223  0.99200216  0.95027371  1
  O  O69  1  0.00799784  0.99621777  0.29972629  1
  O  O70  1  0.00378223  0.00799784  0.54972629  1
  O  O71  1  0.99621777  0.99200216  0.04972629  1
  O  O72  1  0.24280600  0.00775375  0.00064877  1
  O  O73  1  0.75719400  0.99224625  0.50064877  1
  O  O74  1  0.99224625  0.24280600  0.25064877  1
  O  O75  1  0.75719400  0.00775375  0.99935123  1
  O  O76  1  0.00775375  0.75719400  0.75064877  1
  O  O77  1  0.24280600  0.99224625  0.49935123  1
  O  O78  1  0.00775375  0.24280600  0.74935123  1
  O  O79  1  0.99224625  0.75719400  0.24935123  1
  O  O80  1  0.69346787  0.17579515  0.05683257  1
  O  O81  1  0.30653213  0.82420485  0.55683257  1
  O  O82  1  0.82420485  0.69346787  0.30683257  1
  O  O83  1  0.30653213  0.17579515  0.94316743  1
  O  O84  1  0.17579515  0.30653213  0.80683257  1
  O  O85  1  0.69346787  0.82420485  0.44316743  1
  O  O86  1  0.17579515  0.69346787  0.69316743  1
  O  O87  1  0.82420485  0.30653213  0.19316743  1
  O  O88  1  0.69463376  0.69463376  0.37500000  1
  O  O89  1  0.30536624  0.30536624  0.87500000  1
  O  O90  1  0.30536624  0.69463376  0.62500000  1
  O  O91  1  0.69463376  0.30536624  0.12500000  1
  O  O92  1  0.49410607  0.48572469  0.07214487  1
  O  O93  1  0.50589393  0.51427531  0.57214487  1
  O  O94  1  0.51427531  0.49410607  0.32214487  1
  O  O95  1  0.50589393  0.48572469  0.92785513  1
  O  O96  1  0.48572469  0.50589393  0.82214487  1
  O  O97  1  0.49410607  0.51427531  0.42785513  1
  O  O98  1  0.48572469  0.49410607  0.67785513  1
  O  O99  1  0.51427531  0.50589393  0.17785513  1
  O  O100  1  0.32292325  0.32292325  0.37500000  1
  O  O101  1  0.67707675  0.67707675  0.87500000  1
  O  O102  1  0.67707675  0.32292325  0.62500000  1
  O  O103  1  0.32292325  0.67707675  0.12500000  1
  O  O104  1  0.39250642  0.08243834  0.24792171  1
  O  O105  1  0.60749358  0.91756166  0.74792171  1
  O  O106  1  0.91756166  0.39250642  0.49792171  1
  O  O107  1  0.60749358  0.08243834  0.75207829  1
  O  O108  1  0.08243834  0.60749358  0.99792171  1
  O  O109  1  0.39250642  0.91756166  0.25207829  1
  O  O110  1  0.08243834  0.39250642  0.50207829  1
  O  O111  1  0.91756166  0.60749358  0.00207829  1
  O  O112  1  0.18881817  0.31010345  0.19521300  1
  O  O113  1  0.81118183  0.68989655  0.69521300  1
  O  O114  1  0.68989655  0.18881817  0.44521300  1
  O  O115  1  0.81118183  0.31010345  0.80478700  1
  O  O116  1  0.31010345  0.81118183  0.94521300  1
  O  O117  1  0.18881817  0.68989655  0.30478700  1
  O  O118  1  0.31010345  0.18881817  0.55478700  1
  O  O119  1  0.68989655  0.81118183  0.05478700  1
  O  O120  1  0.01243982  0.50089314  0.14302940  1
  O  O121  1  0.98756018  0.49910686  0.64302940  1
  O  O122  1  0.49910686  0.01243982  0.39302940  1
  O  O123  1  0.98756018  0.50089314  0.85697060  1
  O  O124  1  0.50089314  0.98756018  0.89302940  1
  O  O125  1  0.01243982  0.49910686  0.35697060  1
  O  O126  1  0.50089314  0.01243982  0.60697060  1
  O  O127  1  0.49910686  0.98756018  0.10697060  1
  O  O128  1  0.18897043  0.29805016  0.30705945  1
  O  O129  1  0.81102957  0.70194984  0.80705945  1
  O  O130  1  0.70194984  0.18897043  0.55705945  1
  O  O131  1  0.81102957  0.29805016  0.69294055  1
  O  O132  1  0.29805016  0.81102957  0.05705945  1
  O  O133  1  0.18897043  0.70194984  0.19294055  1
  O  O134  1  0.29805016  0.18897043  0.44294055  1
  O  O135  1  0.70194984  0.81102957  0.94294055  1
