# generated using pymatgen
data_KEr(SO5)2
_symmetry_space_group_name_H-M   'P 1'
_cell_length_a   8.15698300
_cell_length_b   10.10184100
_cell_length_c   10.98243522
_cell_angle_alpha   81.05189989
_cell_angle_beta   90.00000000
_cell_angle_gamma   90.00000000
_symmetry_Int_Tables_number   1
_chemical_formula_structural   KEr(SO5)2
_chemical_formula_sum   'K4 Er4 S8 O40'
_cell_volume   893.94497590
_cell_formula_units_Z   4
loop_
 _symmetry_equiv_pos_site_id
 _symmetry_equiv_pos_as_xyz
  1  'x, y, z'
loop_
 _atom_site_type_symbol
 _atom_site_label
 _atom_site_symmetry_multiplicity
 _atom_site_fract_x
 _atom_site_fract_y
 _atom_site_fract_z
 _atom_site_occupancy
  K  K0  1  0.26794600  0.90942300  0.13290300  1
  K  K1  1  0.73205400  0.09057700  0.86709700  1
  K  K2  1  0.76794600  0.59057700  0.86709700  1
  K  K3  1  0.23205400  0.40942300  0.13290300  1
  Er  Er4  1  0.76378100  0.96735900  0.31751300  1
  Er  Er5  1  0.23621900  0.03264100  0.68248700  1
  Er  Er6  1  0.26378100  0.53264100  0.68248700  1
  Er  Er7  1  0.73621900  0.46735900  0.31751300  1
  S  S8  1  0.64950300  0.68944300  0.53136900  1
  S  S9  1  0.35049700  0.31055700  0.46863100  1
  S  S10  1  0.14950300  0.81055700  0.46863100  1
  S  S11  1  0.85049700  0.18944300  0.53136900  1
  S  S12  1  0.77343600  0.79359000  0.11674800  1
  S  S13  1  0.22656400  0.20641000  0.88325200  1
  S  S14  1  0.27343600  0.70641000  0.88325200  1
  S  S15  1  0.72656400  0.29359000  0.11674800  1
  O  O16  1  0.62147600  0.85100100  0.16527400  1
  O  O17  1  0.37852400  0.14899900  0.83472600  1
  O  O18  1  0.12147600  0.64899900  0.83472600  1
  O  O19  1  0.87852400  0.35100100  0.16527400  1
  O  O20  1  0.91279500  0.85447700  0.17893000  1
  O  O21  1  0.08720500  0.14552300  0.82107000  1
  O  O22  1  0.41279500  0.64552300  0.82107000  1
  O  O23  1  0.58720500  0.35447700  0.17893000  1
  O  O24  1  0.98210700  0.87208000  0.43650300  1
  O  O25  1  0.01789300  0.12792000  0.56349700  1
  O  O26  1  0.48210700  0.62792000  0.56349700  1
  O  O27  1  0.51789300  0.37208000  0.43650300  1
  O  O28  1  0.61776400  0.81173700  0.44032500  1
  O  O29  1  0.38223600  0.18826300  0.55967500  1
  O  O30  1  0.11776400  0.68826300  0.55967500  1
  O  O31  1  0.88223600  0.31173700  0.44032500  1
  O  O32  1  0.28451700  0.67902700  0.01752900  1
  O  O33  1  0.71548300  0.32097300  0.98247100  1
  O  O34  1  0.78451700  0.82097300  0.98247100  1
  O  O35  1  0.21548300  0.17902700  0.01752900  1
  O  O36  1  0.47088700  0.55024800  0.29043200  1
  O  O37  1  0.52911300  0.44975200  0.70956800  1
  O  O38  1  0.97088700  0.94975200  0.70956800  1
  O  O39  1  0.02911300  0.05024800  0.29043200  1
  O  O40  1  0.73224600  0.71955600  0.64090000  1
  O  O41  1  0.26775400  0.28044400  0.35910000  1
  O  O42  1  0.23224600  0.78044400  0.35910000  1
  O  O43  1  0.76775400  0.21955600  0.64090000  1
  O  O44  1  0.74512300  0.59338100  0.46875900  1
  O  O45  1  0.25487700  0.40661900  0.53124100  1
  O  O46  1  0.24512300  0.90661900  0.53124100  1
  O  O47  1  0.75487700  0.09338100  0.46875900  1
  O  O48  1  0.77674300  0.64344300  0.15822600  1
  O  O49  1  0.22325700  0.35655700  0.84177400  1
  O  O50  1  0.27674300  0.85655700  0.84177400  1
  O  O51  1  0.72325700  0.14344300  0.15822600  1
  O  O52  1  0.51200900  0.96481500  0.70774400  1
  O  O53  1  0.48799100  0.03518500  0.29225600  1
  O  O54  1  0.01200900  0.53518500  0.29225600  1
  O  O55  1  0.98799100  0.46481500  0.70774400  1
