# generated using pymatgen
data_Hg3S2BrCl
_symmetry_space_group_name_H-M   'P 1'
_cell_length_a   10.23936826
_cell_length_b   10.23936826
_cell_length_c   9.49115522
_cell_angle_alpha   89.70952058
_cell_angle_beta   89.70952058
_cell_angle_gamma   55.83631228
_symmetry_Int_Tables_number   1
_chemical_formula_structural   Hg3S2BrCl
_chemical_formula_sum   'Hg12 S8 Br4 Cl4'
_cell_volume   823.36613588
_cell_formula_units_Z   4
loop_
 _symmetry_equiv_pos_site_id
 _symmetry_equiv_pos_as_xyz
  1  'x, y, z'
loop_
 _atom_site_type_symbol
 _atom_site_label
 _atom_site_symmetry_multiplicity
 _atom_site_fract_x
 _atom_site_fract_y
 _atom_site_fract_z
 _atom_site_occupancy
  Hg  Hg0  1  0.35590200  0.89319600  0.29906700  1
  Hg  Hg1  1  0.64409800  0.10680400  0.70093300  1
  Hg  Hg2  1  0.10680400  0.64409800  0.70093300  1
  Hg  Hg3  1  0.89319600  0.35590200  0.29906700  1
  Hg  Hg4  1  0.47813000  0.47813000  0.28325900  1
  Hg  Hg5  1  0.52187000  0.52187000  0.71674100  1
  Hg  Hg6  1  0.50000000  0.00000000  0.00000000  1
  Hg  Hg7  1  0.00000000  0.50000000  0.00000000  1
  Hg  Hg8  1  0.77113000  0.77113000  0.28904100  1
  Hg  Hg9  1  0.22887000  0.22887000  0.71095900  1
  Hg  Hg10  1  0.75476200  0.24523800  0.00000000  1
  Hg  Hg11  1  0.24523800  0.75476200  0.00000000  1
  S  S12  1  0.50787600  0.01030800  0.25768200  1
  S  S13  1  0.49212400  0.98969200  0.74231800  1
  S  S14  1  0.98969200  0.49212400  0.74231800  1
  S  S15  1  0.01030800  0.50787600  0.25768200  1
  S  S16  1  0.74389000  0.23716500  0.25671300  1
  S  S17  1  0.25611000  0.76283500  0.74328700  1
  S  S18  1  0.76283500  0.25611000  0.74328700  1
  S  S19  1  0.23716500  0.74389000  0.25671300  1
  Br  Br20  1  0.12497200  0.12497200  0.02230400  1
  Br  Br21  1  0.87502800  0.87502800  0.97769600  1
  Br  Br22  1  0.62517200  0.62517200  0.00637700  1
  Br  Br23  1  0.37482800  0.37482800  0.99362300  1
  Cl  Cl24  1  0.61629100  0.61629100  0.47209600  1
  Cl  Cl25  1  0.38370900  0.38370900  0.52790400  1
  Cl  Cl26  1  0.87181500  0.87181500  0.51899100  1
  Cl  Cl27  1  0.12818500  0.12818500  0.48100900  1
