# generated using pymatgen
data_Hg3Pt(NCl4)2
_symmetry_space_group_name_H-M   'P 1'
_cell_length_a   10.33607657
_cell_length_b   10.33607657
_cell_length_c   13.69573982
_cell_angle_alpha   84.03000035
_cell_angle_beta   84.03000035
_cell_angle_gamma   36.87530371
_symmetry_Int_Tables_number   1
_chemical_formula_structural   Hg3Pt(NCl4)2
_chemical_formula_sum   'Hg6 Pt2 N4 Cl16'
_cell_volume   872.72397006
_cell_formula_units_Z   2
loop_
 _symmetry_equiv_pos_site_id
 _symmetry_equiv_pos_as_xyz
  1  'x, y, z'
loop_
 _atom_site_type_symbol
 _atom_site_label
 _atom_site_symmetry_multiplicity
 _atom_site_fract_x
 _atom_site_fract_y
 _atom_site_fract_z
 _atom_site_occupancy
  Hg  Hg0  1  0.50000000  0.50000000  0.50000000  1
  Hg  Hg1  1  0.50000000  0.50000000  0.00000000  1
  Hg  Hg2  1  0.68718100  0.71764400  0.57606400  1
  Hg  Hg3  1  0.31281900  0.28235600  0.42393600  1
  Hg  Hg4  1  0.28235600  0.31281900  0.92393600  1
  Hg  Hg5  1  0.71764400  0.68718100  0.07606400  1
  Pt  Pt6  1  0.78427500  0.21572500  0.75000000  1
  Pt  Pt7  1  0.21572500  0.78427500  0.25000000  1
  N  N8  1  0.85141600  0.99996500  0.73103300  1
  N  N9  1  0.14858400  0.00003500  0.26896700  1
  N  N10  1  0.00003500  0.14858400  0.76896700  1
  N  N11  1  0.99996500  0.85141600  0.23103300  1
  Cl  Cl12  1  0.47105200  0.03664900  0.65037100  1
  Cl  Cl13  1  0.52894800  0.96335100  0.34962900  1
  Cl  Cl14  1  0.96335100  0.52894800  0.84962900  1
  Cl  Cl15  1  0.03664900  0.47105200  0.15037100  1
  Cl  Cl16  1  0.27755200  0.84880100  0.53416400  1
  Cl  Cl17  1  0.72244800  0.15119900  0.46583600  1
  Cl  Cl18  1  0.15119900  0.72244800  0.96583600  1
  Cl  Cl19  1  0.84880100  0.27755200  0.03416400  1
  Cl  Cl20  1  0.61083200  0.09007300  0.99228500  1
  Cl  Cl21  1  0.38916800  0.90992700  0.00771500  1
  Cl  Cl22  1  0.90992700  0.38916800  0.50771500  1
  Cl  Cl23  1  0.09007300  0.61083200  0.49228500  1
  Cl  Cl24  1  0.59207500  0.56551300  0.77259400  1
  Cl  Cl25  1  0.40792500  0.43448700  0.22740600  1
  Cl  Cl26  1  0.43448700  0.40792500  0.72740600  1
  Cl  Cl27  1  0.56551300  0.59207500  0.27259400  1
