# generated using pymatgen
data_Mn3PtF6
_symmetry_space_group_name_H-M   'P 1'
_cell_length_a   6.80967162
_cell_length_b   5.68937467
_cell_length_c   11.36054748
_cell_angle_alpha   96.19347197
_cell_angle_beta   108.00928263
_cell_angle_gamma   125.64679436
_symmetry_Int_Tables_number   1
_chemical_formula_structural   Mn3PtF6
_chemical_formula_sum   'Mn3 Pt1 F6'
_cell_volume   315.63079017
_cell_formula_units_Z   1
loop_
 _symmetry_equiv_pos_site_id
 _symmetry_equiv_pos_as_xyz
  1  'x, y, z'
loop_
 _atom_site_type_symbol
 _atom_site_label
 _atom_site_symmetry_multiplicity
 _atom_site_fract_x
 _atom_site_fract_y
 _atom_site_fract_z
 _atom_site_occupancy
  Mn  Mn0  1  0.00000000  0.00000000  0.50000000  1
  Mn  Mn1  1  0.50000000  0.50000000  0.00000000  1
  Mn  Mn2  1  0.00000000  0.50000000  0.00000000  1
  Pt  Pt3  1  0.00000000  0.00000000  0.00000000  1
  F  F4  1  0.17594400  0.47966800  0.89097800  1
  F  F5  1  0.82405600  0.52033200  0.10902200  1
  F  F6  1  0.87503700  0.84172600  0.61715700  1
  F  F7  1  0.12496300  0.15827400  0.38284300  1
  F  F8  1  0.69456800  0.96729500  0.00880000  1
  F  F9  1  0.30543200  0.03270500  0.99120000  1
