# generated using pymatgen
data_NpMn(OF2)3
_symmetry_space_group_name_H-M   'P 1'
_cell_length_a   7.30521725
_cell_length_b   7.30521725
_cell_length_c   9.81713484
_cell_angle_alpha   75.45588613
_cell_angle_beta   75.45588613
_cell_angle_gamma   59.52209137
_symmetry_Int_Tables_number   1
_chemical_formula_structural   NpMn(OF2)3
_chemical_formula_sum   'Np2 Mn2 O6 F12'
_cell_volume   432.20802487
_cell_formula_units_Z   2
loop_
 _symmetry_equiv_pos_site_id
 _symmetry_equiv_pos_as_xyz
  1  'x, y, z'
loop_
 _atom_site_type_symbol
 _atom_site_label
 _atom_site_symmetry_multiplicity
 _atom_site_fract_x
 _atom_site_fract_y
 _atom_site_fract_z
 _atom_site_occupancy
  Np  Np0  1  0.54444600  0.45555400  0.50000000  1
  Np  Np1  1  0.25021000  0.74979000  0.00000000  1
  Mn  Mn2  1  0.34809900  0.05826600  0.25939900  1
  Mn  Mn3  1  0.94173400  0.65190100  0.74060100  1
  O  O4  1  0.79632900  0.20367100  0.50000000  1
  O  O5  1  0.00265000  0.99735000  0.00000000  1
  O  O6  1  0.14749600  0.28757500  0.28321100  1
  O  O7  1  0.71242500  0.85250400  0.71678900  1
  O  O8  1  0.57651200  0.04658800  0.24338900  1
  O  O9  1  0.95341200  0.42348800  0.75661100  1
  F  F10  1  0.61166600  0.50136500  0.28379800  1
  F  F11  1  0.49863500  0.38833400  0.71620200  1
  F  F12  1  0.32372100  0.85653600  0.39968100  1
  F  F13  1  0.14346400  0.67627900  0.60031900  1
  F  F14  1  0.38886900  0.29704700  0.48634800  1
  F  F15  1  0.70295300  0.61113100  0.51365200  1
  F  F16  1  0.37114800  0.42796400  0.01229300  1
  F  F17  1  0.57203600  0.62885200  0.98770700  1
  F  F18  1  0.16677600  0.68441700  0.21242600  1
  F  F19  1  0.31558300  0.83322400  0.78757400  1
  F  F20  1  0.32837500  0.97473900  0.10790300  1
  F  F21  1  0.02526100  0.67162500  0.89209700  1
