# generated using pymatgen
data_K3P2H10O7
_symmetry_space_group_name_H-M   'P 1'
_cell_length_a   9.80025000
_cell_length_b   6.63639500
_cell_length_c   18.01363502
_cell_angle_alpha   88.07849702
_cell_angle_beta   90.00000000
_cell_angle_gamma   90.00000000
_symmetry_Int_Tables_number   1
_chemical_formula_structural   K3P2H10O7
_chemical_formula_sum   'K12 P8 H40 O28'
_cell_volume   1170.91796616
_cell_formula_units_Z   4
loop_
 _symmetry_equiv_pos_site_id
 _symmetry_equiv_pos_as_xyz
  1  'x, y, z'
loop_
 _atom_site_type_symbol
 _atom_site_label
 _atom_site_symmetry_multiplicity
 _atom_site_fract_x
 _atom_site_fract_y
 _atom_site_fract_z
 _atom_site_occupancy
  K  K0  1  0.64530800  0.40137400  0.11429400  1
  K  K1  1  0.35469200  0.59862600  0.88570600  1
  K  K2  1  0.14530800  0.59862600  0.38570600  1
  K  K3  1  0.85469200  0.40137400  0.61429400  1
  K  K4  1  0.98339600  0.32660400  0.20713600  1
  K  K5  1  0.01660400  0.67339600  0.79286400  1
  K  K6  1  0.48339600  0.67339600  0.29286400  1
  K  K7  1  0.51660400  0.32660400  0.70713600  1
  K  K8  1  0.38152800  0.83251200  0.56413900  1
  K  K9  1  0.61847200  0.16748800  0.43586100  1
  K  K10  1  0.88152800  0.16748800  0.93586100  1
  K  K11  1  0.11847200  0.83251200  0.06413900  1
  P  P12  1  0.81242900  0.86771000  0.15247700  1
  P  P13  1  0.18757100  0.13229000  0.84752300  1
  P  P14  1  0.31242900  0.13229000  0.34752300  1
  P  P15  1  0.68757100  0.86771000  0.65247700  1
  P  P16  1  0.86007300  0.83279100  0.31824500  1
  P  P17  1  0.13992700  0.16720900  0.68175500  1
  P  P18  1  0.36007300  0.16720900  0.18175500  1
  P  P19  1  0.63992700  0.83279100  0.81824500  1
  H  H20  1  0.66772100  0.28424800  0.27105800  1
  H  H21  1  0.33227900  0.71575200  0.72894200  1
  H  H22  1  0.16772100  0.71575200  0.22894200  1
  H  H23  1  0.83227900  0.28424800  0.77105800  1
  H  H24  1  0.87449700  0.54583700  0.00750500  1
  H  H25  1  0.12550300  0.45416300  0.99249500  1
  H  H26  1  0.37449700  0.45416300  0.49249500  1
  H  H27  1  0.62550300  0.54583700  0.50750500  1
  H  H28  1  0.84576200  0.53759200  0.42646500  1
  H  H29  1  0.15423800  0.46240800  0.57353500  1
  H  H30  1  0.34576200  0.46240800  0.07353500  1
  H  H31  1  0.65423800  0.53759200  0.92646500  1
  H  H32  1  0.64921700  0.73869100  0.42460300  1
  H  H33  1  0.35078300  0.26130900  0.57539700  1
  H  H34  1  0.14921700  0.26130900  0.07539700  1
  H  H35  1  0.85078300  0.73869100  0.92460300  1
  H  H36  1  0.73079100  0.50054300  0.28992400  1
  H  H37  1  0.26920900  0.49945700  0.71007600  1
  H  H38  1  0.23079100  0.49945700  0.21007600  1
  H  H39  1  0.76920900  0.50054300  0.78992400  1
  H  H40  1  0.62959400  0.65537300  0.46235100  1
  H  H41  1  0.37040600  0.34462700  0.53764900  1
  H  H42  1  0.12959400  0.34462700  0.03764900  1
  H  H43  1  0.87040600  0.65537300  0.96235100  1
  H  H44  1  0.39530700  0.71654500  0.05487000  1
  H  H45  1  0.60469300  0.28345500  0.94513000  1
  H  H46  1  0.89530700  0.28345500  0.44513000  1
  H  H47  1  0.10469300  0.71654500  0.55487000  1
  H  H48  1  0.41580900  0.82635000  0.05975800  1
  H  H49  1  0.58419100  0.17365000  0.94024200  1
  H  H50  1  0.91580900  0.17365000  0.44024200  1
  H  H51  1  0.08419100  0.82635000  0.55975800  1
  H  H52  1  0.14806000  0.82647800  0.23546000  1
  H  H53  1  0.85194000  0.17352200  0.76454000  1
  H  H54  1  0.64806000  0.17352200  0.26454000  1
  H  H55  1  0.35194000  0.82647800  0.73546000  1
  H  H56  1  0.58238000  0.92531800  0.15592500  1
  H  H57  1  0.41762000  0.07468200  0.84407500  1
  H  H58  1  0.08238000  0.07468200  0.34407500  1
  H  H59  1  0.91762000  0.92531800  0.65592500  1
  O  O60  1  0.88653800  0.67771100  0.13198400  1
  O  O61  1  0.11346200  0.32228900  0.86801600  1
  O  O62  1  0.38653800  0.32228900  0.36801600  1
  O  O63  1  0.61346200  0.67771100  0.63198400  1
  O  O64  1  0.88862400  0.60479000  0.31176500  1
  O  O65  1  0.11137600  0.39521000  0.68823500  1
  O  O66  1  0.38862400  0.39521000  0.18823500  1
  O  O67  1  0.61137600  0.60479000  0.81176500  1
  O  O68  1  0.65569800  0.80957800  0.16494700  1
  O  O69  1  0.34430200  0.19042200  0.83505300  1
  O  O70  1  0.15569800  0.19042200  0.33505300  1
  O  O71  1  0.84430200  0.80957800  0.66494700  1
  O  O72  1  0.33127300  0.94443500  0.39704500  1
  O  O73  1  0.66872700  0.05556500  0.60295500  1
  O  O74  1  0.83127300  0.05556500  0.10295500  1
  O  O75  1  0.16872700  0.94443500  0.89704500  1
  O  O76  1  0.97782500  0.93082700  0.35988600  1
  O  O77  1  0.02217500  0.06917300  0.64011400  1
  O  O78  1  0.47782500  0.06917300  0.14011400  1
  O  O79  1  0.52217500  0.93082700  0.85988600  1
  O  O80  1  0.86854200  0.93724500  0.23354900  1
  O  O81  1  0.13145800  0.06275500  0.76645100  1
  O  O82  1  0.36854200  0.06275500  0.26645100  1
  O  O83  1  0.63145800  0.93724500  0.73354900  1
  O  O84  1  0.71790800  0.88493300  0.34701100  1
  O  O85  1  0.28209200  0.11506700  0.65298900  1
  O  O86  1  0.21790800  0.11506700  0.15298900  1
  O  O87  1  0.78209200  0.88493300  0.84701100  1
