# generated using pymatgen
data_KNaTiH2O3F4
_symmetry_space_group_name_H-M   'P 1'
_cell_length_a   5.86871700
_cell_length_b   10.51218500
_cell_length_c   10.83969916
_cell_angle_alpha   73.55574737
_cell_angle_beta   90.00000000
_cell_angle_gamma   90.00000000
_symmetry_Int_Tables_number   1
_chemical_formula_structural   KNaTiH2O3F4
_chemical_formula_sum   'K4 Na4 Ti4 H8 O12 F16'
_cell_volume   641.37983299
_cell_formula_units_Z   4
loop_
 _symmetry_equiv_pos_site_id
 _symmetry_equiv_pos_as_xyz
  1  'x, y, z'
loop_
 _atom_site_type_symbol
 _atom_site_label
 _atom_site_symmetry_multiplicity
 _atom_site_fract_x
 _atom_site_fract_y
 _atom_site_fract_z
 _atom_site_occupancy
  K  K0  1  0.96065500  0.60507700  0.33341600  1
  K  K1  1  0.03934500  0.39492300  0.66658400  1
  K  K2  1  0.46065500  0.89492300  0.66658400  1
  K  K3  1  0.53934500  0.10507700  0.33341600  1
  Na  Na4  1  0.48672400  0.78644200  0.06666600  1
  Na  Na5  1  0.51327600  0.21355800  0.93333400  1
  Na  Na6  1  0.98672400  0.71355800  0.93333400  1
  Na  Na7  1  0.01327600  0.28644200  0.06666600  1
  Ti  Ti8  1  0.94525600  0.96068100  0.16138100  1
  Ti  Ti9  1  0.05474400  0.03931900  0.83861900  1
  Ti  Ti10  1  0.44525600  0.53931900  0.83861900  1
  Ti  Ti11  1  0.55474400  0.46068100  0.16138100  1
  H  H12  1  0.95187100  0.78575600  0.49481300  1
  H  H13  1  0.04812900  0.21424400  0.50518700  1
  H  H14  1  0.45187100  0.71424400  0.50518700  1
  H  H15  1  0.54812900  0.28575600  0.49481300  1
  H  H16  1  0.99174800  0.69458900  0.63362300  1
  H  H17  1  0.00825200  0.30541100  0.36637700  1
  H  H18  1  0.49174800  0.80541100  0.36637700  1
  H  H19  1  0.50825200  0.19458900  0.63362300  1
  O  O20  1  0.94074500  0.95955700  0.33613200  1
  O  O21  1  0.05925500  0.04044300  0.66386800  1
  O  O22  1  0.44074500  0.54044300  0.66386800  1
  O  O23  1  0.55925500  0.45955700  0.33613200  1
  O  O24  1  0.91808400  0.69691700  0.55167000  1
  O  O25  1  0.08191600  0.30308300  0.44833000  1
  O  O26  1  0.41808400  0.80308300  0.44833000  1
  O  O27  1  0.58191600  0.19691700  0.55167000  1
  O  O28  1  0.88398600  0.95341700  0.73835200  1
  O  O29  1  0.11601400  0.04658300  0.26164800  1
  O  O30  1  0.38398600  0.54658300  0.26164800  1
  O  O31  1  0.61601400  0.45341700  0.73835200  1
  F  F32  1  0.68744700  0.83804600  0.22143100  1
  F  F33  1  0.31255300  0.16195400  0.77856900  1
  F  F34  1  0.18744700  0.66195400  0.77856900  1
  F  F35  1  0.81255300  0.33804600  0.22143100  1
  F  F36  1  0.76993100  0.60590200  0.10574800  1
  F  F37  1  0.23006900  0.39409800  0.89425200  1
  F  F38  1  0.26993100  0.89409800  0.89425200  1
  F  F39  1  0.73006900  0.10590200  0.10574800  1
  F  F40  1  0.14289600  0.81605400  0.16899900  1
  F  F41  1  0.85710400  0.18394600  0.83100100  1
  F  F42  1  0.64289600  0.68394600  0.83100100  1
  F  F43  1  0.35710400  0.31605400  0.16899900  1
  F  F44  1  0.34634400  0.57717800  0.01792800  1
  F  F45  1  0.65365600  0.42282200  0.98207200  1
  F  F46  1  0.84634400  0.92282200  0.98207200  1
  F  F47  1  0.15365600  0.07717800  0.01792800  1
