# generated using pymatgen
data_IrAuN5Cl6
_symmetry_space_group_name_H-M   'P 1'
_cell_length_a   8.20751500
_cell_length_b   8.14707142
_cell_length_c   11.89761590
_cell_angle_alpha   109.15241742
_cell_angle_beta   90.00000000
_cell_angle_gamma   120.24572130
_symmetry_Int_Tables_number   1
_chemical_formula_structural   IrAuN5Cl6
_chemical_formula_sum   'Ir2 Au2 N10 Cl12'
_cell_volume   635.77113328
_cell_formula_units_Z   2
loop_
 _symmetry_equiv_pos_site_id
 _symmetry_equiv_pos_as_xyz
  1  'x, y, z'
loop_
 _atom_site_type_symbol
 _atom_site_label
 _atom_site_symmetry_multiplicity
 _atom_site_fract_x
 _atom_site_fract_y
 _atom_site_fract_z
 _atom_site_occupancy
  Ir  Ir0  1  0.73359600  0.46719200  0.24937300  1
  Ir  Ir1  1  0.26640400  0.53280800  0.75062700  1
  Au  Au2  1  0.50000000  0.00000000  0.50000000  1
  Au  Au3  1  0.00000000  0.00000000  0.00000000  1
  N  N4  1  0.29126500  0.26841000  0.76381000  1
  N  N5  1  0.70873500  0.73159000  0.23619000  1
  N  N6  1  0.02285500  0.73159000  0.23619000  1
  N  N7  1  0.97714500  0.26841000  0.76381000  1
  N  N8  1  0.31836200  0.63672400  0.91206900  1
  N  N9  1  0.68163800  0.36327600  0.08793100  1
  N  N10  1  0.49941100  0.66465000  0.71031400  1
  N  N11  1  0.50058900  0.33535000  0.28968600  1
  N  N12  1  0.83476100  0.33535000  0.28968600  1
  N  N13  1  0.16523900  0.66465000  0.71031400  1
  Cl  Cl14  1  0.71655200  0.00000000  0.00000000  1
  Cl  Cl15  1  0.28344800  0.00000000  0.00000000  1
  Cl  Cl16  1  0.49221600  0.98443200  0.69200800  1
  Cl  Cl17  1  0.50778400  0.01556800  0.30799200  1
  Cl  Cl18  1  0.82462000  0.64923900  0.89105500  1
  Cl  Cl19  1  0.17538000  0.35076100  0.10894500  1
  Cl  Cl20  1  0.67679500  0.35359000  0.58315900  1
  Cl  Cl21  1  0.32320500  0.64641000  0.41684100  1
  Cl  Cl22  1  0.07503100  0.15006300  0.76633700  1
  Cl  Cl23  1  0.92496900  0.84993700  0.23366300  1
  Cl  Cl24  1  0.85357800  0.70715600  0.46107800  1
  Cl  Cl25  1  0.14642200  0.29284500  0.53892200  1
