# generated using pymatgen
data_Ho4Al2O9
_symmetry_space_group_name_H-M   'P 1'
_cell_length_a   10.55088100
_cell_length_b   7.43200300
_cell_length_c   11.16038785
_cell_angle_alpha   71.26184628
_cell_angle_beta   90.00000000
_cell_angle_gamma   90.00000000
_symmetry_Int_Tables_number   1
_chemical_formula_structural   Ho4Al2O9
_chemical_formula_sum   'Ho16 Al8 O36'
_cell_volume   828.74761990
_cell_formula_units_Z   4
loop_
 _symmetry_equiv_pos_site_id
 _symmetry_equiv_pos_as_xyz
  1  'x, y, z'
loop_
 _atom_site_type_symbol
 _atom_site_label
 _atom_site_symmetry_multiplicity
 _atom_site_fract_x
 _atom_site_fract_y
 _atom_site_fract_z
 _atom_site_occupancy
  Ho  Ho0  1  0.59166000  0.47689900  0.30657700  1
  Ho  Ho1  1  0.40834000  0.52310100  0.69342300  1
  Ho  Ho2  1  0.09166000  0.52310100  0.19342300  1
  Ho  Ho3  1  0.90834000  0.47689900  0.80657700  1
  Ho  Ho4  1  0.60545600  0.97692200  0.28465300  1
  Ho  Ho5  1  0.39454400  0.02307800  0.71534700  1
  Ho  Ho6  1  0.10545600  0.02307800  0.21534700  1
  Ho  Ho7  1  0.89454400  0.97692200  0.78465300  1
  Ho  Ho8  1  0.37611400  0.83680800  0.06626800  1
  Ho  Ho9  1  0.62388600  0.16319200  0.93373200  1
  Ho  Ho10  1  0.87611400  0.16319200  0.43373200  1
  Ho  Ho11  1  0.12388600  0.83680800  0.56626800  1
  Ho  Ho12  1  0.87820200  0.66348300  0.41341900  1
  Ho  Ho13  1  0.12179800  0.33651700  0.58658100  1
  Ho  Ho14  1  0.37820200  0.33651700  0.08658100  1
  Ho  Ho15  1  0.62179800  0.66348300  0.91341900  1
  Al  Al16  1  0.81610100  0.84509300  0.11483500  1
  Al  Al17  1  0.18389900  0.15490700  0.88516500  1
  Al  Al18  1  0.31610100  0.15490700  0.38516500  1
  Al  Al19  1  0.68389900  0.84509300  0.61483500  1
  Al  Al20  1  0.81367000  0.28290300  0.12865400  1
  Al  Al21  1  0.18633000  0.71709700  0.87134700  1
  Al  Al22  1  0.31367000  0.71709700  0.37134700  1
  Al  Al23  1  0.68633000  0.28290300  0.62865300  1
  O  O24  1  0.73428900  0.42927300  0.47879500  1
  O  O25  1  0.26571100  0.57072700  0.52120500  1
  O  O26  1  0.23428900  0.57072700  0.02120500  1
  O  O27  1  0.76571100  0.42927300  0.97879500  1
  O  O28  1  0.72974500  0.86090900  0.46024200  1
  O  O29  1  0.27025500  0.13909100  0.53975800  1
  O  O30  1  0.22974500  0.13909100  0.03975800  1
  O  O31  1  0.77025500  0.86090900  0.96024200  1
  O  O32  1  0.97425300  0.80043200  0.16759300  1
  O  O33  1  0.02574700  0.19956800  0.83240700  1
  O  O34  1  0.47425300  0.19956800  0.33240700  1
  O  O35  1  0.52574700  0.80043200  0.66759300  1
  O  O36  1  0.50544100  0.57678800  0.10648000  1
  O  O37  1  0.49455900  0.42321200  0.89352000  1
  O  O38  1  0.00544100  0.42321200  0.39352000  1
  O  O39  1  0.99455900  0.57678800  0.60648000  1
  O  O40  1  0.72879400  0.71175000  0.24864200  1
  O  O41  1  0.27120600  0.28825000  0.75135800  1
  O  O42  1  0.22879400  0.28825000  0.25135800  1
  O  O43  1  0.77120600  0.71175000  0.74864200  1
  O  O44  1  0.73043300  0.26726100  0.27012700  1
  O  O45  1  0.26956700  0.73273900  0.72987300  1
  O  O46  1  0.23043300  0.73273900  0.22987300  1
  O  O47  1  0.76956700  0.26726100  0.77012700  1
  O  O48  1  0.25441400  0.93267600  0.38537800  1
  O  O49  1  0.74558600  0.06732400  0.61462200  1
  O  O50  1  0.75441400  0.06732400  0.11462200  1
  O  O51  1  0.24558600  0.93267600  0.88537800  1
  O  O52  1  0.47547200  0.71575200  0.33774200  1
  O  O53  1  0.52452800  0.28424800  0.66225800  1
  O  O54  1  0.97547200  0.28424800  0.16225800  1
  O  O55  1  0.02452800  0.71575200  0.83774200  1
  O  O56  1  0.99145100  0.93368700  0.39476200  1
  O  O57  1  0.00854900  0.06631300  0.60523800  1
  O  O58  1  0.49145100  0.06631300  0.10523800  1
  O  O59  1  0.50854900  0.93368700  0.89476200  1
