# generated using pymatgen
data_MnH12C4(N9O2)2
_symmetry_space_group_name_H-M   'P 1'
_cell_length_a   7.53429500
_cell_length_b   14.81595800
_cell_length_c   15.11636400
_cell_angle_alpha   90.00000000
_cell_angle_beta   90.00000000
_cell_angle_gamma   90.00000000
_symmetry_Int_Tables_number   1
_chemical_formula_structural   MnH12C4(N9O2)2
_chemical_formula_sum   'Mn4 H48 C16 N72 O16'
_cell_volume   1687.40643131
_cell_formula_units_Z   4
loop_
 _symmetry_equiv_pos_site_id
 _symmetry_equiv_pos_as_xyz
  1  'x, y, z'
loop_
 _atom_site_type_symbol
 _atom_site_label
 _atom_site_symmetry_multiplicity
 _atom_site_fract_x
 _atom_site_fract_y
 _atom_site_fract_z
 _atom_site_occupancy
  Mn  Mn0  1  0.00000000  0.50000000  0.50000000  1
  Mn  Mn1  1  0.50000000  0.00000000  0.50000000  1
  Mn  Mn2  1  0.00000000  0.00000000  0.00000000  1
  Mn  Mn3  1  0.50000000  0.50000000  0.00000000  1
  H  H4  1  0.16106400  0.67197200  0.74917500  1
  H  H5  1  0.83893600  0.32802800  0.25082500  1
  H  H6  1  0.33893600  0.17197200  0.25082500  1
  H  H7  1  0.83893600  0.82802800  0.24917500  1
  H  H8  1  0.66106400  0.82802800  0.74917500  1
  H  H9  1  0.16106400  0.17197200  0.75082500  1
  H  H10  1  0.66106400  0.32802800  0.75082500  1
  H  H11  1  0.33893600  0.67197200  0.24917500  1
  H  H12  1  0.06778300  0.82306900  0.66604600  1
  H  H13  1  0.93221700  0.17693100  0.33395400  1
  H  H14  1  0.43221700  0.32306900  0.33395400  1
  H  H15  1  0.93221700  0.67693100  0.16604600  1
  H  H16  1  0.56778300  0.67693100  0.66604600  1
  H  H17  1  0.06778300  0.32306900  0.83395400  1
  H  H18  1  0.56778300  0.17693100  0.83395400  1
  H  H19  1  0.43221700  0.82306900  0.16604600  1
  H  H20  1  0.23106300  0.76972200  0.86492400  1
  H  H21  1  0.76893700  0.23027800  0.13507600  1
  H  H22  1  0.26893700  0.26972200  0.13507600  1
  H  H23  1  0.76893700  0.73027800  0.36492400  1
  H  H24  1  0.73106300  0.73027800  0.86492400  1
  H  H25  1  0.23106300  0.26972200  0.63507600  1
  H  H26  1  0.73106300  0.23027800  0.63507600  1
  H  H27  1  0.26893700  0.76972200  0.36492400  1
  H  H28  1  0.38362700  0.69784100  0.84546000  1
  H  H29  1  0.61637300  0.30215900  0.15454000  1
  H  H30  1  0.11637300  0.19784100  0.15454000  1
  H  H31  1  0.61637300  0.80215900  0.34546000  1
  H  H32  1  0.88362700  0.80215900  0.84546000  1
  H  H33  1  0.38362700  0.19784100  0.65454000  1
  H  H34  1  0.88362700  0.30215900  0.65454000  1
  H  H35  1  0.11637300  0.69784100  0.34546000  1
  H  H36  1  0.14325000  0.57468600  0.98765700  1
  H  H37  1  0.85675000  0.42531400  0.01234300  1
  H  H38  1  0.35675000  0.07468600  0.01234300  1
  H  H39  1  0.85675000  0.92531400  0.48765700  1
  H  H40  1  0.64325000  0.92531400  0.98765700  1
  H  H41  1  0.14325000  0.07468600  0.51234300  1
  H  H42  1  0.64325000  0.42531400  0.51234300  1
  H  H43  1  0.35675000  0.57468600  0.48765700  1
  H  H44  1  0.17969500  0.52253400  0.89735100  1
  H  H45  1  0.82030500  0.47746600  0.10264900  1
  H  H46  1  0.32030500  0.02253400  0.10264900  1
  H  H47  1  0.82030500  0.97746600  0.39735100  1
  H  H48  1  0.67969500  0.97746600  0.89735100  1
  H  H49  1  0.17969500  0.02253400  0.60264900  1
  H  H50  1  0.67969500  0.47746600  0.60264900  1
  H  H51  1  0.32030500  0.52253400  0.39735100  1
  C  C52  1  0.09971000  0.54188700  0.70596800  1
  C  C53  1  0.90029000  0.45811300  0.29403200  1
  C  C54  1  0.40029000  0.04188700  0.29403200  1
  C  C55  1  0.90029000  0.95811300  0.20596800  1
  C  C56  1  0.59971000  0.95811300  0.70596800  1
  C  C57  1  0.09971000  0.04188700  0.79403200  1
  C  C58  1  0.59971000  0.45811300  0.79403200  1
  C  C59  1  0.40029000  0.54188700  0.20596800  1
  C  C60  1  0.04381100  0.67975500  0.62522100  1
  C  C61  1  0.95618900  0.32024500  0.37477900  1
  C  C62  1  0.45618900  0.17975500  0.37477900  1
  C  C63  1  0.95618900  0.82024500  0.12522100  1
  C  C64  1  0.54381100  0.82024500  0.62522100  1
  C  C65  1  0.04381100  0.17975500  0.87477900  1
  C  C66  1  0.54381100  0.32024500  0.87477900  1
  C  C67  1  0.45618900  0.67975500  0.12522100  1
  N  N68  1  0.48140400  0.85427300  0.54883800  1
  N  N69  1  0.51859600  0.14572700  0.45116200  1
  N  N70  1  0.01859600  0.35427300  0.45116200  1
  N  N71  1  0.51859600  0.64572700  0.04883800  1
  N  N72  1  0.98140400  0.64572700  0.54883800  1
  N  N73  1  0.48140400  0.35427300  0.95116200  1
  N  N74  1  0.98140400  0.14572700  0.95116200  1
  N  N75  1  0.01859600  0.85427300  0.04883800  1
  N  N76  1  0.06848500  0.78204100  0.99893700  1
  N  N77  1  0.93151500  0.21795900  0.00106300  1
  N  N78  1  0.43151500  0.28204100  0.00106300  1
  N  N79  1  0.93151500  0.71795900  0.49893700  1
  N  N80  1  0.56848500  0.71795900  0.99893700  1
  N  N81  1  0.06848500  0.28204100  0.50106300  1
  N  N82  1  0.56848500  0.21795900  0.50106300  1
  N  N83  1  0.43151500  0.78204100  0.49893700  1
  N  N84  1  0.06774800  0.90048300  0.81847000  1
  N  N85  1  0.93225200  0.09951700  0.18153000  1
  N  N86  1  0.43225200  0.40048300  0.18153000  1
  N  N87  1  0.93225200  0.59951700  0.31847000  1
  N  N88  1  0.56774800  0.59951700  0.81847000  1
  N  N89  1  0.06774800  0.40048300  0.68153000  1
  N  N90  1  0.56774800  0.09951700  0.68153000  1
  N  N91  1  0.43225200  0.90048300  0.31847000  1
  N  N92  1  0.03302800  0.77067700  0.62021400  1
  N  N93  1  0.96697200  0.22932300  0.37978600  1
  N  N94  1  0.46697200  0.27067700  0.37978600  1
  N  N95  1  0.96697200  0.72932300  0.12021400  1
  N  N96  1  0.53302800  0.72932300  0.62021400  1
  N  N97  1  0.03302800  0.27067700  0.87978600  1
  N  N98  1  0.53302800  0.22932300  0.87978600  1
  N  N99  1  0.46697200  0.77067700  0.12021400  1
  N  N100  1  0.06785900  0.98161400  0.85879000  1
  N  N101  1  0.93214100  0.01838600  0.14121000  1
  N  N102  1  0.43214100  0.48161400  0.14121000  1
  N  N103  1  0.93214100  0.51838600  0.35879000  1
  N  N104  1  0.56785900  0.51838600  0.85879000  1
  N  N105  1  0.06785900  0.48161400  0.64121000  1
  N  N106  1  0.56785900  0.01838600  0.64121000  1
  N  N107  1  0.43214100  0.98161400  0.35879000  1
  N  N108  1  0.10110200  0.91217000  0.73429300  1
  N  N109  1  0.89889800  0.08783000  0.26570700  1
  N  N110  1  0.39889800  0.41217000  0.26570700  1
  N  N111  1  0.89889800  0.58783000  0.23429300  1
  N  N112  1  0.60110200  0.58783000  0.73429300  1
  N  N113  1  0.10110200  0.41217000  0.76570700  1
  N  N114  1  0.60110200  0.08783000  0.76570700  1
  N  N115  1  0.39889800  0.91217000  0.23429300  1
  N  N116  1  0.46198100  0.70741100  0.54073800  1
  N  N117  1  0.53801900  0.29258900  0.45926200  1
  N  N118  1  0.03801900  0.20741100  0.45926200  1
  N  N119  1  0.53801900  0.79258900  0.04073800  1
  N  N120  1  0.96198100  0.79258900  0.54073800  1
  N  N121  1  0.46198100  0.20741100  0.95926200  1
  N  N122  1  0.96198100  0.29258900  0.95926200  1
  N  N123  1  0.03801900  0.70741100  0.04073800  1
  N  N124  1  0.12215600  0.50035200  0.78430500  1
  N  N125  1  0.87784400  0.49964800  0.21569500  1
  N  N126  1  0.37784400  0.00035200  0.21569500  1
  N  N127  1  0.87784400  0.99964800  0.28430500  1
  N  N128  1  0.62215600  0.99964800  0.78430500  1
  N  N129  1  0.12215600  0.00035200  0.71569500  1
  N  N130  1  0.62215600  0.49964800  0.71569500  1
  N  N131  1  0.37784400  0.50035200  0.28430500  1
  N  N132  1  0.10614300  0.63437800  0.69670500  1
  N  N133  1  0.89385700  0.36562200  0.30329500  1
  N  N134  1  0.39385700  0.13437800  0.30329500  1
  N  N135  1  0.89385700  0.86562200  0.19670500  1
  N  N136  1  0.60614300  0.86562200  0.69670500  1
  N  N137  1  0.10614300  0.13437800  0.80329500  1
  N  N138  1  0.60614300  0.36562200  0.80329500  1
  N  N139  1  0.39385700  0.63437800  0.19670500  1
  O  O140  1  0.21576100  0.52703600  0.96102000  1
  O  O141  1  0.78423900  0.47296400  0.03898000  1
  O  O142  1  0.28423900  0.02703600  0.03898000  1
  O  O143  1  0.78423900  0.97296400  0.46102000  1
  O  O144  1  0.71576100  0.97296400  0.96102000  1
  O  O145  1  0.21576100  0.02703600  0.53898000  1
  O  O146  1  0.71576100  0.47296400  0.53898000  1
  O  O147  1  0.28423900  0.52703600  0.46102000  1
  O  O148  1  0.28717400  0.73321400  0.81871700  1
  O  O149  1  0.71282600  0.26678600  0.18128300  1
  O  O150  1  0.21282600  0.23321400  0.18128300  1
  O  O151  1  0.71282600  0.76678600  0.31871700  1
  O  O152  1  0.78717400  0.76678600  0.81871700  1
  O  O153  1  0.28717400  0.23321400  0.68128300  1
  O  O154  1  0.78717400  0.26678600  0.68128300  1
  O  O155  1  0.21282600  0.73321400  0.31871700  1
