# generated using pymatgen
data_Ho2Cu(SiO3)4
_symmetry_space_group_name_H-M   'P 1'
_cell_length_a   4.81478200
_cell_length_b   7.08552335
_cell_length_c   7.82228307
_cell_angle_alpha   114.55231343
_cell_angle_beta   86.43500877
_cell_angle_gamma   102.94657709
_symmetry_Int_Tables_number   1
_chemical_formula_structural   Ho2Cu(SiO3)4
_chemical_formula_sum   'Ho2 Cu1 Si4 O12'
_cell_volume   236.41609519
_cell_formula_units_Z   1
loop_
 _symmetry_equiv_pos_site_id
 _symmetry_equiv_pos_as_xyz
  1  'x, y, z'
loop_
 _atom_site_type_symbol
 _atom_site_label
 _atom_site_symmetry_multiplicity
 _atom_site_fract_x
 _atom_site_fract_y
 _atom_site_fract_z
 _atom_site_occupancy
  Ho  Ho0  1  0.96332400  0.77231700  0.55063300  1
  Ho  Ho1  1  0.03667600  0.22768300  0.44936700  1
  Cu  Cu2  1  0.00000000  0.00000000  0.00000000  1
  Si  Si3  1  0.42494100  0.61126500  0.79612800  1
  Si  Si4  1  0.57505900  0.38873500  0.20387200  1
  Si  Si5  1  0.54518900  0.17751400  0.78566500  1
  Si  Si6  1  0.45481100  0.82248600  0.21433500  1
  O  O7  1  0.73449000  0.76488800  0.80378600  1
  O  O8  1  0.26551000  0.23511200  0.19621400  1
  O  O9  1  0.71190300  0.29826600  0.99420600  1
  O  O10  1  0.28809700  0.70173400  0.00579400  1
  O  O11  1  0.78037500  0.42363700  0.37641000  1
  O  O12  1  0.21962500  0.57636300  0.62359000  1
  O  O13  1  0.74196200  0.99047800  0.20585400  1
  O  O14  1  0.25803800  0.00952200  0.79414600  1
  O  O15  1  0.44216000  0.35835700  0.73496500  1
  O  O16  1  0.55784000  0.64164300  0.26503500  1
  O  O17  1  0.76606800  0.07320500  0.62536000  1
  O  O18  1  0.23393200  0.92679500  0.37464000  1
