# generated using pymatgen
data_K2VAgS2
_symmetry_space_group_name_H-M   'P 1'
_cell_length_a   11.89891900
_cell_length_b   7.48540610
_cell_length_c   13.41726407
_cell_angle_alpha   69.36384647
_cell_angle_beta   63.67782041
_cell_angle_gamma   37.36289626
_symmetry_Int_Tables_number   1
_chemical_formula_structural   K2VAgS2
_chemical_formula_sum   'K8 V4 Ag4 S8'
_cell_volume   650.03516229
_cell_formula_units_Z   4
loop_
 _symmetry_equiv_pos_site_id
 _symmetry_equiv_pos_as_xyz
  1  'x, y, z'
loop_
 _atom_site_type_symbol
 _atom_site_label
 _atom_site_symmetry_multiplicity
 _atom_site_fract_x
 _atom_site_fract_y
 _atom_site_fract_z
 _atom_site_occupancy
  K  K0  1  0.74779300  0.17364000  0.55276500  1
  K  K1  1  0.69944200  0.82636000  0.55276500  1
  K  K2  1  0.07856700  0.17364000  0.44723500  1
  K  K3  1  0.00220700  0.32636000  0.94723500  1
  K  K4  1  0.47419800  0.82636000  0.44723500  1
  K  K5  1  0.05055800  0.67364000  0.94723500  1
  K  K6  1  0.67143300  0.32636000  0.05276500  1
  K  K7  1  0.27580200  0.67364000  0.05276500  1
  V  V8  1  0.87500000  0.25000000  0.25000000  1
  V  V9  1  0.87500000  0.75000000  0.25000000  1
  V  V10  1  0.87500000  0.25000000  0.75000000  1
  V  V11  1  0.37500000  0.75000000  0.75000000  1
  Ag  Ag12  1  0.37500000  0.25000000  0.25000000  1
  Ag  Ag13  1  0.37500000  0.75000000  0.25000000  1
  Ag  Ag14  1  0.37500000  0.25000000  0.75000000  1
  Ag  Ag15  1  0.87500000  0.75000000  0.75000000  1
  S  S16  1  0.12274200  0.21498900  0.17658000  1
  S  S17  1  0.70067800  0.78501100  0.17658000  1
  S  S18  1  0.66226900  0.21498900  0.82342000  1
  S  S19  1  0.62725800  0.28501100  0.32342000  1
  S  S20  1  0.51431100  0.78501100  0.82342000  1
  S  S21  1  0.04932200  0.71498900  0.32342000  1
  S  S22  1  0.08773100  0.28501100  0.67658000  1
  S  S23  1  0.23568900  0.71498900  0.67658000  1
