# generated using pymatgen
data_MnAl2P2(H5O4)4
_symmetry_space_group_name_H-M   'P 1'
_cell_length_a   7.08430107
_cell_length_b   10.39984937
_cell_length_c   10.66599959
_cell_angle_alpha   108.21246724
_cell_angle_beta   90.15989215
_cell_angle_gamma   109.86684417
_symmetry_Int_Tables_number   1
_chemical_formula_structural   MnAl2P2(H5O4)4
_chemical_formula_sum   'Mn2 Al4 P4 H40 O32'
_cell_volume   696.78720775
_cell_formula_units_Z   2
loop_
 _symmetry_equiv_pos_site_id
 _symmetry_equiv_pos_as_xyz
  1  'x, y, z'
loop_
 _atom_site_type_symbol
 _atom_site_label
 _atom_site_symmetry_multiplicity
 _atom_site_fract_x
 _atom_site_fract_y
 _atom_site_fract_z
 _atom_site_occupancy
  Mn  Mn0  1  0.62811400  0.77813000  0.51069700  1
  Mn  Mn1  1  0.37188600  0.22187000  0.48930300  1
  Al  Al2  1  0.74012700  0.75027800  0.00205000  1
  Al  Al3  1  0.25987300  0.24972200  0.99795000  1
  Al  Al4  1  0.00000000  0.50000000  0.00000000  1
  Al  Al5  1  0.50000000  0.00000000  0.00000000  1
  P  P6  1  0.43418400  0.59065400  0.18106000  1
  P  P7  1  0.56581600  0.40934600  0.81894000  1
  P  P8  1  0.86330400  0.95424700  0.82574400  1
  P  P9  1  0.13669600  0.04575300  0.17425600  1
  H  H10  1  0.28218600  0.81524300  0.48457000  1
  H  H11  1  0.71781400  0.18475700  0.51543000  1
  H  H12  1  0.78688300  0.04616300  0.15536900  1
  H  H13  1  0.21311700  0.95383700  0.84463100  1
  H  H14  1  0.02065000  0.32341600  0.28511300  1
  H  H15  1  0.97935000  0.67658400  0.71488700  1
  H  H16  1  0.87794500  0.61400600  0.38418300  1
  H  H17  1  0.12205500  0.38599400  0.61581700  1
  H  H18  1  0.83245700  0.37535200  0.15773400  1
  H  H19  1  0.16754300  0.62464800  0.84226600  1
  H  H20  1  0.40136800  0.54951500  0.60276200  1
  H  H21  1  0.59863200  0.45048500  0.39723800  1
  H  H22  1  0.15119500  0.89122200  0.35038300  1
  H  H23  1  0.84880500  0.10877800  0.64961700  1
  H  H24  1  0.42669200  0.78446400  0.05627600  1
  H  H25  1  0.57330800  0.21553600  0.94372400  1
  H  H26  1  0.90440300  0.97056800  0.37099000  1
  H  H27  1  0.09559700  0.02943200  0.62901000  1
  H  H28  1  0.07686600  0.76055900  0.05661500  1
  H  H29  1  0.92313400  0.23944200  0.94338500  1
  H  H30  1  0.57294600  0.66536000  0.71875900  1
  H  H31  1  0.42705400  0.33464000  0.28124100  1
  H  H32  1  0.35021900  0.87555100  0.75228300  1
  H  H33  1  0.64978100  0.12444900  0.24771700  1
  H  H34  1  0.68492600  0.45178900  0.13131800  1
  H  H35  1  0.31507400  0.54821100  0.86868200  1
  H  H36  1  0.14968100  0.61531400  0.38220300  1
  H  H37  1  0.85031900  0.38468600  0.61779700  1
  H  H38  1  0.10553300  0.36093200  0.46221900  1
  H  H39  1  0.89446700  0.63906800  0.53778100  1
  H  H40  1  0.10755400  0.81174900  0.34161700  1
  H  H41  1  0.89244600  0.18825100  0.65838300  1
  H  H42  1  0.10709800  0.64201200  0.33507600  1
  H  H43  1  0.89290200  0.35798800  0.66492400  1
  H  H44  1  0.00260700  0.39009300  0.32884000  1
  H  H45  1  0.99739300  0.60990700  0.67116000  1
  H  H46  1  0.35836800  0.96979500  0.58930900  1
  H  H47  1  0.64163200  0.03020500  0.41069100  1
  H  H48  1  0.71574600  0.83311200  0.28488200  1
  H  H49  1  0.28425400  0.16688800  0.71511800  1
  O  O50  1  0.84747000  0.92048600  0.67263700  1
  O  O51  1  0.15253000  0.07951400  0.32736300  1
  O  O52  1  0.38361500  0.87584100  0.56201300  1
  O  O53  1  0.61638500  0.12415900  0.43798700  1
  O  O54  1  0.48481800  0.65337200  0.64105400  1
  O  O55  1  0.51518200  0.34662800  0.35894600  1
  O  O56  1  0.91389700  0.94105000  0.12013300  1
  O  O57  1  0.08610300  0.05895000  0.87986700  1
  O  O58  1  0.95447100  0.67508200  0.01564400  1
  O  O59  1  0.04552900  0.32491800  0.98435600  1
  O  O60  1  0.63071100  0.70052300  0.15362600  1
  O  O61  1  0.36928900  0.29947700  0.84637400  1
  O  O62  1  0.83271100  0.46610100  0.14833600  1
  O  O63  1  0.16728900  0.53389900  0.85166400  1
  O  O64  1  0.28278000  0.96934000  0.10869900  1
  O  O65  1  0.71722000  0.03066000  0.89130100  1
  O  O66  1  0.52483800  0.82626300  0.00249000  1
  O  O67  1  0.47516200  0.17373700  0.99751000  1
  O  O68  1  0.17847800  0.19073100  0.14758900  1
  O  O69  1  0.82152200  0.80926900  0.85241100  1
  O  O70  1  0.24454100  0.60459900  0.12117000  1
  O  O71  1  0.75545900  0.39540100  0.87883000  1
  O  O72  1  0.76334700  0.91117200  0.37719900  1
  O  O73  1  0.23665300  0.08882800  0.62280100  1
  O  O74  1  0.44776600  0.62732300  0.33252800  1
  O  O75  1  0.55223400  0.37267700  0.66747200  1
  O  O76  1  0.69970100  0.10742500  0.16037100  1
  O  O77  1  0.30029900  0.89257500  0.83962900  1
  O  O78  1  0.43769800  0.43452000  0.11572600  1
  O  O79  1  0.56230200  0.56548000  0.88427400  1
  O  O80  1  0.19792000  0.37709300  0.53901600  1
  O  O81  1  0.80208000  0.62290700  0.46098400  1
