# generated using pymatgen
data_Na2ZrCd(CO3)8
_symmetry_space_group_name_H-M   'P 1'
_cell_length_a   8.33566196
_cell_length_b   8.33566196
_cell_length_c   25.94349400
_cell_angle_alpha   90.00000000
_cell_angle_beta   90.00000000
_cell_angle_gamma   119.99999966
_symmetry_Int_Tables_number   1
_chemical_formula_structural   Na2ZrCd(CO3)8
_chemical_formula_sum   'Na6 Zr3 Cd3 C24 O72'
_cell_volume   1561.13077984
_cell_formula_units_Z   3
loop_
 _symmetry_equiv_pos_site_id
 _symmetry_equiv_pos_as_xyz
  1  'x, y, z'
loop_
 _atom_site_type_symbol
 _atom_site_label
 _atom_site_symmetry_multiplicity
 _atom_site_fract_x
 _atom_site_fract_y
 _atom_site_fract_z
 _atom_site_occupancy
  Na  Na0  1  0.00000000  0.00000000  0.00000000  1
  Na  Na1  1  0.00000000  0.00000000  0.66666700  1
  Na  Na2  1  0.00000000  0.00000000  0.33333300  1
  Na  Na3  1  0.00000000  0.00000000  0.50000000  1
  Na  Na4  1  0.00000000  0.00000000  0.16666700  1
  Na  Na5  1  0.00000000  0.00000000  0.83333300  1
  Zr  Zr6  1  0.50000000  0.00000000  0.00000000  1
  Zr  Zr7  1  0.00000000  0.50000000  0.66666700  1
  Zr  Zr8  1  0.50000000  0.50000000  0.33333300  1
  Cd  Cd9  1  0.50000000  0.00000000  0.50000000  1
  Cd  Cd10  1  0.00000000  0.50000000  0.16666700  1
  Cd  Cd11  1  0.50000000  0.50000000  0.83333300  1
  C  C12  1  0.19934100  0.39668900  0.74796900  1
  C  C13  1  0.60331100  0.80265200  0.41463500  1
  C  C14  1  0.80065900  0.60331100  0.74796900  1
  C  C15  1  0.39668900  0.19934100  0.91869800  1
  C  C16  1  0.19734800  0.80065900  0.08130200  1
  C  C17  1  0.39668900  0.19734800  0.41463500  1
  C  C18  1  0.80265200  0.60331100  0.25203100  1
  C  C19  1  0.60331100  0.80065900  0.91869800  1
  C  C20  1  0.80265200  0.19934100  0.08130200  1
  C  C21  1  0.19734800  0.39668900  0.25203100  1
  C  C22  1  0.80065900  0.19734800  0.58536500  1
  C  C23  1  0.19934100  0.80265200  0.58536500  1
  C  C24  1  0.29970900  0.61232400  0.74960400  1
  C  C25  1  0.38767600  0.68738500  0.41627000  1
  C  C26  1  0.70029100  0.38767600  0.74960400  1
  C  C27  1  0.61232400  0.29970900  0.91706300  1
  C  C28  1  0.31261500  0.70029100  0.08293700  1
  C  C29  1  0.61232400  0.31261500  0.41627000  1
  C  C30  1  0.68738500  0.38767600  0.25039600  1
  C  C31  1  0.38767600  0.70029100  0.91706300  1
  C  C32  1  0.68738500  0.29970900  0.08293700  1
  C  C33  1  0.31261500  0.61232400  0.25039600  1
  C  C34  1  0.70029100  0.31261500  0.58373000  1
  C  C35  1  0.29970900  0.68738500  0.58373000  1
  O  O36  1  0.16707500  0.15783900  0.58215900  1
  O  O37  1  0.84216100  0.00923600  0.24882500  1
  O  O38  1  0.83292500  0.84216100  0.58215900  1
  O  O39  1  0.15783900  0.16707500  0.08450800  1
  O  O40  1  0.99076400  0.83292500  0.91549200  1
  O  O41  1  0.15783900  0.99076400  0.24882500  1
  O  O42  1  0.00923600  0.84216100  0.41784100  1
  O  O43  1  0.84216100  0.83292500  0.08450800  1
  O  O44  1  0.00923600  0.16707500  0.91549200  1
  O  O45  1  0.99076400  0.15783900  0.41784100  1
  O  O46  1  0.83292500  0.99076400  0.75117500  1
  O  O47  1  0.16707500  0.00923600  0.75117500  1
  O  O48  1  0.50000000  0.00000000  0.67997200  1
  O  O49  1  0.00000000  0.50000000  0.34663900  1
  O  O50  1  0.00000000  0.50000000  0.98669500  1
  O  O51  1  0.50000000  0.50000000  0.01330500  1
  O  O52  1  0.50000000  0.00000000  0.32002800  1
  O  O53  1  0.50000000  0.50000000  0.65336100  1
  O  O54  1  0.56890500  0.26629200  0.55340900  1
  O  O55  1  0.73370800  0.30261300  0.22007600  1
  O  O56  1  0.43109500  0.73370800  0.55340900  1
  O  O57  1  0.26629200  0.56890500  0.11325700  1
  O  O58  1  0.69738700  0.43109500  0.88674300  1
  O  O59  1  0.26629200  0.69738700  0.22007600  1
  O  O60  1  0.30261300  0.73370800  0.44659100  1
  O  O61  1  0.73370800  0.43109500  0.11325700  1
  O  O62  1  0.30261300  0.56890500  0.88674300  1
  O  O63  1  0.69738700  0.26629200  0.44659100  1
  O  O64  1  0.43109500  0.69738700  0.77992400  1
  O  O65  1  0.56890500  0.30261300  0.77992400  1
  O  O66  1  0.23102300  0.55064600  0.61505600  1
  O  O67  1  0.44935400  0.68037700  0.28172300  1
  O  O68  1  0.76897700  0.44935400  0.61505600  1
  O  O69  1  0.55064600  0.23102300  0.05161100  1
  O  O70  1  0.31962300  0.76897700  0.94838900  1
  O  O71  1  0.55064600  0.31962300  0.28172300  1
  O  O72  1  0.68037700  0.44935400  0.38494400  1
  O  O73  1  0.44935400  0.76897700  0.05161100  1
  O  O74  1  0.68037700  0.23102300  0.94838900  1
  O  O75  1  0.31962300  0.55064600  0.38494400  1
  O  O76  1  0.76897700  0.31962300  0.71827700  1
  O  O77  1  0.23102300  0.68037700  0.71827700  1
  O  O78  1  0.50000000  0.00000000  0.81736900  1
  O  O79  1  0.00000000  0.50000000  0.48403500  1
  O  O80  1  0.00000000  0.50000000  0.84929800  1
  O  O81  1  0.50000000  0.50000000  0.15070200  1
  O  O82  1  0.50000000  0.00000000  0.18263100  1
  O  O83  1  0.50000000  0.50000000  0.51596500  1
  O  O84  1  0.09042400  0.32472900  0.70960000  1
  O  O85  1  0.67527100  0.76569500  0.37626700  1
  O  O86  1  0.90957600  0.67527100  0.70960000  1
  O  O87  1  0.32472900  0.09042400  0.95706600  1
  O  O88  1  0.23430500  0.90957600  0.04293400  1
  O  O89  1  0.32472900  0.23430500  0.37626700  1
  O  O90  1  0.76569500  0.67527100  0.29040000  1
  O  O91  1  0.67527100  0.90957600  0.95706600  1
  O  O92  1  0.76569500  0.09042400  0.04293400  1
  O  O93  1  0.23430500  0.32472900  0.29040000  1
  O  O94  1  0.90957600  0.23430500  0.62373300  1
  O  O95  1  0.09042400  0.76569500  0.62373300  1
  O  O96  1  0.22743500  0.31087200  0.78290400  1
  O  O97  1  0.68912800  0.91656300  0.44957100  1
  O  O98  1  0.77256500  0.68912800  0.78290400  1
  O  O99  1  0.31087200  0.22743500  0.88376300  1
  O  O100  1  0.08343700  0.77256500  0.11623700  1
  O  O101  1  0.31087200  0.08343700  0.44957100  1
  O  O102  1  0.91656300  0.68912800  0.21709600  1
  O  O103  1  0.68912800  0.77256500  0.88376300  1
  O  O104  1  0.91656300  0.22743500  0.11623700  1
  O  O105  1  0.08343700  0.31087200  0.21709600  1
  O  O106  1  0.77256500  0.08343700  0.55042900  1
  O  O107  1  0.22743500  0.91656300  0.55042900  1
