# generated using pymatgen
data_KAl3(P2O9)4
_symmetry_space_group_name_H-M   'P 1'
_cell_length_a   9.75405693
_cell_length_b   9.75405693
_cell_length_c   17.21070291
_cell_angle_alpha   89.17744725
_cell_angle_beta   89.17744725
_cell_angle_gamma   58.59150918
_symmetry_Int_Tables_number   1
_chemical_formula_structural   KAl3(P2O9)4
_chemical_formula_sum   'K2 Al6 P16 O72'
_cell_volume   1397.33460015
_cell_formula_units_Z   2
loop_
 _symmetry_equiv_pos_site_id
 _symmetry_equiv_pos_as_xyz
  1  'x, y, z'
loop_
 _atom_site_type_symbol
 _atom_site_label
 _atom_site_symmetry_multiplicity
 _atom_site_fract_x
 _atom_site_fract_y
 _atom_site_fract_z
 _atom_site_occupancy
  K  K0  1  0.24140100  0.75859900  0.25000000  1
  K  K1  1  0.75859900  0.24140100  0.75000000  1
  Al  Al2  1  0.23633000  0.18976600  0.25979500  1
  Al  Al3  1  0.76367000  0.81023400  0.74020500  1
  Al  Al4  1  0.81023400  0.76367000  0.24020500  1
  Al  Al5  1  0.18976600  0.23633000  0.75979500  1
  Al  Al6  1  0.65917100  0.34082900  0.25000000  1
  Al  Al7  1  0.34082900  0.65917100  0.75000000  1
  P  P8  1  0.87384800  0.01377300  0.14073400  1
  P  P9  1  0.12615200  0.98622700  0.85926600  1
  P  P10  1  0.98622700  0.12615200  0.35926600  1
  P  P11  1  0.01377300  0.87384800  0.64073400  1
  P  P12  1  0.61120500  0.63571300  0.35528500  1
  P  P13  1  0.38879500  0.36428700  0.64471500  1
  P  P14  1  0.36428700  0.38879500  0.14471500  1
  P  P15  1  0.63571300  0.61120500  0.85528500  1
  P  P16  1  0.46821600  0.89064500  0.14570200  1
  P  P17  1  0.53178400  0.10935500  0.85429800  1
  P  P18  1  0.10935500  0.53178400  0.35429800  1
  P  P19  1  0.89064500  0.46821600  0.64570200  1
  P  P20  1  0.58070400  0.09077500  0.34352100  1
  P  P21  1  0.41929600  0.90922500  0.65647900  1
  P  P22  1  0.90922500  0.41929600  0.15647900  1
  P  P23  1  0.09077500  0.58070400  0.84352100  1
  O  O24  1  0.27897500  0.14515800  0.51382900  1
  O  O25  1  0.72102500  0.85484200  0.48617100  1
  O  O26  1  0.85484200  0.72102500  0.98617100  1
  O  O27  1  0.14515800  0.27897500  0.01382900  1
  O  O28  1  0.32581700  0.27576800  0.18942000  1
  O  O29  1  0.67418300  0.72423200  0.81058000  1
  O  O30  1  0.72423200  0.67418300  0.31058000  1
  O  O31  1  0.27576800  0.32581700  0.68942000  1
  O  O32  1  0.57883400  0.24437000  0.31994600  1
  O  O33  1  0.42116600  0.75563000  0.68005400  1
  O  O34  1  0.75563000  0.42116600  0.18005400  1
  O  O35  1  0.24437000  0.57883400  0.81994600  1
  O  O36  1  0.44232600  0.30900800  0.06477900  1
  O  O37  1  0.55767400  0.69099200  0.93522100  1
  O  O38  1  0.69099200  0.55767400  0.43522100  1
  O  O39  1  0.30900800  0.44232600  0.56477900  1
  O  O40  1  0.14096900  0.10176100  0.32254600  1
  O  O41  1  0.85903100  0.89823900  0.67745400  1
  O  O42  1  0.89823900  0.85903100  0.17745400  1
  O  O43  1  0.10176100  0.14096900  0.82254600  1
  O  O44  1  0.62879000  0.85733500  0.17607300  1
  O  O45  1  0.37121000  0.14266500  0.82392700  1
  O  O46  1  0.14266500  0.37121000  0.32392700  1
  O  O47  1  0.85733500  0.62879000  0.67607300  1
  O  O48  1  0.82422700  0.02058000  0.05347600  1
  O  O49  1  0.17577300  0.97942000  0.94652400  1
  O  O50  1  0.97942000  0.17577300  0.44652400  1
  O  O51  1  0.02058000  0.82422700  0.55347600  1
  O  O52  1  0.42927200  0.96871100  0.06329000  1
  O  O53  1  0.57072800  0.03128900  0.93671000  1
  O  O54  1  0.03128900  0.57072800  0.43671000  1
  O  O55  1  0.96871100  0.42927200  0.56329000  1
  O  O56  1  0.60074500  0.07405200  0.43478100  1
  O  O57  1  0.39925500  0.92594800  0.56521900  1
  O  O58  1  0.92594800  0.39925500  0.06521900  1
  O  O59  1  0.07405200  0.60074500  0.93478100  1
  O  O60  1  0.41979200  0.10775000  0.32333200  1
  O  O61  1  0.58020800  0.89225000  0.67666800  1
  O  O62  1  0.89225000  0.58020800  0.17666800  1
  O  O63  1  0.10775000  0.41979200  0.82333200  1
  O  O64  1  0.46635000  0.43033800  0.19442900  1
  O  O65  1  0.53365000  0.56966200  0.80557100  1
  O  O66  1  0.56966200  0.53365000  0.30557100  1
  O  O67  1  0.43033800  0.46635000  0.69442900  1
  O  O68  1  0.67028700  0.26569700  0.01682300  1
  O  O69  1  0.32971300  0.73430200  0.98317700  1
  O  O70  1  0.73430200  0.32971300  0.48317700  1
  O  O71  1  0.26569700  0.67028700  0.51682300  1
  O  O72  1  0.33485500  0.99646200  0.20419000  1
  O  O73  1  0.66514500  0.00353800  0.79581000  1
  O  O74  1  0.00353800  0.66514500  0.29581000  1
  O  O75  1  0.99646200  0.33485500  0.70419000  1
  O  O76  1  0.71846100  0.94265500  0.30451500  1
  O  O77  1  0.28153900  0.05734500  0.69548500  1
  O  O78  1  0.05734500  0.28153900  0.19548500  1
  O  O79  1  0.94265500  0.71846100  0.80451500  1
  O  O80  1  0.46736900  0.73629400  0.12864800  1
  O  O81  1  0.53263100  0.26370600  0.87135200  1
  O  O82  1  0.26370600  0.53263100  0.37135200  1
  O  O83  1  0.73629400  0.46736900  0.62864800  1
  O  O84  1  0.45662900  0.79146100  0.38003300  1
  O  O85  1  0.54337100  0.20853900  0.61996700  1
  O  O86  1  0.20853900  0.54337100  0.11996700  1
  O  O87  1  0.79146100  0.45662900  0.88003300  1
  O  O88  1  0.03541200  0.00539200  0.13376000  1
  O  O89  1  0.96458800  0.99460800  0.86624000  1
  O  O90  1  0.99460800  0.96458800  0.36624000  1
  O  O91  1  0.00539200  0.03541200  0.63376000  1
  O  O92  1  0.74848900  0.16093100  0.18530700  1
  O  O93  1  0.25151100  0.83906900  0.81469300  1
  O  O94  1  0.83906900  0.25151100  0.31469300  1
  O  O95  1  0.16093100  0.74848900  0.68530700  1
