# generated using pymatgen
data_Mo12PH13O40
_symmetry_space_group_name_H-M   'P 1'
_cell_length_a   13.97724944
_cell_length_b   14.54764853
_cell_length_c   14.57236978
_cell_angle_alpha   60.70999344
_cell_angle_beta   67.97173493
_cell_angle_gamma   70.40803183
_symmetry_Int_Tables_number   1
_chemical_formula_structural   Mo12PH13O40
_chemical_formula_sum   'Mo24 P2 H26 O80'
_cell_volume   2352.99657844
_cell_formula_units_Z   2
loop_
 _symmetry_equiv_pos_site_id
 _symmetry_equiv_pos_as_xyz
  1  'x, y, z'
loop_
 _atom_site_type_symbol
 _atom_site_label
 _atom_site_symmetry_multiplicity
 _atom_site_fract_x
 _atom_site_fract_y
 _atom_site_fract_z
 _atom_site_occupancy
  Mo  Mo0  1  0.21148720  0.56957201  0.19625703  1
  Mo  Mo1  1  0.78851280  0.43042799  0.80374297  1
  Mo  Mo2  1  0.43793783  0.27930465  0.04754242  1
  Mo  Mo3  1  0.56206217  0.72069535  0.95245758  1
  Mo  Mo4  1  0.18137418  0.21739654  0.08344810  1
  Mo  Mo5  1  0.81862582  0.78260346  0.91655190  1
  Mo  Mo6  1  0.00154554  0.69874259  0.49463998  1
  Mo  Mo7  1  0.99845446  0.30125741  0.50536002  1
  Mo  Mo8  1  0.20431678  0.01913751  0.34046136  1
  Mo  Mo9  1  0.79568322  0.98086249  0.65953864  1
  Mo  Mo10  1  0.79918892  0.50034236  0.99654520  1
  Mo  Mo11  1  0.20081108  0.49965764  0.00345480  1
  Mo  Mo12  1  0.44988698  0.09364156  0.31126991  1
  Mo  Mo13  1  0.55011302  0.90635844  0.68873009  1
  Mo  Mo14  1  0.01666097  0.49897072  0.77825801  1
  Mo  Mo15  1  0.98333903  0.50102928  0.22174199  1
  Mo  Mo16  1  0.45798317  0.35991049  0.22696102  1
  Mo  Mo17  1  0.54201683  0.64008951  0.77303898  1
  Mo  Mo18  1  0.21555981  0.09528664  0.54741262  1
  Mo  Mo19  1  0.78444019  0.90471336  0.45258738  1
  Mo  Mo20  1  0.23559460  0.35580892  0.47465608  1
  Mo  Mo21  1  0.76440540  0.64419108  0.52534392  1
  Mo  Mo22  1  0.97636842  0.21242996  0.31255996  1
  Mo  Mo23  1  0.02363158  0.78757004  0.68744004  1
  P  P24  1  0.21285169  0.29191835  0.27279238  1
  P  P25  1  0.78714831  0.70808165  0.72720762  1
  H  H26  1  0.05228905  0.95365443  0.17791862  1
  H  H27  1  0.94771095  0.04634557  0.82208138  1
  H  H28  1  0.62032713  0.18841469  0.44705451  1
  H  H29  1  0.37967287  0.81158531  0.55294549  1
  H  H30  1  0.28734272  0.59919230  0.58534833  1
  H  H31  1  0.71265728  0.40080770  0.41465167  1
  H  H32  1  0.27138250  0.92655977  0.03957966  1
  H  H33  1  0.72861750  0.07344023  0.96042034  1
  H  H34  1  0.36186804  0.65079940  0.32944714  1
  H  H35  1  0.63813196  0.34920060  0.67055286  1
  H  H36  1  0.26119450  0.11809602  0.80046029  1
  H  H37  1  0.73880550  0.88190398  0.19953971  1
  H  H38  1  0.73844830  0.18748526  0.10814357  1
  H  H39  1  0.26155170  0.81251474  0.89185643  1
  H  H40  1  0.44080135  0.95440838  0.10073938  1
  H  H41  1  0.55919865  0.04559162  0.89926062  1
  H  H42  1  0.94115283  0.14149647  0.06749811  1
  H  H43  1  0.05884717  0.85850353  0.93250189  1
  H  H44  1  0.03991196  0.18027759  0.84282013  1
  H  H45  1  0.96008804  0.81972241  0.15717987  1
  H  H46  1  0.51859307  0.27980762  0.56774933  1
  H  H47  1  0.48140693  0.72019238  0.43225067  1
  H  H48  1  0.62425111  0.57352010  0.25501057  1
  H  H49  1  0.37574889  0.42647990  0.74498943  1
  H  H50  1  0.41624426  0.21083963  0.76953258  1
  H  H51  1  0.58375574  0.78916037  0.23046742  1
  O  O52  1  0.03618593  0.21921520  0.16336054  1
  O  O53  1  0.96381407  0.78078480  0.83663946  1
  O  O54  1  0.22898576  0.59210596  0.04641852  1
  O  O55  1  0.77101424  0.40789404  0.95358148  1
  O  O56  1  0.50232240  0.34952567  0.08979516  1
  O  O57  1  0.49767760  0.65047433  0.91020484  1
  O  O58  1  0.18345972  0.19781946  0.97612577  1
  O  O59  1  0.81654028  0.80218054  0.02387423  1
  O  O60  1  0.76739755  0.01356948  0.33457262  1
  O  O61  1  0.23260245  0.98643052  0.66542738  1
  O  O62  1  0.85141135  0.19777179  0.33927732  1
  O  O63  1  0.14858865  0.80222821  0.66072268  1
  O  O64  1  0.05137602  0.54324816  0.06855180  1
  O  O65  1  0.94862398  0.45675184  0.93144820  1
  O  O66  1  0.02699904  0.77177753  0.56382870  1
  O  O67  1  0.97300096  0.22822247  0.43617130  1
  O  O68  1  0.25220104  0.20443267  0.56566726  1
  O  O69  1  0.74779896  0.79556733  0.43433274  1
  O  O70  1  0.26141699  0.40419485  0.54700370  1
  O  O71  1  0.73858301  0.59580515  0.45299630  1
  O  O72  1  0.06215860  0.59633693  0.21507926  1
  O  O73  1  0.93784140  0.40366307  0.78492074  1
  O  O74  1  0.16523244  0.21929394  0.25827653  1
  O  O75  1  0.83476756  0.78070606  0.74172347  1
  O  O76  1  0.35666546  0.08781195  0.44811890  1
  O  O77  1  0.64333454  0.91218805  0.55188110  1
  O  O78  1  0.33427510  0.26691620  0.23315472  1
  O  O79  1  0.66572490  0.73308380  0.76684528  1
  O  O80  1  0.07105885  0.15796547  0.59140299  1
  O  O81  1  0.92894115  0.84203453  0.40859701  1
  O  O82  1  0.34550809  0.03566034  0.30426323  1
  O  O83  1  0.65449191  0.96433966  0.69573677  1
  O  O84  1  0.51218946  0.20339421  0.29186527  1
  O  O85  1  0.48781054  0.79660579  0.70813473  1
  O  O86  1  0.13862648  0.42034525  0.78002290  1
  O  O87  1  0.86137352  0.57965475  0.21997710  1
  O  O88  1  0.05033066  0.06641940  0.36240910  1
  O  O89  1  0.94966934  0.93358060  0.63759090  1
  O  O90  1  0.11884994  0.69003674  0.40156464  1
  O  O91  1  0.88115006  0.30996326  0.59843536  1
  O  O92  1  0.16319431  0.37023379  0.02643878  1
  O  O93  1  0.83680569  0.62976621  0.97356122  1
  O  O94  1  0.49575287  0.14506185  0.15070844  1
  O  O95  1  0.50424713  0.85493815  0.84929156  1
  O  O96  1  0.55792856  0.40787728  0.21920731  1
  O  O97  1  0.44207144  0.59212272  0.78079269  1
  O  O98  1  0.17171218  0.41101258  0.20496172  1
  O  O99  1  0.82828782  0.58898742  0.79503828  1
  O  O100  1  0.65994737  0.58447893  0.99768655  1
  O  O101  1  0.34005263  0.41552107  0.00231345  1
  O  O102  1  0.35594061  0.48707016  0.17975321  1
  O  O103  1  0.64405939  0.51292984  0.82024679  1
  O  O104  1  0.79156788  0.42214600  0.13130498  1
  O  O105  1  0.20843212  0.57785400  0.86869502  1
  O  O106  1  0.08275976  0.36007358  0.53464007  1
  O  O107  1  0.91724024  0.63992642  0.46535993  1
  O  O108  1  0.22840840  0.69091657  0.17257337  1
  O  O109  1  0.77159160  0.30908343  0.82742663  1
  O  O110  1  0.21025698  0.06738597  0.18924358  1
  O  O111  1  0.78974302  0.93261403  0.81075642  1
  O  O112  1  0.45604570  0.01885134  0.65297308  1
  O  O113  1  0.54395430  0.98114866  0.34702692  1
  O  O114  1  0.18061692  0.26999196  0.39462327  1
  O  O115  1  0.81938308  0.73000804  0.60537673  1
  O  O116  1  0.21784326  0.88366965  0.38768376  1
  O  O117  1  0.78215674  0.11633035  0.61231624  1
  O  O118  1  0.18380271  0.03694905  0.47149203  1
  O  O119  1  0.81619729  0.96305095  0.52850797  1
  O  O120  1  0.19934687  0.48651397  0.34921403  1
  O  O121  1  0.80065313  0.51348603  0.65078597  1
  O  O122  1  0.02261646  0.57161623  0.62255366  1
  O  O123  1  0.97738354  0.42838377  0.37744634  1
  O  O124  1  0.32948486  0.21886364  0.05740636  1
  O  O125  1  0.67051514  0.78113636  0.94259364  1
  O  O126  1  0.47464919  0.71562728  0.07331558  1
  O  O127  1  0.52535081  0.28437272  0.92668442  1
  O  O128  1  0.36911893  0.33916767  0.37430429  1
  O  O129  1  0.63088107  0.66083233  0.62569571  1
  O  O130  1  0.03683710  0.63017126  0.76014374  1
  O  O131  1  0.96316290  0.36982874  0.23985626  1
