# generated using pymatgen
data_HoC3S3(O2F)9
_symmetry_space_group_name_H-M   'P 1'
_cell_length_a   14.01210534
_cell_length_b   14.01210534
_cell_length_c   7.60127600
_cell_angle_alpha   90.00000000
_cell_angle_beta   90.00000000
_cell_angle_gamma   119.99999691
_symmetry_Int_Tables_number   1
_chemical_formula_structural   HoC3S3(O2F)9
_chemical_formula_sum   'Ho2 C6 S6 O36 F18'
_cell_volume   1292.48030696
_cell_formula_units_Z   2
loop_
 _symmetry_equiv_pos_site_id
 _symmetry_equiv_pos_as_xyz
  1  'x, y, z'
loop_
 _atom_site_type_symbol
 _atom_site_label
 _atom_site_symmetry_multiplicity
 _atom_site_fract_x
 _atom_site_fract_y
 _atom_site_fract_z
 _atom_site_occupancy
  Ho  Ho0  1  0.66666700  0.33333300  0.75000000  1
  Ho  Ho1  1  0.33333300  0.66666700  0.25000000  1
  C  C2  1  0.00661500  0.22871800  0.75000000  1
  C  C3  1  0.99338500  0.77128200  0.25000000  1
  C  C4  1  0.77128200  0.77789800  0.75000000  1
  C  C5  1  0.22871800  0.22210200  0.25000000  1
  C  C6  1  0.22210200  0.99338500  0.75000000  1
  C  C7  1  0.77789800  0.00661500  0.25000000  1
  S  S8  1  0.06087600  0.38081800  0.75000000  1
  S  S9  1  0.93912400  0.61918200  0.25000000  1
  S  S10  1  0.61918200  0.68005800  0.75000000  1
  S  S11  1  0.38081800  0.31994200  0.25000000  1
  S  S12  1  0.31994200  0.93912400  0.75000000  1
  S  S13  1  0.68005800  0.06087600  0.25000000  1
  O  O14  1  0.51161100  0.35094600  0.75000000  1
  O  O15  1  0.48838900  0.64905400  0.25000000  1
  O  O16  1  0.64905400  0.16066500  0.75000000  1
  O  O17  1  0.35094600  0.83933500  0.25000000  1
  O  O18  1  0.83933500  0.48838900  0.75000000  1
  O  O19  1  0.16066500  0.51161100  0.25000000  1
  O  O20  1  0.01793100  0.40300800  0.58917700  1
  O  O21  1  0.98206900  0.59699200  0.41082300  1
  O  O22  1  0.59699200  0.61492300  0.58917700  1
  O  O23  1  0.98206900  0.59699200  0.08917700  1
  O  O24  1  0.40300800  0.38507700  0.41082300  1
  O  O25  1  0.01793100  0.40300800  0.91082300  1
  O  O26  1  0.38507700  0.98206900  0.58917700  1
  O  O27  1  0.40300800  0.38507700  0.08917700  1
  O  O28  1  0.61492300  0.01793100  0.41082300  1
  O  O29  1  0.59699200  0.61492300  0.91082300  1
  O  O30  1  0.61492300  0.01793100  0.08917700  1
  O  O31  1  0.38507700  0.98206900  0.91082300  1
  O  O32  1  0.55112400  0.21370000  0.53934500  1
  O  O33  1  0.44887600  0.78630000  0.46065500  1
  O  O34  1  0.78630000  0.33742500  0.53934500  1
  O  O35  1  0.44887600  0.78630000  0.03934500  1
  O  O36  1  0.21370000  0.66257500  0.46065500  1
  O  O37  1  0.55112400  0.21370000  0.96065500  1
  O  O38  1  0.66257500  0.44887600  0.53934500  1
  O  O39  1  0.21370000  0.66257500  0.03934500  1
  O  O40  1  0.33742500  0.55112400  0.46065500  1
  O  O41  1  0.78630000  0.33742500  0.96065500  1
  O  O42  1  0.33742500  0.55112400  0.03934500  1
  O  O43  1  0.66257500  0.44887600  0.96065500  1
  O  O44  1  0.18110600  0.43208000  0.75000000  1
  O  O45  1  0.81889400  0.56792000  0.25000000  1
  O  O46  1  0.56792000  0.74902700  0.75000000  1
  O  O47  1  0.43208000  0.25097300  0.25000000  1
  O  O48  1  0.25097300  0.81889400  0.75000000  1
  O  O49  1  0.74902700  0.18110600  0.25000000  1
  F  F50  1  0.04246400  0.20025300  0.60541700  1
  F  F51  1  0.95753600  0.79974700  0.39458300  1
  F  F52  1  0.79974700  0.84221100  0.60541700  1
  F  F53  1  0.95753600  0.79974700  0.10541700  1
  F  F54  1  0.20025300  0.15778900  0.39458300  1
  F  F55  1  0.04246400  0.20025300  0.89458300  1
  F  F56  1  0.15778900  0.95753600  0.60541700  1
  F  F57  1  0.20025300  0.15778900  0.10541700  1
  F  F58  1  0.84221100  0.04246400  0.39458300  1
  F  F59  1  0.79974700  0.84221100  0.89458300  1
  F  F60  1  0.84221100  0.04246400  0.10541700  1
  F  F61  1  0.15778900  0.95753600  0.89458300  1
  F  F62  1  0.27998700  0.10460900  0.75000000  1
  F  F63  1  0.72001300  0.89539100  0.25000000  1
  F  F64  1  0.89539100  0.17537800  0.75000000  1
  F  F65  1  0.10460900  0.82462200  0.25000000  1
  F  F66  1  0.82462200  0.72001300  0.75000000  1
  F  F67  1  0.17537800  0.27998700  0.25000000  1
