# generated using pymatgen
data_K2Nd4Ge4O17
_symmetry_space_group_name_H-M   'P 1'
_cell_length_a   18.46180000
_cell_length_b   6.88511200
_cell_length_c   7.10401397
_cell_angle_alpha   64.83440196
_cell_angle_beta   90.00000000
_cell_angle_gamma   90.00000000
_symmetry_Int_Tables_number   1
_chemical_formula_structural   K2Nd4Ge4O17
_chemical_formula_sum   'K4 Nd8 Ge8 O34'
_cell_volume   817.29161709
_cell_formula_units_Z   2
loop_
 _symmetry_equiv_pos_site_id
 _symmetry_equiv_pos_as_xyz
  1  'x, y, z'
loop_
 _atom_site_type_symbol
 _atom_site_label
 _atom_site_symmetry_multiplicity
 _atom_site_fract_x
 _atom_site_fract_y
 _atom_site_fract_z
 _atom_site_occupancy
  K  K0  1  0.25000000  0.72675200  0.00275000  1
  K  K1  1  0.75000000  0.27324800  0.99725000  1
  K  K2  1  0.25000000  0.72077800  0.55469500  1
  K  K3  1  0.75000000  0.27922200  0.44530500  1
  Nd  Nd4  1  0.03724100  0.71304400  0.72921800  1
  Nd  Nd5  1  0.53724100  0.28695600  0.27078200  1
  Nd  Nd6  1  0.46275900  0.71304400  0.72921800  1
  Nd  Nd7  1  0.96275900  0.28695600  0.27078200  1
  Nd  Nd8  1  0.87675700  0.77603700  0.33493300  1
  Nd  Nd9  1  0.37675700  0.22396300  0.66506700  1
  Nd  Nd10  1  0.62324300  0.77603700  0.33493300  1
  Nd  Nd11  1  0.12324300  0.22396300  0.66506700  1
  Ge  Ge12  1  0.44026700  0.77972200  0.23570800  1
  Ge  Ge13  1  0.94026700  0.22027800  0.76429200  1
  Ge  Ge14  1  0.05973300  0.77972200  0.23570800  1
  Ge  Ge15  1  0.55973300  0.22027800  0.76429200  1
  Ge  Ge16  1  0.15685300  0.20460900  0.13204800  1
  Ge  Ge17  1  0.65685300  0.79539100  0.86795200  1
  Ge  Ge18  1  0.34314700  0.20460900  0.13204800  1
  Ge  Ge19  1  0.84314700  0.79539100  0.86795200  1
  O  O20  1  0.01772500  0.66010400  0.08828000  1
  O  O21  1  0.51772500  0.33989600  0.91172000  1
  O  O22  1  0.09389000  0.59270300  0.47328500  1
  O  O23  1  0.59389000  0.40729700  0.52671500  1
  O  O24  1  0.50450900  0.90959300  0.33087300  1
  O  O25  1  0.00450900  0.09040700  0.66912700  1
  O  O26  1  0.25000000  0.32054100  0.54543200  1
  O  O27  1  0.75000000  0.67945900  0.45456800  1
  O  O28  1  0.10389000  0.22987300  0.32192700  1
  O  O29  1  0.60389000  0.77012700  0.67807300  1
  O  O30  1  0.14417800  0.88334500  0.69793300  1
  O  O31  1  0.64417800  0.11665500  0.30206700  1
  O  O32  1  0.75000000  0.82020700  0.24752000  1
  O  O33  1  0.25000000  0.17979300  0.75248000  1
  O  O34  1  0.99549100  0.90959300  0.33087300  1
  O  O35  1  0.49549100  0.09040700  0.66912700  1
  O  O36  1  0.48227500  0.66010400  0.08828000  1
  O  O37  1  0.98227500  0.33989600  0.91172000  1
  O  O38  1  0.85202900  0.58189800  0.11105500  1
  O  O39  1  0.35202900  0.41810200  0.88894500  1
  O  O40  1  0.64797100  0.58189800  0.11105500  1
  O  O41  1  0.14797100  0.41810200  0.88894500  1
  O  O42  1  0.35582200  0.88334500  0.69793300  1
  O  O43  1  0.85582200  0.11665500  0.30206700  1
  O  O44  1  0.40611000  0.59270300  0.47328500  1
  O  O45  1  0.90611000  0.40729700  0.52671500  1
  O  O46  1  0.39611000  0.22987300  0.32192700  1
  O  O47  1  0.89611000  0.77012700  0.67807300  1
  O  O48  1  0.37128600  0.97115100  0.08306000  1
  O  O49  1  0.87128600  0.02884900  0.91694000  1
  O  O50  1  0.25000000  0.13126700  0.21697800  1
  O  O51  1  0.75000000  0.86873300  0.78302200  1
  O  O52  1  0.12871400  0.97115100  0.08306000  1
  O  O53  1  0.62871400  0.02884900  0.91694000  1
