# generated using pymatgen
data_H2C3N2O3
_symmetry_space_group_name_H-M   'P 1'
_cell_length_a   8.59942300
_cell_length_b   5.21154900
_cell_length_c   11.92584284
_cell_angle_alpha   66.48349516
_cell_angle_beta   90.00000000
_cell_angle_gamma   90.00000000
_symmetry_Int_Tables_number   1
_chemical_formula_structural   H2C3N2O3
_chemical_formula_sum   'H8 C12 N8 O12'
_cell_volume   490.08181408
_cell_formula_units_Z   4
loop_
 _symmetry_equiv_pos_site_id
 _symmetry_equiv_pos_as_xyz
  1  'x, y, z'
loop_
 _atom_site_type_symbol
 _atom_site_label
 _atom_site_symmetry_multiplicity
 _atom_site_fract_x
 _atom_site_fract_y
 _atom_site_fract_z
 _atom_site_occupancy
  H  H0  1  0.36067600  0.69495800  0.89030100  1
  H  H1  1  0.63932400  0.30504200  0.10969900  1
  H  H2  1  0.86067600  0.30504200  0.60969900  1
  H  H3  1  0.13932400  0.69495800  0.39030100  1
  H  H4  1  0.80330600  0.91006700  0.98817800  1
  H  H5  1  0.19669400  0.08993300  0.01182200  1
  H  H6  1  0.30330600  0.08993300  0.51182200  1
  H  H7  1  0.69669400  0.91006700  0.48817800  1
  C  C8  1  0.36624200  0.96706400  0.70070700  1
  C  C9  1  0.63375800  0.03293600  0.29929300  1
  C  C10  1  0.86624200  0.03293600  0.79929300  1
  C  C11  1  0.13375800  0.96706400  0.20070700  1
  C  C12  1  0.23165600  0.55263400  0.77418600  1
  C  C13  1  0.76834400  0.44736600  0.22581400  1
  C  C14  1  0.73165600  0.44736600  0.72581400  1
  C  C15  1  0.26834400  0.55263400  0.27418600  1
  C  C16  1  0.20992400  0.69926700  0.63393800  1
  C  C17  1  0.79007600  0.30073300  0.36606200  1
  C  C18  1  0.70992400  0.30073300  0.86606200  1
  C  C19  1  0.29007600  0.69926700  0.13393800  1
  N  N20  1  0.29425900  0.94122600  0.60007500  1
  N  N21  1  0.70574100  0.05877400  0.39992500  1
  N  N22  1  0.79425900  0.05877400  0.89992500  1
  N  N23  1  0.20574100  0.94122600  0.10007500  1
  N  N24  1  0.32554300  0.72811700  0.80333400  1
  N  N25  1  0.67445700  0.27188300  0.19666600  1
  N  N26  1  0.82554300  0.27188300  0.69666600  1
  N  N27  1  0.17445700  0.72811700  0.30333400  1
  O  O28  1  0.94677000  0.83997000  0.80068700  1
  O  O29  1  0.05323000  0.16003000  0.19931300  1
  O  O30  1  0.44677000  0.16003000  0.69931300  1
  O  O31  1  0.55323000  0.83997000  0.30068700  1
  O  O32  1  0.17606900  0.32724700  0.84143700  1
  O  O33  1  0.82393100  0.67275300  0.15856300  1
  O  O34  1  0.67606900  0.67275300  0.65856300  1
  O  O35  1  0.32393100  0.32724700  0.34143700  1
  O  O36  1  0.13359400  0.61197600  0.56980700  1
  O  O37  1  0.86640600  0.38802400  0.43019300  1
  O  O38  1  0.63359400  0.38802400  0.93019300  1
  O  O39  1  0.36640600  0.61197600  0.06980700  1
