# generated using pymatgen
data_K3NaP2H8O11
_symmetry_space_group_name_H-M   'P 1'
_cell_length_a   12.09425100
_cell_length_b   5.77843300
_cell_length_c   17.52259577
_cell_angle_alpha   87.69207139
_cell_angle_beta   90.00000000
_cell_angle_gamma   90.00000000
_symmetry_Int_Tables_number   1
_chemical_formula_structural   K3NaP2H8O11
_chemical_formula_sum   'K12 Na4 P8 H32 O44'
_cell_volume   1223.58761699
_cell_formula_units_Z   4
loop_
 _symmetry_equiv_pos_site_id
 _symmetry_equiv_pos_as_xyz
  1  'x, y, z'
loop_
 _atom_site_type_symbol
 _atom_site_label
 _atom_site_symmetry_multiplicity
 _atom_site_fract_x
 _atom_site_fract_y
 _atom_site_fract_z
 _atom_site_occupancy
  K  K0  1  0.57323700  0.28184700  0.07486500  1
  K  K1  1  0.42676300  0.71815300  0.92513500  1
  K  K2  1  0.07323700  0.71815300  0.42513500  1
  K  K3  1  0.92676300  0.28184700  0.57486500  1
  K  K4  1  0.34372600  0.77062300  0.52894600  1
  K  K5  1  0.65627400  0.22937700  0.47105400  1
  K  K6  1  0.84372600  0.22937700  0.97105400  1
  K  K7  1  0.15627400  0.77062300  0.02894600  1
  K  K8  1  0.54467300  0.76388600  0.32364500  1
  K  K9  1  0.45532700  0.23611400  0.67635500  1
  K  K10  1  0.04467300  0.23611400  0.17635500  1
  K  K11  1  0.95532700  0.76388600  0.82364500  1
  Na  Na12  1  0.41320400  0.80154600  0.14038200  1
  Na  Na13  1  0.58679600  0.19845400  0.85961800  1
  Na  Na14  1  0.91320400  0.19845400  0.35961800  1
  Na  Na15  1  0.08679600  0.80154600  0.64038200  1
  P  P16  1  0.79297800  0.72269000  0.42709000  1
  P  P17  1  0.20702200  0.27731000  0.57291000  1
  P  P18  1  0.29297800  0.27731000  0.07291000  1
  P  P19  1  0.70702200  0.72269000  0.92709000  1
  P  P20  1  0.86441300  0.73067400  0.26226700  1
  P  P21  1  0.13558700  0.26932600  0.73773300  1
  P  P22  1  0.36441300  0.26932600  0.23773300  1
  P  P23  1  0.63558700  0.73067400  0.76226700  1
  H  H24  1  0.59104700  0.24984900  0.27208600  1
  H  H25  1  0.40895300  0.75015100  0.72791400  1
  H  H26  1  0.09104700  0.75015100  0.22791400  1
  H  H27  1  0.90895300  0.24984900  0.77208600  1
  H  H28  1  0.62585600  0.80594400  0.05945100  1
  H  H29  1  0.37414400  0.19405600  0.94054900  1
  H  H30  1  0.12585600  0.19405600  0.44054900  1
  H  H31  1  0.87414400  0.80594400  0.55945100  1
  H  H32  1  0.29432500  0.89392700  0.34780900  1
  H  H33  1  0.70567500  0.10607300  0.65219100  1
  H  H34  1  0.79432500  0.10607300  0.15219100  1
  H  H35  1  0.20567500  0.89392700  0.84780900  1
  H  H36  1  0.81250900  0.36856700  0.16635300  1
  H  H37  1  0.18749100  0.63143300  0.83364700  1
  H  H38  1  0.31250900  0.63143300  0.33364700  1
  H  H39  1  0.68749100  0.36856700  0.66635300  1
  H  H40  1  0.71503000  0.34094200  0.28106800  1
  H  H41  1  0.28497000  0.65905800  0.71893200  1
  H  H42  1  0.21503000  0.65905800  0.21893200  1
  H  H43  1  0.78497000  0.34094200  0.78106800  1
  H  H44  1  0.67380000  0.77622100  0.14410300  1
  H  H45  1  0.32620000  0.22377900  0.85589700  1
  H  H46  1  0.17380000  0.22377900  0.35589700  1
  H  H47  1  0.82620000  0.77622100  0.64410300  1
  H  H48  1  0.90036400  0.77403700  0.02848200  1
  H  H49  1  0.09963600  0.22596300  0.97151800  1
  H  H50  1  0.40036400  0.22596300  0.47151800  1
  H  H51  1  0.59963600  0.77403700  0.52848200  1
  H  H52  1  0.89772000  0.80984800  0.11641000  1
  H  H53  1  0.10228000  0.19015200  0.88359000  1
  H  H54  1  0.39772000  0.19015200  0.38359000  1
  H  H55  1  0.60228000  0.80984800  0.61641000  1
  O  O56  1  0.87572500  0.46645300  0.25822900  1
  O  O57  1  0.12427500  0.53354700  0.74177100  1
  O  O58  1  0.37572500  0.53354700  0.24177100  1
  O  O59  1  0.62427500  0.46645300  0.75822900  1
  O  O60  1  0.80100900  0.83266400  0.19225800  1
  O  O61  1  0.19899100  0.16733600  0.80774200  1
  O  O62  1  0.30100900  0.16733600  0.30774200  1
  O  O63  1  0.69899100  0.83266400  0.69225800  1
  O  O64  1  0.79093700  0.26273100  0.12598500  1
  O  O65  1  0.20906300  0.73726900  0.87401500  1
  O  O66  1  0.29093700  0.73726900  0.37401500  1
  O  O67  1  0.70906300  0.26273100  0.62598500  1
  O  O68  1  0.94751900  0.82366800  0.07170100  1
  O  O69  1  0.05248100  0.17633200  0.92829900  1
  O  O70  1  0.44751900  0.17633200  0.42829900  1
  O  O71  1  0.55248100  0.82366800  0.57170100  1
  O  O72  1  0.67139600  0.71446300  0.45095500  1
  O  O73  1  0.32860400  0.28553700  0.54904500  1
  O  O74  1  0.17139600  0.28553700  0.04904500  1
  O  O75  1  0.82860400  0.71446300  0.95095500  1
  O  O76  1  0.60537700  0.76162600  0.11297300  1
  O  O77  1  0.39462300  0.23837400  0.88702700  1
  O  O78  1  0.10537700  0.23837400  0.38702700  1
  O  O79  1  0.89462300  0.76162600  0.61297300  1
  O  O80  1  0.97274900  0.85897000  0.27807100  1
  O  O81  1  0.02725100  0.14103000  0.72192900  1
  O  O82  1  0.47274900  0.14103000  0.22192900  1
  O  O83  1  0.52725100  0.85897000  0.77807100  1
  O  O84  1  0.78189100  0.78546600  0.33389400  1
  O  O85  1  0.21810900  0.21453400  0.66610600  1
  O  O86  1  0.28189100  0.21453400  0.16610600  1
  O  O87  1  0.71810900  0.78546600  0.83389400  1
  O  O88  1  0.64576800  0.31025300  0.30876200  1
  O  O89  1  0.35423200  0.68974700  0.69123800  1
  O  O90  1  0.14576800  0.68974700  0.19123800  1
  O  O91  1  0.85423200  0.31025300  0.80876200  1
  O  O92  1  0.85507600  0.49373700  0.43827600  1
  O  O93  1  0.14492400  0.50626300  0.56172400  1
  O  O94  1  0.35507600  0.50626300  0.06172400  1
  O  O95  1  0.64492400  0.49373700  0.93827600  1
  O  O96  1  0.85711100  0.92633000  0.46039800  1
  O  O97  1  0.14288900  0.07367000  0.53960200  1
  O  O98  1  0.35711100  0.07367000  0.03960200  1
  O  O99  1  0.64288900  0.92633000  0.96039800  1
