# generated using pymatgen
data_H3CN4O
_symmetry_space_group_name_H-M   'P 1'
_cell_length_a   8.05778924
_cell_length_b   7.85370947
_cell_length_c   7.85370947
_cell_angle_alpha   99.05668715
_cell_angle_beta   105.69337242
_cell_angle_gamma   105.69337242
_symmetry_Int_Tables_number   1
_chemical_formula_structural   H3CN4O
_chemical_formula_sum   'H12 C4 N16 O4'
_cell_volume   446.16460699
_cell_formula_units_Z   4
loop_
 _symmetry_equiv_pos_site_id
 _symmetry_equiv_pos_as_xyz
  1  'x, y, z'
loop_
 _atom_site_type_symbol
 _atom_site_label
 _atom_site_symmetry_multiplicity
 _atom_site_fract_x
 _atom_site_fract_y
 _atom_site_fract_z
 _atom_site_occupancy
  H  H0  1  0.75611100  0.58133900  0.82428200  1
  H  H1  1  0.24388900  0.41866100  0.17571800  1
  H  H2  1  0.74388900  0.17571800  0.41866100  1
  H  H3  1  0.25611100  0.82428200  0.58133900  1
  H  H4  1  0.73620200  0.46041600  0.36259200  1
  H  H5  1  0.26379800  0.53958400  0.63740800  1
  H  H6  1  0.76379800  0.63740800  0.53958400  1
  H  H7  1  0.23620200  0.36259200  0.46041600  1
  H  H8  1  0.76412600  0.37006400  0.86745200  1
  H  H9  1  0.23587400  0.62993600  0.13254800  1
  H  H10  1  0.73587400  0.13254800  0.62993600  1
  H  H11  1  0.26412600  0.86745200  0.37006400  1
  C  C12  1  0.75000000  0.91752400  0.08247600  1
  C  C13  1  0.25000000  0.08247600  0.91752400  1
  C  C14  1  0.75000000  0.39230200  0.60769800  1
  C  C15  1  0.25000000  0.60769800  0.39230200  1
  N  N16  1  0.74062100  0.86560400  0.90811900  1
  N  N17  1  0.25937900  0.13439600  0.09188100  1
  N  N18  1  0.75937900  0.09188100  0.13439600  1
  N  N19  1  0.24062100  0.90811900  0.86560400  1
  N  N20  1  0.75874800  0.45328900  0.77954300  1
  N  N21  1  0.24125200  0.54671100  0.22045700  1
  N  N22  1  0.74125200  0.22045700  0.54671100  1
  N  N23  1  0.25874800  0.77954300  0.45328900  1
  N  N24  1  0.75000000  0.50455600  0.49544400  1
  N  N25  1  0.25000000  0.49544400  0.50455600  1
  N  N26  1  0.75574500  0.15133800  0.98430700  1
  N  N27  1  0.24425500  0.84866200  0.01569300  1
  N  N28  1  0.74425500  0.01569300  0.84866200  1
  N  N29  1  0.25574500  0.98430700  0.15133800  1
  N  N30  1  0.75000000  0.79734000  0.20266000  1
  N  N31  1  0.25000000  0.20266000  0.79734000  1
  O  O32  1  0.74645400  0.63952000  0.14205700  1
  O  O33  1  0.25354600  0.36048000  0.85794300  1
  O  O34  1  0.75354600  0.85794300  0.36048000  1
  O  O35  1  0.24645400  0.14205700  0.63952000  1
