# generated using pymatgen
data_Pr2P3H5WO9
_symmetry_space_group_name_H-M   'P 1'
_cell_length_a   8.86148300
_cell_length_b   9.95321279
_cell_length_c   12.94139116
_cell_angle_alpha   107.49210880
_cell_angle_beta   90.00000000
_cell_angle_gamma   90.00000000
_symmetry_Int_Tables_number   1
_chemical_formula_structural   Pr2P3H5WO9
_chemical_formula_sum   'Pr8 P12 H20 W4 O36'
_cell_volume   1088.65185856
_cell_formula_units_Z   4
loop_
 _symmetry_equiv_pos_site_id
 _symmetry_equiv_pos_as_xyz
  1  'x, y, z'
loop_
 _atom_site_type_symbol
 _atom_site_label
 _atom_site_symmetry_multiplicity
 _atom_site_fract_x
 _atom_site_fract_y
 _atom_site_fract_z
 _atom_site_occupancy
  Pr  Pr0  1  0.19970500  0.62119200  0.54255400  1
  Pr  Pr1  1  0.80029500  0.37880800  0.45744600  1
  Pr  Pr2  1  0.69970500  0.87880800  0.95744600  1
  Pr  Pr3  1  0.30029500  0.12119200  0.04255400  1
  Pr  Pr4  1  0.03884300  0.06259200  0.75206000  1
  Pr  Pr5  1  0.96115700  0.93740800  0.24794000  1
  Pr  Pr6  1  0.53884300  0.43740800  0.74794000  1
  Pr  Pr7  1  0.46115700  0.56259200  0.25206000  1
  P  P8  1  0.25371100  0.37615200  0.93839900  1
  P  P9  1  0.74628900  0.62384800  0.06160100  1
  P  P10  1  0.75371100  0.12384800  0.56160100  1
  P  P11  1  0.24628900  0.87615200  0.43839900  1
  P  P12  1  0.58830600  0.69556400  0.66506700  1
  P  P13  1  0.41169400  0.30443600  0.33493300  1
  P  P14  1  0.08830600  0.80443600  0.83493300  1
  P  P15  1  0.91169400  0.19556400  0.16506700  1
  P  P16  1  0.69674300  0.18763200  0.92104400  1
  P  P17  1  0.30325700  0.81236800  0.07895600  1
  P  P18  1  0.19674300  0.31236800  0.57895600  1
  P  P19  1  0.80325700  0.68763200  0.42104400  1
  H  H20  1  0.49155300  0.96450100  0.71744100  1
  H  H21  1  0.50844700  0.03549900  0.28255900  1
  H  H22  1  0.99155300  0.53549900  0.78255900  1
  H  H23  1  0.00844700  0.46450100  0.21744100  1
  H  H24  1  0.11269500  0.44617400  0.94092900  1
  H  H25  1  0.88730500  0.55382600  0.05907100  1
  H  H26  1  0.61269500  0.05382600  0.55907100  1
  H  H27  1  0.38730500  0.94617400  0.44092900  1
  H  H28  1  0.68336800  0.80523800  0.65862100  1
  H  H29  1  0.31663200  0.19476200  0.34137900  1
  H  H30  1  0.18336800  0.69476200  0.84137900  1
  H  H31  1  0.81663200  0.30523800  0.15862100  1
  H  H32  1  0.76833400  0.27075500  0.01515900  1
  H  H33  1  0.23166600  0.72924500  0.98484100  1
  H  H34  1  0.26833400  0.22924500  0.48484100  1
  H  H35  1  0.73166600  0.77075500  0.51515900  1
  H  H36  1  0.47755900  0.22031600  0.70920900  1
  H  H37  1  0.52244100  0.77968400  0.29079100  1
  H  H38  1  0.97755900  0.27968400  0.79079100  1
  H  H39  1  0.02244100  0.72031600  0.20920900  1
  W  W40  1  0.36983700  0.06338300  0.65737200  1
  W  W41  1  0.63016300  0.93661700  0.34262800  1
  W  W42  1  0.86983700  0.43661700  0.84262800  1
  W  W43  1  0.13016300  0.56338300  0.15737200  1
  O  O44  1  0.16669300  0.20617200  0.64179100  1
  O  O45  1  0.83330700  0.79382800  0.35820900  1
  O  O46  1  0.66669300  0.29382800  0.85820900  1
  O  O47  1  0.33330700  0.70617200  0.14179100  1
  O  O48  1  0.43975900  0.69840900  0.60567300  1
  O  O49  1  0.56024100  0.30159100  0.39432700  1
  O  O50  1  0.93975900  0.80159100  0.89432700  1
  O  O51  1  0.06024100  0.19840900  0.10567300  1
  O  O52  1  0.36268700  0.44788000  0.88220700  1
  O  O53  1  0.63731300  0.55212000  0.11779300  1
  O  O54  1  0.86268700  0.05212000  0.61779300  1
  O  O55  1  0.13731300  0.94788000  0.38220700  1
  O  O56  1  0.20492700  0.89405400  0.55981200  1
  O  O57  1  0.79507300  0.10594600  0.44018800  1
  O  O58  1  0.70492700  0.60594600  0.94018800  1
  O  O59  1  0.29507300  0.39405400  0.05981200  1
  O  O60  1  0.80809900  0.06641200  0.86532700  1
  O  O61  1  0.19190100  0.93358800  0.13467300  1
  O  O62  1  0.30809900  0.43358800  0.63467300  1
  O  O63  1  0.69190100  0.56641200  0.36532700  1
  O  O64  1  0.55964600  0.11684900  0.95848300  1
  O  O65  1  0.44035400  0.88315100  0.04151700  1
  O  O66  1  0.05964600  0.38315100  0.54151700  1
  O  O67  1  0.94035400  0.61684900  0.45848300  1
  O  O68  1  0.16914700  0.94856200  0.88605400  1
  O  O69  1  0.83085300  0.05143800  0.11394600  1
  O  O70  1  0.66914700  0.55143800  0.61394600  1
  O  O71  1  0.33085300  0.44856200  0.38605400  1
  O  O72  1  0.06856800  0.78783000  0.71245300  1
  O  O73  1  0.93143200  0.21217000  0.28754700  1
  O  O74  1  0.56856800  0.71217000  0.78754700  1
  O  O75  1  0.43143200  0.28783000  0.21245300  1
  O  O76  1  0.22677400  0.21602600  0.88665200  1
  O  O77  1  0.77322600  0.78397400  0.11334800  1
  O  O78  1  0.72677400  0.28397400  0.61334800  1
  O  O79  1  0.27322600  0.71602600  0.38665200  1
