# generated using pymatgen
data_Sb(MoS2)6
_symmetry_space_group_name_H-M   'P 1'
_cell_length_a   16.25471800
_cell_length_b   16.98724399
_cell_length_c   18.39127101
_cell_angle_alpha   79.89586938
_cell_angle_beta   65.06455188
_cell_angle_gamma   66.33263919
_symmetry_Int_Tables_number   1
_chemical_formula_structural   Sb(MoS2)6
_chemical_formula_sum   'Sb1 Mo6 S12'
_cell_volume   4217.44612146
_cell_formula_units_Z   1
loop_
 _symmetry_equiv_pos_site_id
 _symmetry_equiv_pos_as_xyz
  1  'x, y, z'
loop_
 _atom_site_type_symbol
 _atom_site_label
 _atom_site_symmetry_multiplicity
 _atom_site_fract_x
 _atom_site_fract_y
 _atom_site_fract_z
 _atom_site_occupancy
  Sb  Sb0  1  0.00000000  0.00000000  0.00000000  1
  Mo  Mo1  1  0.78837500  0.38704300  0.97042500  1
  Mo  Mo2  1  0.21162500  0.61295700  0.02957500  1
  Mo  Mo3  1  0.97090500  0.16014900  0.23861600  1
  Mo  Mo4  1  0.02909500  0.83985100  0.76138400  1
  Mo  Mo5  1  0.23975500  0.14374400  0.78710600  1
  Mo  Mo6  1  0.76024500  0.85625600  0.21289400  1
  S  S7  1  0.26155100  0.08583700  0.67186300  1
  S  S8  1  0.73844900  0.91416300  0.32813700  1
  S  S9  1  0.66604300  0.34611300  0.07037600  1
  S  S10  1  0.33395700  0.65388700  0.92962400  1
  S  S11  1  0.07841900  0.03104500  0.26617300  1
  S  S12  1  0.92158100  0.96895500  0.73382700  1
  S  S13  1  0.77523400  0.25315900  0.98639800  1
  S  S14  1  0.22476600  0.74684100  0.01360200  1
  S  S15  1  0.97579300  0.02319700  0.23034500  1
  S  S16  1  0.02420700  0.97680300  0.76965500  1
  S  S17  1  0.23494100  0.01119900  0.77630800  1
  S  S18  1  0.76505900  0.98880100  0.22369200  1
