# generated using pymatgen
data_H3C8N2Cl3O2
_symmetry_space_group_name_H-M   'P 1'
_cell_length_a   6.90465800
_cell_length_b   9.41223557
_cell_length_c   10.71166406
_cell_angle_alpha   108.59946351
_cell_angle_beta   86.26654924
_cell_angle_gamma   104.96372294
_symmetry_Int_Tables_number   1
_chemical_formula_structural   H3C8N2Cl3O2
_chemical_formula_sum   'H6 C16 N4 Cl6 O4'
_cell_volume   637.28818417
_cell_formula_units_Z   2
loop_
 _symmetry_equiv_pos_site_id
 _symmetry_equiv_pos_as_xyz
  1  'x, y, z'
loop_
 _atom_site_type_symbol
 _atom_site_label
 _atom_site_symmetry_multiplicity
 _atom_site_fract_x
 _atom_site_fract_y
 _atom_site_fract_z
 _atom_site_occupancy
  H  H0  1  0.60622200  0.36845500  0.46564100  1
  H  H1  1  0.39377800  0.63154500  0.53435900  1
  H  H2  1  0.32877000  0.06100100  0.77096300  1
  H  H3  1  0.67123000  0.93899900  0.22903700  1
  H  H4  1  0.46485300  0.07684400  0.62915400  1
  H  H5  1  0.53514700  0.92315600  0.37084600  1
  C  C6  1  0.68939600  0.14209300  0.38281100  1
  C  C7  1  0.31060400  0.85790700  0.61718900  1
  C  C8  1  0.07109100  0.50397300  0.72281900  1
  C  C9  1  0.92890900  0.49602700  0.27718100  1
  C  C10  1  0.19477800  0.60665100  0.66145800  1
  C  C11  1  0.80522200  0.39334900  0.33854200  1
  C  C12  1  0.12859200  0.30924000  0.18597700  1
  C  C13  1  0.87140800  0.69076000  0.81402300  1
  C  C14  1  0.00238000  0.20627000  0.24537000  1
  C  C15  1  0.99762000  0.79373000  0.75463000  1
  C  C16  1  0.29009900  0.26613500  0.10706600  1
  C  C17  1  0.70990100  0.73386500  0.89293400  1
  C  C18  1  0.08920200  0.45439700  0.20149700  1
  C  C19  1  0.91079800  0.54560300  0.79850300  1
  C  C20  1  0.83595000  0.24344600  0.31837700  1
  C  C21  1  0.16405000  0.75655400  0.68162300  1
  N  N22  1  0.41933600  0.22990300  0.03829300  1
  N  N23  1  0.58066400  0.77009700  0.96170700  1
  N  N24  1  0.36750600  0.01084200  0.67727900  1
  N  N25  1  0.63249400  0.98915800  0.32272100  1
  Cl  Cl26  1  0.24227900  0.57740400  0.12802700  1
  Cl  Cl27  1  0.75772100  0.42259600  0.87197300  1
  Cl  Cl28  1  0.06890300  0.03670100  0.22901700  1
  Cl  Cl29  1  0.93109700  0.96329900  0.77098300  1
  Cl  Cl30  1  0.12140300  0.32858000  0.69855600  1
  Cl  Cl31  1  0.87859700  0.67142000  0.30144400  1
  O  O32  1  0.34024900  0.55693400  0.58552300  1
  O  O33  1  0.65975100  0.44306600  0.41447700  1
  O  O34  1  0.61604100  0.20396200  0.49162200  1
  O  O35  1  0.38395900  0.79603800  0.50837800  1
