# generated using pymatgen
data_RbInH8(SO6)2
_symmetry_space_group_name_H-M   'P 1'
_cell_length_a   9.30916285
_cell_length_b   10.85401675
_cell_length_c   10.97812000
_cell_angle_alpha   90.00000000
_cell_angle_beta   90.00000000
_cell_angle_gamma   101.98039829
_symmetry_Int_Tables_number   1
_chemical_formula_structural   RbInH8(SO6)2
_chemical_formula_sum   'Rb4 In4 H32 S8 O48'
_cell_volume   1085.08819210
_cell_formula_units_Z   4
loop_
 _symmetry_equiv_pos_site_id
 _symmetry_equiv_pos_as_xyz
  1  'x, y, z'
loop_
 _atom_site_type_symbol
 _atom_site_label
 _atom_site_symmetry_multiplicity
 _atom_site_fract_x
 _atom_site_fract_y
 _atom_site_fract_z
 _atom_site_occupancy
  Rb  Rb0  1  0.72788800  0.82691300  0.43785200  1
  Rb  Rb1  1  0.27211200  0.17308700  0.93785200  1
  Rb  Rb2  1  0.77531700  0.18039900  0.96095400  1
  Rb  Rb3  1  0.22468300  0.81960100  0.46095400  1
  In  In4  1  0.65695100  0.79248900  0.83133100  1
  In  In5  1  0.34304900  0.20751100  0.33133100  1
  In  In6  1  0.84354400  0.20923800  0.56611100  1
  In  In7  1  0.15645600  0.79076200  0.06611100  1
  H  H8  1  0.18827300  0.88975100  0.82564700  1
  H  H9  1  0.81172700  0.11024900  0.32564700  1
  H  H10  1  0.21493600  0.57769600  0.60767500  1
  H  H11  1  0.78506400  0.42230400  0.10767500  1
  H  H12  1  0.56251100  0.59161600  0.67063000  1
  H  H13  1  0.43748900  0.40838400  0.17063000  1
  H  H14  1  0.93479400  0.40804700  0.73268000  1
  H  H15  1  0.06520600  0.59195300  0.23268000  1
  H  H16  1  0.71347500  0.58403100  0.29406800  1
  H  H17  1  0.28652500  0.41596900  0.79406800  1
  H  H18  1  0.93362400  0.59035200  0.51152800  1
  H  H19  1  0.06637600  0.40964800  0.01152800  1
  H  H20  1  0.68693500  0.89516500  0.07016600  1
  H  H21  1  0.31306500  0.10483500  0.57016600  1
  H  H22  1  0.17905600  0.63373200  0.73179300  1
  H  H23  1  0.82094400  0.36626800  0.23179300  1
  H  H24  1  0.54893400  0.40081700  0.89564000  1
  H  H25  1  0.45106600  0.59918300  0.39564000  1
  H  H26  1  0.56420200  0.32623300  0.77912600  1
  H  H27  1  0.43579800  0.67376700  0.27912600  1
  H  H28  1  0.93715600  0.66977500  0.22369900  1
  H  H29  1  0.06284400  0.33022500  0.72369900  1
  H  H30  1  0.68338500  0.65115700  0.17436900  1
  H  H31  1  0.31661500  0.34884300  0.67436900  1
  H  H32  1  0.93878000  0.67830000  0.62143900  1
  H  H33  1  0.06122000  0.32170000  0.12143900  1
  H  H34  1  0.85381500  0.90430400  0.02158200  1
  H  H35  1  0.14618500  0.09569600  0.52158200  1
  H  H36  1  0.35450400  0.89767300  0.87523400  1
  H  H37  1  0.64549600  0.10232700  0.37523400  1
  H  H38  1  0.43126500  0.66550100  0.68261300  1
  H  H39  1  0.56873500  0.33449900  0.18261300  1
  S  S40  1  0.96704200  0.97445400  0.71402300  1
  S  S41  1  0.03295800  0.02554600  0.21402300  1
  S  S42  1  0.89283400  0.60674400  0.89643200  1
  S  S43  1  0.10716600  0.39325600  0.39643200  1
  S  S44  1  0.39437100  0.60752600  0.00238000  1
  S  S45  1  0.60562900  0.39247400  0.50238000  1
  S  S46  1  0.46697000  0.97466500  0.18222300  1
  S  S47  1  0.53303000  0.02533500  0.68222300  1
  O  O48  1  0.25484000  0.64349300  0.66829300  1
  O  O49  1  0.74516000  0.35650700  0.16829300  1
  O  O50  1  0.47199700  0.73377300  0.95257400  1
  O  O51  1  0.52800300  0.26622700  0.45257400  1
  O  O52  1  0.56812300  0.31993000  0.86799500  1
  O  O53  1  0.43187700  0.68007000  0.36799500  1
  O  O54  1  0.75826900  0.65205700  0.23738500  1
  O  O55  1  0.24173100  0.34794300  0.73738500  1
  O  O56  1  0.67589700  0.12322300  0.69183900  1
  O  O57  1  0.32410300  0.87677700  0.19183900  1
  O  O58  1  0.96722300  0.05920000  0.60204700  1
  O  O59  1  0.03277700  0.94080000  0.10204700  1
  O  O60  1  0.97323400  0.04702300  0.82610000  1
  O  O61  1  0.02676600  0.95297700  0.32610000  1
  O  O62  1  0.82411100  0.87671000  0.70440100  1
  O  O63  1  0.17588900  0.12329000  0.20440100  1
  O  O64  1  0.53571600  0.41811400  0.61815400  1
  O  O65  1  0.46428400  0.58188600  0.11815400  1
  O  O66  1  0.52697900  0.95255700  0.57022400  1
  O  O67  1  0.47302100  0.04744300  0.07022400  1
  O  O68  1  0.59134300  0.91132800  0.19689300  1
  O  O69  1  0.40865700  0.08867200  0.69689300  1
  O  O70  1  0.73915300  0.62379900  0.86828700  1
  O  O71  1  0.26084700  0.37620100  0.36828700  1
  O  O72  1  0.53298800  0.94105400  0.79436100  1
  O  O73  1  0.46701200  0.05894600  0.29436100  1
  O  O74  1  0.25083100  0.89065600  0.90035500  1
  O  O75  1  0.74916900  0.10934400  0.40035500  1
  O  O76  1  0.96504200  0.57702500  0.78315100  1
  O  O77  1  0.03495800  0.42297500  0.28315100  1
  O  O78  1  0.76177400  0.37802100  0.52599800  1
  O  O79  1  0.23822600  0.62197900  0.02599800  1
  O  O80  1  0.09102900  0.91069200  0.69887100  1
  O  O81  1  0.90897100  0.08930800  0.19887100  1
  O  O82  1  0.97207000  0.73301100  0.94512300  1
  O  O83  1  0.02793000  0.26698900  0.44512300  1
  O  O84  1  0.88645000  0.50743200  0.98803800  1
  O  O85  1  0.11355000  0.49256800  0.48803800  1
  O  O86  1  0.54254700  0.67730100  0.68019400  1
  O  O87  1  0.45745300  0.32269900  0.18019400  1
  O  O88  1  0.95237300  0.32148000  0.72153300  1
  O  O89  1  0.04762700  0.67852000  0.22153300  1
  O  O90  1  0.75019600  0.89604600  0.99563500  1
  O  O91  1  0.24980400  0.10395400  0.49563500  1
  O  O92  1  0.92688700  0.67641700  0.53280400  1
  O  O93  1  0.07311300  0.32358300  0.03280400  1
  O  O94  1  0.39230400  0.50670800  0.91315000  1
  O  O95  1  0.60769600  0.49329200  0.41315000  1
