# generated using pymatgen
data_GdI3O11
_symmetry_space_group_name_H-M   'P 1'
_cell_length_a   7.07691800
_cell_length_b   7.57813517
_cell_length_c   10.75610923
_cell_angle_alpha   94.63424180
_cell_angle_beta   105.48234387
_cell_angle_gamma   110.39048904
_symmetry_Int_Tables_number   1
_chemical_formula_structural   GdI3O11
_chemical_formula_sum   'Gd2 I6 O22'
_cell_volume   511.34663606
_cell_formula_units_Z   2
loop_
 _symmetry_equiv_pos_site_id
 _symmetry_equiv_pos_as_xyz
  1  'x, y, z'
loop_
 _atom_site_type_symbol
 _atom_site_label
 _atom_site_symmetry_multiplicity
 _atom_site_fract_x
 _atom_site_fract_y
 _atom_site_fract_z
 _atom_site_occupancy
  Gd  Gd0  1  0.10345100  0.92230600  0.28935700  1
  Gd  Gd1  1  0.89654900  0.07769400  0.71064300  1
  I  I2  1  0.72192500  0.13976200  0.33811200  1
  I  I3  1  0.27807500  0.86023800  0.66188800  1
  I  I4  1  0.31714500  0.35881500  0.57366000  1
  I  I5  1  0.68285500  0.64118500  0.42634000  1
  I  I6  1  0.26710200  0.23082300  0.04532500  1
  I  I7  1  0.73289800  0.76917700  0.95467500  1
  O  O8  1  0.75372800  0.27640000  0.11229400  1
  O  O9  1  0.24627200  0.72360000  0.88770600  1
  O  O10  1  0.70629000  0.03488000  0.48486500  1
  O  O11  1  0.29371000  0.96512000  0.51513500  1
  O  O12  1  0.07012100  0.12518300  0.12983100  1
  O  O13  1  0.92987900  0.87481700  0.87016900  1
  O  O14  1  0.62343900  0.39854500  0.46428600  1
  O  O15  1  0.37656100  0.60145500  0.53571400  1
  O  O16  1  0.43413300  0.04860600  0.24832300  1
  O  O17  1  0.56586700  0.95139400  0.75167700  1
  O  O18  1  0.09799600  0.29688400  0.91140700  1
  O  O19  1  0.90200400  0.70311600  0.08859300  1
  O  O20  1  0.14233900  0.22319000  0.40729900  1
  O  O21  1  0.85766100  0.77681000  0.59270100  1
  O  O22  1  0.23593500  0.05743600  0.74757000  1
  O  O23  1  0.76406500  0.94256400  0.25243000  1
  O  O24  1  0.09937500  0.34804600  0.63868900  1
  O  O25  1  0.90062500  0.65195400  0.36131100  1
  O  O26  1  0.43557000  0.46057600  0.15237400  1
  O  O27  1  0.56443000  0.53942400  0.84762600  1
  O  O28  1  0.22402900  0.65191900  0.27583700  1
  O  O29  1  0.77597100  0.34808100  0.72416300  1
