# generated using pymatgen
data_Na2Zn2P2O11
_symmetry_space_group_name_H-M   'P 1'
_cell_length_a   10.64525453
_cell_length_b   10.64525453
_cell_length_c   15.15420300
_cell_angle_alpha   90.00000000
_cell_angle_beta   90.00000000
_cell_angle_gamma   120.00000326
_symmetry_Int_Tables_number   1
_chemical_formula_structural   Na2Zn2P2O11
_chemical_formula_sum   'Na12 Zn12 P12 O66'
_cell_volume   1487.22205595
_cell_formula_units_Z   6
loop_
 _symmetry_equiv_pos_site_id
 _symmetry_equiv_pos_as_xyz
  1  'x, y, z'
loop_
 _atom_site_type_symbol
 _atom_site_label
 _atom_site_symmetry_multiplicity
 _atom_site_fract_x
 _atom_site_fract_y
 _atom_site_fract_z
 _atom_site_occupancy
  Na  Na0  1  0.32018500  0.66596500  0.94407800  1
  Na  Na1  1  0.34577900  0.67981500  0.61074500  1
  Na  Na2  1  0.67981500  0.33403500  0.44407800  1
  Na  Na3  1  0.33403500  0.65422100  0.27741100  1
  Na  Na4  1  0.65422100  0.32018500  0.11074500  1
  Na  Na5  1  0.66596500  0.34577900  0.77741100  1
  Na  Na6  1  0.83176600  0.02769200  0.87547900  1
  Na  Na7  1  0.19592600  0.16823400  0.54214600  1
  Na  Na8  1  0.16823400  0.97230800  0.37547900  1
  Na  Na9  1  0.97230800  0.80407400  0.20881300  1
  Na  Na10  1  0.80407400  0.83176600  0.04214600  1
  Na  Na11  1  0.02769200  0.19592600  0.70881300  1
  Zn  Zn12  1  0.69332400  0.84724100  0.60997700  1
  Zn  Zn13  1  0.15391700  0.30667600  0.27664400  1
  Zn  Zn14  1  0.30667600  0.15275900  0.10997700  1
  Zn  Zn15  1  0.15275900  0.84608300  0.94331100  1
  Zn  Zn16  1  0.84608300  0.69332400  0.77664400  1
  Zn  Zn17  1  0.84724100  0.15391700  0.44331100  1
  Zn  Zn18  1  0.99060700  0.49975800  0.60603100  1
  Zn  Zn19  1  0.50915100  0.00939300  0.27269700  1
  Zn  Zn20  1  0.00939300  0.50024200  0.10603100  1
  Zn  Zn21  1  0.50024200  0.49084900  0.93936400  1
  Zn  Zn22  1  0.49084900  0.99060700  0.77269700  1
  Zn  Zn23  1  0.49975800  0.50915100  0.43936400  1
  P  P24  1  0.58988300  0.83053100  0.41684400  1
  P  P25  1  0.24064700  0.41011700  0.08351100  1
  P  P26  1  0.41011700  0.16946900  0.91684400  1
  P  P27  1  0.16946900  0.75935300  0.75017800  1
  P  P28  1  0.75935300  0.58988300  0.58351100  1
  P  P29  1  0.83053100  0.24064700  0.25017800  1
  P  P30  1  0.58643600  0.75609600  0.80107600  1
  P  P31  1  0.16966100  0.41356400  0.46774300  1
  P  P32  1  0.41356400  0.24390400  0.30107600  1
  P  P33  1  0.24390400  0.83033900  0.13440900  1
  P  P34  1  0.83033900  0.58643600  0.96774300  1
  P  P35  1  0.75609600  0.16966100  0.63440900  1
  O  O36  1  0.54767900  0.72927700  0.70196400  1
  O  O37  1  0.18159700  0.45232100  0.36863100  1
  O  O38  1  0.45232100  0.27072300  0.20196400  1
  O  O39  1  0.27072300  0.81840300  0.03529800  1
  O  O40  1  0.81840300  0.54767900  0.86863100  1
  O  O41  1  0.72927700  0.18159700  0.53529800  1
  O  O42  1  0.58046500  0.89191000  0.83471100  1
  O  O43  1  0.31144500  0.41953500  0.50137700  1
  O  O44  1  0.41953500  0.10809000  0.33471100  1
  O  O45  1  0.10809000  0.68855500  0.16804400  1
  O  O46  1  0.68855500  0.58046500  0.00137700  1
  O  O47  1  0.89191000  0.31144500  0.66804400  1
  O  O48  1  0.75627500  0.94868000  0.40885600  1
  O  O49  1  0.19240500  0.24372500  0.07552300  1
  O  O50  1  0.24372500  0.05132000  0.90885600  1
  O  O51  1  0.05132000  0.80759500  0.74218900  1
  O  O52  1  0.80759500  0.75627500  0.57552300  1
  O  O53  1  0.94868000  0.19240500  0.24218900  1
  O  O54  1  0.50536400  0.12016400  0.86896300  1
  O  O55  1  0.61480000  0.49463600  0.53563000  1
  O  O56  1  0.49463600  0.87983600  0.36896300  1
  O  O57  1  0.87983600  0.38520000  0.20229600  1
  O  O58  1  0.38520000  0.50536400  0.03563000  1
  O  O59  1  0.12016400  0.61480000  0.70229600  1
  O  O60  1  0.66593600  0.06442100  0.01998100  1
  O  O61  1  0.39848500  0.33406400  0.68664800  1
  O  O62  1  0.33406400  0.93557900  0.51998100  1
  O  O63  1  0.93557900  0.60151500  0.35331500  1
  O  O64  1  0.60151500  0.66593600  0.18664800  1
  O  O65  1  0.06442100  0.39848500  0.85331500  1
  O  O66  1  0.74777200  0.79596100  0.81826100  1
  O  O67  1  0.04818900  0.25222800  0.48492700  1
  O  O68  1  0.25222800  0.20403900  0.31826100  1
  O  O69  1  0.20403900  0.95181100  0.15159400  1
  O  O70  1  0.95181100  0.74777200  0.98492700  1
  O  O71  1  0.79596100  0.04818900  0.65159400  1
  O  O72  1  0.97958800  0.08158700  0.01403000  1
  O  O73  1  0.10199900  0.02041200  0.68069700  1
  O  O74  1  0.02041200  0.91841300  0.51403000  1
  O  O75  1  0.91841300  0.89800100  0.34736300  1
  O  O76  1  0.89800100  0.97958800  0.18069700  1
  O  O77  1  0.08158700  0.10199900  0.84736300  1
  O  O78  1  0.56168800  0.68685700  0.37430100  1
  O  O79  1  0.12516900  0.43831200  0.04096700  1
  O  O80  1  0.43831200  0.31314300  0.87430100  1
  O  O81  1  0.31314300  0.87483100  0.70763400  1
  O  O82  1  0.87483100  0.56168800  0.54096700  1
  O  O83  1  0.68685700  0.12516900  0.20763400  1
  O  O84  1  0.93556900  0.31491100  0.87025300  1
  O  O85  1  0.37934200  0.06443100  0.53691900  1
  O  O86  1  0.06443100  0.68508900  0.37025300  1
  O  O87  1  0.68508900  0.62065800  0.20358600  1
  O  O88  1  0.62065800  0.93556900  0.03691900  1
  O  O89  1  0.31491100  0.37934200  0.70358600  1
  O  O90  1  0.47895600  0.62262000  0.85566400  1
  O  O91  1  0.14366500  0.52104400  0.52233100  1
  O  O92  1  0.52104400  0.37738000  0.35566400  1
  O  O93  1  0.37738000  0.85633500  0.18899700  1
  O  O94  1  0.85633500  0.47895600  0.02233100  1
  O  O95  1  0.62262000  0.14366500  0.68899700  1
  O  O96  1  0.54954300  0.80856100  0.51653100  1
  O  O97  1  0.25901800  0.45045700  0.18319700  1
  O  O98  1  0.45045700  0.19143900  0.01653100  1
  O  O99  1  0.19143900  0.74098200  0.84986400  1
  O  O100  1  0.74098200  0.54954300  0.68319700  1
  O  O101  1  0.80856100  0.25901800  0.34986400  1
