# generated using pymatgen
data_H10C2N12O5
_symmetry_space_group_name_H-M   'P 1'
_cell_length_a   6.88778743
_cell_length_b   6.88778743
_cell_length_c   13.68297919
_cell_angle_alpha   79.62793583
_cell_angle_beta   79.62793583
_cell_angle_gamma   73.08856623
_symmetry_Int_Tables_number   1
_chemical_formula_structural   H10C2N12O5
_chemical_formula_sum   'H20 C4 N24 O10'
_cell_volume   605.27490496
_cell_formula_units_Z   2
loop_
 _symmetry_equiv_pos_site_id
 _symmetry_equiv_pos_as_xyz
  1  'x, y, z'
loop_
 _atom_site_type_symbol
 _atom_site_label
 _atom_site_symmetry_multiplicity
 _atom_site_fract_x
 _atom_site_fract_y
 _atom_site_fract_z
 _atom_site_occupancy
  H  H0  1  0.53329600  0.87763900  0.27683700  1
  H  H1  1  0.46670400  0.12236100  0.72316300  1
  H  H2  1  0.12236100  0.46670400  0.22316300  1
  H  H3  1  0.87763900  0.53329600  0.77683700  1
  H  H4  1  0.71319900  0.98464300  0.29606600  1
  H  H5  1  0.28680100  0.01535700  0.70393400  1
  H  H6  1  0.01535700  0.28680000  0.20393400  1
  H  H7  1  0.98464300  0.71320000  0.79606600  1
  H  H8  1  0.46840900  0.06648400  0.35292700  1
  H  H9  1  0.53159100  0.93351600  0.64707300  1
  H  H10  1  0.93351600  0.53159100  0.14707300  1
  H  H11  1  0.06648400  0.46840900  0.85292700  1
  H  H12  1  0.08241000  0.93902900  0.19242100  1
  H  H13  1  0.91759000  0.06097100  0.80757900  1
  H  H14  1  0.06097100  0.91759000  0.30757900  1
  H  H15  1  0.93902900  0.08241000  0.69242100  1
  H  H16  1  0.61802700  0.83066100  0.39149400  1
  H  H17  1  0.38197300  0.16933900  0.60850600  1
  H  H18  1  0.16933900  0.38197300  0.10850600  1
  H  H19  1  0.83066100  0.61802700  0.89149400  1
  C  C20  1  0.42936600  0.75957300  0.02226800  1
  C  C21  1  0.57063400  0.24042700  0.97773200  1
  C  C22  1  0.24042700  0.57063400  0.47773200  1
  C  C23  1  0.75957300  0.42936600  0.52226800  1
  N  N24  1  0.34566900  0.81209300  0.11307300  1
  N  N25  1  0.65433100  0.18790700  0.88692700  1
  N  N26  1  0.18790700  0.65433100  0.38692700  1
  N  N27  1  0.81209300  0.34566900  0.61307300  1
  N  N28  1  0.50679900  0.78035400  0.16073500  1
  N  N29  1  0.49320100  0.21964600  0.83926500  1
  N  N30  1  0.21964600  0.49320100  0.33926500  1
  N  N31  1  0.78035400  0.50679900  0.66073500  1
  N  N32  1  0.58190300  0.93988200  0.32946900  1
  N  N33  1  0.41809700  0.06011800  0.67053100  1
  N  N34  1  0.06011800  0.41809700  0.17053100  1
  N  N35  1  0.93988200  0.58190300  0.82946900  1
  N  N36  1  0.63457600  0.69642300  0.01155400  1
  N  N37  1  0.36542400  0.30357700  0.98844600  1
  N  N38  1  0.30357700  0.36542400  0.48844600  1
  N  N39  1  0.69642300  0.63457600  0.51155400  1
  N  N40  1  0.68715000  0.23504100  0.05660300  1
  N  N41  1  0.31285000  0.76495900  0.94339700  1
  N  N42  1  0.76495900  0.31285000  0.44339700  1
  N  N43  1  0.23504100  0.68715000  0.55660300  1
  N  N44  1  0.67984700  0.70960400  0.10044000  1
  N  N45  1  0.32015300  0.29039600  0.89956000  1
  N  N46  1  0.29039600  0.32015300  0.39956000  1
  N  N47  1  0.70960400  0.67984700  0.60044000  1
  O  O48  1  0.99620200  0.00379800  0.25000000  1
  O  O49  1  0.00379800  0.99620200  0.75000000  1
  O  O50  1  0.78322600  0.12631800  0.46630700  1
  O  O51  1  0.21677400  0.87368200  0.53369300  1
  O  O52  1  0.87368200  0.21677400  0.03369300  1
  O  O53  1  0.12631800  0.78322600  0.96630700  1
  O  O54  1  0.59020700  0.25310100  0.14170900  1
  O  O55  1  0.40979300  0.74689900  0.85829100  1
  O  O56  1  0.74689900  0.40979300  0.35829100  1
  O  O57  1  0.25310100  0.59020700  0.64170900  1
