# generated using pymatgen
data_K2BaNa2Ti4Si8(WO7)4
_symmetry_space_group_name_H-M   'P 1'
_cell_length_a   10.12324886
_cell_length_b   10.12324886
_cell_length_c   8.05776788
_cell_angle_alpha   70.28569830
_cell_angle_beta   70.28569830
_cell_angle_gamma   90.07214182
_symmetry_Int_Tables_number   1
_chemical_formula_structural   K2BaNa2Ti4Si8(WO7)4
_chemical_formula_sum   'K2 Ba1 Na2 Ti4 Si8 W4 O28'
_cell_volume   725.60348739
_cell_formula_units_Z   1
loop_
 _symmetry_equiv_pos_site_id
 _symmetry_equiv_pos_as_xyz
  1  'x, y, z'
loop_
 _atom_site_type_symbol
 _atom_site_label
 _atom_site_symmetry_multiplicity
 _atom_site_fract_x
 _atom_site_fract_y
 _atom_site_fract_z
 _atom_site_occupancy
  K  K0  1  0.20869000  0.20869000  0.96673700  1
  K  K1  1  0.01829300  0.01829300  0.61980400  1
  Ba  Ba2  1  0.55971200  0.55971200  0.57684600  1
  Na  Na3  1  0.75564500  0.25474700  0.25330300  1
  Na  Na4  1  0.25474700  0.75564500  0.25330300  1
  Ti  Ti5  1  0.85872800  0.39528300  0.77087200  1
  Ti  Ti6  1  0.39528300  0.85872800  0.77087200  1
  Ti  Ti7  1  0.13959800  0.62664900  0.76886400  1
  Ti  Ti8  1  0.62664900  0.13959800  0.76886400  1
  Si  Si9  1  0.94539800  0.72772900  0.48878600  1
  Si  Si10  1  0.72772900  0.94539800  0.48878600  1
  Si  Si11  1  0.20204200  0.40952100  0.53592900  1
  Si  Si12  1  0.40952100  0.20204200  0.53592900  1
  Si  Si13  1  0.04836600  0.82728600  0.03903700  1
  Si  Si14  1  0.82728600  0.04836600  0.03903700  1
  Si  Si15  1  0.31589100  0.52945600  0.08949100  1
  Si  Si16  1  0.52945600  0.31589100  0.08949100  1
  W  W17  1  0.94791100  0.43724200  0.32642100  1
  W  W18  1  0.43724200  0.94791100  0.32642100  1
  W  W19  1  0.80536500  0.58868000  0.02472500  1
  W  W20  1  0.58868000  0.80536500  0.02472500  1
  O  O21  1  0.29167400  0.50170500  0.31189800  1
  O  O22  1  0.50170500  0.29167400  0.31189800  1
  O  O23  1  0.87598200  0.87598200  0.48591100  1
  O  O24  1  0.24594800  0.24594800  0.58279600  1
  O  O25  1  0.24460700  0.48085100  0.66551400  1
  O  O26  1  0.48085100  0.24460700  0.66551400  1
  O  O27  1  0.08438700  0.73378100  0.54425800  1
  O  O28  1  0.73378100  0.08438700  0.54425800  1
  O  O29  1  0.96576900  0.49843300  0.86194300  1
  O  O30  1  0.49843300  0.96576900  0.86194300  1
  O  O31  1  0.68274400  0.41685600  0.98328200  1
  O  O32  1  0.41685600  0.68274400  0.98328200  1
  O  O33  1  0.03657500  0.39467400  0.55747000  1
  O  O34  1  0.39467400  0.03657500  0.55747000  1
  O  O35  1  0.40662900  0.40662900  0.02274100  1
  O  O36  1  0.97387200  0.97387200  0.01561000  1
  O  O37  1  0.16545500  0.52348900  0.05811800  1
  O  O38  1  0.52348900  0.16545500  0.05811800  1
  O  O39  1  0.87796800  0.21684800  0.95087900  1
  O  O40  1  0.21684800  0.87796800  0.95087900  1
  O  O41  1  0.75653700  0.31780000  0.65123900  1
  O  O42  1  0.31780000  0.75653700  0.65123900  1
  O  O43  1  0.00806100  0.73485700  0.26483800  1
  O  O44  1  0.73485700  0.00806100  0.26483800  1
  O  O45  1  0.99833500  0.73926800  0.92957400  1
  O  O46  1  0.73926800  0.99833500  0.92957400  1
  O  O47  1  0.82703900  0.58902600  0.60158700  1
  O  O48  1  0.58902600  0.82703900  0.60158700  1
