# generated using pymatgen
data_GdMoO5
_symmetry_space_group_name_H-M   'P 1'
_cell_length_a   12.65083200
_cell_length_b   5.40164500
_cell_length_c   6.97764886
_cell_angle_alpha   64.60265194
_cell_angle_beta   90.00000000
_cell_angle_gamma   90.00000000
_symmetry_Int_Tables_number   1
_chemical_formula_structural   GdMoO5
_chemical_formula_sum   'Gd4 Mo4 O20'
_cell_volume   430.73757636
_cell_formula_units_Z   4
loop_
 _symmetry_equiv_pos_site_id
 _symmetry_equiv_pos_as_xyz
  1  'x, y, z'
loop_
 _atom_site_type_symbol
 _atom_site_label
 _atom_site_symmetry_multiplicity
 _atom_site_fract_x
 _atom_site_fract_y
 _atom_site_fract_z
 _atom_site_occupancy
  Gd  Gd0  1  0.05537700  0.64458900  0.71142700  1
  Gd  Gd1  1  0.94462300  0.35541100  0.28857300  1
  Gd  Gd2  1  0.55537700  0.35541100  0.78857300  1
  Gd  Gd3  1  0.44462300  0.64458900  0.21142700  1
  Mo  Mo4  1  0.36125900  0.91297400  0.64365700  1
  Mo  Mo5  1  0.63874100  0.08702600  0.35634300  1
  Mo  Mo6  1  0.86125900  0.08702600  0.85634300  1
  Mo  Mo7  1  0.13874100  0.91297400  0.14365700  1
  O  O8  1  0.42067800  0.49741800  0.95191900  1
  O  O9  1  0.57932200  0.50258200  0.04808100  1
  O  O10  1  0.92067800  0.50258200  0.54808100  1
  O  O11  1  0.07932200  0.49741800  0.45191900  1
  O  O12  1  0.92661900  0.98768800  0.66080200  1
  O  O13  1  0.07338100  0.01231200  0.33919800  1
  O  O14  1  0.42661900  0.01231200  0.83919800  1
  O  O15  1  0.57338100  0.98768800  0.16080200  1
  O  O16  1  0.43573200  0.70668300  0.53526100  1
  O  O17  1  0.56426800  0.29331700  0.46473900  1
  O  O18  1  0.93573200  0.29331700  0.96473900  1
  O  O19  1  0.06426800  0.70668300  0.03526100  1
  O  O20  1  0.22974400  0.79386200  0.71302700  1
  O  O21  1  0.77025600  0.20613800  0.28697300  1
  O  O22  1  0.72974400  0.20613800  0.78697300  1
  O  O23  1  0.27025600  0.79386200  0.21302700  1
  O  O24  1  0.65241700  0.76711400  0.57798100  1
  O  O25  1  0.34758300  0.23288600  0.42201900  1
  O  O26  1  0.15241700  0.23288600  0.92201900  1
  O  O27  1  0.84758300  0.76711400  0.07798100  1
