# generated using pymatgen
data_GaAg(SO4)2
_symmetry_space_group_name_H-M   'P 1'
_cell_length_a   4.80046705
_cell_length_b   4.80046705
_cell_length_c   7.45669988
_cell_angle_alpha   87.84630564
_cell_angle_beta   87.84630564
_cell_angle_gamma   65.45927206
_symmetry_Int_Tables_number   1
_chemical_formula_structural   GaAg(SO4)2
_chemical_formula_sum   'Ga1 Ag1 S2 O8'
_cell_volume   156.15717765
_cell_formula_units_Z   1
loop_
 _symmetry_equiv_pos_site_id
 _symmetry_equiv_pos_as_xyz
  1  'x, y, z'
loop_
 _atom_site_type_symbol
 _atom_site_label
 _atom_site_symmetry_multiplicity
 _atom_site_fract_x
 _atom_site_fract_y
 _atom_site_fract_z
 _atom_site_occupancy
  Ga  Ga0  1  0.00000000  0.00000000  0.00000000  1
  Ag  Ag1  1  0.00000000  0.00000000  0.50000000  1
  S  S2  1  0.36371900  0.36371900  0.78991000  1
  S  S3  1  0.63628100  0.63628100  0.21009000  1
  O  O4  1  0.29505700  0.29505700  0.61340300  1
  O  O5  1  0.70494300  0.70494300  0.38659700  1
  O  O6  1  0.70761200  0.23861500  0.80849700  1
  O  O7  1  0.29238800  0.76138500  0.19150300  1
  O  O8  1  0.76138500  0.29238800  0.19150300  1
  O  O9  1  0.23861500  0.70761200  0.80849700  1
  O  O10  1  0.24004200  0.24004200  0.94411500  1
  O  O11  1  0.75995800  0.75995800  0.05588500  1
