# generated using pymatgen
data_K4TmP8H18(NO2)8
_symmetry_space_group_name_H-M   'P 1'
_cell_length_a   11.08433691
_cell_length_b   11.08433691
_cell_length_c   19.20355134
_cell_angle_alpha   86.01724627
_cell_angle_beta   86.01724627
_cell_angle_gamma   60.65336068
_symmetry_Int_Tables_number   1
_chemical_formula_structural   K4TmP8H18(NO2)8
_chemical_formula_sum   'K8 Tm2 P16 H36 N16 O32'
_cell_volume   2049.94778054
_cell_formula_units_Z   2
loop_
 _symmetry_equiv_pos_site_id
 _symmetry_equiv_pos_as_xyz
  1  'x, y, z'
loop_
 _atom_site_type_symbol
 _atom_site_label
 _atom_site_symmetry_multiplicity
 _atom_site_fract_x
 _atom_site_fract_y
 _atom_site_fract_z
 _atom_site_occupancy
  K  K0  1  0.50000000  0.00000000  0.00000000  1
  K  K1  1  0.00000000  0.50000000  0.50000000  1
  K  K2  1  0.37425400  0.62574600  0.25000000  1
  K  K3  1  0.62574600  0.37425400  0.75000000  1
  K  K4  1  0.43619900  0.19532400  0.29316100  1
  K  K5  1  0.56380100  0.80467600  0.70683900  1
  K  K6  1  0.80467600  0.56380100  0.20683900  1
  K  K7  1  0.19532400  0.43619900  0.79316100  1
  Tm  Tm8  1  0.75998600  0.24001400  0.25000000  1
  Tm  Tm9  1  0.24001400  0.75998600  0.75000000  1
  P  P10  1  0.89215300  0.02817300  0.10703200  1
  P  P11  1  0.10784700  0.97182700  0.89296800  1
  P  P12  1  0.97182700  0.10784700  0.39296800  1
  P  P13  1  0.02817300  0.89215300  0.60703200  1
  P  P14  1  0.58989400  0.20399700  0.11332800  1
  P  P15  1  0.41010600  0.79600300  0.88667200  1
  P  P16  1  0.79600300  0.41010600  0.38667200  1
  P  P17  1  0.20399700  0.58989400  0.61332800  1
  P  P18  1  0.71224000  0.06904000  0.40480800  1
  P  P19  1  0.28776000  0.93096000  0.59519200  1
  P  P20  1  0.93096000  0.28776000  0.09519200  1
  P  P21  1  0.06904000  0.71224000  0.90480900  1
  P  P22  1  0.53325800  0.38922900  0.39852700  1
  P  P23  1  0.46674200  0.61077100  0.60147300  1
  P  P24  1  0.61077100  0.46674200  0.10147300  1
  P  P25  1  0.38922900  0.53325800  0.89852700  1
  H  H26  1  0.23926300  0.05736600  0.05342600  1
  H  H27  1  0.76073700  0.94263400  0.94657400  1
  H  H28  1  0.94263400  0.76073700  0.44657400  1
  H  H29  1  0.05736600  0.23926300  0.55342600  1
  H  H30  1  0.68299400  0.90978300  0.58549400  1
  H  H31  1  0.31700600  0.09021700  0.41450600  1
  H  H32  1  0.09021700  0.31700600  0.91450600  1
  H  H33  1  0.90978300  0.68299400  0.08549400  1
  H  H34  1  0.61126000  0.77534500  0.09526800  1
  H  H35  1  0.38874000  0.22465500  0.90473200  1
  H  H36  1  0.22465500  0.38874000  0.40473200  1
  H  H37  1  0.77534500  0.61126000  0.59526800  1
  H  H38  1  0.42232200  0.02204100  0.18590900  1
  H  H39  1  0.57767800  0.97795900  0.81409100  1
  H  H40  1  0.97795900  0.57767800  0.31409100  1
  H  H41  1  0.02204100  0.42232200  0.68590900  1
  H  H42  1  0.26348400  0.79958900  0.11506400  1
  H  H43  1  0.73651600  0.20041100  0.88493600  1
  H  H44  1  0.20041100  0.73651600  0.38493600  1
  H  H45  1  0.79958900  0.26348400  0.61506400  1
  H  H46  1  0.49034400  0.77777400  0.30292600  1
  H  H47  1  0.50965600  0.22222600  0.69707400  1
  H  H48  1  0.22222600  0.50965600  0.19707400  1
  H  H49  1  0.77777400  0.49034400  0.80292600  1
  H  H50  1  0.58147500  0.77837100  0.43540200  1
  H  H51  1  0.41852500  0.22162900  0.56459800  1
  H  H52  1  0.22162900  0.41852500  0.06459800  1
  H  H53  1  0.77837100  0.58147500  0.93540200  1
  H  H54  1  0.18896400  0.97587400  0.23944300  1
  H  H55  1  0.81103600  0.02412600  0.76055700  1
  H  H56  1  0.02412600  0.81103600  0.26055700  1
  H  H57  1  0.97587400  0.18896400  0.73944300  1
  H  H58  1  0.71387200  0.88820500  0.23557100  1
  H  H59  1  0.28612800  0.11179500  0.76442900  1
  H  H60  1  0.11179500  0.28612800  0.26442900  1
  H  H61  1  0.88820500  0.71387200  0.73557100  1
  N  N62  1  0.86544200  0.04855600  0.42109300  1
  N  N63  1  0.13455800  0.95144400  0.57890700  1
  N  N64  1  0.95144400  0.13455800  0.07890700  1
  N  N65  1  0.04855600  0.86544200  0.92109300  1
  N  N66  1  0.73853000  0.10181500  0.07259400  1
  N  N67  1  0.26147000  0.89818500  0.92740600  1
  N  N68  1  0.89818500  0.26147000  0.42740600  1
  N  N69  1  0.10181500  0.73853000  0.57259400  1
  N  N70  1  0.56785700  0.35350200  0.07906400  1
  N  N71  1  0.43214300  0.64649800  0.92093600  1
  N  N72  1  0.64649800  0.43214300  0.42093600  1
  N  N73  1  0.35350200  0.56785700  0.57906400  1
  N  N74  1  0.59028500  0.22608000  0.42592600  1
  N  N75  1  0.40971500  0.77392000  0.57407400  1
  N  N76  1  0.77392000  0.40971500  0.07407400  1
  N  N77  1  0.22608000  0.59028500  0.92592600  1
  O  O78  1  0.88291400  0.04811700  0.18607900  1
  O  O79  1  0.11708600  0.95188300  0.81392100  1
  O  O80  1  0.95188300  0.11708600  0.31392100  1
  O  O81  1  0.04811700  0.88291400  0.68607900  1
  O  O82  1  0.53638900  0.38067800  0.31825300  1
  O  O83  1  0.46361100  0.61932200  0.68174700  1
  O  O84  1  0.61932200  0.46361100  0.18174700  1
  O  O85  1  0.38067800  0.53638900  0.81825300  1
  O  O86  1  0.60024100  0.21039700  0.19255900  1
  O  O87  1  0.39975900  0.78960300  0.80744100  1
  O  O88  1  0.78960300  0.39975900  0.30744100  1
  O  O89  1  0.21039700  0.60024100  0.69255900  1
  O  O90  1  0.70547300  0.08308500  0.32471300  1
  O  O91  1  0.29452700  0.91691500  0.67528700  1
  O  O92  1  0.91691500  0.29452700  0.17528700  1
  O  O93  1  0.08308500  0.70547300  0.82471300  1
  O  O94  1  0.88378800  0.97969400  0.58265800  1
  O  O95  1  0.11621200  0.02030600  0.41734200  1
  O  O96  1  0.02030600  0.11621200  0.91734200  1
  O  O97  1  0.97969400  0.88378800  0.08265800  1
  O  O98  1  0.68851600  0.96042900  0.44356100  1
  O  O99  1  0.31148400  0.03957100  0.55643900  1
  O  O100  1  0.03957100  0.31148400  0.05643900  1
  O  O101  1  0.96042900  0.68851600  0.94356100  1
  O  O102  1  0.48194200  0.16736700  0.09528200  1
  O  O103  1  0.51805800  0.83263300  0.90471800  1
  O  O104  1  0.83263300  0.51805800  0.40471800  1
  O  O105  1  0.16736700  0.48194200  0.59528200  1
  O  O106  1  0.51682000  0.60813700  0.06989700  1
  O  O107  1  0.48318000  0.39186300  0.93010300  1
  O  O108  1  0.39186300  0.48318000  0.43010300  1
  O  O109  1  0.60813700  0.51682000  0.56989700  1
