# generated using pymatgen
data_FeS2NO8
_symmetry_space_group_name_H-M   'P 1'
_cell_length_a   4.93179993
_cell_length_b   4.93179993
_cell_length_c   8.58491600
_cell_angle_alpha   90.00000000
_cell_angle_beta   90.00000000
_cell_angle_gamma   119.99999900
_symmetry_Int_Tables_number   1
_chemical_formula_structural   FeS2NO8
_chemical_formula_sum   'Fe1 S2 N1 O8'
_cell_volume   180.83295766
_cell_formula_units_Z   1
loop_
 _symmetry_equiv_pos_site_id
 _symmetry_equiv_pos_as_xyz
  1  'x, y, z'
loop_
 _atom_site_type_symbol
 _atom_site_label
 _atom_site_symmetry_multiplicity
 _atom_site_fract_x
 _atom_site_fract_y
 _atom_site_fract_z
 _atom_site_occupancy
  Fe  Fe0  1  0.00000000  0.00000000  0.00000000  1
  S  S1  1  0.33333300  0.66666700  0.20754800  1
  S  S2  1  0.66666700  0.33333300  0.79245200  1
  N  N3  1  0.00000000  0.00000000  0.50000000  1
  O  O4  1  0.08741800  0.35490000  0.14684700  1
  O  O5  1  0.64510000  0.73251800  0.14684700  1
  O  O6  1  0.35490000  0.08741800  0.85315300  1
  O  O7  1  0.26748200  0.91258200  0.14684700  1
  O  O8  1  0.73251800  0.64510000  0.85315300  1
  O  O9  1  0.91258200  0.26748200  0.85315300  1
  O  O10  1  0.33333300  0.66666700  0.37682400  1
  O  O11  1  0.66666700  0.33333300  0.62317600  1
