# generated using pymatgen
data_MgSO11
_symmetry_space_group_name_H-M   'P 1'
_cell_length_a   4.64962500
_cell_length_b   11.76454900
_cell_length_c   15.83658200
_cell_angle_alpha   90.00000000
_cell_angle_beta   90.00000000
_cell_angle_gamma   90.00000000
_symmetry_Int_Tables_number   1
_chemical_formula_structural   MgSO11
_chemical_formula_sum   'Mg4 S4 O44'
_cell_volume   866.27277259
_cell_formula_units_Z   4
loop_
 _symmetry_equiv_pos_site_id
 _symmetry_equiv_pos_as_xyz
  1  'x, y, z'
loop_
 _atom_site_type_symbol
 _atom_site_label
 _atom_site_symmetry_multiplicity
 _atom_site_fract_x
 _atom_site_fract_y
 _atom_site_fract_z
 _atom_site_occupancy
  Mg  Mg0  1  0.69046600  0.72738400  0.60458700  1
  Mg  Mg1  1  0.30953400  0.22738400  0.89541300  1
  Mg  Mg2  1  0.80953400  0.27261600  0.10458700  1
  Mg  Mg3  1  0.19046600  0.77261600  0.39541300  1
  S  S4  1  0.39512300  0.53722600  0.49056400  1
  S  S5  1  0.60487700  0.03722600  0.00943600  1
  S  S6  1  0.10487700  0.46277400  0.99056400  1
  S  S7  1  0.89512300  0.96277400  0.50943600  1
  O  O8  1  0.67251100  0.70493100  0.30118900  1
  O  O9  1  0.32748900  0.20493100  0.19881100  1
  O  O10  1  0.82748900  0.29506900  0.80118900  1
  O  O11  1  0.17251100  0.79506900  0.69881100  1
  O  O12  1  0.67505700  0.43434800  0.20462600  1
  O  O13  1  0.32494300  0.93434800  0.29537400  1
  O  O14  1  0.82494300  0.56565200  0.70462600  1
  O  O15  1  0.17505700  0.06565200  0.79537400  1
  O  O16  1  0.24191600  0.72463100  0.63272400  1
  O  O17  1  0.75808400  0.22463100  0.86727600  1
  O  O18  1  0.25808400  0.27536900  0.13272400  1
  O  O19  1  0.74191600  0.77536900  0.36727600  1
  O  O20  1  0.45236000  0.20584000  0.65554000  1
  O  O21  1  0.54764000  0.70584000  0.84446000  1
  O  O22  1  0.04764000  0.79416000  0.15554000  1
  O  O23  1  0.95236000  0.29416000  0.34446000  1
  O  O24  1  0.24096800  0.48049200  0.56006700  1
  O  O25  1  0.75903200  0.98049200  0.93993300  1
  O  O26  1  0.25903200  0.51950800  0.06006700  1
  O  O27  1  0.74096800  0.01950800  0.43993300  1
  O  O28  1  0.20103500  0.62167900  0.44762600  1
  O  O29  1  0.79896500  0.12167900  0.05237400  1
  O  O30  1  0.29896500  0.37832100  0.94762600  1
  O  O31  1  0.70103500  0.87832100  0.55237400  1
  O  O32  1  0.39210000  0.69633400  0.29024300  1
  O  O33  1  0.60790000  0.19633400  0.20975700  1
  O  O34  1  0.10790000  0.30366600  0.79024300  1
  O  O35  1  0.89210000  0.80366600  0.70975700  1
  O  O36  1  0.64459100  0.60375500  0.52468300  1
  O  O37  1  0.35540900  0.10375500  0.97531700  1
  O  O38  1  0.85540900  0.39624500  0.02468300  1
  O  O39  1  0.14459100  0.89624500  0.47531700  1
  O  O40  1  0.55304300  0.24796000  0.59171100  1
  O  O41  1  0.44695700  0.74796000  0.90828900  1
  O  O42  1  0.94695700  0.75204000  0.09171100  1
  O  O43  1  0.05304300  0.25204000  0.40828900  1
  O  O44  1  0.65611300  0.49013700  0.72500900  1
  O  O45  1  0.34388700  0.99013700  0.77499100  1
  O  O46  1  0.84388700  0.50986300  0.22500900  1
  O  O47  1  0.15611300  0.00986300  0.27499100  1
  O  O48  1  0.48956400  0.45126200  0.42975200  1
  O  O49  1  0.51043600  0.95126200  0.07024800  1
  O  O50  1  0.01043600  0.54873800  0.92975200  1
  O  O51  1  0.98956400  0.04873800  0.57024800  1
