# generated using pymatgen
data_Fe(CN)6
_symmetry_space_group_name_H-M   'P 1'
_cell_length_a   6.47920809
_cell_length_b   7.30191828
_cell_length_c   11.91017700
_cell_angle_alpha   90.00000000
_cell_angle_beta   90.00000000
_cell_angle_gamma   105.78863688
_symmetry_Int_Tables_number   1
_chemical_formula_structural   Fe(CN)6
_chemical_formula_sum   'Fe2 C12 N12'
_cell_volume   542.21927169
_cell_formula_units_Z   2
loop_
 _symmetry_equiv_pos_site_id
 _symmetry_equiv_pos_as_xyz
  1  'x, y, z'
loop_
 _atom_site_type_symbol
 _atom_site_label
 _atom_site_symmetry_multiplicity
 _atom_site_fract_x
 _atom_site_fract_y
 _atom_site_fract_z
 _atom_site_occupancy
  Fe  Fe0  1  0.00000000  0.00000000  0.00000000  1
  Fe  Fe1  1  0.00000000  0.50000000  0.50000000  1
  C  C2  1  0.81649600  0.45928200  0.37062100  1
  C  C3  1  0.18350400  0.54071800  0.62937900  1
  C  C4  1  0.18350400  0.04071800  0.87062100  1
  C  C5  1  0.81649600  0.95928200  0.12937900  1
  C  C6  1  0.78373000  0.81190400  0.92459600  1
  C  C7  1  0.21627000  0.18809600  0.07540400  1
  C  C8  1  0.21627000  0.68809600  0.42459600  1
  C  C9  1  0.78373000  0.31190400  0.57540400  1
  C  C10  1  0.87237000  0.69367900  0.54762700  1
  C  C11  1  0.12763000  0.30632100  0.45237300  1
  C  C12  1  0.12763000  0.80632100  0.04762700  1
  C  C13  1  0.87237000  0.19367900  0.95237300  1
  N  N14  1  0.79563000  0.81441400  0.57779300  1
  N  N15  1  0.20437000  0.18558600  0.42220700  1
  N  N16  1  0.20437000  0.68558600  0.07779300  1
  N  N17  1  0.79563000  0.31441400  0.92220700  1
  N  N18  1  0.65297400  0.69115100  0.87804400  1
  N  N19  1  0.34702600  0.30884900  0.12195600  1
  N  N20  1  0.34702600  0.80884900  0.37804400  1
  N  N21  1  0.65297400  0.19115100  0.62195600  1
  N  N22  1  0.71001900  0.93433100  0.21122200  1
  N  N23  1  0.28998100  0.06566900  0.78877800  1
  N  N24  1  0.28998100  0.56566900  0.71122200  1
  N  N25  1  0.71001900  0.43433100  0.28877800  1
