# generated using pymatgen
data_K2NbAgS2
_symmetry_space_group_name_H-M   'P 1'
_cell_length_a   9.66608400
_cell_length_b   6.15776296
_cell_length_c   22.15446294
_cell_angle_alpha   80.14118376
_cell_angle_beta   77.39948154
_cell_angle_gamma   38.29136474
_symmetry_Int_Tables_number   1
_chemical_formula_structural   K2NbAgS2
_chemical_formula_sum   'K8 Nb4 Ag4 S8'
_cell_volume   797.44482474
_cell_formula_units_Z   4
loop_
 _symmetry_equiv_pos_site_id
 _symmetry_equiv_pos_as_xyz
  1  'x, y, z'
loop_
 _atom_site_type_symbol
 _atom_site_label
 _atom_site_symmetry_multiplicity
 _atom_site_fract_x
 _atom_site_fract_y
 _atom_site_fract_z
 _atom_site_occupancy
  K  K0  1  0.88431900  0.03180200  0.60768100  1
  K  K1  1  0.50800100  0.96819800  0.60768100  1
  K  K2  1  0.08388000  0.03180200  0.39231900  1
  K  K3  1  0.86568100  0.46819800  0.89231900  1
  K  K4  1  0.52380100  0.96819800  0.39231900  1
  K  K5  1  0.24199900  0.53180200  0.89231900  1
  K  K6  1  0.66612000  0.46819800  0.10768100  1
  K  K7  1  0.22619900  0.53180200  0.10768100  1
  Nb  Nb8  1  0.87500000  0.25000000  0.25000000  1
  Nb  Nb9  1  0.87500000  0.75000000  0.25000000  1
  Nb  Nb10  1  0.87500000  0.25000000  0.75000000  1
  Nb  Nb11  1  0.37500000  0.75000000  0.75000000  1
  Ag  Ag12  1  0.37500000  0.25000000  0.25000000  1
  Ag  Ag13  1  0.37500000  0.75000000  0.25000000  1
  Ag  Ag14  1  0.37500000  0.25000000  0.75000000  1
  Ag  Ag15  1  0.87500000  0.75000000  0.75000000  1
  S  S16  1  0.14864500  0.14597200  0.17322900  1
  S  S17  1  0.67812600  0.85402800  0.17322900  1
  S  S18  1  0.70538400  0.14597200  0.82677100  1
  S  S19  1  0.60135500  0.35402800  0.32677100  1
  S  S20  1  0.46784600  0.85402800  0.82677100  1
  S  S21  1  0.07187400  0.64597200  0.32677100  1
  S  S22  1  0.04461600  0.35402800  0.67322900  1
  S  S23  1  0.28215400  0.64597200  0.67322900  1
