# generated using pymatgen
data_H5PbC2SBrN6
_symmetry_space_group_name_H-M   'P 1'
_cell_length_a   11.78509900
_cell_length_b   7.76733000
_cell_length_c   9.98920659
_cell_angle_alpha   76.50929016
_cell_angle_beta   90.00000000
_cell_angle_gamma   90.00000000
_symmetry_Int_Tables_number   1
_chemical_formula_structural   H5PbC2SBrN6
_chemical_formula_sum   'H20 Pb4 C8 S4 Br4 N24'
_cell_volume   889.16918360
_cell_formula_units_Z   4
loop_
 _symmetry_equiv_pos_site_id
 _symmetry_equiv_pos_as_xyz
  1  'x, y, z'
loop_
 _atom_site_type_symbol
 _atom_site_label
 _atom_site_symmetry_multiplicity
 _atom_site_fract_x
 _atom_site_fract_y
 _atom_site_fract_z
 _atom_site_occupancy
  H  H0  1  0.39737800  0.36059500  0.05401000  1
  H  H1  1  0.60262200  0.63940500  0.94599000  1
  H  H2  1  0.89737800  0.13940500  0.94599000  1
  H  H3  1  0.10262200  0.86059500  0.05401000  1
  H  H4  1  0.56903300  0.83588600  0.84552400  1
  H  H5  1  0.43096700  0.16411400  0.15447600  1
  H  H6  1  0.06903300  0.66411400  0.15447600  1
  H  H7  1  0.93096700  0.33588600  0.84552400  1
  H  H8  1  0.61465400  0.83576900  0.21312200  1
  H  H9  1  0.38534600  0.16423100  0.78687800  1
  H  H10  1  0.11465400  0.66423100  0.78687800  1
  H  H11  1  0.88534600  0.33576900  0.21312200  1
  H  H12  1  0.89974200  0.78324100  0.05896700  1
  H  H13  1  0.10025800  0.21675900  0.94103300  1
  H  H14  1  0.39974200  0.71675900  0.94103300  1
  H  H15  1  0.60025800  0.28324100  0.05896700  1
  H  H16  1  0.71973600  0.78783300  0.09674000  1
  H  H17  1  0.28026400  0.21216700  0.90326000  1
  H  H18  1  0.21973600  0.71216700  0.90326000  1
  H  H19  1  0.78026400  0.28783300  0.09674000  1
  Pb  Pb20  1  0.65694700  0.57085600  0.64919200  1
  Pb  Pb21  1  0.34305300  0.42914400  0.35080800  1
  Pb  Pb22  1  0.15694700  0.92914400  0.35080800  1
  Pb  Pb23  1  0.84305300  0.07085600  0.64919200  1
  C  C24  1  0.89335100  0.87463700  0.24067600  1
  C  C25  1  0.10664900  0.12536300  0.75932400  1
  C  C26  1  0.39335100  0.62536300  0.75932400  1
  C  C27  1  0.60664900  0.37463700  0.24067600  1
  C  C28  1  0.76373000  0.91098000  0.39056800  1
  C  C29  1  0.23627000  0.08902000  0.60943200  1
  C  C30  1  0.26373000  0.58902000  0.60943200  1
  C  C31  1  0.73627000  0.41098000  0.39056800  1
  S  S32  1  0.63404300  0.91998800  0.46648500  1
  S  S33  1  0.36595700  0.08001200  0.53351500  1
  S  S34  1  0.13404300  0.58001200  0.53351500  1
  S  S35  1  0.86595700  0.41998800  0.46648500  1
  Br  Br36  1  0.36938800  0.81512200  0.14496300  1
  Br  Br37  1  0.63061200  0.18487800  0.85503700  1
  Br  Br38  1  0.86938800  0.68487800  0.85503700  1
  Br  Br39  1  0.13061200  0.31512200  0.14496300  1
  N  N40  1  0.94668900  0.92148300  0.34434900  1
  N  N41  1  0.05331100  0.07851700  0.65565100  1
  N  N42  1  0.44668900  0.57851700  0.65565100  1
  N  N43  1  0.55331100  0.42148300  0.34434900  1
  N  N44  1  0.86569200  0.94391700  0.43747200  1
  N  N45  1  0.13430800  0.05608300  0.56252800  1
  N  N46  1  0.36569200  0.55608300  0.56252800  1
  N  N47  1  0.63430800  0.44391700  0.43747200  1
  N  N48  1  0.94359900  0.84593100  0.12368600  1
  N  N49  1  0.05640100  0.15406900  0.87631400  1
  N  N50  1  0.44359900  0.65406900  0.87631400  1
  N  N51  1  0.55640100  0.34593100  0.12368600  1
  N  N52  1  0.77978200  0.86708700  0.26491100  1
  N  N53  1  0.22021800  0.13291300  0.73508900  1
  N  N54  1  0.27978200  0.63291300  0.73508900  1
  N  N55  1  0.72021800  0.36708700  0.26491100  1
  N  N56  1  0.44023500  0.29887400  0.14096600  1
  N  N57  1  0.55976500  0.70112600  0.85903400  1
  N  N58  1  0.94023500  0.20112600  0.85903400  1
  N  N59  1  0.05976500  0.79887400  0.14096600  1
  N  N60  1  0.69610900  0.82826100  0.18155100  1
  N  N61  1  0.30389100  0.17173900  0.81844900  1
  N  N62  1  0.19610900  0.67173900  0.81844900  1
  N  N63  1  0.80389100  0.32826100  0.18155100  1
