# generated using pymatgen
data_H7C4(N3O2)3
_symmetry_space_group_name_H-M   'P 1'
_cell_length_a   6.35882061
_cell_length_b   7.91368115
_cell_length_c   23.57849200
_cell_angle_alpha   90.00000000
_cell_angle_beta   90.00000000
_cell_angle_gamma   105.65112045
_symmetry_Int_Tables_number   1
_chemical_formula_structural   H7C4(N3O2)3
_chemical_formula_sum   'H28 C16 N36 O24'
_cell_volume   1142.51620320
_cell_formula_units_Z   4
loop_
 _symmetry_equiv_pos_site_id
 _symmetry_equiv_pos_as_xyz
  1  'x, y, z'
loop_
 _atom_site_type_symbol
 _atom_site_label
 _atom_site_symmetry_multiplicity
 _atom_site_fract_x
 _atom_site_fract_y
 _atom_site_fract_z
 _atom_site_occupancy
  H  H0  1  0.64055200  0.58128700  0.61413500  1
  H  H1  1  0.35944800  0.41871300  0.38586500  1
  H  H2  1  0.85944800  0.91871300  0.11413500  1
  H  H3  1  0.14055200  0.08128700  0.88586500  1
  H  H4  1  0.01324200  0.49697300  0.05434600  1
  H  H5  1  0.98675800  0.50302700  0.94565400  1
  H  H6  1  0.48675800  0.00302700  0.55434600  1
  H  H7  1  0.51324200  0.99697300  0.44565400  1
  H  H8  1  0.15733300  0.80412300  0.38335400  1
  H  H9  1  0.84266700  0.19587700  0.61664600  1
  H  H10  1  0.34266700  0.69587700  0.88335400  1
  H  H11  1  0.65733300  0.30412300  0.11664600  1
  H  H12  1  0.15468600  0.56546900  0.11801400  1
  H  H13  1  0.84531400  0.43453100  0.88198600  1
  H  H14  1  0.34531400  0.93453100  0.61801400  1
  H  H15  1  0.65468600  0.06546900  0.38198600  1
  H  H16  1  0.98486100  0.74707300  0.61609800  1
  H  H17  1  0.01513900  0.25292700  0.38390200  1
  H  H18  1  0.51513900  0.75292700  0.11609800  1
  H  H19  1  0.48486100  0.24707300  0.88390200  1
  H  H20  1  0.89781300  0.65138600  0.38219500  1
  H  H21  1  0.10218700  0.34861400  0.61780500  1
  H  H22  1  0.60218700  0.84861400  0.88219500  1
  H  H23  1  0.39781300  0.15138600  0.11780500  1
  H  H24  1  0.50664400  0.50284200  0.55028900  1
  H  H25  1  0.49335600  0.49715800  0.44971100  1
  H  H26  1  0.99335600  0.99715800  0.05028900  1
  H  H27  1  0.00664400  0.00284200  0.94971100  1
  C  C28  1  0.01138400  0.74347400  0.46055500  1
  C  C29  1  0.98861600  0.25652600  0.53944500  1
  C  C30  1  0.48861600  0.75652600  0.96055500  1
  C  C31  1  0.51138400  0.24347400  0.03944500  1
  C  C32  1  0.81917800  0.65717300  0.54184100  1
  C  C33  1  0.18082200  0.34282700  0.45815900  1
  C  C34  1  0.68082200  0.84282700  0.04184100  1
  C  C35  1  0.31917800  0.15717300  0.95815900  1
  C  C36  1  0.18021500  0.84312400  0.54420000  1
  C  C37  1  0.81978500  0.15687600  0.45580000  1
  C  C38  1  0.31978500  0.65687600  0.04420000  1
  C  C39  1  0.68021500  0.34312400  0.95580000  1
  C  C40  1  0.68112900  0.62470400  0.26279600  1
  C  C41  1  0.31887100  0.37529600  0.73720400  1
  C  C42  1  0.81887100  0.87529600  0.76279600  1
  C  C43  1  0.18112900  0.12470400  0.23720400  1
  N  N44  1  0.99771400  0.74855000  0.57238100  1
  N  N45  1  0.00228600  0.25145000  0.42761900  1
  N  N46  1  0.50228600  0.75145000  0.07238100  1
  N  N47  1  0.49771400  0.24855000  0.92761900  1
  N  N48  1  0.70264500  0.66215700  0.20506900  1
  N  N49  1  0.29735500  0.33784300  0.79493100  1
  N  N50  1  0.79735500  0.83784300  0.70506900  1
  N  N51  1  0.20264500  0.16215700  0.29493100  1
  N  N52  1  0.34914700  0.93323000  0.57494700  1
  N  N53  1  0.65085300  0.06677000  0.42505300  1
  N  N54  1  0.15085300  0.56677000  0.07494700  1
  N  N55  1  0.84914700  0.43323000  0.92505300  1
  N  N56  1  0.18968900  0.84504300  0.48777000  1
  N  N57  1  0.81031100  0.15495700  0.51223000  1
  N  N58  1  0.31031100  0.65495700  0.98777000  1
  N  N59  1  0.68968900  0.34504300  0.01223000  1
  N  N60  1  0.64193300  0.57530700  0.57103000  1
  N  N61  1  0.35806700  0.42469300  0.42897000  1
  N  N62  1  0.85806700  0.92469300  0.07103000  1
  N  N63  1  0.14193300  0.07530700  0.92897000  1
  N  N64  1  0.19651400  0.96321100  0.21465500  1
  N  N65  1  0.80348600  0.03678900  0.78534500  1
  N  N66  1  0.30348600  0.53678900  0.71465500  1
  N  N67  1  0.69651400  0.46321100  0.28534500  1
  N  N68  1  0.82294500  0.64972000  0.48554200  1
  N  N69  1  0.17705500  0.35028000  0.51445800  1
  N  N70  1  0.67705500  0.85028000  0.98554200  1
  N  N71  1  0.32294500  0.14972000  0.01445800  1
  N  N72  1  0.02166700  0.73518400  0.40414800  1
  N  N73  1  0.97833300  0.26481600  0.59585200  1
  N  N74  1  0.47833300  0.76481600  0.90414800  1
  N  N75  1  0.52166700  0.23518400  0.09585200  1
  N  N76  1  0.86257100  0.74840600  0.80222100  1
  N  N77  1  0.13742900  0.25159400  0.19777900  1
  N  N78  1  0.63742900  0.75159400  0.30222100  1
  N  N79  1  0.36257100  0.24840600  0.69777900  1
  O  O80  1  0.23051400  0.95968600  0.16171000  1
  O  O81  1  0.76948600  0.04031400  0.83829000  1
  O  O82  1  0.26948600  0.54031400  0.66171000  1
  O  O83  1  0.73051400  0.45968600  0.33829000  1
  O  O84  1  0.00116600  0.80485200  0.84003600  1
  O  O85  1  0.99883400  0.19514800  0.15996400  1
  O  O86  1  0.49883400  0.69514800  0.34003600  1
  O  O87  1  0.50116600  0.30485200  0.65996400  1
  O  O88  1  0.74087200  0.90800900  0.29776200  1
  O  O89  1  0.25912800  0.09199100  0.70223800  1
  O  O90  1  0.75912800  0.59199100  0.79776200  1
  O  O91  1  0.24087200  0.40800900  0.20223800  1
  O  O92  1  0.17660100  0.83258700  0.24521900  1
  O  O93  1  0.82339900  0.16741300  0.75478100  1
  O  O94  1  0.32339900  0.66741300  0.74521900  1
  O  O95  1  0.67660100  0.33258700  0.25478100  1
  O  O96  1  0.76961000  0.56472900  0.17195900  1
  O  O97  1  0.23039000  0.43527100  0.82804100  1
  O  O98  1  0.73039000  0.93527100  0.67195900  1
  O  O99  1  0.26961000  0.06472900  0.32804100  1
  O  O100  1  0.84966300  0.70225700  0.68784600  1
  O  O101  1  0.15033700  0.29774300  0.31215400  1
  O  O102  1  0.65033700  0.79774300  0.18784600  1
  O  O103  1  0.34966300  0.20225700  0.81215400  1
