# generated using pymatgen
data_FeH4N2F5
_symmetry_space_group_name_H-M   'P 1'
_cell_length_a   6.35666600
_cell_length_b   7.66068800
_cell_length_c   11.20529200
_cell_angle_alpha   90.00000000
_cell_angle_beta   90.00000000
_cell_angle_gamma   90.00000000
_symmetry_Int_Tables_number   1
_chemical_formula_structural   FeH4N2F5
_chemical_formula_sum   'Fe4 H16 N8 F20'
_cell_volume   545.65777293
_cell_formula_units_Z   4
loop_
 _symmetry_equiv_pos_site_id
 _symmetry_equiv_pos_as_xyz
  1  'x, y, z'
loop_
 _atom_site_type_symbol
 _atom_site_label
 _atom_site_symmetry_multiplicity
 _atom_site_fract_x
 _atom_site_fract_y
 _atom_site_fract_z
 _atom_site_occupancy
  Fe  Fe0  1  0.00000000  0.00000000  0.00000000  1
  Fe  Fe1  1  0.50000000  0.00000000  0.50000000  1
  Fe  Fe2  1  0.00000000  0.50000000  0.00000000  1
  Fe  Fe3  1  0.50000000  0.50000000  0.50000000  1
  H  H4  1  0.50493000  0.25000000  0.77504500  1
  H  H5  1  0.49507000  0.75000000  0.22495500  1
  H  H6  1  0.99507000  0.75000000  0.27504500  1
  H  H7  1  0.00493000  0.25000000  0.72495500  1
  H  H8  1  0.35975700  0.25000000  0.90066000  1
  H  H9  1  0.64024300  0.75000000  0.09934000  1
  H  H10  1  0.14024300  0.75000000  0.40066000  1
  H  H11  1  0.85975700  0.25000000  0.59934000  1
  H  H12  1  0.08898300  0.13909100  0.60433500  1
  H  H13  1  0.91101700  0.86090900  0.39566500  1
  H  H14  1  0.41101700  0.86090900  0.10433500  1
  H  H15  1  0.91101700  0.63909100  0.39566500  1
  H  H16  1  0.58898300  0.13909100  0.89566500  1
  H  H17  1  0.08898300  0.36090900  0.60433500  1
  H  H18  1  0.58898300  0.36090900  0.89566500  1
  H  H19  1  0.41101700  0.63909100  0.10433500  1
  N  N20  1  0.01020500  0.25000000  0.63305500  1
  N  N21  1  0.98979500  0.75000000  0.36694500  1
  N  N22  1  0.48979500  0.75000000  0.13305500  1
  N  N23  1  0.51020500  0.25000000  0.86694500  1
  N  N24  1  0.02545200  0.25000000  0.32262900  1
  N  N25  1  0.97454800  0.75000000  0.67737100  1
  N  N26  1  0.47454800  0.75000000  0.82262900  1
  N  N27  1  0.52545200  0.25000000  0.17737100  1
  F  F28  1  0.40008700  0.55434800  0.35111100  1
  F  F29  1  0.59991300  0.44565200  0.64888900  1
  F  F30  1  0.09991300  0.44565200  0.85111100  1
  F  F31  1  0.59991300  0.05434800  0.64888900  1
  F  F32  1  0.90008700  0.55434800  0.14888900  1
  F  F33  1  0.40008700  0.94565200  0.35111100  1
  F  F34  1  0.90008700  0.94565200  0.14888900  1
  F  F35  1  0.09991300  0.05434800  0.85111100  1
  F  F36  1  0.26380200  0.04955800  0.06321200  1
  F  F37  1  0.73619800  0.95044200  0.93678800  1
  F  F38  1  0.23619800  0.95044200  0.56321200  1
  F  F39  1  0.73619800  0.54955800  0.93678800  1
  F  F40  1  0.76380200  0.04955800  0.43678800  1
  F  F41  1  0.26380200  0.45044200  0.06321200  1
  F  F42  1  0.76380200  0.45044200  0.43678800  1
  F  F43  1  0.23619800  0.54955800  0.56321200  1
  F  F44  1  0.40878300  0.25000000  0.48010100  1
  F  F45  1  0.59121700  0.75000000  0.51989900  1
  F  F46  1  0.09121700  0.75000000  0.98010100  1
  F  F47  1  0.90878300  0.25000000  0.01989900  1
