# generated using pymatgen
data_Eu2Be2SiO7
_symmetry_space_group_name_H-M   'P 1'
_cell_length_a   7.44716600
_cell_length_b   7.44716600
_cell_length_c   4.92947000
_cell_angle_alpha   90.00000000
_cell_angle_beta   90.00000000
_cell_angle_gamma   90.00000000
_symmetry_Int_Tables_number   1
_chemical_formula_structural   Eu2Be2SiO7
_chemical_formula_sum   'Eu4 Be4 Si2 O14'
_cell_volume   273.38979351
_cell_formula_units_Z   2
loop_
 _symmetry_equiv_pos_site_id
 _symmetry_equiv_pos_as_xyz
  1  'x, y, z'
loop_
 _atom_site_type_symbol
 _atom_site_label
 _atom_site_symmetry_multiplicity
 _atom_site_fract_x
 _atom_site_fract_y
 _atom_site_fract_z
 _atom_site_occupancy
  Eu  Eu0  1  0.16136100  0.33863900  0.50367500  1
  Eu  Eu1  1  0.83863900  0.66136100  0.50367500  1
  Eu  Eu2  1  0.66136100  0.16136100  0.49632500  1
  Eu  Eu3  1  0.33863900  0.83863900  0.49632500  1
  Be  Be4  1  0.63621200  0.86378800  0.95525900  1
  Be  Be5  1  0.36378800  0.13621200  0.95525900  1
  Be  Be6  1  0.13621200  0.63621200  0.04474100  1
  Be  Be7  1  0.86378800  0.36378800  0.04474100  1
  Si  Si8  1  0.00000000  0.00000000  0.00000000  1
  Si  Si9  1  0.50000000  0.50000000  0.00000000  1
  O  O10  1  0.00000000  0.50000000  0.17518900  1
  O  O11  1  0.50000000  0.00000000  0.82481100  1
  O  O12  1  0.63936500  0.86063500  0.28528800  1
  O  O13  1  0.36063500  0.13936500  0.28528800  1
  O  O14  1  0.13936500  0.63936500  0.71471200  1
  O  O15  1  0.86063500  0.36063500  0.71471200  1
  O  O16  1  0.07704700  0.83551800  0.19084800  1
  O  O17  1  0.92295300  0.16448200  0.19084800  1
  O  O18  1  0.16448200  0.07704700  0.80915200  1
  O  O19  1  0.42295300  0.33551800  0.80915200  1
  O  O20  1  0.83551800  0.92295300  0.80915200  1
  O  O21  1  0.57704700  0.66448200  0.80915200  1
  O  O22  1  0.33551800  0.57704700  0.19084800  1
  O  O23  1  0.66448200  0.42295300  0.19084800  1
