# generated using pymatgen
data_Gd3VGeO9
_symmetry_space_group_name_H-M   'P 1'
_cell_length_a   6.97825711
_cell_length_b   9.29533068
_cell_length_c   12.36757400
_cell_angle_alpha   90.00000000
_cell_angle_beta   90.00000000
_cell_angle_gamma   107.74704655
_symmetry_Int_Tables_number   1
_chemical_formula_structural   Gd3VGeO9
_chemical_formula_sum   'Gd12 V4 Ge4 O36'
_cell_volume   764.04856660
_cell_formula_units_Z   4
loop_
 _symmetry_equiv_pos_site_id
 _symmetry_equiv_pos_as_xyz
  1  'x, y, z'
loop_
 _atom_site_type_symbol
 _atom_site_label
 _atom_site_symmetry_multiplicity
 _atom_site_fract_x
 _atom_site_fract_y
 _atom_site_fract_z
 _atom_site_occupancy
  Gd  Gd0  1  0.67307700  0.62280900  0.36922600  1
  Gd  Gd1  1  0.32692300  0.37719100  0.63077400  1
  Gd  Gd2  1  0.82692300  0.87719100  0.86922600  1
  Gd  Gd3  1  0.17307700  0.12280900  0.13077400  1
  Gd  Gd4  1  0.23992100  0.84486300  0.36499800  1
  Gd  Gd5  1  0.76007900  0.15513700  0.63500200  1
  Gd  Gd6  1  0.26007900  0.65513700  0.86499800  1
  Gd  Gd7  1  0.73992100  0.34486300  0.13500200  1
  Gd  Gd8  1  0.50375300  0.87565600  0.10610500  1
  Gd  Gd9  1  0.49624700  0.12434400  0.89389500  1
  Gd  Gd10  1  0.99624700  0.62434400  0.60610500  1
  Gd  Gd11  1  0.00375300  0.37565600  0.39389500  1
  V  V12  1  0.19666900  0.97960000  0.66290900  1
  V  V13  1  0.80333100  0.02040000  0.33709100  1
  V  V14  1  0.30333100  0.52040000  0.16290900  1
  V  V15  1  0.69666900  0.47960000  0.83709100  1
  Ge  Ge16  1  0.94996100  0.75889600  0.10138900  1
  Ge  Ge17  1  0.05003900  0.24110400  0.89861100  1
  Ge  Ge18  1  0.55003900  0.74110400  0.60138900  1
  Ge  Ge19  1  0.44996100  0.25889600  0.39861100  1
  O  O20  1  0.89914800  0.86717900  0.34185400  1
  O  O21  1  0.10085200  0.13282100  0.65814600  1
  O  O22  1  0.60085200  0.63282100  0.84185400  1
  O  O23  1  0.39914800  0.36717900  0.15814600  1
  O  O24  1  0.65945000  0.59006500  0.57535000  1
  O  O25  1  0.34055000  0.40993500  0.42465000  1
  O  O26  1  0.84055000  0.90993500  0.07535000  1
  O  O27  1  0.15945000  0.09006500  0.92465000  1
  O  O28  1  0.16832500  0.87776800  0.54316200  1
  O  O29  1  0.83167500  0.12223200  0.45683800  1
  O  O30  1  0.33167500  0.62223200  0.04316200  1
  O  O31  1  0.66832500  0.37776800  0.95683800  1
  O  O32  1  0.78591300  0.61017200  0.17377400  1
  O  O33  1  0.21408700  0.38982800  0.82622600  1
  O  O34  1  0.71408700  0.88982800  0.67377400  1
  O  O35  1  0.28591300  0.11017200  0.32622600  1
  O  O36  1  0.07565000  0.83547600  0.75358000  1
  O  O37  1  0.92435000  0.16452400  0.24642000  1
  O  O38  1  0.42435000  0.66452400  0.25358000  1
  O  O39  1  0.57565000  0.33547600  0.74642000  1
  O  O40  1  0.99823400  0.61602700  0.42056400  1
  O  O41  1  0.00176600  0.38397300  0.57943600  1
  O  O42  1  0.50176600  0.88397300  0.92056400  1
  O  O43  1  0.49823400  0.11602700  0.07943600  1
  O  O44  1  0.17741700  0.86380800  0.17069400  1
  O  O45  1  0.82258300  0.13619200  0.82930600  1
  O  O46  1  0.32258300  0.63619200  0.67069400  1
  O  O47  1  0.67741700  0.36380800  0.32930600  1
  O  O48  1  0.56138300  0.96070500  0.28740200  1
  O  O49  1  0.43861700  0.03929500  0.71259800  1
  O  O50  1  0.93861700  0.53929500  0.78740200  1
  O  O51  1  0.06138300  0.46070500  0.21259800  1
  O  O52  1  0.49520300  0.77582400  0.46598600  1
  O  O53  1  0.50479700  0.22417600  0.53401400  1
  O  O54  1  0.00479700  0.72417600  0.96598600  1
  O  O55  1  0.99520300  0.27582400  0.03401400  1
