# generated using pymatgen
data_DyMg(BO2)5
_symmetry_space_group_name_H-M   'P 1'
_cell_length_a   7.65540100
_cell_length_b   8.62902300
_cell_length_c   12.35195391
_cell_angle_alpha   49.36817612
_cell_angle_beta   90.00000000
_cell_angle_gamma   90.00000000
_symmetry_Int_Tables_number   1
_chemical_formula_structural   DyMg(BO2)5
_chemical_formula_sum   'Dy4 Mg4 B20 O40'
_cell_volume   619.23479889
_cell_formula_units_Z   4
loop_
 _symmetry_equiv_pos_site_id
 _symmetry_equiv_pos_as_xyz
  1  'x, y, z'
loop_
 _atom_site_type_symbol
 _atom_site_label
 _atom_site_symmetry_multiplicity
 _atom_site_fract_x
 _atom_site_fract_y
 _atom_site_fract_z
 _atom_site_occupancy
  Dy  Dy0  1  0.19183100  0.94592000  0.24137300  1
  Dy  Dy1  1  0.80816900  0.05408000  0.75862700  1
  Dy  Dy2  1  0.69183100  0.05408000  0.25862700  1
  Dy  Dy3  1  0.30816900  0.94592000  0.74137300  1
  Mg  Mg4  1  0.90909900  0.52688000  0.37190600  1
  Mg  Mg5  1  0.09090100  0.47312000  0.62809400  1
  Mg  Mg6  1  0.40909900  0.47312000  0.12809400  1
  Mg  Mg7  1  0.59090100  0.52688000  0.87190600  1
  B  B8  1  0.82663200  0.91281000  0.10381800  1
  B  B9  1  0.17336800  0.08719000  0.89618200  1
  B  B10  1  0.32663200  0.08719000  0.39618200  1
  B  B11  1  0.67336800  0.91281000  0.60381800  1
  B  B12  1  0.57605000  0.65910700  0.25833400  1
  B  B13  1  0.42395000  0.34089300  0.74166600  1
  B  B14  1  0.07605000  0.34089300  0.24166600  1
  B  B15  1  0.92395000  0.65910700  0.75833400  1
  B  B16  1  0.81239000  0.47737300  0.08831900  1
  B  B17  1  0.18761000  0.52262700  0.91168100  1
  B  B18  1  0.31239000  0.52262700  0.41168100  1
  B  B19  1  0.68761000  0.47737300  0.58831900  1
  B  B20  1  0.46826200  0.72207200  0.55548600  1
  B  B21  1  0.53173800  0.27792800  0.44451400  1
  B  B22  1  0.96826200  0.27792800  0.94451400  1
  B  B23  1  0.03173800  0.72207200  0.05548600  1
  B  B24  1  0.59815600  0.84679700  0.99459800  1
  B  B25  1  0.40184400  0.15320300  0.00540200  1
  B  B26  1  0.09815600  0.15320300  0.50540200  1
  B  B27  1  0.90184400  0.84679700  0.49459800  1
  O  O28  1  0.91288000  0.31203800  0.19427900  1
  O  O29  1  0.08712000  0.68796200  0.80572100  1
  O  O30  1  0.41288000  0.68796200  0.30572100  1
  O  O31  1  0.58712000  0.31203800  0.69427900  1
  O  O32  1  0.87324900  0.67315100  0.00954900  1
  O  O33  1  0.12675100  0.32684900  0.99045100  1
  O  O34  1  0.37324900  0.32684900  0.49045100  1
  O  O35  1  0.62675100  0.67315100  0.50954900  1
  O  O36  1  0.39056100  0.90605100  0.41875200  1
  O  O37  1  0.60943900  0.09394900  0.58124800  1
  O  O38  1  0.89056100  0.09394900  0.08124800  1
  O  O39  1  0.10943900  0.90605100  0.91875200  1
  O  O40  1  0.71053200  0.80437300  0.23086600  1
  O  O41  1  0.28946800  0.19562700  0.76913400  1
  O  O42  1  0.21053200  0.19562700  0.26913400  1
  O  O43  1  0.78946800  0.80437300  0.73086600  1
  O  O44  1  0.65070800  0.42265800  0.07379000  1
  O  O45  1  0.34929200  0.57734200  0.92621000  1
  O  O46  1  0.15070800  0.57734200  0.42621000  1
  O  O47  1  0.84929200  0.42265800  0.57379000  1
  O  O48  1  0.77119900  0.97369800  0.47882500  1
  O  O49  1  0.22880100  0.02630200  0.52117500  1
  O  O50  1  0.27119900  0.02630200  0.02117500  1
  O  O51  1  0.72880100  0.97369800  0.97882500  1
  O  O52  1  0.64988000  0.45337900  0.36513600  1
  O  O53  1  0.35012000  0.54662100  0.63486400  1
  O  O54  1  0.14988000  0.54662100  0.13486400  1
  O  O55  1  0.85012000  0.45337900  0.86513600  1
  O  O56  1  0.53057300  0.68994500  0.12710400  1
  O  O57  1  0.46942700  0.31005500  0.87289600  1
  O  O58  1  0.03057300  0.31005500  0.37289600  1
  O  O59  1  0.96942700  0.68994500  0.62710400  1
  O  O60  1  0.95256000  0.88338700  0.37495200  1
  O  O61  1  0.04744000  0.11661300  0.62504800  1
  O  O62  1  0.45256000  0.11661300  0.12504800  1
  O  O63  1  0.54744000  0.88338700  0.87495200  1
  O  O64  1  0.97182300  0.76675100  0.14808900  1
  O  O65  1  0.02817700  0.23324900  0.85191100  1
  O  O66  1  0.47182300  0.23324900  0.35191100  1
  O  O67  1  0.52817700  0.76675100  0.64808900  1
