# generated using pymatgen
data_K2Te2W3O5
_symmetry_space_group_name_H-M   'P 1'
_cell_length_a   6.91940300
_cell_length_b   8.58838500
_cell_length_c   18.63678995
_cell_angle_alpha   82.49986737
_cell_angle_beta   90.00000000
_cell_angle_gamma   90.00000000
_symmetry_Int_Tables_number   1
_chemical_formula_structural   K2Te2W3O5
_chemical_formula_sum   'K8 Te8 W12 O20'
_cell_volume   1098.04382657
_cell_formula_units_Z   4
loop_
 _symmetry_equiv_pos_site_id
 _symmetry_equiv_pos_as_xyz
  1  'x, y, z'
loop_
 _atom_site_type_symbol
 _atom_site_label
 _atom_site_symmetry_multiplicity
 _atom_site_fract_x
 _atom_site_fract_y
 _atom_site_fract_z
 _atom_site_occupancy
  K  K0  1  0.81006300  0.84933900  0.26007700  1
  K  K1  1  0.18993700  0.15066100  0.73992300  1
  K  K2  1  0.31006300  0.15066100  0.23992300  1
  K  K3  1  0.68993700  0.84933900  0.76007700  1
  K  K4  1  0.00851500  0.62979300  0.08127000  1
  K  K5  1  0.99148500  0.37020700  0.91873000  1
  K  K6  1  0.50851500  0.37020700  0.41873000  1
  K  K7  1  0.49148500  0.62979300  0.58127000  1
  Te  Te8  1  0.90407600  0.67425600  0.45647900  1
  Te  Te9  1  0.09592400  0.32574400  0.54352100  1
  Te  Te10  1  0.40407600  0.32574400  0.04352100  1
  Te  Te11  1  0.59592400  0.67425600  0.95647900  1
  Te  Te12  1  0.42901800  0.94656200  0.40937400  1
  Te  Te13  1  0.57098200  0.05343800  0.59062600  1
  Te  Te14  1  0.92901800  0.05343800  0.09062600  1
  Te  Te15  1  0.07098200  0.94656200  0.90937400  1
  W  W16  1  0.43580600  0.90136500  0.11304700  1
  W  W17  1  0.56419400  0.09863500  0.88695300  1
  W  W18  1  0.93580600  0.09863500  0.38695300  1
  W  W19  1  0.06419400  0.90136500  0.61304700  1
  W  W20  1  0.01203200  0.45306800  0.29440400  1
  W  W21  1  0.98796800  0.54693200  0.70559600  1
  W  W22  1  0.51203200  0.54693200  0.20559600  1
  W  W23  1  0.48796800  0.45306800  0.79440400  1
  W  W24  1  0.30622100  0.72476200  0.31479800  1
  W  W25  1  0.69377900  0.27523800  0.68520200  1
  W  W26  1  0.80622100  0.27523800  0.18520200  1
  W  W27  1  0.19377900  0.72476200  0.81479800  1
  O  O28  1  0.52681100  0.35378200  0.13802100  1
  O  O29  1  0.47318900  0.64621800  0.86197900  1
  O  O30  1  0.02681100  0.64621800  0.36197900  1
  O  O31  1  0.97318900  0.35378200  0.63802100  1
  O  O32  1  0.66090700  0.72837000  0.41091400  1
  O  O33  1  0.33909300  0.27163000  0.58908600  1
  O  O34  1  0.16090700  0.27163000  0.08908600  1
  O  O35  1  0.83909300  0.72837000  0.91091400  1
  O  O36  1  0.74548100  0.87130600  0.10902200  1
  O  O37  1  0.25451900  0.12869400  0.89097800  1
  O  O38  1  0.24548100  0.12869400  0.39097800  1
  O  O39  1  0.75451900  0.87130600  0.60902200  1
  O  O40  1  0.81050500  0.47021300  0.49269400  1
  O  O41  1  0.18949500  0.52978700  0.50730600  1
  O  O42  1  0.31050500  0.52978700  0.00730600  1
  O  O43  1  0.68949500  0.47021300  0.99269400  1
  O  O44  1  0.36955300  0.91689400  0.63940400  1
  O  O45  1  0.63044700  0.08310600  0.36059600  1
  O  O46  1  0.86955300  0.08310600  0.86059600  1
  O  O47  1  0.13044700  0.91689400  0.13940400  1
