# generated using pymatgen
data_Gd4MgRu
_symmetry_space_group_name_H-M   'P 1'
_cell_length_a   9.79726851
_cell_length_b   9.79726851
_cell_length_c   9.79726851
_cell_angle_alpha   60.00000000
_cell_angle_beta   60.00000000
_cell_angle_gamma   60.00000000
_symmetry_Int_Tables_number   1
_chemical_formula_structural   Gd4MgRu
_chemical_formula_sum   'Gd16 Mg4 Ru4'
_cell_volume   664.96690970
_cell_formula_units_Z   4
loop_
 _symmetry_equiv_pos_site_id
 _symmetry_equiv_pos_as_xyz
  1  'x, y, z'
loop_
 _atom_site_type_symbol
 _atom_site_label
 _atom_site_symmetry_multiplicity
 _atom_site_fract_x
 _atom_site_fract_y
 _atom_site_fract_z
 _atom_site_occupancy
  Gd  Gd0  1  0.34483300  0.34483300  0.34483300  1
  Gd  Gd1  1  0.34483300  0.34483300  0.96550100  1
  Gd  Gd2  1  0.34483300  0.96550100  0.34483300  1
  Gd  Gd3  1  0.96550100  0.34483300  0.34483300  1
  Gd  Gd4  1  0.81342800  0.18657200  0.18657200  1
  Gd  Gd5  1  0.18657200  0.81342800  0.81342800  1
  Gd  Gd6  1  0.18657200  0.81342800  0.18657200  1
  Gd  Gd7  1  0.81342800  0.18657200  0.81342800  1
  Gd  Gd8  1  0.18657200  0.18657200  0.81342800  1
  Gd  Gd9  1  0.81342800  0.81342800  0.18657200  1
  Gd  Gd10  1  0.93775000  0.56225000  0.56225000  1
  Gd  Gd11  1  0.56225000  0.93775000  0.93775000  1
  Gd  Gd12  1  0.56225000  0.93775000  0.56225000  1
  Gd  Gd13  1  0.93775000  0.56225000  0.93775000  1
  Gd  Gd14  1  0.56225000  0.56225000  0.93775000  1
  Gd  Gd15  1  0.93775000  0.93775000  0.56225000  1
  Mg  Mg16  1  0.57918200  0.57918200  0.57918200  1
  Mg  Mg17  1  0.57918200  0.57918200  0.26245500  1
  Mg  Mg18  1  0.57918200  0.26245500  0.57918200  1
  Mg  Mg19  1  0.26245500  0.57918200  0.57918200  1
  Ru  Ru20  1  0.13898700  0.13898700  0.13898700  1
  Ru  Ru21  1  0.13898700  0.13898700  0.58303800  1
  Ru  Ru22  1  0.13898700  0.58303800  0.13898700  1
  Ru  Ru23  1  0.58303800  0.13898700  0.13898700  1
