# generated using pymatgen
data_DyAlGe2O7
_symmetry_space_group_name_H-M   'P 1'
_cell_length_a   6.53847600
_cell_length_b   7.22443000
_cell_length_c   12.69111883
_cell_angle_alpha   62.22729767
_cell_angle_beta   90.00000000
_cell_angle_gamma   90.00000000
_symmetry_Int_Tables_number   1
_chemical_formula_structural   DyAlGe2O7
_chemical_formula_sum   'Dy4 Al4 Ge8 O28'
_cell_volume   530.42826278
_cell_formula_units_Z   4
loop_
 _symmetry_equiv_pos_site_id
 _symmetry_equiv_pos_as_xyz
  1  'x, y, z'
loop_
 _atom_site_type_symbol
 _atom_site_label
 _atom_site_symmetry_multiplicity
 _atom_site_fract_x
 _atom_site_fract_y
 _atom_site_fract_z
 _atom_site_occupancy
  Dy  Dy0  1  0.35507400  0.74328500  0.52881200  1
  Dy  Dy1  1  0.64492600  0.25671500  0.47118800  1
  Dy  Dy2  1  0.85507400  0.25671500  0.97118800  1
  Dy  Dy3  1  0.14492600  0.74328500  0.02881200  1
  Al  Al4  1  0.39889900  0.70994800  0.27200800  1
  Al  Al5  1  0.60110100  0.29005200  0.72799200  1
  Al  Al6  1  0.89889900  0.29005200  0.22799200  1
  Al  Al7  1  0.10110100  0.70994800  0.77200800  1
  Ge  Ge8  1  0.65647200  0.71371800  0.04660000  1
  Ge  Ge9  1  0.34352800  0.28628200  0.95340000  1
  Ge  Ge10  1  0.15647200  0.28628200  0.45340000  1
  Ge  Ge11  1  0.84352800  0.71371800  0.54660000  1
  Ge  Ge12  1  0.91005700  0.80349200  0.27734300  1
  Ge  Ge13  1  0.08994300  0.19650800  0.72265700  1
  Ge  Ge14  1  0.41005700  0.19650800  0.22265700  1
  Ge  Ge15  1  0.58994300  0.80349200  0.77734300  1
  O  O16  1  0.37799600  0.92272700  0.30888800  1
  O  O17  1  0.62200400  0.07727300  0.69111200  1
  O  O18  1  0.87799600  0.07727300  0.19111200  1
  O  O19  1  0.12200400  0.92272700  0.80888800  1
  O  O20  1  0.82869300  0.91129600  0.02222100  1
  O  O21  1  0.17130700  0.08870400  0.97777900  1
  O  O22  1  0.32869300  0.08870400  0.47777900  1
  O  O23  1  0.67130700  0.91129600  0.52222100  1
  O  O24  1  0.61671200  0.27935300  0.27946800  1
  O  O25  1  0.38328800  0.72064700  0.72053200  1
  O  O26  1  0.11671200  0.72064700  0.22053200  1
  O  O27  1  0.88328800  0.27935300  0.77946800  1
  O  O28  1  0.00444500  0.75103600  0.42430000  1
  O  O29  1  0.99555500  0.24896400  0.57570000  1
  O  O30  1  0.50444500  0.24896400  0.07570000  1
  O  O31  1  0.49555500  0.75103600  0.92430000  1
  O  O32  1  0.44353400  0.70827100  0.13237200  1
  O  O33  1  0.55646600  0.29172900  0.86762800  1
  O  O34  1  0.94353400  0.29172900  0.36762800  1
  O  O35  1  0.05646600  0.70827100  0.63237200  1
  O  O36  1  0.84589300  0.51260000  0.08161600  1
  O  O37  1  0.15410700  0.48740000  0.91838400  1
  O  O38  1  0.34589300  0.48740000  0.41838400  1
  O  O39  1  0.65410700  0.51260000  0.58161600  1
  O  O40  1  0.68284300  0.65563300  0.31266900  1
  O  O41  1  0.31715700  0.34436700  0.68733100  1
  O  O42  1  0.18284300  0.34436700  0.18733100  1
  O  O43  1  0.81715700  0.65563300  0.81266900  1
