# generated using pymatgen
data_CuN2(Cl2O)2
_symmetry_space_group_name_H-M   'P 1'
_cell_length_a   5.75175292
_cell_length_b   5.75175292
_cell_length_c   5.75175292
_cell_angle_alpha   108.72612046
_cell_angle_beta   108.72612046
_cell_angle_gamma   110.97192443
_symmetry_Int_Tables_number   1
_chemical_formula_structural   CuN2(Cl2O)2
_chemical_formula_sum   'Cu1 N2 Cl4 O2'
_cell_volume   146.40455865
_cell_formula_units_Z   1
loop_
 _symmetry_equiv_pos_site_id
 _symmetry_equiv_pos_as_xyz
  1  'x, y, z'
loop_
 _atom_site_type_symbol
 _atom_site_label
 _atom_site_symmetry_multiplicity
 _atom_site_fract_x
 _atom_site_fract_y
 _atom_site_fract_z
 _atom_site_occupancy
  Cu  Cu0  1  0.00000000  0.00000000  0.00000000  1
  N  N1  1  0.25000000  0.75000000  0.50000000  1
  N  N2  1  0.75000000  0.25000000  0.50000000  1
  Cl  Cl3  1  0.25502500  0.74497500  0.00000000  1
  Cl  Cl4  1  0.74497500  0.25502500  0.00000000  1
  Cl  Cl5  1  0.25502500  0.25502500  0.51005000  1
  Cl  Cl6  1  0.74497500  0.74497500  0.48995000  1
  O  O7  1  0.27703100  0.27703100  0.00000000  1
  O  O8  1  0.72296900  0.72296900  0.00000000  1
