# generated using pymatgen
data_Cu2NO6
_symmetry_space_group_name_H-M   'P 1'
_cell_length_a   5.87099100
_cell_length_b   5.36942500
_cell_length_c   7.12002003
_cell_angle_alpha   85.68766139
_cell_angle_beta   90.00000000
_cell_angle_gamma   90.00000000
_symmetry_Int_Tables_number   1
_chemical_formula_structural   Cu2NO6
_chemical_formula_sum   'Cu4 N2 O12'
_cell_volume   223.81498677
_cell_formula_units_Z   2
loop_
 _symmetry_equiv_pos_site_id
 _symmetry_equiv_pos_as_xyz
  1  'x, y, z'
loop_
 _atom_site_type_symbol
 _atom_site_label
 _atom_site_symmetry_multiplicity
 _atom_site_fract_x
 _atom_site_fract_y
 _atom_site_fract_z
 _atom_site_occupancy
  Cu  Cu0  1  0.73269800  0.99957100  0.00250500  1
  Cu  Cu1  1  0.23269800  0.00042900  0.99749500  1
  Cu  Cu2  1  0.98346900  0.50557700  0.00149600  1
  Cu  Cu3  1  0.48346900  0.49442300  0.99850400  1
  N  N4  1  0.50192100  0.76281700  0.41854000  1
  N  N5  1  0.00192100  0.23718300  0.58146000  1
  O  O6  1  0.98491400  0.88796700  0.12992500  1
  O  O7  1  0.48491400  0.11203300  0.87007500  1
  O  O8  1  0.72868300  0.68985600  0.89741700  1
  O  O9  1  0.22868300  0.31014400  0.10258300  1
  O  O10  1  0.61965800  0.91357700  0.49851900  1
  O  O11  1  0.11965800  0.08642300  0.50148100  1
  O  O12  1  0.49526400  0.78475800  0.23549100  1
  O  O13  1  0.99526400  0.21524200  0.76450900  1
  O  O14  1  0.73950500  0.31119500  0.10275300  1
  O  O15  1  0.23950500  0.68880500  0.89724700  1
  O  O16  1  0.89088700  0.40651300  0.49698700  1
  O  O17  1  0.39088700  0.59348700  0.50301300  1
