# generated using pymatgen
data_Na3Mo9P(H5O17)2
_symmetry_space_group_name_H-M   'P 1'
_cell_length_a   14.46676388
_cell_length_b   14.46676388
_cell_length_c   10.53727100
_cell_angle_alpha   90.00000000
_cell_angle_beta   90.00000000
_cell_angle_gamma   119.99999947
_symmetry_Int_Tables_number   1
_chemical_formula_structural   Na3Mo9P(H5O17)2
_chemical_formula_sum   'Na6 Mo18 P2 H20 O68'
_cell_volume   1909.86016299
_cell_formula_units_Z   2
loop_
 _symmetry_equiv_pos_site_id
 _symmetry_equiv_pos_as_xyz
  1  'x, y, z'
loop_
 _atom_site_type_symbol
 _atom_site_label
 _atom_site_symmetry_multiplicity
 _atom_site_fract_x
 _atom_site_fract_y
 _atom_site_fract_z
 _atom_site_occupancy
  Na  Na0  1  0.37595800  0.19525300  0.75858600  1
  Na  Na1  1  0.80474700  0.18070500  0.75858600  1
  Na  Na2  1  0.62404200  0.80474700  0.25858600  1
  Na  Na3  1  0.81929500  0.62404200  0.75858600  1
  Na  Na4  1  0.19525300  0.81929500  0.25858600  1
  Na  Na5  1  0.18070500  0.37595800  0.25858600  1
  Mo  Mo6  1  0.23837000  0.50817900  0.93049700  1
  Mo  Mo7  1  0.49182100  0.73019100  0.93049700  1
  Mo  Mo8  1  0.76163000  0.49182100  0.43049700  1
  Mo  Mo9  1  0.26980900  0.76163000  0.93049700  1
  Mo  Mo10  1  0.50817900  0.26980900  0.43049700  1
  Mo  Mo11  1  0.73019100  0.23837000  0.43049700  1
  Mo  Mo12  1  0.05468000  0.46526700  0.66320700  1
  Mo  Mo13  1  0.53473300  0.58941400  0.66320700  1
  Mo  Mo14  1  0.94532000  0.53473300  0.16320700  1
  Mo  Mo15  1  0.41058600  0.94532000  0.66320700  1
  Mo  Mo16  1  0.46526700  0.41058600  0.16320700  1
  Mo  Mo17  1  0.58941400  0.05468000  0.16320700  1
  Mo  Mo18  1  0.27343700  0.38846300  0.61502400  1
  Mo  Mo19  1  0.61153700  0.88497500  0.61502400  1
  Mo  Mo20  1  0.72656300  0.61153700  0.11502400  1
  Mo  Mo21  1  0.11502500  0.72656300  0.61502400  1
  Mo  Mo22  1  0.38846300  0.11502500  0.11502400  1
  Mo  Mo23  1  0.88497500  0.27343700  0.11502400  1
  P  P24  1  0.33333300  0.66666700  0.64559900  1
  P  P25  1  0.66666700  0.33333300  0.14559900  1
  H  H26  1  0.08110700  0.01658700  0.56645600  1
  H  H27  1  0.98341300  0.06452000  0.56645600  1
  H  H28  1  0.91889300  0.98341300  0.06645600  1
  H  H29  1  0.93548000  0.91889300  0.56645600  1
  H  H30  1  0.01658700  0.93548000  0.06645600  1
  H  H31  1  0.06452000  0.08110700  0.06645600  1
  H  H32  1  0.25815200  0.24271400  0.89263200  1
  H  H33  1  0.75728600  0.01543800  0.89263200  1
  H  H34  1  0.74184800  0.75728600  0.39263200  1
  H  H35  1  0.98456200  0.74184800  0.89263200  1
  H  H36  1  0.24271400  0.98456200  0.39263200  1
  H  H37  1  0.01543800  0.25815200  0.39263200  1
  H  H38  1  0.01391600  0.19880900  0.84785800  1
  H  H39  1  0.80119100  0.81510800  0.84785800  1
  H  H40  1  0.98608400  0.80119100  0.34785800  1
  H  H41  1  0.18489200  0.98608400  0.84785800  1
  H  H42  1  0.19880900  0.18489200  0.34785800  1
  H  H43  1  0.81510800  0.01391600  0.34785800  1
  H  H44  1  0.00000000  0.00000000  0.57065100  1
  H  H45  1  0.00000000  0.00000000  0.07065100  1
  O  O46  1  0.42180900  0.06905300  0.67980000  1
  O  O47  1  0.93094700  0.35275600  0.67980000  1
  O  O48  1  0.57819100  0.93094700  0.17980000  1
  O  O49  1  0.64724400  0.57819100  0.67980000  1
  O  O50  1  0.06905300  0.64724400  0.17980000  1
  O  O51  1  0.35275600  0.42180900  0.17980000  1
  O  O52  1  0.61956200  0.08505500  0.97632800  1
  O  O53  1  0.91494500  0.53450800  0.97632800  1
  O  O54  1  0.38043800  0.91494500  0.47632800  1
  O  O55  1  0.46549200  0.38043800  0.97632800  1
  O  O56  1  0.08505500  0.46549200  0.47632800  1
  O  O57  1  0.53450800  0.61956200  0.47632800  1
  O  O58  1  0.11208900  0.48817300  0.82307100  1
  O  O59  1  0.51182700  0.62391600  0.82307100  1
  O  O60  1  0.88791100  0.51182700  0.32307100  1
  O  O61  1  0.37608400  0.88791100  0.82307100  1
  O  O62  1  0.48817300  0.37608400  0.32307100  1
  O  O63  1  0.62391600  0.11208900  0.32307100  1
  O  O64  1  0.38764600  0.11666100  0.94885800  1
  O  O65  1  0.88333900  0.27098500  0.94885800  1
  O  O66  1  0.61235400  0.88333900  0.44885800  1
  O  O67  1  0.72901500  0.61235400  0.94885800  1
  O  O68  1  0.11666100  0.72901500  0.44885800  1
  O  O69  1  0.27098500  0.38764600  0.44885800  1
  O  O70  1  0.58754300  0.21234300  0.49816500  1
  O  O71  1  0.78765700  0.37520000  0.49816500  1
  O  O72  1  0.41245700  0.78765700  0.99816500  1
  O  O73  1  0.62480000  0.41245700  0.49816500  1
  O  O74  1  0.21234300  0.62480000  0.99816500  1
  O  O75  1  0.37520000  0.58754300  0.99816500  1
  O  O76  1  0.21834200  0.63200900  0.60080000  1
  O  O77  1  0.36799100  0.58633200  0.60080000  1
  O  O78  1  0.78165800  0.36799100  0.10080000  1
  O  O79  1  0.41366800  0.78165800  0.60080000  1
  O  O80  1  0.63200900  0.41366800  0.10080000  1
  O  O81  1  0.58633200  0.21834200  0.10080000  1
  O  O82  1  0.22649400  0.25634300  0.65646900  1
  O  O83  1  0.74365700  0.97015100  0.65646900  1
  O  O84  1  0.77350600  0.74365700  0.15646900  1
  O  O85  1  0.02984900  0.77350600  0.65646900  1
  O  O86  1  0.25634300  0.02984900  0.15646900  1
  O  O87  1  0.97015100  0.22649400  0.15646900  1
  O  O88  1  0.13989200  0.39666900  0.61927700  1
  O  O89  1  0.60333100  0.74322400  0.61927700  1
  O  O90  1  0.86010800  0.60333100  0.11927700  1
  O  O91  1  0.25677600  0.86010800  0.61927700  1
  O  O92  1  0.39666900  0.25677600  0.11927700  1
  O  O93  1  0.74322400  0.13989200  0.11927700  1
  O  O94  1  0.26690600  0.43881700  0.80386700  1
  O  O95  1  0.56118300  0.82808900  0.80386700  1
  O  O96  1  0.73309400  0.56118300  0.30386700  1
  O  O97  1  0.17191100  0.73309400  0.80386700  1
  O  O98  1  0.43881700  0.17191100  0.30386700  1
  O  O99  1  0.82808900  0.26690600  0.30386700  1
  O  O100  1  0.41090200  0.23753900  0.54472200  1
  O  O101  1  0.76246100  0.17336300  0.54472200  1
  O  O102  1  0.58909800  0.76246100  0.04472200  1
  O  O103  1  0.82663700  0.58909800  0.54472200  1
  O  O104  1  0.23753900  0.82663700  0.04472200  1
  O  O105  1  0.17336300  0.41090200  0.04472200  1
  O  O106  1  0.01830700  0.57363000  0.64745900  1
  O  O107  1  0.42637000  0.44467600  0.64745900  1
  O  O108  1  0.98169300  0.42637000  0.14745900  1
  O  O109  1  0.55532400  0.98169300  0.64745900  1
  O  O110  1  0.57363000  0.55532400  0.14745900  1
  O  O111  1  0.44467600  0.01830700  0.14745900  1
  O  O112  1  0.33333300  0.66666700  0.79462700  1
  O  O113  1  0.66666700  0.33333300  0.29462700  1
