# generated using pymatgen
data_ErCrTeO6
_symmetry_space_group_name_H-M   'P 1'
_cell_length_a   5.38479366
_cell_length_b   5.38479366
_cell_length_c   8.62318900
_cell_angle_alpha   90.00000000
_cell_angle_beta   90.00000000
_cell_angle_gamma   119.99999576
_symmetry_Int_Tables_number   1
_chemical_formula_structural   ErCrTeO6
_chemical_formula_sum   'Er2 Cr2 Te2 O12'
_cell_volume   216.53927921
_cell_formula_units_Z   2
loop_
 _symmetry_equiv_pos_site_id
 _symmetry_equiv_pos_as_xyz
  1  'x, y, z'
loop_
 _atom_site_type_symbol
 _atom_site_label
 _atom_site_symmetry_multiplicity
 _atom_site_fract_x
 _atom_site_fract_y
 _atom_site_fract_z
 _atom_site_occupancy
  Er  Er0  1  0.33333300  0.66666700  0.75000000  1
  Er  Er1  1  0.66666700  0.33333300  0.25000000  1
  Cr  Cr2  1  0.00000000  0.00000000  0.00000000  1
  Cr  Cr3  1  0.00000000  0.00000000  0.50000000  1
  Te  Te4  1  0.66666700  0.33333300  0.75000000  1
  Te  Te5  1  0.33333300  0.66666700  0.25000000  1
  O  O6  1  0.96104800  0.31391100  0.87602800  1
  O  O7  1  0.03895200  0.68608900  0.12397200  1
  O  O8  1  0.35286300  0.03895200  0.87602800  1
  O  O9  1  0.35286300  0.31391100  0.62397200  1
  O  O10  1  0.64713700  0.96104800  0.12397200  1
  O  O11  1  0.64713700  0.68608900  0.37602800  1
  O  O12  1  0.68608900  0.64713700  0.87602800  1
  O  O13  1  0.68608900  0.03895200  0.62397200  1
  O  O14  1  0.31391100  0.35286300  0.12397200  1
  O  O15  1  0.31391100  0.96104800  0.37602800  1
  O  O16  1  0.96104800  0.64713700  0.62397200  1
  O  O17  1  0.03895200  0.35286300  0.37602800  1
