# generated using pymatgen
data_Ho2Se3O20
_symmetry_space_group_name_H-M   'P 1'
_cell_length_a   6.94629200
_cell_length_b   7.20099014
_cell_length_c   19.50545318
_cell_angle_alpha   98.52320038
_cell_angle_beta   90.00000000
_cell_angle_gamma   118.83671177
_symmetry_Int_Tables_number   1
_chemical_formula_structural   Ho2Se3O20
_chemical_formula_sum   'Ho4 Se6 O40'
_cell_volume   842.36001495
_cell_formula_units_Z   2
loop_
 _symmetry_equiv_pos_site_id
 _symmetry_equiv_pos_as_xyz
  1  'x, y, z'
loop_
 _atom_site_type_symbol
 _atom_site_label
 _atom_site_symmetry_multiplicity
 _atom_site_fract_x
 _atom_site_fract_y
 _atom_site_fract_z
 _atom_site_occupancy
  Ho  Ho0  1  0.82204900  0.67681000  0.60621500  1
  Ho  Ho1  1  0.17795100  0.32319000  0.39378500  1
  Ho  Ho2  1  0.14523900  0.32319000  0.89378500  1
  Ho  Ho3  1  0.85476100  0.67681000  0.10621500  1
  Se  Se4  1  0.76645900  0.58689000  0.91539800  1
  Se  Se5  1  0.23354100  0.41311000  0.08460200  1
  Se  Se6  1  0.17956900  0.41311000  0.58460200  1
  Se  Se7  1  0.82043100  0.58689000  0.41539800  1
  Se  Se8  1  0.71841300  0.00000000  0.75000000  1
  Se  Se9  1  0.28158700  0.00000000  0.25000000  1
  O  O10  1  0.33997300  0.61181700  0.81825200  1
  O  O11  1  0.66002700  0.38818300  0.18174800  1
  O  O12  1  0.72815700  0.38818300  0.68174800  1
  O  O13  1  0.27184300  0.61181700  0.31825200  1
  O  O14  1  0.31745100  0.69649500  0.92670800  1
  O  O15  1  0.68255000  0.30350500  0.07329200  1
  O  O16  1  0.62095500  0.30350500  0.57329200  1
  O  O17  1  0.37904500  0.69649500  0.42670800  1
  O  O18  1  0.50723000  0.40075600  0.88674000  1
  O  O19  1  0.49277000  0.59924400  0.11326000  1
  O  O20  1  0.10647300  0.59924400  0.61326000  1
  O  O21  1  0.89352700  0.40075600  0.38674000  1
  O  O22  1  0.78695000  0.70832200  0.99657100  1
  O  O23  1  0.21305000  0.29167800  0.00342900  1
  O  O24  1  0.07862800  0.29167800  0.50342900  1
  O  O25  1  0.92137200  0.70832200  0.49657100  1
  O  O26  1  0.54272400  0.93448500  0.81427100  1
  O  O27  1  0.45727600  0.06551500  0.18572900  1
  O  O28  1  0.60823900  0.06551500  0.68572900  1
  O  O29  1  0.39176100  0.93448500  0.31427100  1
  O  O30  1  0.85017900  0.76619500  0.85989900  1
  O  O31  1  0.14982100  0.23380500  0.14010100  1
  O  O32  1  0.08398400  0.23380500  0.64010100  1
  O  O33  1  0.91601600  0.76619500  0.35989900  1
  O  O34  1  0.45380900  0.53713600  0.58652000  1
  O  O35  1  0.54619100  0.46286400  0.41348000  1
  O  O36  1  0.91667300  0.46286400  0.91348000  1
  O  O37  1  0.08332700  0.53713600  0.08652000  1
  O  O38  1  0.18513800  0.00969200  0.85654000  1
  O  O39  1  0.81486200  0.99030800  0.14346000  1
  O  O40  1  0.17544500  0.99030800  0.64346000  1
  O  O41  1  0.82455500  0.00969200  0.35654000  1
  O  O42  1  0.77472100  0.97177000  0.58036200  1
  O  O43  1  0.22527900  0.02823000  0.41963800  1
  O  O44  1  0.80295100  0.02823000  0.91963800  1
  O  O45  1  0.19704900  0.97177000  0.08036200  1
  O  O46  1  0.75511100  0.79583800  0.71403000  1
  O  O47  1  0.24488900  0.20416200  0.28597000  1
  O  O48  1  0.95927300  0.20416200  0.78597000  1
  O  O49  1  0.04072700  0.79583800  0.21403000  1
