# generated using pymatgen
data_CsRbSO4
_symmetry_space_group_name_H-M   'P 1'
_cell_length_a   6.30100800
_cell_length_b   6.30100800
_cell_length_c   8.27195800
_cell_angle_alpha   90.00000000
_cell_angle_beta   90.00000000
_cell_angle_gamma   120.00000002
_symmetry_Int_Tables_number   1
_chemical_formula_structural   CsRbSO4
_chemical_formula_sum   'Cs2 Rb2 S2 O8'
_cell_volume   284.41926815
_cell_formula_units_Z   2
loop_
 _symmetry_equiv_pos_site_id
 _symmetry_equiv_pos_as_xyz
  1  'x, y, z'
loop_
 _atom_site_type_symbol
 _atom_site_label
 _atom_site_symmetry_multiplicity
 _atom_site_fract_x
 _atom_site_fract_y
 _atom_site_fract_z
 _atom_site_occupancy
  Cs  Cs0  1  0.00000000  0.00000000  0.68702600  1
  Cs  Cs1  1  0.66666700  0.33333300  0.37824300  1
  Rb  Rb2  1  0.33333300  0.66666700  0.99630000  1
  Rb  Rb3  1  0.00000000  0.00000000  0.18518200  1
  S  S4  1  0.66666700  0.33333300  0.91503200  1
  S  S5  1  0.33333300  0.66666700  0.45438000  1
  O  O6  1  0.20419000  0.40838000  0.39059400  1
  O  O7  1  0.20419000  0.79581000  0.39059400  1
  O  O8  1  0.59162000  0.79581000  0.39059400  1
  O  O9  1  0.66666700  0.33333300  0.73674200  1
  O  O10  1  0.79605900  0.59211800  0.97837600  1
  O  O11  1  0.79605900  0.20394100  0.97837600  1
  O  O12  1  0.40788200  0.20394100  0.97837600  1
  O  O13  1  0.33333300  0.66666700  0.63318400  1
