# generated using pymatgen
data_Fe(O2F)2
_symmetry_space_group_name_H-M   'P 1'
_cell_length_a   5.40759100
_cell_length_b   6.91836000
_cell_length_c   12.42584000
_cell_angle_alpha   90.00000000
_cell_angle_beta   90.00000000
_cell_angle_gamma   90.00000000
_symmetry_Int_Tables_number   1
_chemical_formula_structural   Fe(O2F)2
_chemical_formula_sum   'Fe4 O16 F8'
_cell_volume   464.87131708
_cell_formula_units_Z   4
loop_
 _symmetry_equiv_pos_site_id
 _symmetry_equiv_pos_as_xyz
  1  'x, y, z'
loop_
 _atom_site_type_symbol
 _atom_site_label
 _atom_site_symmetry_multiplicity
 _atom_site_fract_x
 _atom_site_fract_y
 _atom_site_fract_z
 _atom_site_occupancy
  Fe  Fe0  1  0.23426900  0.16413200  0.16228500  1
  Fe  Fe1  1  0.76573100  0.66413200  0.83771500  1
  Fe  Fe2  1  0.76573100  0.16413200  0.66228500  1
  Fe  Fe3  1  0.23426900  0.66413200  0.33771500  1
  O  O4  1  0.06517200  0.91371100  0.16890200  1
  O  O5  1  0.93482800  0.41371100  0.83109800  1
  O  O6  1  0.93482800  0.91371100  0.66890200  1
  O  O7  1  0.06517200  0.41371100  0.33109800  1
  O  O8  1  0.60296800  0.47443200  0.10701400  1
  O  O9  1  0.39703200  0.97443200  0.89298600  1
  O  O10  1  0.39703200  0.47443200  0.60701400  1
  O  O11  1  0.60296800  0.97443200  0.39298600  1
  O  O12  1  0.61528700  0.13628400  0.43255500  1
  O  O13  1  0.38471300  0.63628400  0.56744500  1
  O  O14  1  0.38471300  0.13628400  0.93255500  1
  O  O15  1  0.61528700  0.63628400  0.06744500  1
  O  O16  1  0.20919400  0.26380100  0.30937900  1
  O  O17  1  0.79080600  0.76380100  0.69062100  1
  O  O18  1  0.79080600  0.26380100  0.80937900  1
  O  O19  1  0.20919400  0.76380100  0.19062100  1
  F  F20  1  0.55214100  0.08752700  0.15543400  1
  F  F21  1  0.44785900  0.58752700  0.84456600  1
  F  F22  1  0.44785900  0.08752700  0.65543400  1
  F  F23  1  0.55214100  0.58752700  0.34456600  1
  F  F24  1  0.09406800  0.34711200  0.08046600  1
  F  F25  1  0.90593200  0.84711200  0.91953400  1
  F  F26  1  0.90593200  0.34711200  0.58046600  1
  F  F27  1  0.09406800  0.84711200  0.41953400  1
