# generated using pymatgen
data_KNaCuP4H18N4O15
_symmetry_space_group_name_H-M   'P 1'
_cell_length_a   6.50448330
_cell_length_b   14.76259023
_cell_length_c   19.47266482
_cell_angle_alpha   90.00000000
_cell_angle_beta   90.00000000
_cell_angle_gamma   90.00000000
_symmetry_Int_Tables_number   1
_chemical_formula_structural   KNaCuP4H18N4O15
_chemical_formula_sum   'K4 Na4 Cu4 P16 H72 N16 O60'
_cell_volume   1869.82411493
_cell_formula_units_Z   4
loop_
 _symmetry_equiv_pos_site_id
 _symmetry_equiv_pos_as_xyz
  1  'x, y, z'
loop_
 _atom_site_type_symbol
 _atom_site_label
 _atom_site_symmetry_multiplicity
 _atom_site_fract_x
 _atom_site_fract_y
 _atom_site_fract_z
 _atom_site_occupancy
  K  K0  1  0.16303517  0.25000000  0.15911814  1
  K  K1  1  0.83696483  0.75000000  0.84088186  1
  K  K2  1  0.33696483  0.75000000  0.65911814  1
  K  K3  1  0.66303517  0.25000000  0.34088186  1
  Na  Na4  1  0.20373725  0.25000000  0.75307621  1
  Na  Na5  1  0.79626275  0.75000000  0.24692379  1
  Na  Na6  1  0.29626275  0.75000000  0.25307621  1
  Na  Na7  1  0.70373725  0.25000000  0.74692379  1
  Cu  Cu8  1  0.00619145  0.25000000  0.47418372  1
  Cu  Cu9  1  0.99380855  0.75000000  0.52581628  1
  Cu  Cu10  1  0.49380855  0.75000000  0.97418372  1
  Cu  Cu11  1  0.50619145  0.25000000  0.02581628  1
  P  P12  1  0.22665432  0.08084591  0.53819418  1
  P  P13  1  0.77334568  0.91915409  0.46180582  1
  P  P14  1  0.27334568  0.91915409  0.03819418  1
  P  P15  1  0.77334568  0.58084591  0.46180582  1
  P  P16  1  0.72665432  0.08084591  0.96180582  1
  P  P17  1  0.22665432  0.41915409  0.53819418  1
  P  P18  1  0.72665432  0.41915409  0.96180582  1
  P  P19  1  0.27334568  0.58084591  0.03819418  1
  P  P20  1  0.05122222  0.06004347  0.39569784  1
  P  P21  1  0.94877778  0.93995653  0.60430216  1
  P  P22  1  0.44877778  0.93995653  0.89569784  1
  P  P23  1  0.94877778  0.56004347  0.60430216  1
  P  P24  1  0.55122222  0.06004347  0.10430216  1
  P  P25  1  0.05122222  0.43995653  0.39569784  1
  P  P26  1  0.55122222  0.43995653  0.10430216  1
  P  P27  1  0.44877778  0.56004347  0.89569784  1
  H  H28  1  0.04828241  0.69727204  0.12538309  1
  H  H29  1  0.95171759  0.30272796  0.87461691  1
  H  H30  1  0.45171759  0.30272796  0.62538309  1
  H  H31  1  0.95171759  0.19727204  0.87461691  1
  H  H32  1  0.54828241  0.69727204  0.37461691  1
  H  H33  1  0.04828241  0.80272796  0.12538309  1
  H  H34  1  0.54828241  0.80272796  0.37461691  1
  H  H35  1  0.45171759  0.19727204  0.62538309  1
  H  H36  1  0.41521192  0.05598783  0.31489834  1
  H  H37  1  0.58478808  0.94401217  0.68510166  1
  H  H38  1  0.08478808  0.94401217  0.81489834  1
  H  H39  1  0.58478808  0.55598783  0.68510166  1
  H  H40  1  0.91521192  0.05598783  0.18510166  1
  H  H41  1  0.41521192  0.44401217  0.31489834  1
  H  H42  1  0.91521192  0.44401217  0.18510166  1
  H  H43  1  0.08478808  0.55598783  0.81489834  1
  H  H44  1  0.08347505  0.19690569  0.99548975  1
  H  H45  1  0.91652495  0.80309431  0.00451025  1
  H  H46  1  0.41652495  0.80309431  0.49548975  1
  H  H47  1  0.91652495  0.69690569  0.00451025  1
  H  H48  1  0.58347505  0.19690569  0.50451025  1
  H  H49  1  0.08347505  0.30309431  0.99548975  1
  H  H50  1  0.58347505  0.30309431  0.50451025  1
  H  H51  1  0.41652495  0.69690569  0.49548975  1
  H  H52  1  0.19714808  0.19856672  0.31584871  1
  H  H53  1  0.80285192  0.80143328  0.68415129  1
  H  H54  1  0.30285192  0.80143328  0.81584871  1
  H  H55  1  0.80285192  0.69856672  0.68415129  1
  H  H56  1  0.69714808  0.19856672  0.18415129  1
  H  H57  1  0.19714808  0.30143328  0.31584871  1
  H  H58  1  0.69714808  0.30143328  0.18415129  1
  H  H59  1  0.30285192  0.69856672  0.81584871  1
  H  H60  1  0.07713087  0.58672052  0.30873296  1
  H  H61  1  0.92286913  0.41327948  0.69126704  1
  H  H62  1  0.42286913  0.41327948  0.80873296  1
  H  H63  1  0.92286913  0.08672052  0.69126704  1
  H  H64  1  0.57713087  0.58672052  0.19126704  1
  H  H65  1  0.07713087  0.91327948  0.30873296  1
  H  H66  1  0.57713087  0.91327948  0.19126704  1
  H  H67  1  0.42286913  0.08672052  0.80873296  1
  H  H68  1  0.02166839  0.66491375  0.35765597  1
  H  H69  1  0.97833161  0.33508625  0.64234403  1
  H  H70  1  0.47833161  0.33508625  0.85765597  1
  H  H71  1  0.97833161  0.16491375  0.64234403  1
  H  H72  1  0.52166839  0.66491375  0.14234403  1
  H  H73  1  0.02166839  0.83508625  0.35765597  1
  H  H74  1  0.52166839  0.83508625  0.14234403  1
  H  H75  1  0.47833161  0.16491375  0.85765597  1
  H  H76  1  0.31711543  0.51646160  0.44947759  1
  H  H77  1  0.68288457  0.48353840  0.55052241  1
  H  H78  1  0.18288457  0.48353840  0.94947759  1
  H  H79  1  0.68288457  0.01646160  0.55052241  1
  H  H80  1  0.81711543  0.51646160  0.05052241  1
  H  H81  1  0.31711543  0.98353840  0.44947759  1
  H  H82  1  0.81711543  0.98353840  0.05052241  1
  H  H83  1  0.18288457  0.01646160  0.94947759  1
  H  H84  1  0.08522766  0.05840452  0.24261812  1
  H  H85  1  0.91477234  0.94159548  0.75738188  1
  H  H86  1  0.41477234  0.94159548  0.74261812  1
  H  H87  1  0.91477234  0.55840452  0.75738188  1
  H  H88  1  0.58522766  0.05840452  0.25738188  1
  H  H89  1  0.08522766  0.44159548  0.24261812  1
  H  H90  1  0.58522766  0.44159548  0.25738188  1
  H  H91  1  0.41477234  0.55840452  0.74261812  1
  H  H92  1  0.21963414  0.01837798  0.12971338  1
  H  H93  1  0.78036586  0.98162202  0.87028662  1
  H  H94  1  0.28036586  0.98162202  0.62971338  1
  H  H95  1  0.78036586  0.51837798  0.87028662  1
  H  H96  1  0.71963414  0.01837798  0.37028662  1
  H  H97  1  0.21963414  0.48162202  0.12971338  1
  H  H98  1  0.71963414  0.48162202  0.37028662  1
  H  H99  1  0.28036586  0.51837798  0.62971338  1
  N  N100  1  0.21246207  0.03476558  0.45899929  1
  N  N101  1  0.78753793  0.96523442  0.54100071  1
  N  N102  1  0.28753793  0.96523442  0.95899929  1
  N  N103  1  0.78753793  0.53476558  0.54100071  1
  N  N104  1  0.71246207  0.03476558  0.04100071  1
  N  N105  1  0.21246207  0.46523442  0.45899929  1
  N  N106  1  0.71246207  0.46523442  0.04100071  1
  N  N107  1  0.28753793  0.53476558  0.95899929  1
  N  N108  1  0.33285711  0.00105786  0.09372093  1
  N  N109  1  0.66714289  0.99894214  0.90627907  1
  N  N110  1  0.16714289  0.99894214  0.59372093  1
  N  N111  1  0.66714289  0.50105786  0.90627907  1
  N  N112  1  0.83285711  0.00105786  0.40627907  1
  N  N113  1  0.33285711  0.49894214  0.09372093  1
  N  N114  1  0.83285711  0.49894214  0.40627907  1
  N  N115  1  0.16714289  0.50105786  0.59372093  1
  O  O116  1  0.06221110  0.07001434  0.19311350  1
  O  O117  1  0.93778890  0.92998566  0.80688650  1
  O  O118  1  0.43778890  0.92998566  0.69311350  1
  O  O119  1  0.93778890  0.57001434  0.80688650  1
  O  O120  1  0.56221110  0.07001434  0.30688650  1
  O  O121  1  0.06221110  0.42998566  0.19311350  1
  O  O122  1  0.56221110  0.42998566  0.30688650  1
  O  O123  1  0.43778890  0.57001434  0.69311350  1
  O  O124  1  0.26815007  0.25000000  0.29469824  1
  O  O125  1  0.73184993  0.75000000  0.70530176  1
  O  O126  1  0.23184993  0.75000000  0.79469824  1
  O  O127  1  0.76815007  0.25000000  0.20530176  1
  O  O128  1  0.15035545  0.03261061  0.32798490  1
  O  O129  1  0.84964455  0.96738939  0.67201510  1
  O  O130  1  0.34964455  0.96738939  0.82798490  1
  O  O131  1  0.84964455  0.53261061  0.67201510  1
  O  O132  1  0.65035545  0.03261061  0.17201510  1
  O  O133  1  0.15035545  0.46738939  0.32798490  1
  O  O134  1  0.65035545  0.46738939  0.17201510  1
  O  O135  1  0.34964455  0.53261061  0.82798490  1
  O  O136  1  0.05445076  0.60950016  0.05314409  1
  O  O137  1  0.94554924  0.39049984  0.94685591  1
  O  O138  1  0.44554924  0.39049984  0.55314409  1
  O  O139  1  0.94554924  0.10950016  0.94685591  1
  O  O140  1  0.55445076  0.60950016  0.44685591  1
  O  O141  1  0.05445076  0.89049984  0.05314409  1
  O  O142  1  0.55445076  0.89049984  0.44685591  1
  O  O143  1  0.44554924  0.10950016  0.55314409  1
  O  O144  1  0.05829021  0.15372318  0.54211946  1
  O  O145  1  0.94170979  0.84627682  0.45788054  1
  O  O146  1  0.44170979  0.84627682  0.04211946  1
  O  O147  1  0.94170979  0.65372318  0.45788054  1
  O  O148  1  0.55829021  0.15372318  0.95788054  1
  O  O149  1  0.05829021  0.34627682  0.54211946  1
  O  O150  1  0.55829021  0.34627682  0.95788054  1
  O  O151  1  0.44170979  0.65372318  0.04211946  1
  O  O152  1  0.45279233  0.25000000  0.65664290  1
  O  O153  1  0.54720767  0.75000000  0.34335710  1
  O  O154  1  0.04720767  0.75000000  0.15664290  1
  O  O155  1  0.95279233  0.25000000  0.84335710  1
  O  O156  1  0.50014647  0.16119747  0.10232304  1
  O  O157  1  0.49985353  0.83880253  0.89767696  1
  O  O158  1  -0.00014647  0.83880253  0.60232304  1
  O  O159  1  0.49985353  0.66119747  0.89767696  1
  O  O160  1  0.00014647  0.16119747  0.39767696  1
  O  O161  1  0.50014647  0.33880253  0.10232304  1
  O  O162  1  0.00014647  0.33880253  0.39767696  1
  O  O163  1  -0.00014647  0.66119747  0.60232304  1
  O  O164  1  0.14602851  0.25000000  0.01850226  1
  O  O165  1  0.85397149  0.75000000  0.98149774  1
  O  O166  1  0.35397149  0.75000000  0.51850226  1
  O  O167  1  0.64602851  0.25000000  0.48149774  1
  O  O168  1  0.04541993  0.65225920  0.30876816  1
  O  O169  1  0.95458007  0.34774080  0.69123184  1
  O  O170  1  0.45458007  0.34774080  0.80876816  1
  O  O171  1  0.95458007  0.15225920  0.69123184  1
  O  O172  1  0.54541993  0.65225920  0.19123184  1
  O  O173  1  0.04541993  0.84774080  0.30876816  1
  O  O174  1  0.54541993  0.84774080  0.19123184  1
  O  O175  1  0.45458007  0.15225920  0.80876816  1
