# generated using pymatgen
data_Fe(C4N3)2
_symmetry_space_group_name_H-M   'P 1'
_cell_length_a   5.12134800
_cell_length_b   7.11808700
_cell_length_c   10.00418600
_cell_angle_alpha   90.00000000
_cell_angle_beta   90.00000000
_cell_angle_gamma   90.00000000
_symmetry_Int_Tables_number   1
_chemical_formula_structural   Fe(C4N3)2
_chemical_formula_sum   'Fe2 C16 N12'
_cell_volume   364.69460350
_cell_formula_units_Z   2
loop_
 _symmetry_equiv_pos_site_id
 _symmetry_equiv_pos_as_xyz
  1  'x, y, z'
loop_
 _atom_site_type_symbol
 _atom_site_label
 _atom_site_symmetry_multiplicity
 _atom_site_fract_x
 _atom_site_fract_y
 _atom_site_fract_z
 _atom_site_occupancy
  Fe  Fe0  1  0.00000000  0.00000000  0.00000000  1
  Fe  Fe1  1  0.00000000  0.50000000  0.50000000  1
  C  C2  1  0.37824300  0.00000000  0.75850300  1
  C  C3  1  0.62175700  0.00000000  0.24149700  1
  C  C4  1  0.62175700  0.50000000  0.25850300  1
  C  C5  1  0.37824300  0.50000000  0.74149700  1
  C  C6  1  0.69236200  0.66624000  0.88535200  1
  C  C7  1  0.30763800  0.33376000  0.11464800  1
  C  C8  1  0.30763800  0.83376000  0.38535200  1
  C  C9  1  0.69236200  0.83376000  0.61464800  1
  C  C10  1  0.69236200  0.16624000  0.61464800  1
  C  C11  1  0.30763800  0.16624000  0.38535200  1
  C  C12  1  0.30763800  0.66624000  0.11464800  1
  C  C13  1  0.69236200  0.33376000  0.88535200  1
  C  C14  1  0.57655400  0.00000000  0.66111100  1
  C  C15  1  0.42344600  0.00000000  0.33888900  1
  C  C16  1  0.42344600  0.50000000  0.16111100  1
  C  C17  1  0.57655400  0.50000000  0.83888900  1
  N  N18  1  0.21851300  0.00000000  0.84251900  1
  N  N19  1  0.78148700  0.00000000  0.15748100  1
  N  N20  1  0.78148700  0.50000000  0.34251900  1
  N  N21  1  0.21851300  0.50000000  0.65748100  1
  N  N22  1  0.79546800  0.80074800  0.92723100  1
  N  N23  1  0.20453200  0.19925200  0.07276900  1
  N  N24  1  0.20453200  0.69925200  0.42723100  1
  N  N25  1  0.79546800  0.69925200  0.57276900  1
  N  N26  1  0.79546800  0.30074800  0.57276900  1
  N  N27  1  0.20453200  0.30074800  0.42723100  1
  N  N28  1  0.20453200  0.80074800  0.07276900  1
  N  N29  1  0.79546800  0.19925200  0.92723100  1
