# generated using pymatgen
data_ErTa5Ag2O15
_symmetry_space_group_name_H-M   'P 1'
_cell_length_a   12.59337300
_cell_length_b   12.59337300
_cell_length_c   3.91627400
_cell_angle_alpha   90.00000000
_cell_angle_beta   90.00000000
_cell_angle_gamma   90.00000000
_symmetry_Int_Tables_number   1
_chemical_formula_structural   ErTa5Ag2O15
_chemical_formula_sum   'Er2 Ta10 Ag4 O30'
_cell_volume   621.09381291
_cell_formula_units_Z   2
loop_
 _symmetry_equiv_pos_site_id
 _symmetry_equiv_pos_as_xyz
  1  'x, y, z'
loop_
 _atom_site_type_symbol
 _atom_site_label
 _atom_site_symmetry_multiplicity
 _atom_site_fract_x
 _atom_site_fract_y
 _atom_site_fract_z
 _atom_site_occupancy
  Er  Er0  1  0.00000000  0.00000000  0.50000000  1
  Er  Er1  1  0.50000000  0.50000000  0.50000000  1
  Ta  Ta2  1  0.50000000  0.00000000  0.00000000  1
  Ta  Ta3  1  0.00000000  0.50000000  0.00000000  1
  Ta  Ta4  1  0.21076500  0.07856700  0.00000000  1
  Ta  Ta5  1  0.78923500  0.92143300  0.00000000  1
  Ta  Ta6  1  0.07856700  0.78923500  0.00000000  1
  Ta  Ta7  1  0.71076500  0.42143300  0.00000000  1
  Ta  Ta8  1  0.92143300  0.21076500  0.00000000  1
  Ta  Ta9  1  0.28923500  0.57856700  0.00000000  1
  Ta  Ta10  1  0.57856700  0.71076500  0.00000000  1
  Ta  Ta11  1  0.42143300  0.28923500  0.00000000  1
  Ag  Ag12  1  0.67206800  0.17206800  0.50000000  1
  Ag  Ag13  1  0.32793200  0.82793200  0.50000000  1
  Ag  Ag14  1  0.17206800  0.32793200  0.50000000  1
  Ag  Ag15  1  0.82793200  0.67206800  0.50000000  1
  O  O16  1  0.18796600  0.07972500  0.50000000  1
  O  O17  1  0.81203400  0.92027500  0.50000000  1
  O  O18  1  0.07972500  0.81203400  0.50000000  1
  O  O19  1  0.68796600  0.42027500  0.50000000  1
  O  O20  1  0.92027500  0.18796600  0.50000000  1
  O  O21  1  0.31203400  0.57972500  0.50000000  1
  O  O22  1  0.57972500  0.68796600  0.50000000  1
  O  O23  1  0.42027500  0.31203400  0.50000000  1
  O  O24  1  0.22458900  0.72458900  0.00000000  1
  O  O25  1  0.77541100  0.27541100  0.00000000  1
  O  O26  1  0.72458900  0.77541100  0.00000000  1
  O  O27  1  0.27541100  0.22458900  0.00000000  1
  O  O28  1  0.50000000  0.00000000  0.50000000  1
  O  O29  1  0.00000000  0.50000000  0.50000000  1
  O  O30  1  0.05659400  0.12958900  0.00000000  1
  O  O31  1  0.94340600  0.87041100  0.00000000  1
  O  O32  1  0.12958900  0.94340600  0.00000000  1
  O  O33  1  0.55659400  0.37041100  0.00000000  1
  O  O34  1  0.87041100  0.05659400  0.00000000  1
  O  O35  1  0.44340600  0.62958900  0.00000000  1
  O  O36  1  0.62958900  0.55659400  0.00000000  1
  O  O37  1  0.37041100  0.44340600  0.00000000  1
  O  O38  1  0.34090100  0.99924000  0.00000000  1
  O  O39  1  0.65909900  0.00076000  0.00000000  1
  O  O40  1  0.99924000  0.65909900  0.00000000  1
  O  O41  1  0.84090100  0.50076000  0.00000000  1
  O  O42  1  0.00076000  0.34090100  0.00000000  1
  O  O43  1  0.15909900  0.49924000  0.00000000  1
  O  O44  1  0.49924000  0.84090100  0.00000000  1
  O  O45  1  0.50076000  0.15909900  0.00000000  1
