# generated using pymatgen
data_CuN5
_symmetry_space_group_name_H-M   'P 1'
_cell_length_a   5.19121600
_cell_length_b   6.99821474
_cell_length_c   6.99821474
_cell_angle_alpha   82.09311063
_cell_angle_beta   68.22912983
_cell_angle_gamma   68.22912983
_symmetry_Int_Tables_number   1
_chemical_formula_structural   CuN5
_chemical_formula_sum   'Cu2 N10'
_cell_volume   219.26569229
_cell_formula_units_Z   2
loop_
 _symmetry_equiv_pos_site_id
 _symmetry_equiv_pos_as_xyz
  1  'x, y, z'
loop_
 _atom_site_type_symbol
 _atom_site_label
 _atom_site_symmetry_multiplicity
 _atom_site_fract_x
 _atom_site_fract_y
 _atom_site_fract_z
 _atom_site_occupancy
  Cu  Cu0  1  0.00000000  0.00000000  0.00000000  1
  Cu  Cu1  1  0.25000000  0.50000000  0.50000000  1
  N  N2  1  0.38369800  0.00253900  0.85163100  1
  N  N3  1  0.23786900  0.99746100  0.14836900  1
  N  N4  1  0.48532900  0.64836900  0.50253900  1
  N  N5  1  0.86630200  0.49746100  0.64836900  1
  N  N6  1  0.63623700  0.35163100  0.49746100  1
  N  N7  1  0.01213100  0.50253900  0.35163100  1
  N  N8  1  0.76467100  0.85163100  0.99746100  1
  N  N9  1  0.61376300  0.14836900  0.00253900  1
  N  N10  1  0.50000000  0.00000000  0.00000000  1
  N  N11  1  0.75000000  0.50000000  0.50000000  1
