# generated using pymatgen
data_CsTlF4
_symmetry_space_group_name_H-M   'P 1'
_cell_length_a   6.68088300
_cell_length_b   8.56107000
_cell_length_c   8.72686200
_cell_angle_alpha   90.00000000
_cell_angle_beta   90.00000000
_cell_angle_gamma   90.00000000
_symmetry_Int_Tables_number   1
_chemical_formula_structural   CsTlF4
_chemical_formula_sum   'Cs4 Tl4 F16'
_cell_volume   499.13729683
_cell_formula_units_Z   4
loop_
 _symmetry_equiv_pos_site_id
 _symmetry_equiv_pos_as_xyz
  1  'x, y, z'
loop_
 _atom_site_type_symbol
 _atom_site_label
 _atom_site_symmetry_multiplicity
 _atom_site_fract_x
 _atom_site_fract_y
 _atom_site_fract_z
 _atom_site_occupancy
  Cs  Cs0  1  0.51329000  0.19689600  0.80186500  1
  Cs  Cs1  1  0.48671000  0.80310400  0.30186500  1
  Cs  Cs2  1  0.48671000  0.69689600  0.80186500  1
  Cs  Cs3  1  0.51329000  0.30310400  0.30186500  1
  Tl  Tl4  1  0.00051700  0.99410800  0.55307100  1
  Tl  Tl5  1  0.99948300  0.00589200  0.05307100  1
  Tl  Tl6  1  0.99948300  0.49410800  0.55307100  1
  Tl  Tl7  1  0.00051700  0.50589200  0.05307100  1
  F  F8  1  0.29228000  0.06127000  0.49603500  1
  F  F9  1  0.70772000  0.93873000  0.99603500  1
  F  F10  1  0.70772000  0.56127000  0.49603500  1
  F  F11  1  0.29228000  0.43873000  0.99603500  1
  F  F12  1  0.09314200  0.01325800  0.80275900  1
  F  F13  1  0.90685800  0.98674200  0.30275900  1
  F  F14  1  0.90685800  0.51325800  0.80275900  1
  F  F15  1  0.09314200  0.48674200  0.30275900  1
  F  F16  1  0.12170400  0.74368400  0.56017700  1
  F  F17  1  0.87829600  0.25631600  0.06017700  1
  F  F18  1  0.87829600  0.24368400  0.56017700  1
  F  F19  1  0.12170400  0.75631600  0.06017700  1
  F  F20  1  0.29115600  0.42041300  0.60609300  1
  F  F21  1  0.70884400  0.57958700  0.10609300  1
  F  F22  1  0.70884400  0.92041300  0.60609300  1
  F  F23  1  0.29115600  0.07958700  0.10609300  1
