# generated using pymatgen
data_CsTm(MoO4)2
_symmetry_space_group_name_H-M   'P 1'
_cell_length_a   5.07385400
_cell_length_b   8.06105300
_cell_length_c   9.59945300
_cell_angle_alpha   90.00000000
_cell_angle_beta   90.00000000
_cell_angle_gamma   90.00000000
_symmetry_Int_Tables_number   1
_chemical_formula_structural   CsTm(MoO4)2
_chemical_formula_sum   'Cs2 Tm2 Mo4 O16'
_cell_volume   392.62344505
_cell_formula_units_Z   2
loop_
 _symmetry_equiv_pos_site_id
 _symmetry_equiv_pos_as_xyz
  1  'x, y, z'
loop_
 _atom_site_type_symbol
 _atom_site_label
 _atom_site_symmetry_multiplicity
 _atom_site_fract_x
 _atom_site_fract_y
 _atom_site_fract_z
 _atom_site_occupancy
  Cs  Cs0  1  0.00000000  0.25000000  0.50000000  1
  Cs  Cs1  1  0.00000000  0.75000000  0.50000000  1
  Tm  Tm2  1  0.00000000  0.25000000  0.00000000  1
  Tm  Tm3  1  0.00000000  0.75000000  0.00000000  1
  Mo  Mo4  1  0.52186700  0.00000000  0.19363900  1
  Mo  Mo5  1  0.47813300  0.00000000  0.80636100  1
  Mo  Mo6  1  0.47813300  0.50000000  0.19363900  1
  Mo  Mo7  1  0.52186700  0.50000000  0.80636100  1
  O  O8  1  0.24538600  0.00000000  0.06448900  1
  O  O9  1  0.75461400  0.00000000  0.93551100  1
  O  O10  1  0.75461400  0.50000000  0.06448900  1
  O  O11  1  0.24538600  0.50000000  0.93551100  1
  O  O12  1  0.25825400  0.32327400  0.18448900  1
  O  O13  1  0.74174600  0.67672600  0.81551100  1
  O  O14  1  0.74174600  0.32327400  0.81551100  1
  O  O15  1  0.74174600  0.17672600  0.18448900  1
  O  O16  1  0.25825400  0.67672600  0.18448900  1
  O  O17  1  0.25825400  0.82327400  0.81551100  1
  O  O18  1  0.25825400  0.17672600  0.81551100  1
  O  O19  1  0.74174600  0.82327400  0.18448900  1
  O  O20  1  0.38536100  0.00000000  0.36132500  1
  O  O21  1  0.61463900  0.00000000  0.63867500  1
  O  O22  1  0.61463900  0.50000000  0.36132500  1
  O  O23  1  0.38536100  0.50000000  0.63867500  1
