# generated using pymatgen
data_CsPO3
_symmetry_space_group_name_H-M   'P 1'
_cell_length_a   4.62419100
_cell_length_b   6.53342800
_cell_length_c   13.84518400
_cell_angle_alpha   90.00000000
_cell_angle_beta   90.00000000
_cell_angle_gamma   90.00000000
_symmetry_Int_Tables_number   1
_chemical_formula_structural   CsPO3
_chemical_formula_sum   'Cs4 P4 O12'
_cell_volume   418.28819243
_cell_formula_units_Z   4
loop_
 _symmetry_equiv_pos_site_id
 _symmetry_equiv_pos_as_xyz
  1  'x, y, z'
loop_
 _atom_site_type_symbol
 _atom_site_label
 _atom_site_symmetry_multiplicity
 _atom_site_fract_x
 _atom_site_fract_y
 _atom_site_fract_z
 _atom_site_occupancy
  Cs  Cs0  1  0.23312700  0.25000000  0.59733200  1
  Cs  Cs1  1  0.76687300  0.75000000  0.40266800  1
  Cs  Cs2  1  0.26687300  0.75000000  0.09733200  1
  Cs  Cs3  1  0.73312700  0.25000000  0.90266800  1
  P  P4  1  0.30856000  0.25000000  0.32147400  1
  P  P5  1  0.69144000  0.75000000  0.67852600  1
  P  P6  1  0.19144000  0.75000000  0.82147400  1
  P  P7  1  0.80856000  0.25000000  0.17852600  1
  O  O8  1  0.26087900  0.05269600  0.37440700  1
  O  O9  1  0.73912100  0.94730400  0.62559300  1
  O  O10  1  0.23912100  0.94730400  0.87440700  1
  O  O11  1  0.73912100  0.55269600  0.62559300  1
  O  O12  1  0.76087900  0.05269600  0.12559300  1
  O  O13  1  0.26087900  0.44730400  0.37440700  1
  O  O14  1  0.76087900  0.44730400  0.12559300  1
  O  O15  1  0.23912100  0.55269600  0.87440700  1
  O  O16  1  0.14264500  0.25000000  0.21790700  1
  O  O17  1  0.85735500  0.75000000  0.78209300  1
  O  O18  1  0.35735500  0.75000000  0.71790700  1
  O  O19  1  0.64264500  0.25000000  0.28209300  1
