# generated using pymatgen
data_CsPtBr3
_symmetry_space_group_name_H-M   'P 1'
_cell_length_a   5.14212400
_cell_length_b   11.55372100
_cell_length_c   16.00263000
_cell_angle_alpha   90.00000000
_cell_angle_beta   90.00000000
_cell_angle_gamma   90.00000000
_symmetry_Int_Tables_number   1
_chemical_formula_structural   CsPtBr3
_chemical_formula_sum   'Cs4 Pt4 Br12'
_cell_volume   950.72690675
_cell_formula_units_Z   4
loop_
 _symmetry_equiv_pos_site_id
 _symmetry_equiv_pos_as_xyz
  1  'x, y, z'
loop_
 _atom_site_type_symbol
 _atom_site_label
 _atom_site_symmetry_multiplicity
 _atom_site_fract_x
 _atom_site_fract_y
 _atom_site_fract_z
 _atom_site_occupancy
  Cs  Cs0  1  0.75000000  0.25735600  0.95607300  1
  Cs  Cs1  1  0.25000000  0.74264400  0.04392700  1
  Cs  Cs2  1  0.75000000  0.24264400  0.45607300  1
  Cs  Cs3  1  0.25000000  0.75735600  0.54392700  1
  Pt  Pt4  1  0.25000000  0.29412100  0.69197700  1
  Pt  Pt5  1  0.75000000  0.70587900  0.30802300  1
  Pt  Pt6  1  0.25000000  0.20587900  0.19197700  1
  Pt  Pt7  1  0.75000000  0.79412100  0.80802300  1
  Br  Br8  1  0.25000000  0.17524100  0.81723700  1
  Br  Br9  1  0.75000000  0.82475900  0.18276300  1
  Br  Br10  1  0.25000000  0.32475900  0.31723700  1
  Br  Br11  1  0.75000000  0.67524100  0.68276300  1
  Br  Br12  1  0.25000000  0.40781100  0.56340200  1
  Br  Br13  1  0.75000000  0.59218900  0.43659800  1
  Br  Br14  1  0.25000000  0.09218900  0.06340200  1
  Br  Br15  1  0.75000000  0.90781100  0.93659800  1
  Br  Br16  1  0.75000000  0.26974400  0.68815800  1
  Br  Br17  1  0.25000000  0.73025600  0.31184200  1
  Br  Br18  1  0.75000000  0.23025600  0.18815800  1
  Br  Br19  1  0.25000000  0.76974400  0.81184200  1
