# generated using pymatgen
data_InAsO6
_symmetry_space_group_name_H-M   'P 1'
_cell_length_a   8.97851100
_cell_length_b   10.53760700
_cell_length_c   10.55114600
_cell_angle_alpha   90.00000000
_cell_angle_beta   90.00000000
_cell_angle_gamma   90.00000000
_symmetry_Int_Tables_number   1
_chemical_formula_structural   InAsO6
_chemical_formula_sum   'In8 As8 O48'
_cell_volume   998.26524021
_cell_formula_units_Z   8
loop_
 _symmetry_equiv_pos_site_id
 _symmetry_equiv_pos_as_xyz
  1  'x, y, z'
loop_
 _atom_site_type_symbol
 _atom_site_label
 _atom_site_symmetry_multiplicity
 _atom_site_fract_x
 _atom_site_fract_y
 _atom_site_fract_z
 _atom_site_occupancy
  In  In0  1  0.35813200  0.18226500  0.12400800  1
  In  In1  1  0.64186800  0.81773500  0.87599200  1
  In  In2  1  0.14186800  0.81773500  0.62400800  1
  In  In3  1  0.64186800  0.68226500  0.37599200  1
  In  In4  1  0.85813200  0.18226500  0.37599200  1
  In  In5  1  0.35813200  0.31773500  0.62400800  1
  In  In6  1  0.85813200  0.31773500  0.87599200  1
  In  In7  1  0.14186800  0.68226500  0.12400800  1
  As  As8  1  0.04204000  0.37051800  0.16403300  1
  As  As9  1  0.95796000  0.62948200  0.83596700  1
  As  As10  1  0.45796000  0.62948200  0.66403300  1
  As  As11  1  0.95796000  0.87051800  0.33596700  1
  As  As12  1  0.54204000  0.37051800  0.33596700  1
  As  As13  1  0.04204000  0.12948200  0.66403300  1
  As  As14  1  0.54204000  0.12948200  0.83596700  1
  As  As15  1  0.45796000  0.87051800  0.16403300  1
  O  O16  1  0.50337600  0.02738900  0.17273300  1
  O  O17  1  0.49662400  0.97261100  0.82726700  1
  O  O18  1  0.99662400  0.97261100  0.67273300  1
  O  O19  1  0.49662400  0.52738900  0.32726700  1
  O  O20  1  0.00337600  0.02738900  0.32726700  1
  O  O21  1  0.50337600  0.47261100  0.67273300  1
  O  O22  1  0.00337600  0.47261100  0.82726700  1
  O  O23  1  0.99662400  0.52738900  0.17273300  1
  O  O24  1  0.22199900  0.35577100  0.10343200  1
  O  O25  1  0.77800100  0.64422900  0.89656800  1
  O  O26  1  0.27800100  0.64422900  0.60343200  1
  O  O27  1  0.77800100  0.85577100  0.39656800  1
  O  O28  1  0.72199900  0.35577100  0.39656800  1
  O  O29  1  0.22199900  0.14422900  0.60343200  1
  O  O30  1  0.72199900  0.14422900  0.89656800  1
  O  O31  1  0.27800100  0.85577100  0.10343200  1
  O  O32  1  0.41569300  0.28848800  0.42794900  1
  O  O33  1  0.58430700  0.71151200  0.57205100  1
  O  O34  1  0.08430700  0.71151200  0.92794900  1
  O  O35  1  0.58430700  0.78848800  0.07205100  1
  O  O36  1  0.91569300  0.28848800  0.07205100  1
  O  O37  1  0.41569300  0.21151200  0.92794900  1
  O  O38  1  0.91569300  0.21151200  0.57205100  1
  O  O39  1  0.08430700  0.78848800  0.42794900  1
  O  O40  1  0.18434300  0.03719900  0.06367500  1
  O  O41  1  0.81565700  0.96280100  0.93632500  1
  O  O42  1  0.31565700  0.96280100  0.56367500  1
  O  O43  1  0.81565700  0.53719900  0.43632500  1
  O  O44  1  0.68434300  0.03719900  0.43632500  1
  O  O45  1  0.18434300  0.46280100  0.56367500  1
  O  O46  1  0.68434300  0.46280100  0.93632500  1
  O  O47  1  0.31565700  0.53719900  0.06367500  1
  O  O48  1  0.24238900  0.16881800  0.31322100  1
  O  O49  1  0.75761100  0.83118200  0.68677900  1
  O  O50  1  0.25761100  0.83118200  0.81322100  1
  O  O51  1  0.75761100  0.66881800  0.18677900  1
  O  O52  1  0.74238900  0.16881800  0.18677900  1
  O  O53  1  0.24238900  0.33118200  0.81322100  1
  O  O54  1  0.74238900  0.33118200  0.68677900  1
  O  O55  1  0.25761100  0.66881800  0.31322100  1
  O  O56  1  0.04295900  0.29996800  0.31228300  1
  O  O57  1  0.95704100  0.70003200  0.68771700  1
  O  O58  1  0.45704100  0.70003200  0.81228300  1
  O  O59  1  0.95704100  0.79996800  0.18771700  1
  O  O60  1  0.54295900  0.29996800  0.18771700  1
  O  O61  1  0.04295900  0.20003200  0.81228300  1
  O  O62  1  0.54295900  0.20003200  0.68771700  1
  O  O63  1  0.45704100  0.79996800  0.31228300  1
