# generated using pymatgen
data_NaMgBP2O11
_symmetry_space_group_name_H-M   'P 1'
_cell_length_a   9.98637573
_cell_length_b   9.98637573
_cell_length_c   14.92608900
_cell_angle_alpha   90.00000000
_cell_angle_beta   90.00000000
_cell_angle_gamma   119.99999823
_symmetry_Int_Tables_number   1
_chemical_formula_structural   NaMgBP2O11
_chemical_formula_sum   'Na6 Mg6 B6 P12 O66'
_cell_volume   1289.11740084
_cell_formula_units_Z   6
loop_
 _symmetry_equiv_pos_site_id
 _symmetry_equiv_pos_as_xyz
  1  'x, y, z'
loop_
 _atom_site_type_symbol
 _atom_site_label
 _atom_site_symmetry_multiplicity
 _atom_site_fract_x
 _atom_site_fract_y
 _atom_site_fract_z
 _atom_site_occupancy
  Na  Na0  1  0.25669800  0.51339700  0.25000000  1
  Na  Na1  1  0.48660300  0.74330200  0.58333300  1
  Na  Na2  1  0.74330200  0.48660300  0.75000000  1
  Na  Na3  1  0.51339700  0.25669800  0.08333300  1
  Na  Na4  1  0.25669800  0.74330200  0.91666700  1
  Na  Na5  1  0.74330200  0.25669800  0.41666700  1
  Mg  Mg6  1  0.51082300  0.02164600  0.25000000  1
  Mg  Mg7  1  0.97835400  0.48917700  0.58333300  1
  Mg  Mg8  1  0.48917700  0.97835400  0.75000000  1
  Mg  Mg9  1  0.02164600  0.51082300  0.08333300  1
  Mg  Mg10  1  0.51082300  0.48917700  0.91666700  1
  Mg  Mg11  1  0.48917700  0.51082300  0.41666700  1
  B  B12  1  0.84053600  0.68107200  0.25000000  1
  B  B13  1  0.31892800  0.15946400  0.58333300  1
  B  B14  1  0.15946400  0.31892800  0.75000000  1
  B  B15  1  0.68107200  0.84053600  0.08333300  1
  B  B16  1  0.84053600  0.15946400  0.91666700  1
  B  B17  1  0.15946400  0.84053600  0.41666700  1
  P  P18  1  0.38130100  0.15318700  0.40515500  1
  P  P19  1  0.84681300  0.22811500  0.73848800  1
  P  P20  1  0.61869900  0.84681300  0.90515500  1
  P  P21  1  0.15318700  0.38130100  0.92817800  1
  P  P22  1  0.77188500  0.61869900  0.07182200  1
  P  P23  1  0.15318700  0.77188500  0.23848800  1
  P  P24  1  0.22811500  0.84681300  0.59484500  1
  P  P25  1  0.84681300  0.61869900  0.42817800  1
  P  P26  1  0.22811500  0.38130100  0.57182200  1
  P  P27  1  0.77188500  0.15318700  0.09484500  1
  P  P28  1  0.61869900  0.77188500  0.26151200  1
  P  P29  1  0.38130100  0.22811500  0.76151200  1
  O  O30  1  0.62831600  0.13590700  0.14306500  1
  O  O31  1  0.86409300  0.49240900  0.47639800  1
  O  O32  1  0.37168400  0.86409300  0.64306500  1
  O  O33  1  0.13590700  0.62831600  0.19026900  1
  O  O34  1  0.50759100  0.37168400  0.80973100  1
  O  O35  1  0.13590700  0.50759100  0.97639800  1
  O  O36  1  0.49240900  0.86409300  0.85693500  1
  O  O37  1  0.86409300  0.37168400  0.69026900  1
  O  O38  1  0.49240900  0.62831600  0.30973100  1
  O  O39  1  0.50759100  0.13590700  0.35693500  1
  O  O40  1  0.37168400  0.50759100  0.52360200  1
  O  O41  1  0.62831600  0.49240900  0.02360200  1
  O  O42  1  0.21933400  0.00544800  0.39305800  1
  O  O43  1  0.99455200  0.21388600  0.72639100  1
  O  O44  1  0.78066600  0.99455200  0.89305800  1
  O  O45  1  0.00544800  0.21933400  0.94027500  1
  O  O46  1  0.78611400  0.78066600  0.05972500  1
  O  O47  1  0.00544800  0.78611400  0.22639100  1
  O  O48  1  0.21388600  0.99455200  0.60694200  1
  O  O49  1  0.99455200  0.78066600  0.44027500  1
  O  O50  1  0.21388600  0.21933400  0.55972500  1
  O  O51  1  0.78611400  0.00544800  0.10694200  1
  O  O52  1  0.78066600  0.78611400  0.27360900  1
  O  O53  1  0.21933400  0.21388600  0.77360900  1
  O  O54  1  0.42431700  0.17625500  0.50833400  1
  O  O55  1  0.82374500  0.24806200  0.84166700  1
  O  O56  1  0.57568300  0.82374500  0.00833400  1
  O  O57  1  0.17625500  0.42431700  0.82500000  1
  O  O58  1  0.75193800  0.57568300  0.17500000  1
  O  O59  1  0.17625500  0.75193800  0.34166700  1
  O  O60  1  0.24806200  0.82374500  0.49166600  1
  O  O61  1  0.82374500  0.57568300  0.32500000  1
  O  O62  1  0.24806200  0.42431700  0.67500000  1
  O  O63  1  0.75193800  0.17625500  0.99166600  1
  O  O64  1  0.57568300  0.75193800  0.15833300  1
  O  O65  1  0.42431700  0.24806200  0.65833300  1
  O  O66  1  0.37783700  0.29670300  0.37312100  1
  O  O67  1  0.70329700  0.08113400  0.70645400  1
  O  O68  1  0.62216300  0.70329700  0.87312100  1
  O  O69  1  0.29670300  0.37783700  0.96021300  1
  O  O70  1  0.91886600  0.62216300  0.03978700  1
  O  O71  1  0.29670300  0.91886600  0.20645400  1
  O  O72  1  0.08113400  0.70329700  0.62687900  1
  O  O73  1  0.70329700  0.62216300  0.46021300  1
  O  O74  1  0.08113400  0.37783700  0.53978700  1
  O  O75  1  0.91886600  0.29670300  0.12687900  1
  O  O76  1  0.62216300  0.91886600  0.29354600  1
  O  O77  1  0.37783700  0.08113400  0.79354600  1
  O  O78  1  0.21669700  0.00000000  0.00000000  1
  O  O79  1  0.00000000  0.21669700  0.33333300  1
  O  O80  1  0.78330300  0.00000000  0.50000000  1
  O  O81  1  0.78330300  0.78330300  0.66666700  1
  O  O82  1  0.00000000  0.78330300  0.83333300  1
  O  O83  1  0.21669700  0.21669700  0.16666700  1
  O  O84  1  0.23098000  0.34047700  0.12863200  1
  O  O85  1  0.65952300  0.89050300  0.46196500  1
  O  O86  1  0.76902000  0.65952300  0.62863200  1
  O  O87  1  0.34047700  0.23098000  0.20470100  1
  O  O88  1  0.10949700  0.76902000  0.79529900  1
  O  O89  1  0.34047700  0.10949700  0.96196500  1
  O  O90  1  0.89050300  0.65952300  0.87136800  1
  O  O91  1  0.65952300  0.76902000  0.70470100  1
  O  O92  1  0.89050300  0.23098000  0.29529900  1
  O  O93  1  0.10949700  0.34047700  0.37136800  1
  O  O94  1  0.76902000  0.10949700  0.53803500  1
  O  O95  1  0.23098000  0.89050300  0.03803500  1
