# generated using pymatgen
data_CsSr2I5
_symmetry_space_group_name_H-M   'P 1'
_cell_length_a   9.32696300
_cell_length_b   10.34944900
_cell_length_c   14.72816878
_cell_angle_alpha   89.64120290
_cell_angle_beta   90.00000000
_cell_angle_gamma   90.00000000
_symmetry_Int_Tables_number   1
_chemical_formula_structural   CsSr2I5
_chemical_formula_sum   'Cs4 Sr8 I20'
_cell_volume   1421.66646654
_cell_formula_units_Z   4
loop_
 _symmetry_equiv_pos_site_id
 _symmetry_equiv_pos_as_xyz
  1  'x, y, z'
loop_
 _atom_site_type_symbol
 _atom_site_label
 _atom_site_symmetry_multiplicity
 _atom_site_fract_x
 _atom_site_fract_y
 _atom_site_fract_z
 _atom_site_occupancy
  Cs  Cs0  1  0.46225800  0.49862800  0.82812100  1
  Cs  Cs1  1  0.53774200  0.50137200  0.17187900  1
  Cs  Cs2  1  0.96225800  0.50137200  0.67187900  1
  Cs  Cs3  1  0.03774200  0.49862800  0.32812100  1
  Sr  Sr4  1  0.47821300  0.99681600  0.81903300  1
  Sr  Sr5  1  0.52178700  0.00318400  0.18096700  1
  Sr  Sr6  1  0.97821300  0.00318400  0.68096700  1
  Sr  Sr7  1  0.02178700  0.99681600  0.31903300  1
  Sr  Sr8  1  0.42694500  0.75628400  0.50663400  1
  Sr  Sr9  1  0.57305500  0.24371600  0.49336600  1
  Sr  Sr10  1  0.92694500  0.24371600  0.99336600  1
  Sr  Sr11  1  0.07305500  0.75628400  0.00663400  1
  I  I12  1  0.33551700  0.46292100  0.58004800  1
  I  I13  1  0.66448300  0.53707900  0.41995200  1
  I  I14  1  0.83551700  0.53707900  0.91995200  1
  I  I15  1  0.16448300  0.46292100  0.08004800  1
  I  I16  1  0.66308400  0.78909500  0.68147500  1
  I  I17  1  0.33691600  0.21090500  0.31852500  1
  I  I18  1  0.16308400  0.21090500  0.81852500  1
  I  I19  1  0.83691600  0.78909500  0.18147500  1
  I  I20  1  0.19308600  0.78256400  0.78667700  1
  I  I21  1  0.80691400  0.21743600  0.21332300  1
  I  I22  1  0.69308600  0.21743600  0.71332300  1
  I  I23  1  0.30691400  0.78256400  0.28667700  1
  I  I24  1  0.04752200  0.79276500  0.50452000  1
  I  I25  1  0.95247800  0.20723500  0.49548000  1
  I  I26  1  0.54752200  0.20723500  0.99548000  1
  I  I27  1  0.45247800  0.79276500  0.00452000  1
  I  I28  1  0.84056900  0.95727500  0.89980100  1
  I  I29  1  0.15943100  0.04272500  0.10019900  1
  I  I30  1  0.34056900  0.04272500  0.60019900  1
  I  I31  1  0.65943100  0.95727500  0.39980100  1
