# generated using pymatgen
data_Dy4Fe
_symmetry_space_group_name_H-M   'P 1'
_cell_length_a   7.46825393
_cell_length_b   7.46825393
_cell_length_c   7.46825393
_cell_angle_alpha   60.00000000
_cell_angle_beta   60.00000000
_cell_angle_gamma   60.00000000
_symmetry_Int_Tables_number   1
_chemical_formula_structural   Dy4Fe
_chemical_formula_sum   'Dy8 Fe2'
_cell_volume   294.53860870
_cell_formula_units_Z   2
loop_
 _symmetry_equiv_pos_site_id
 _symmetry_equiv_pos_as_xyz
  1  'x, y, z'
loop_
 _atom_site_type_symbol
 _atom_site_label
 _atom_site_symmetry_multiplicity
 _atom_site_fract_x
 _atom_site_fract_y
 _atom_site_fract_z
 _atom_site_occupancy
  Dy  Dy0  1  0.38448900  0.38448900  0.38448900  1
  Dy  Dy1  1  0.38448900  0.38448900  0.84653300  1
  Dy  Dy2  1  0.38448900  0.84653300  0.38448900  1
  Dy  Dy3  1  0.86551100  0.86551100  0.40346700  1
  Dy  Dy4  1  0.86551100  0.86551100  0.86551100  1
  Dy  Dy5  1  0.84653300  0.38448900  0.38448900  1
  Dy  Dy6  1  0.86551100  0.40346700  0.86551100  1
  Dy  Dy7  1  0.40346700  0.86551100  0.86551100  1
  Fe  Fe8  1  0.00000000  0.00000000  0.00000000  1
  Fe  Fe9  1  0.25000000  0.25000000  0.25000000  1
