# generated using pymatgen
data_H10PdC2S2(N4O3)2
_symmetry_space_group_name_H-M   'P 1'
_cell_length_a   9.07108000
_cell_length_b   9.39620600
_cell_length_c   15.42901836
_cell_angle_alpha   83.49434682
_cell_angle_beta   90.00000000
_cell_angle_gamma   90.00000000
_symmetry_Int_Tables_number   1
_chemical_formula_structural   H10PdC2S2(N4O3)2
_chemical_formula_sum   'H40 Pd4 C8 S8 N32 O24'
_cell_volume   1306.60470976
_cell_formula_units_Z   4
loop_
 _symmetry_equiv_pos_site_id
 _symmetry_equiv_pos_as_xyz
  1  'x, y, z'
loop_
 _atom_site_type_symbol
 _atom_site_label
 _atom_site_symmetry_multiplicity
 _atom_site_fract_x
 _atom_site_fract_y
 _atom_site_fract_z
 _atom_site_occupancy
  H  H0  1  0.81092100  0.98198800  0.68930100  1
  H  H1  1  0.18907900  0.01801200  0.31069900  1
  H  H2  1  0.31092100  0.01801200  0.81069900  1
  H  H3  1  0.68907900  0.98198800  0.18930100  1
  H  H4  1  0.14196600  0.64391500  0.87492000  1
  H  H5  1  0.85803400  0.35608500  0.12508000  1
  H  H6  1  0.64196600  0.35608500  0.62508000  1
  H  H7  1  0.35803400  0.64391500  0.37492000  1
  H  H8  1  0.32840900  0.53732000  0.52438900  1
  H  H9  1  0.67159100  0.46268000  0.47561100  1
  H  H10  1  0.82840900  0.46268000  0.97561100  1
  H  H11  1  0.17159100  0.53732000  0.02438900  1
  H  H12  1  0.26079400  0.58685800  0.79435400  1
  H  H13  1  0.73920600  0.41314200  0.20564600  1
  H  H14  1  0.76079400  0.41314200  0.70564600  1
  H  H15  1  0.23920600  0.58685800  0.29435400  1
  H  H16  1  0.87455600  0.86816700  0.10883400  1
  H  H17  1  0.12544400  0.13183300  0.89116600  1
  H  H18  1  0.37455600  0.13183300  0.39116600  1
  H  H19  1  0.62544400  0.86816700  0.60883400  1
  H  H20  1  0.88287500  0.91250000  0.99692500  1
  H  H21  1  0.11712500  0.08750000  0.00307500  1
  H  H22  1  0.38287500  0.08750000  0.50307500  1
  H  H23  1  0.61712500  0.91250000  0.49692500  1
  H  H24  1  0.13902500  0.42308600  0.61113400  1
  H  H25  1  0.86097500  0.57691400  0.38886600  1
  H  H26  1  0.63902500  0.57691400  0.88886600  1
  H  H27  1  0.36097500  0.42308600  0.11113400  1
  H  H28  1  0.26751700  0.30233500  0.58847800  1
  H  H29  1  0.73248300  0.69766500  0.41152200  1
  H  H30  1  0.76751700  0.69766500  0.91152200  1
  H  H31  1  0.23248300  0.30233500  0.08847800  1
  H  H32  1  0.44376100  0.79735100  0.81793700  1
  H  H33  1  0.55623900  0.20264900  0.18206300  1
  H  H34  1  0.94376100  0.20264900  0.68206300  1
  H  H35  1  0.05623900  0.79735100  0.31793700  1
  H  H36  1  0.95159300  0.92876600  0.34510000  1
  H  H37  1  0.04840700  0.07123400  0.65490000  1
  H  H38  1  0.45159300  0.07123400  0.15490000  1
  H  H39  1  0.54840700  0.92876600  0.84510000  1
  Pd  Pd40  1  0.01289300  0.25099800  0.51286600  1
  Pd  Pd41  1  0.98710700  0.74900200  0.48713400  1
  Pd  Pd42  1  0.51289300  0.74900200  0.98713400  1
  Pd  Pd43  1  0.48710700  0.25099800  0.01286600  1
  C  C44  1  0.29230400  0.48470000  0.91684400  1
  C  C45  1  0.70769600  0.51530000  0.08315600  1
  C  C46  1  0.79230400  0.51530000  0.58315600  1
  C  C47  1  0.20769600  0.48470000  0.41684400  1
  C  C48  1  0.26992400  0.97160900  0.94438200  1
  C  C49  1  0.73007600  0.02839100  0.05561800  1
  C  C50  1  0.76992400  0.02839100  0.55561800  1
  C  C51  1  0.23007600  0.97160900  0.44438200  1
  S  S52  1  0.93025000  0.62395900  0.61813200  1
  S  S53  1  0.06975000  0.37604100  0.38186800  1
  S  S54  1  0.43025000  0.37604100  0.88186800  1
  S  S55  1  0.56975000  0.62395900  0.11813200  1
  S  S56  1  0.17437100  0.87555700  0.54104100  1
  S  S57  1  0.82562900  0.12444300  0.45895900  1
  S  S58  1  0.67437100  0.12444300  0.95895900  1
  S  S59  1  0.32562900  0.87555700  0.04104100  1
  N  N60  1  0.22891100  0.58193100  0.85903500  1
  N  N61  1  0.77108900  0.41806900  0.14096500  1
  N  N62  1  0.72891100  0.41806900  0.64096500  1
  N  N63  1  0.27108900  0.58193100  0.35903500  1
  N  N64  1  0.93250300  0.84784300  0.81437900  1
  N  N65  1  0.06749700  0.15215700  0.18562100  1
  N  N66  1  0.43250300  0.15215700  0.68562100  1
  N  N67  1  0.56749700  0.84784300  0.31437900  1
  N  N68  1  0.42378000  0.65151200  0.65460000  1
  N  N69  1  0.57622000  0.34848800  0.34540000  1
  N  N70  1  0.92378000  0.34848800  0.84540000  1
  N  N71  1  0.07622000  0.65151200  0.15460000  1
  N  N72  1  0.46024100  0.86425200  0.86614700  1
  N  N73  1  0.53975900  0.13574800  0.13385300  1
  N  N74  1  0.96024100  0.13574800  0.63385300  1
  N  N75  1  0.03975900  0.86425200  0.36614700  1
  N  N76  1  0.33492100  0.95401300  0.86902400  1
  N  N77  1  0.66507900  0.04598700  0.13097600  1
  N  N78  1  0.83492100  0.04598700  0.63097600  1
  N  N79  1  0.16507900  0.95401300  0.36902400  1
  N  N80  1  0.18252500  0.36918200  0.56226000  1
  N  N81  1  0.81747500  0.63081800  0.43774000  1
  N  N82  1  0.68252500  0.63081800  0.93774000  1
  N  N83  1  0.31747500  0.36918200  0.06226000  1
  N  N84  1  0.65768000  0.93571900  0.55509500  1
  N  N85  1  0.34232000  0.06428100  0.44490500  1
  N  N86  1  0.15768000  0.06428100  0.94490500  1
  N  N87  1  0.84232000  0.93571900  0.05509500  1
  N  N88  1  0.25224700  0.47309900  0.00033800  1
  N  N89  1  0.74775300  0.52690100  0.99966200  1
  N  N90  1  0.75224700  0.52690100  0.49966200  1
  N  N91  1  0.24775300  0.47309900  0.50033800  1
  O  O92  1  0.46264800  0.64076100  0.57691900  1
  O  O93  1  0.53735200  0.35923900  0.42308100  1
  O  O94  1  0.96264800  0.35923900  0.92308100  1
  O  O95  1  0.03735200  0.64076100  0.07691900  1
  O  O96  1  0.80139400  0.88478100  0.79133000  1
  O  O97  1  0.19860600  0.11521900  0.20867000  1
  O  O98  1  0.30139400  0.11521900  0.70867000  1
  O  O99  1  0.69860600  0.88478100  0.29133000  1
  O  O100  1  0.04091100  0.88418200  0.76681400  1
  O  O101  1  0.95908900  0.11581800  0.23318600  1
  O  O102  1  0.54091100  0.11581800  0.73318600  1
  O  O103  1  0.45908900  0.88418200  0.26681400  1
  O  O104  1  0.49428400  0.73434000  0.69950400  1
  O  O105  1  0.50571600  0.26566000  0.30049600  1
  O  O106  1  0.99428400  0.26566000  0.80049600  1
  O  O107  1  0.00571600  0.73434000  0.19950400  1
  O  O108  1  0.95080600  0.77191200  0.88809500  1
  O  O109  1  0.04919400  0.22808800  0.11190500  1
  O  O110  1  0.45080600  0.22808800  0.61190500  1
  O  O111  1  0.54919400  0.77191200  0.38809500  1
  O  O112  1  0.31392500  0.57977200  0.68678000  1
  O  O113  1  0.68607500  0.42022800  0.31322000  1
  O  O114  1  0.81392500  0.42022800  0.81322000  1
  O  O115  1  0.18607500  0.57977200  0.18678000  1
