# generated using pymatgen
data_CsIn(SO5)2
_symmetry_space_group_name_H-M   'P 1'
_cell_length_a   7.09840518
_cell_length_b   8.79089435
_cell_length_c   8.79205771
_cell_angle_alpha   115.65234199
_cell_angle_beta   98.93649750
_cell_angle_gamma   98.94303058
_symmetry_Int_Tables_number   1
_chemical_formula_structural   CsIn(SO5)2
_chemical_formula_sum   'Cs2 In2 S4 O20'
_cell_volume   473.03309286
_cell_formula_units_Z   2
loop_
 _symmetry_equiv_pos_site_id
 _symmetry_equiv_pos_as_xyz
  1  'x, y, z'
loop_
 _atom_site_type_symbol
 _atom_site_label
 _atom_site_symmetry_multiplicity
 _atom_site_fract_x
 _atom_site_fract_y
 _atom_site_fract_z
 _atom_site_occupancy
  Cs  Cs0  1  0.75006900  0.61062600  0.38961700  1
  Cs  Cs1  1  0.24999100  0.38956800  0.61049500  1
  In  In2  1  0.74999000  0.19326700  0.80663200  1
  In  In3  1  0.24999000  0.80676400  0.19323300  1
  S  S4  1  0.81296500  0.61200300  0.89927800  1
  S  S5  1  0.18712700  0.38799000  0.10080500  1
  S  S6  1  0.68701400  0.10074700  0.38797700  1
  S  S7  1  0.31282800  0.89918000  0.61188700  1
  O  O8  1  0.68152100  0.72203600  0.88514300  1
  O  O9  1  0.31837400  0.27784300  0.11493100  1
  O  O10  1  0.81850900  0.11491200  0.27797400  1
  O  O11  1  0.18147900  0.88504400  0.72195200  1
  O  O12  1  0.94136700  0.58667000  0.77899500  1
  O  O13  1  0.05876500  0.41332700  0.22108100  1
  O  O14  1  0.55862100  0.22098900  0.41327900  1
  O  O15  1  0.44111800  0.77889000  0.58654300  1
  O  O16  1  0.93371900  0.68480200  0.08443800  1
  O  O17  1  0.06648100  0.31527100  0.91568800  1
  O  O18  1  0.56629800  0.91560200  0.31525800  1
  O  O19  1  0.43353300  0.08433800  0.68464600  1
  O  O20  1  0.67839000  0.43959000  0.85926700  1
  O  O21  1  0.32157400  0.56037000  0.14079800  1
  O  O22  1  0.82162100  0.14075000  0.56033100  1
  O  O23  1  0.17842300  0.85922400  0.43951200  1
  O  O24  1  0.34573300  0.80060100  0.96694600  1
  O  O25  1  0.65421300  0.19950700  0.03319300  1
  O  O26  1  0.15436100  0.03321000  0.19956100  1
  O  O27  1  0.84592600  0.96687700  0.80054100  1
