# generated using pymatgen
data_Cu5As2(HO3)4
_symmetry_space_group_name_H-M   'P 1'
_cell_length_a   5.84208700
_cell_length_b   4.65821700
_cell_length_c   17.76805375
_cell_angle_alpha   87.35246721
_cell_angle_beta   90.00000000
_cell_angle_gamma   90.00000000
_symmetry_Int_Tables_number   1
_chemical_formula_structural   Cu5As2(HO3)4
_chemical_formula_sum   'Cu10 As4 H8 O24'
_cell_volume   483.01851547
_cell_formula_units_Z   2
loop_
 _symmetry_equiv_pos_site_id
 _symmetry_equiv_pos_as_xyz
  1  'x, y, z'
loop_
 _atom_site_type_symbol
 _atom_site_label
 _atom_site_symmetry_multiplicity
 _atom_site_fract_x
 _atom_site_fract_y
 _atom_site_fract_z
 _atom_site_occupancy
  Cu  Cu0  1  0.68318400  0.50421200  0.25268900  1
  Cu  Cu1  1  0.31681600  0.49578800  0.74731100  1
  Cu  Cu2  1  0.18318400  0.49578800  0.24731100  1
  Cu  Cu3  1  0.81681600  0.50421200  0.75268900  1
  Cu  Cu4  1  0.52208100  0.45582900  0.08460000  1
  Cu  Cu5  1  0.47791900  0.54417100  0.91540000  1
  Cu  Cu6  1  0.02208100  0.54417100  0.41540000  1
  Cu  Cu7  1  0.97791900  0.45582900  0.58460000  1
  Cu  Cu8  1  0.00000000  0.50000000  0.00000000  1
  Cu  Cu9  1  0.50000000  0.50000000  0.50000000  1
  As  As10  1  0.91780800  0.97831700  0.13101700  1
  As  As11  1  0.08219200  0.02168300  0.86898300  1
  As  As12  1  0.41780800  0.02168300  0.36898300  1
  As  As13  1  0.58219200  0.97831700  0.63101700  1
  H  H14  1  0.29886200  0.87407800  0.01646200  1
  H  H15  1  0.70113800  0.12592200  0.98353800  1
  H  H16  1  0.79886200  0.12592200  0.48353800  1
  H  H17  1  0.20113800  0.87407800  0.51646200  1
  H  H18  1  0.42797200  0.85791200  0.17518200  1
  H  H19  1  0.57202800  0.14208800  0.82481800  1
  H  H20  1  0.92797200  0.14208800  0.32481800  1
  H  H21  1  0.07202800  0.85791200  0.67518200  1
  O  O22  1  0.93283500  0.74672500  0.21183200  1
  O  O23  1  0.06716500  0.25327500  0.78816800  1
  O  O24  1  0.43283500  0.25327500  0.28816800  1
  O  O25  1  0.56716500  0.74672500  0.71183200  1
  O  O26  1  0.68085600  0.18384700  0.15137500  1
  O  O27  1  0.31914400  0.81615300  0.84862500  1
  O  O28  1  0.18085600  0.81615300  0.34862500  1
  O  O29  1  0.81914400  0.18384700  0.65137500  1
  O  O30  1  0.31837000  0.66543100  0.01192100  1
  O  O31  1  0.68163000  0.33456900  0.98807900  1
  O  O32  1  0.81837000  0.33456900  0.48807900  1
  O  O33  1  0.18163000  0.66543100  0.51192100  1
  O  O34  1  0.66420000  0.83509500  0.37878000  1
  O  O35  1  0.33580000  0.16490500  0.62122000  1
  O  O36  1  0.16420000  0.16490500  0.12122000  1
  O  O37  1  0.83580000  0.83509500  0.87878000  1
  O  O38  1  0.43430700  0.64560800  0.18188300  1
  O  O39  1  0.56569300  0.35439200  0.81811700  1
  O  O40  1  0.93430700  0.35439200  0.31811700  1
  O  O41  1  0.06569300  0.64560800  0.68188300  1
  O  O42  1  0.83472100  0.78507700  0.05458200  1
  O  O43  1  0.16527900  0.21492300  0.94541800  1
  O  O44  1  0.33472100  0.21492300  0.44541800  1
  O  O45  1  0.66527900  0.78507700  0.55458200  1
