# generated using pymatgen
data_ErCrGeO5
_symmetry_space_group_name_H-M   'P 1'
_cell_length_a   5.79640900
_cell_length_b   7.41395100
_cell_length_c   8.44681600
_cell_angle_alpha   90.00000000
_cell_angle_beta   90.00000000
_cell_angle_gamma   90.00000000
_symmetry_Int_Tables_number   1
_chemical_formula_structural   ErCrGeO5
_chemical_formula_sum   'Er4 Cr4 Ge4 O20'
_cell_volume   362.99593980
_cell_formula_units_Z   4
loop_
 _symmetry_equiv_pos_site_id
 _symmetry_equiv_pos_as_xyz
  1  'x, y, z'
loop_
 _atom_site_type_symbol
 _atom_site_label
 _atom_site_symmetry_multiplicity
 _atom_site_fract_x
 _atom_site_fract_y
 _atom_site_fract_z
 _atom_site_occupancy
  Er  Er0  1  0.50000000  0.35420600  0.32719500  1
  Er  Er1  1  0.50000000  0.64579400  0.67280500  1
  Er  Er2  1  0.50000000  0.14579400  0.82719500  1
  Er  Er3  1  0.50000000  0.85420600  0.17280500  1
  Cr  Cr4  1  0.24978200  0.00000000  0.50000000  1
  Cr  Cr5  1  0.75021800  0.00000000  0.50000000  1
  Cr  Cr6  1  0.75021800  0.50000000  0.00000000  1
  Cr  Cr7  1  0.24978200  0.50000000  0.00000000  1
  Ge  Ge8  1  0.00000000  0.11648600  0.14535100  1
  Ge  Ge9  1  0.00000000  0.88351400  0.85464900  1
  Ge  Ge10  1  0.00000000  0.38351400  0.64535100  1
  Ge  Ge11  1  0.00000000  0.61648600  0.35464900  1
  O  O12  1  0.25094200  0.11236200  0.28323500  1
  O  O13  1  0.74905800  0.88763800  0.71676500  1
  O  O14  1  0.25094200  0.88763800  0.71676500  1
  O  O15  1  0.74905800  0.38763800  0.78323500  1
  O  O16  1  0.74905800  0.11236200  0.28323500  1
  O  O17  1  0.25094200  0.61236200  0.21676500  1
  O  O18  1  0.74905800  0.61236200  0.21676500  1
  O  O19  1  0.25094200  0.38763800  0.78323500  1
  O  O20  1  0.00000000  0.34296300  0.08206400  1
  O  O21  1  0.00000000  0.65703700  0.91793600  1
  O  O22  1  0.00000000  0.15703700  0.58206400  1
  O  O23  1  0.00000000  0.84296300  0.41793600  1
  O  O24  1  0.50000000  0.33051600  0.05859700  1
  O  O25  1  0.50000000  0.66948400  0.94140300  1
  O  O26  1  0.50000000  0.16948400  0.55859700  1
  O  O27  1  0.50000000  0.83051600  0.44140300  1
  O  O28  1  0.21286100  0.00000000  0.00000000  1
  O  O29  1  0.78713900  0.00000000  0.00000000  1
  O  O30  1  0.78713900  0.50000000  0.50000000  1
  O  O31  1  0.21286100  0.50000000  0.50000000  1
