# generated using pymatgen
data_Er8Rh5C12
_symmetry_space_group_name_H-M   'P 1'
_cell_length_a   3.48485000
_cell_length_b   7.40103337
_cell_length_c   14.05303305
_cell_angle_alpha   94.09706514
_cell_angle_beta   97.12238989
_cell_angle_gamma   90.00000000
_symmetry_Int_Tables_number   1
_chemical_formula_structural   Er8Rh5C12
_chemical_formula_sum   'Er8 Rh5 C12'
_cell_volume   358.71838454
_cell_formula_units_Z   1
loop_
 _symmetry_equiv_pos_site_id
 _symmetry_equiv_pos_as_xyz
  1  'x, y, z'
loop_
 _atom_site_type_symbol
 _atom_site_label
 _atom_site_symmetry_multiplicity
 _atom_site_fract_x
 _atom_site_fract_y
 _atom_site_fract_z
 _atom_site_occupancy
  Er  Er0  1  0.29995700  0.38981000  0.59991500  1
  Er  Er1  1  0.70004300  0.61019000  0.40008500  1
  Er  Er2  1  0.54665700  0.29621900  0.09331500  1
  Er  Er3  1  0.45334300  0.70378100  0.90668500  1
  Er  Er4  1  0.70705600  0.11570700  0.41411300  1
  Er  Er5  1  0.29294400  0.88429300  0.58588700  1
  Er  Er6  1  0.41154400  0.17331900  0.82308900  1
  Er  Er7  1  0.58845600  0.82668100  0.17691100  1
  Rh  Rh8  1  0.11008400  0.49489500  0.22016700  1
  Rh  Rh9  1  0.88991600  0.50510500  0.77983300  1
  Rh  Rh10  1  0.11600000  0.12839300  0.23200100  1
  Rh  Rh11  1  0.88400000  0.87160700  0.76799900  1
  Rh  Rh12  1  0.00000000  0.00000000  0.00000000  1
  C  C13  1  0.02303100  0.75626500  0.04606200  1
  C  C14  1  0.97696900  0.24373500  0.95393800  1
  C  C15  1  0.21625100  0.36546400  0.43250100  1
  C  C16  1  0.78374900  0.63453600  0.56749900  1
  C  C17  1  0.79294100  0.13162200  0.58588200  1
  C  C18  1  0.20705900  0.86837800  0.41411800  1
  C  C19  1  0.84149300  0.12717300  0.68298500  1
  C  C20  1  0.15850700  0.87282700  0.31701500  1
  C  C21  1  0.04774200  0.61390100  0.09548500  1
  C  C22  1  0.95225800  0.38609900  0.90451500  1
  C  C23  1  0.16822900  0.34685100  0.33645800  1
  C  C24  1  0.83177100  0.65314900  0.66354200  1
