# generated using pymatgen
data_CuSnPd2
_symmetry_space_group_name_H-M   'P 1'
_cell_length_a   3.94204400
_cell_length_b   12.37900900
_cell_length_c   15.59149600
_cell_angle_alpha   90.00000000
_cell_angle_beta   90.00000000
_cell_angle_gamma   90.00000000
_symmetry_Int_Tables_number   1
_chemical_formula_structural   CuSnPd2
_chemical_formula_sum   'Cu12 Sn12 Pd24'
_cell_volume   760.84314793
_cell_formula_units_Z   12
loop_
 _symmetry_equiv_pos_site_id
 _symmetry_equiv_pos_as_xyz
  1  'x, y, z'
loop_
 _atom_site_type_symbol
 _atom_site_label
 _atom_site_symmetry_multiplicity
 _atom_site_fract_x
 _atom_site_fract_y
 _atom_site_fract_z
 _atom_site_occupancy
  Cu  Cu0  1  0.50000000  0.50000000  0.00000000  1
  Cu  Cu1  1  0.50000000  0.50000000  0.50000000  1
  Cu  Cu2  1  0.50000000  0.50000000  0.24775600  1
  Cu  Cu3  1  0.50000000  0.50000000  0.75224400  1
  Cu  Cu4  1  0.50000000  0.16105600  0.50000000  1
  Cu  Cu5  1  0.50000000  0.83894400  0.50000000  1
  Cu  Cu6  1  0.50000000  0.00000000  0.37601800  1
  Cu  Cu7  1  0.50000000  0.00000000  0.62398200  1
  Cu  Cu8  1  0.00000000  0.16782000  0.12517900  1
  Cu  Cu9  1  0.00000000  0.83218000  0.87482100  1
  Cu  Cu10  1  0.00000000  0.83218000  0.12517900  1
  Cu  Cu11  1  0.00000000  0.16782000  0.87482100  1
  Sn  Sn12  1  0.00000000  0.00000000  0.00000000  1
  Sn  Sn13  1  0.00000000  0.32844800  0.25157500  1
  Sn  Sn14  1  0.00000000  0.67155200  0.74842500  1
  Sn  Sn15  1  0.00000000  0.67155200  0.25157500  1
  Sn  Sn16  1  0.00000000  0.32844800  0.74842500  1
  Sn  Sn17  1  0.00000000  0.33317000  0.00000000  1
  Sn  Sn18  1  0.00000000  0.66683000  0.00000000  1
  Sn  Sn19  1  0.00000000  0.00000000  0.50000000  1
  Sn  Sn20  1  0.00000000  0.33188100  0.50000000  1
  Sn  Sn21  1  0.00000000  0.66811900  0.50000000  1
  Sn  Sn22  1  0.00000000  0.00000000  0.25145700  1
  Sn  Sn23  1  0.00000000  0.00000000  0.74854300  1
  Pd  Pd24  1  0.50000000  0.16340100  0.24878200  1
  Pd  Pd25  1  0.50000000  0.83659900  0.75121800  1
  Pd  Pd26  1  0.50000000  0.83659900  0.24878200  1
  Pd  Pd27  1  0.50000000  0.16340100  0.75121800  1
  Pd  Pd28  1  0.00000000  0.15975000  0.38395600  1
  Pd  Pd29  1  0.00000000  0.84025000  0.61604400  1
  Pd  Pd30  1  0.00000000  0.84025000  0.38395600  1
  Pd  Pd31  1  0.00000000  0.15975000  0.61604400  1
  Pd  Pd32  1  0.00000000  0.50000000  0.37306100  1
  Pd  Pd33  1  0.00000000  0.50000000  0.62693900  1
  Pd  Pd34  1  0.00000000  0.50000000  0.12647200  1
  Pd  Pd35  1  0.00000000  0.50000000  0.87352800  1
  Pd  Pd36  1  0.50000000  0.33660900  0.37683300  1
  Pd  Pd37  1  0.50000000  0.66339100  0.62316700  1
  Pd  Pd38  1  0.50000000  0.66339100  0.37683300  1
  Pd  Pd39  1  0.50000000  0.33660900  0.62316700  1
  Pd  Pd40  1  0.50000000  0.16451900  0.00000000  1
  Pd  Pd41  1  0.50000000  0.83548100  0.00000000  1
  Pd  Pd42  1  0.50000000  0.33464000  0.12377200  1
  Pd  Pd43  1  0.50000000  0.66536000  0.87622800  1
  Pd  Pd44  1  0.50000000  0.66536000  0.12377200  1
  Pd  Pd45  1  0.50000000  0.33464000  0.87622800  1
  Pd  Pd46  1  0.50000000  0.00000000  0.12430200  1
  Pd  Pd47  1  0.50000000  0.00000000  0.87569800  1
