# generated using pymatgen
data_Na3U2H28S10N9O44
_symmetry_space_group_name_H-M   'P 1'
_cell_length_a   9.27132900
_cell_length_b   10.14425791
_cell_length_c   13.44042928
_cell_angle_alpha   93.71718321
_cell_angle_beta   103.23586046
_cell_angle_gamma   108.60492551
_symmetry_Int_Tables_number   1
_chemical_formula_structural   Na3U2H28S10N9O44
_chemical_formula_sum   'Na3 U2 H28 S10 N9 O44'
_cell_volume   1153.10065767
_cell_formula_units_Z   1
loop_
 _symmetry_equiv_pos_site_id
 _symmetry_equiv_pos_as_xyz
  1  'x, y, z'
loop_
 _atom_site_type_symbol
 _atom_site_label
 _atom_site_symmetry_multiplicity
 _atom_site_fract_x
 _atom_site_fract_y
 _atom_site_fract_z
 _atom_site_occupancy
  Na  Na0  1  0.98471500  0.26198400  0.20931100  1
  Na  Na1  1  0.01528500  0.73801600  0.79068900  1
  Na  Na2  1  0.00000000  0.50000000  0.00000000  1
  U  U3  1  0.46830700  0.35083200  0.27214800  1
  U  U4  1  0.53169300  0.64916800  0.72785200  1
  H  H5  1  0.04866000  0.62430200  0.43357800  1
  H  H6  1  0.95134000  0.37569800  0.56642200  1
  H  H7  1  0.46516500  0.73161600  0.10769200  1
  H  H8  1  0.53483500  0.26838400  0.89230800  1
  H  H9  1  0.13505900  0.97689600  0.18423200  1
  H  H10  1  0.86494100  0.02310400  0.81576800  1
  H  H11  1  0.22239100  0.22531100  0.74325900  1
  H  H12  1  0.77760900  0.77468900  0.25674100  1
  H  H13  1  0.26159900  0.89417900  0.23338000  1
  H  H14  1  0.73840100  0.10582100  0.76662000  1
  H  H15  1  0.13727100  0.80192300  0.46254800  1
  H  H16  1  0.86272900  0.19807700  0.53745200  1
  H  H17  1  0.06282000  0.80349400  0.20316800  1
  H  H18  1  0.93718000  0.19650600  0.79683200  1
  H  H19  1  0.50324400  0.68773800  0.00570300  1
  H  H20  1  0.49675600  0.31226200  0.99429700  1
  H  H21  1  0.33847200  0.12704700  0.72425100  1
  H  H22  1  0.66152800  0.87295300  0.27574900  1
  H  H23  1  0.23341100  0.17843100  0.62414300  1
  H  H24  1  0.76658900  0.82156900  0.37585700  1
  H  H25  1  0.16363000  0.70350000  0.55546200  1
  H  H26  1  0.83637000  0.29650000  0.44453800  1
  H  H27  1  0.01587000  0.27910900  0.49105000  1
  H  H28  1  0.98413000  0.72089100  0.50895000  1
  H  H29  1  0.15582000  0.84927800  0.11067300  1
  H  H30  1  0.84418000  0.15072200  0.88932700  1
  H  H31  1  0.13907900  0.05504400  0.68899300  1
  H  H32  1  0.86092100  0.94495600  0.31100700  1
  S  S33  1  0.13993200  0.48725600  0.76540700  1
  S  S34  1  0.86006800  0.51274400  0.23459300  1
  S  S35  1  0.31705100  0.58583600  0.27477800  1
  S  S36  1  0.68294900  0.41416400  0.72522200  1
  S  S37  1  0.58983800  0.10609300  0.24302200  1
  S  S38  1  0.41016200  0.89390700  0.75697800  1
  S  S39  1  0.19319300  0.12703200  0.40736200  1
  S  S40  1  0.80680700  0.87296800  0.59263800  1
  S  S41  1  0.19576000  0.24190300  0.05761100  1
  S  S42  1  0.80424000  0.75809700  0.94238900  1
  N  N43  1  0.30809400  0.89379400  0.99875100  1
  N  N44  1  0.69190600  0.10620600  0.00124900  1
  N  N45  1  0.23468400  0.14670100  0.69641000  1
  N  N46  1  0.76531600  0.85329900  0.30359000  1
  N  N47  1  0.15287600  0.88114100  0.18415100  1
  N  N48  1  0.84712400  0.11885900  0.81584900  1
  N  N49  1  0.50000000  0.00000000  0.50000000  1
  N  N50  1  0.08360400  0.71160600  0.49056100  1
  N  N51  1  0.91639600  0.28839400  0.50943900  1
  O  O52  1  0.42850200  0.55964100  0.59744200  1
  O  O53  1  0.57149800  0.44035900  0.40255800  1
  O  O54  1  0.31718200  0.67351900  0.36551900  1
  O  O55  1  0.68281800  0.32648100  0.63448100  1
  O  O56  1  0.03953700  0.08942000  0.32868600  1
  O  O57  1  0.96046300  0.91058000  0.67131400  1
  O  O58  1  0.19934000  0.22370800  0.49603300  1
  O  O59  1  0.80066000  0.77629200  0.50396700  1
  O  O60  1  0.17534000  0.17027700  0.15011100  1
  O  O61  1  0.82466000  0.82972300  0.84988900  1
  O  O62  1  0.47546800  0.15615900  0.16792700  1
  O  O63  1  0.52453200  0.84384100  0.83207300  1
  O  O64  1  0.49148200  0.03908000  0.74311000  1
  O  O65  1  0.50851800  0.96092000  0.25689000  1
  O  O66  1  0.32181000  0.19463500  0.35694100  1
  O  O67  1  0.67819000  0.80536500  0.64305900  1
  O  O68  1  0.48103200  0.60342500  0.26505100  1
  O  O69  1  0.51896800  0.39657500  0.73494900  1
  O  O70  1  0.22573600  0.61853000  0.18045300  1
  O  O71  1  0.77426400  0.38147000  0.81954700  1
  O  O72  1  0.06245300  0.52561900  0.66834200  1
  O  O73  1  0.93754700  0.47438100  0.33165800  1
  O  O74  1  0.25199200  0.42955000  0.28303700  1
  O  O75  1  0.74800800  0.57045000  0.71696300  1
  O  O76  1  0.73320300  0.12017500  0.21074500  1
  O  O77  1  0.26679700  0.87982500  0.78925500  1
  O  O78  1  0.09766700  0.33347500  0.76174100  1
  O  O79  1  0.90233300  0.66652500  0.23825900  1
  O  O80  1  0.67954400  0.45412200  0.22306400  1
  O  O81  1  0.32045600  0.54587800  0.77693600  1
  O  O82  1  0.19588500  0.15053100  0.96933100  1
  O  O83  1  0.80411500  0.84946900  0.03066900  1
  O  O84  1  0.62705800  0.21011500  0.34033500  1
  O  O85  1  0.37294200  0.78988500  0.65966500  1
  O  O86  1  0.88659700  0.44380900  0.14468600  1
  O  O87  1  0.11340300  0.55619100  0.85531400  1
  O  O88  1  0.41762500  0.69598300  0.03431400  1
  O  O89  1  0.58237500  0.30401700  0.96568600  1
  O  O90  1  0.21837800  0.99535400  0.43869300  1
  O  O91  1  0.78162200  0.00464600  0.56130700  1
  O  O92  1  0.07418700  0.30779000  0.03077300  1
  O  O93  1  0.92581300  0.69221000  0.96922700  1
  O  O94  1  0.36035400  0.35743100  0.09872200  1
  O  O95  1  0.63964600  0.64256900  0.90127800  1
