# generated using pymatgen
data_DyCrO5
_symmetry_space_group_name_H-M   'P 1'
_cell_length_a   8.25035643
_cell_length_b   8.31540451
_cell_length_c   11.57089900
_cell_angle_alpha   90.00000000
_cell_angle_beta   90.00000000
_cell_angle_gamma   90.46052330
_symmetry_Int_Tables_number   1
_chemical_formula_structural   DyCrO5
_chemical_formula_sum   'Dy8 Cr8 O40'
_cell_volume   793.79647492
_cell_formula_units_Z   8
loop_
 _symmetry_equiv_pos_site_id
 _symmetry_equiv_pos_as_xyz
  1  'x, y, z'
loop_
 _atom_site_type_symbol
 _atom_site_label
 _atom_site_symmetry_multiplicity
 _atom_site_fract_x
 _atom_site_fract_y
 _atom_site_fract_z
 _atom_site_occupancy
  Dy  Dy0  1  0.86554700  0.66690500  0.56169000  1
  Dy  Dy1  1  0.13445300  0.33309500  0.43831000  1
  Dy  Dy2  1  0.63445300  0.83309500  0.06169000  1
  Dy  Dy3  1  0.36554700  0.16690500  0.93831000  1
  Dy  Dy4  1  0.06845600  0.82191900  0.07814400  1
  Dy  Dy5  1  0.93154400  0.17808100  0.92185600  1
  Dy  Dy6  1  0.43154400  0.67808100  0.57814400  1
  Dy  Dy7  1  0.56845600  0.32191900  0.42185600  1
  Cr  Cr8  1  0.13922900  0.00175000  0.67173400  1
  Cr  Cr9  1  0.86077100  0.99825000  0.32826600  1
  Cr  Cr10  1  0.36077100  0.49825000  0.17173400  1
  Cr  Cr11  1  0.63922900  0.50175000  0.82826600  1
  Cr  Cr12  1  0.36120900  0.95473900  0.31064700  1
  Cr  Cr13  1  0.63879100  0.04526100  0.68935300  1
  Cr  Cr14  1  0.13879100  0.54526100  0.81064700  1
  Cr  Cr15  1  0.86120900  0.45473900  0.18935300  1
  O  O16  1  0.31001600  0.91753200  0.63026500  1
  O  O17  1  0.68998400  0.08246800  0.36973500  1
  O  O18  1  0.18998400  0.58246800  0.13026500  1
  O  O19  1  0.81001600  0.41753200  0.86973500  1
  O  O20  1  0.16175000  0.59589000  0.51600500  1
  O  O21  1  0.83825000  0.40411000  0.48399500  1
  O  O22  1  0.33825000  0.90411000  0.01600500  1
  O  O23  1  0.66175000  0.09589000  0.98399500  1
  O  O24  1  0.65707800  0.56744700  0.68971800  1
  O  O25  1  0.34292200  0.43255300  0.31028200  1
  O  O26  1  0.84292200  0.93255300  0.18971800  1
  O  O27  1  0.15707800  0.06744700  0.81028200  1
  O  O28  1  0.42584200  0.81510000  0.40166900  1
  O  O29  1  0.57415800  0.18490000  0.59833100  1
  O  O30  1  0.07415800  0.68490000  0.90166900  1
  O  O31  1  0.92584200  0.31510000  0.09833100  1
  O  O32  1  0.90325800  0.84479600  0.41494700  1
  O  O33  1  0.09674200  0.15520400  0.58505300  1
  O  O34  1  0.59674200  0.65520400  0.91494700  1
  O  O35  1  0.40325800  0.34479600  0.08505300  1
  O  O36  1  0.99768100  0.86187600  0.66504400  1
  O  O37  1  0.00231900  0.13812400  0.33495600  1
  O  O38  1  0.50231900  0.63812400  0.16504400  1
  O  O39  1  0.49768100  0.36187600  0.83495600  1
  O  O40  1  0.18621200  0.89291700  0.25827400  1
  O  O41  1  0.81378800  0.10708300  0.74172600  1
  O  O42  1  0.31378800  0.60708300  0.75827400  1
  O  O43  1  0.68621200  0.39291700  0.24172600  1
  O  O44  1  0.48384900  0.97751300  0.19508500  1
  O  O45  1  0.51615100  0.02248700  0.80491500  1
  O  O46  1  0.01615100  0.52248700  0.69508500  1
  O  O47  1  0.98384900  0.47751300  0.30491500  1
  O  O48  1  0.64449800  0.57975600  0.45966300  1
  O  O49  1  0.35550200  0.42024400  0.54033700  1
  O  O50  1  0.85550200  0.92024400  0.95966300  1
  O  O51  1  0.14449800  0.07975600  0.04033700  1
  O  O52  1  0.84203500  0.63258800  0.11906800  1
  O  O53  1  0.15796500  0.36741200  0.88093200  1
  O  O54  1  0.65796500  0.86741200  0.61906800  1
  O  O55  1  0.34203500  0.13258800  0.38093200  1
