# generated using pymatgen
data_Cu2H5C3N3O5
_symmetry_space_group_name_H-M   'P 1'
_cell_length_a   6.44891746
_cell_length_b   7.93215085
_cell_length_c   7.93215085
_cell_angle_alpha   99.04739550
_cell_angle_beta   98.12172718
_cell_angle_gamma   98.12172718
_symmetry_Int_Tables_number   1
_chemical_formula_structural   Cu2H5C3N3O5
_chemical_formula_sum   'Cu4 H10 C6 N6 O10'
_cell_volume   391.10603002
_cell_formula_units_Z   2
loop_
 _symmetry_equiv_pos_site_id
 _symmetry_equiv_pos_as_xyz
  1  'x, y, z'
loop_
 _atom_site_type_symbol
 _atom_site_label
 _atom_site_symmetry_multiplicity
 _atom_site_fract_x
 _atom_site_fract_y
 _atom_site_fract_z
 _atom_site_occupancy
  Cu  Cu0  1  0.68587300  0.45955100  0.78681800  1
  Cu  Cu1  1  0.31412700  0.54044900  0.21318200  1
  Cu  Cu2  1  0.81412700  0.21318200  0.54044900  1
  Cu  Cu3  1  0.18587300  0.78681800  0.45955100  1
  H  H4  1  0.96783400  0.59212200  0.66535400  1
  H  H5  1  0.03216600  0.40787800  0.33464600  1
  H  H6  1  0.53216600  0.33464600  0.40787800  1
  H  H7  1  0.46783400  0.66535400  0.59212200  1
  H  H8  1  0.75000000  0.99065600  0.00934400  1
  H  H9  1  0.25000000  0.00934400  0.99065600  1
  H  H10  1  0.91741000  0.74845700  0.79176100  1
  H  H11  1  0.08259000  0.25154300  0.20823900  1
  H  H12  1  0.58259000  0.20823900  0.25154300  1
  H  H13  1  0.41741000  0.79176100  0.74845700  1
  C  C14  1  0.56738300  0.78848500  0.08221400  1
  C  C15  1  0.43261700  0.21151500  0.91778600  1
  C  C16  1  0.93261700  0.91778600  0.21151500  1
  C  C17  1  0.06738300  0.08221400  0.78848500  1
  C  C18  1  0.75000000  0.68310100  0.31689900  1
  C  C19  1  0.25000000  0.31689900  0.68310100  1
  N  N20  1  0.75000000  0.90617900  0.09382100  1
  N  N21  1  0.25000000  0.09382100  0.90617900  1
  N  N22  1  0.56617000  0.68442900  0.20337200  1
  N  N23  1  0.43383000  0.31557100  0.79662800  1
  N  N24  1  0.93383000  0.79662800  0.31557100  1
  N  N25  1  0.06617000  0.20337200  0.68442900  1
  O  O26  1  0.75000000  0.57902700  0.42097300  1
  O  O27  1  0.25000000  0.42097300  0.57902700  1
  O  O28  1  0.92924900  0.62231800  0.78071700  1
  O  O29  1  0.07075100  0.37768200  0.21928300  1
  O  O30  1  0.57075100  0.21928300  0.37768200  1
  O  O31  1  0.42924900  0.78071700  0.62231800  1
  O  O32  1  0.41159100  0.78140300  0.96542900  1
  O  O33  1  0.58840900  0.21859700  0.03457100  1
  O  O34  1  0.08840900  0.03457100  0.21859700  1
  O  O35  1  0.91159100  0.96542900  0.78140300  1
