# generated using pymatgen
data_DyN3O14
_symmetry_space_group_name_H-M   'P 1'
_cell_length_a   6.96451900
_cell_length_b   9.39802028
_cell_length_c   10.03130415
_cell_angle_alpha   64.22280733
_cell_angle_beta   82.22067398
_cell_angle_gamma   74.48074498
_symmetry_Int_Tables_number   1
_chemical_formula_structural   DyN3O14
_chemical_formula_sum   'Dy2 N6 O28'
_cell_volume   569.54831668
_cell_formula_units_Z   2
loop_
 _symmetry_equiv_pos_site_id
 _symmetry_equiv_pos_as_xyz
  1  'x, y, z'
loop_
 _atom_site_type_symbol
 _atom_site_label
 _atom_site_symmetry_multiplicity
 _atom_site_fract_x
 _atom_site_fract_y
 _atom_site_fract_z
 _atom_site_occupancy
  Dy  Dy0  1  0.68211300  0.33289400  0.26657200  1
  Dy  Dy1  1  0.31788700  0.66710600  0.73342800  1
  N  N2  1  0.48981300  0.67578800  0.10895600  1
  N  N3  1  0.51018700  0.32421200  0.89104400  1
  N  N4  1  0.52253700  0.16671600  0.55479100  1
  N  N5  1  0.47746300  0.83328400  0.44520900  1
  N  N6  1  0.99689700  0.17516900  0.13573900  1
  N  N7  1  0.00310300  0.82483100  0.86426100  1
  O  O8  1  0.97328600  0.71840900  0.25090800  1
  O  O9  1  0.02671400  0.28159100  0.74909200  1
  O  O10  1  0.93045800  0.33276800  0.08034500  1
  O  O11  1  0.06954200  0.66723200  0.91965500  1
  O  O12  1  0.91920300  0.09912000  0.26382800  1
  O  O13  1  0.08079700  0.90088000  0.73617200  1
  O  O14  1  0.59795200  0.58821300  0.04165200  1
  O  O15  1  0.40204800  0.41178700  0.95834800  1
  O  O16  1  0.43098900  0.26984400  0.21183400  1
  O  O17  1  0.56901100  0.73015600  0.78816600  1
  O  O18  1  0.44863300  0.08939700  0.67448900  1
  O  O19  1  0.55136700  0.91060300  0.32551100  1
  O  O20  1  0.51103100  0.60578200  0.25033300  1
  O  O21  1  0.48896900  0.39421800  0.74966700  1
  O  O22  1  0.44198400  0.31676500  0.47300900  1
  O  O23  1  0.55801600  0.68323500  0.52699100  1
  O  O24  1  0.68435300  0.10425600  0.50127600  1
  O  O25  1  0.31564700  0.89574400  0.49872400  1
  O  O26  1  0.99451300  0.59967400  0.22440600  1
  O  O27  1  0.00548700  0.40032600  0.77559400  1
  O  O28  1  0.88066900  0.89347500  0.92874200  1
  O  O29  1  0.11933100  0.10652500  0.07125800  1
  O  O30  1  0.92322800  0.33056000  0.49148000  1
  O  O31  1  0.07677200  0.66944000  0.50852000  1
  O  O32  1  0.37908300  0.80740200  0.04333200  1
  O  O33  1  0.62091700  0.19259800  0.95666800  1
  O  O34  1  0.93743100  0.75715300  0.54779700  1
  O  O35  1  0.06256900  0.24284700  0.45220300  1
