# generated using pymatgen
data_Cu3BO5
_symmetry_space_group_name_H-M   'P 1'
_cell_length_a   9.39220200
_cell_length_b   3.31083200
_cell_length_c   11.99556248
_cell_angle_alpha   85.49670359
_cell_angle_beta   90.00000000
_cell_angle_gamma   90.00000000
_symmetry_Int_Tables_number   1
_chemical_formula_structural   Cu3BO5
_chemical_formula_sum   'Cu12 B4 O20'
_cell_volume   371.86248394
_cell_formula_units_Z   4
loop_
 _symmetry_equiv_pos_site_id
 _symmetry_equiv_pos_as_xyz
  1  'x, y, z'
loop_
 _atom_site_type_symbol
 _atom_site_label
 _atom_site_symmetry_multiplicity
 _atom_site_fract_x
 _atom_site_fract_y
 _atom_site_fract_z
 _atom_site_occupancy
  Cu  Cu0  1  0.73578700  0.41909200  0.37704600  1
  Cu  Cu1  1  0.26421300  0.58090800  0.62295400  1
  Cu  Cu2  1  0.23578700  0.58090800  0.12295400  1
  Cu  Cu3  1  0.76421300  0.41909200  0.87704600  1
  Cu  Cu4  1  0.00000000  0.00000000  0.00000000  1
  Cu  Cu5  1  0.50000000  0.00000000  0.50000000  1
  Cu  Cu6  1  0.98594300  0.93248900  0.27490000  1
  Cu  Cu7  1  0.01405700  0.06751100  0.72510000  1
  Cu  Cu8  1  0.48594300  0.06751100  0.22510000  1
  Cu  Cu9  1  0.51405700  0.93248900  0.77490000  1
  Cu  Cu10  1  0.50000000  0.50000000  0.00000000  1
  Cu  Cu11  1  0.00000000  0.50000000  0.50000000  1
  B  B12  1  0.76632400  0.36800000  0.13081300  1
  B  B13  1  0.23367600  0.63200000  0.86918700  1
  B  B14  1  0.26632400  0.63200000  0.36918700  1
  B  B15  1  0.73367600  0.36800000  0.63081300  1
  O  O16  1  0.84153900  0.35032800  0.03302300  1
  O  O17  1  0.15846100  0.64967200  0.96697700  1
  O  O18  1  0.34153900  0.64967200  0.46697700  1
  O  O19  1  0.65846100  0.35032800  0.53302300  1
  O  O20  1  0.59054900  0.02254800  0.35635500  1
  O  O21  1  0.40945100  0.97745200  0.64364500  1
  O  O22  1  0.09054900  0.97745200  0.14364500  1
  O  O23  1  0.90945100  0.02254800  0.85635500  1
  O  O24  1  0.62054600  0.44156700  0.13192000  1
  O  O25  1  0.37945400  0.55843300  0.86808000  1
  O  O26  1  0.12054600  0.55843300  0.36808000  1
  O  O27  1  0.87945400  0.44156700  0.63192000  1
  O  O28  1  0.33663700  0.66816700  0.26731400  1
  O  O29  1  0.66336300  0.33183300  0.73268600  1
  O  O30  1  0.83663700  0.33183300  0.23268600  1
  O  O31  1  0.16336300  0.66816700  0.76731400  1
  O  O32  1  0.87633100  0.81943700  0.40903000  1
  O  O33  1  0.12366900  0.18056300  0.59097000  1
  O  O34  1  0.37633100  0.18056300  0.09097000  1
  O  O35  1  0.62366900  0.81943700  0.90903000  1
