# generated using pymatgen
data_KBaNaCaTi4Fe8Si8(O19F)2
_symmetry_space_group_name_H-M   'P 1'
_cell_length_a   7.10473800
_cell_length_b   5.40697600
_cell_length_c   20.84814495
_cell_angle_alpha   85.74487015
_cell_angle_beta   90.00000000
_cell_angle_gamma   90.00000000
_symmetry_Int_Tables_number   1
_chemical_formula_structural   KBaNaCaTi4Fe8Si8(O19F)2
_chemical_formula_sum   'K1 Ba1 Na1 Ca1 Ti4 Fe8 Si8 O38 F2'
_cell_volume   798.67696932
_cell_formula_units_Z   1
loop_
 _symmetry_equiv_pos_site_id
 _symmetry_equiv_pos_as_xyz
  1  'x, y, z'
loop_
 _atom_site_type_symbol
 _atom_site_label
 _atom_site_symmetry_multiplicity
 _atom_site_fract_x
 _atom_site_fract_y
 _atom_site_fract_z
 _atom_site_occupancy
  K  K0  1  0.50000000  0.00000000  0.00000000  1
  Ba  Ba1  1  0.00000000  0.50000000  0.50000000  1
  Na  Na2  1  0.50000000  0.00000000  0.50000000  1
  Ca  Ca3  1  0.00000000  0.50000000  0.00000000  1
  Ti  Ti4  1  0.50000000  0.52294200  0.41005500  1
  Ti  Ti5  1  0.50000000  0.47705800  0.58994500  1
  Ti  Ti6  1  0.00000000  0.97834100  0.08896600  1
  Ti  Ti7  1  0.00000000  0.02165900  0.91103400  1
  Fe  Fe8  1  0.00000000  0.27906800  0.24973900  1
  Fe  Fe9  1  0.00000000  0.72093200  0.75026200  1
  Fe  Fe10  1  0.73931700  0.73393900  0.26226900  1
  Fe  Fe11  1  0.26068300  0.26606100  0.73773100  1
  Fe  Fe12  1  0.73931700  0.26606100  0.73773100  1
  Fe  Fe13  1  0.26068300  0.73393900  0.26226900  1
  Fe  Fe14  1  0.50000000  0.75317600  0.74774800  1
  Fe  Fe15  1  0.50000000  0.24682400  0.25225200  1
  Si  Si16  1  0.72527000  0.46098700  0.12471300  1
  Si  Si17  1  0.27473000  0.53901300  0.87528700  1
  Si  Si18  1  0.72527000  0.53901300  0.87528700  1
  Si  Si19  1  0.27473000  0.46098700  0.12471300  1
  Si  Si20  1  0.78167300  0.95732500  0.61917000  1
  Si  Si21  1  0.21832700  0.04267500  0.38083000  1
  Si  Si22  1  0.78167300  0.04267500  0.38083000  1
  Si  Si23  1  0.21832700  0.95732500  0.61917000  1
  O  O24  1  0.75427700  0.41772500  0.20394400  1
  O  O25  1  0.24572300  0.58227500  0.79605600  1
  O  O26  1  0.75427700  0.58227500  0.79605600  1
  O  O27  1  0.24572300  0.41772500  0.20394400  1
  O  O28  1  0.50000000  0.50000000  0.00000000  1
  O  O29  1  0.69734600  0.72537700  0.58515100  1
  O  O30  1  0.30265400  0.27462300  0.41484900  1
  O  O31  1  0.69734600  0.27462300  0.41484900  1
  O  O32  1  0.30265400  0.72537700  0.58515100  1
  O  O33  1  0.00000000  0.00000000  0.00000000  1
  O  O34  1  0.00000000  0.58042500  0.28526900  1
  O  O35  1  0.00000000  0.41957500  0.71473100  1
  O  O36  1  0.50000000  0.46090000  0.11658300  1
  O  O37  1  0.50000000  0.53910000  0.88341700  1
  O  O38  1  0.79205100  0.92183800  0.69849700  1
  O  O39  1  0.20794900  0.07816200  0.30150300  1
  O  O40  1  0.79205100  0.07816200  0.30150300  1
  O  O41  1  0.20794900  0.92183800  0.69849700  1
  O  O42  1  0.50000000  0.50200600  0.30931500  1
  O  O43  1  0.50000000  0.49799400  0.69068500  1
  O  O44  1  0.50000000  0.91686100  0.23067300  1
  O  O45  1  0.50000000  0.08313900  0.76932700  1
  O  O46  1  0.81276800  0.72015400  0.09388400  1
  O  O47  1  0.18723200  0.27984600  0.90611600  1
  O  O48  1  0.81276800  0.27984600  0.90611600  1
  O  O49  1  0.18723200  0.72015400  0.09388400  1
  O  O50  1  0.00000000  0.02188300  0.40950800  1
  O  O51  1  0.00000000  0.97811700  0.59049200  1
  O  O52  1  0.68972100  0.78083000  0.40484800  1
  O  O53  1  0.31027900  0.21917000  0.59515200  1
  O  O54  1  0.68972100  0.21917000  0.59515200  1
  O  O55  1  0.31027900  0.78083000  0.40484800  1
  O  O56  1  0.00000000  0.00000000  0.50000000  1
  O  O57  1  0.81255200  0.23985500  0.08556600  1
  O  O58  1  0.18744800  0.76014500  0.91443400  1
  O  O59  1  0.81255200  0.76014500  0.91443400  1
  O  O60  1  0.18744800  0.23985500  0.08556600  1
  O  O61  1  0.50000000  0.50000000  0.50000000  1
  F  F62  1  0.00000000  0.99668500  0.19020200  1
  F  F63  1  0.00000000  0.00331500  0.80979800  1
