# generated using pymatgen
data_FeH4Cl5O
_symmetry_space_group_name_H-M   'P 1'
_cell_length_a   6.99450200
_cell_length_b   8.69084800
_cell_length_c   18.13603900
_cell_angle_alpha   90.00000000
_cell_angle_beta   90.00000000
_cell_angle_gamma   90.00000000
_symmetry_Int_Tables_number   1
_chemical_formula_structural   FeH4Cl5O
_chemical_formula_sum   'Fe4 H16 Cl20 O4'
_cell_volume   1102.45632656
_cell_formula_units_Z   4
loop_
 _symmetry_equiv_pos_site_id
 _symmetry_equiv_pos_as_xyz
  1  'x, y, z'
loop_
 _atom_site_type_symbol
 _atom_site_label
 _atom_site_symmetry_multiplicity
 _atom_site_fract_x
 _atom_site_fract_y
 _atom_site_fract_z
 _atom_site_occupancy
  Fe  Fe0  1  0.71508900  0.75000000  0.93927600  1
  Fe  Fe1  1  0.28491100  0.25000000  0.06072400  1
  Fe  Fe2  1  0.21508900  0.25000000  0.56072400  1
  Fe  Fe3  1  0.78491100  0.75000000  0.43927600  1
  H  H4  1  0.66060800  0.01848100  0.64343300  1
  H  H5  1  0.33939200  0.98151900  0.35656700  1
  H  H6  1  0.16060800  0.98151900  0.85656700  1
  H  H7  1  0.33939200  0.51848100  0.35656700  1
  H  H8  1  0.83939200  0.01848100  0.14343300  1
  H  H9  1  0.66060800  0.48151900  0.64343300  1
  H  H10  1  0.83939200  0.48151900  0.14343300  1
  H  H11  1  0.16060800  0.51848100  0.85656700  1
  H  H12  1  0.57081500  0.34263000  0.97283600  1
  H  H13  1  0.42918500  0.65737000  0.02716400  1
  H  H14  1  0.07081500  0.65737000  0.52716400  1
  H  H15  1  0.42918500  0.84263000  0.02716400  1
  H  H16  1  0.92918500  0.34263000  0.47283600  1
  H  H17  1  0.57081500  0.15737000  0.97283600  1
  H  H18  1  0.92918500  0.15737000  0.47283600  1
  H  H19  1  0.07081500  0.84263000  0.52716400  1
  Cl  Cl20  1  0.78720300  0.75000000  0.73830200  1
  Cl  Cl21  1  0.21279700  0.25000000  0.26169800  1
  Cl  Cl22  1  0.28720300  0.25000000  0.76169800  1
  Cl  Cl23  1  0.71279700  0.75000000  0.23830200  1
  Cl  Cl24  1  0.98928900  0.75000000  0.99508900  1
  Cl  Cl25  1  0.01071100  0.25000000  0.00491100  1
  Cl  Cl26  1  0.48928900  0.25000000  0.50491100  1
  Cl  Cl27  1  0.51071100  0.75000000  0.49508900  1
  Cl  Cl28  1  0.50262200  0.75000000  0.74198400  1
  Cl  Cl29  1  0.49737800  0.25000000  0.25801600  1
  Cl  Cl30  1  0.00262200  0.25000000  0.75801600  1
  Cl  Cl31  1  0.99737800  0.75000000  0.24198400  1
  Cl  Cl32  1  0.66818600  0.98597500  0.89392800  1
  Cl  Cl33  1  0.33181400  0.01402500  0.10607200  1
  Cl  Cl34  1  0.16818600  0.01402500  0.60607200  1
  Cl  Cl35  1  0.33181400  0.48597500  0.10607200  1
  Cl  Cl36  1  0.83181400  0.98597500  0.39392800  1
  Cl  Cl37  1  0.66818600  0.51402500  0.89392800  1
  Cl  Cl38  1  0.83181400  0.51402500  0.39392800  1
  Cl  Cl39  1  0.16818600  0.48597500  0.60607200  1
  O  O40  1  0.48349300  0.75000000  0.00316500  1
  O  O41  1  0.51650700  0.25000000  0.99683500  1
  O  O42  1  0.98349300  0.25000000  0.49683500  1
  O  O43  1  0.01650700  0.75000000  0.50316500  1
