# generated using pymatgen
data_Er6Mn4Al43
_symmetry_space_group_name_H-M   'P 1'
_cell_length_a   10.91422019
_cell_length_b   10.91422019
_cell_length_c   17.64576700
_cell_angle_alpha   90.00000000
_cell_angle_beta   90.00000000
_cell_angle_gamma   120.00000114
_symmetry_Int_Tables_number   1
_chemical_formula_structural   Er6Mn4Al43
_chemical_formula_sum   'Er12 Mn8 Al86'
_cell_volume   1820.35708921
_cell_formula_units_Z   2
loop_
 _symmetry_equiv_pos_site_id
 _symmetry_equiv_pos_as_xyz
  1  'x, y, z'
loop_
 _atom_site_type_symbol
 _atom_site_label
 _atom_site_symmetry_multiplicity
 _atom_site_fract_x
 _atom_site_fract_y
 _atom_site_fract_z
 _atom_site_occupancy
  Er  Er0  1  0.53168100  0.00000000  0.59507400  1
  Er  Er1  1  0.46831900  0.00000000  0.40492600  1
  Er  Er2  1  0.00000000  0.53168100  0.59507400  1
  Er  Er3  1  0.46831900  0.00000000  0.09507400  1
  Er  Er4  1  0.00000000  0.53168100  0.90492600  1
  Er  Er5  1  0.00000000  0.46831900  0.40492600  1
  Er  Er6  1  0.53168100  0.00000000  0.90492600  1
  Er  Er7  1  0.00000000  0.46831900  0.09507400  1
  Er  Er8  1  0.46831900  0.46831900  0.59507400  1
  Er  Er9  1  0.53168100  0.53168100  0.40492600  1
  Er  Er10  1  0.53168100  0.53168100  0.09507400  1
  Er  Er11  1  0.46831900  0.46831900  0.90492600  1
  Mn  Mn12  1  0.00000000  0.00000000  0.50000000  1
  Mn  Mn13  1  0.00000000  0.00000000  0.00000000  1
  Mn  Mn14  1  0.73225600  0.00000000  0.75000000  1
  Mn  Mn15  1  0.26774400  0.00000000  0.25000000  1
  Mn  Mn16  1  0.00000000  0.73225600  0.75000000  1
  Mn  Mn17  1  0.00000000  0.26774400  0.25000000  1
  Mn  Mn18  1  0.26774400  0.26774400  0.75000000  1
  Mn  Mn19  1  0.73225600  0.73225600  0.25000000  1
  Al  Al20  1  0.14519100  0.59753400  0.75000000  1
  Al  Al21  1  0.85480900  0.40246600  0.25000000  1
  Al  Al22  1  0.40246600  0.54765700  0.75000000  1
  Al  Al23  1  0.59753400  0.14519100  0.75000000  1
  Al  Al24  1  0.59753400  0.45234300  0.25000000  1
  Al  Al25  1  0.40246600  0.85480900  0.25000000  1
  Al  Al26  1  0.45234300  0.85480900  0.75000000  1
  Al  Al27  1  0.54765700  0.40246600  0.75000000  1
  Al  Al28  1  0.54765700  0.14519100  0.25000000  1
  Al  Al29  1  0.45234300  0.59753400  0.25000000  1
  Al  Al30  1  0.85480900  0.45234300  0.75000000  1
  Al  Al31  1  0.14519100  0.54765700  0.25000000  1
  Al  Al32  1  0.15480200  0.00000000  0.11601500  1
  Al  Al33  1  0.84519800  0.00000000  0.88398500  1
  Al  Al34  1  0.00000000  0.15480200  0.11601500  1
  Al  Al35  1  0.84519800  0.00000000  0.61601500  1
  Al  Al36  1  0.00000000  0.15480200  0.38398500  1
  Al  Al37  1  0.00000000  0.84519800  0.88398500  1
  Al  Al38  1  0.15480200  0.00000000  0.38398500  1
  Al  Al39  1  0.00000000  0.84519800  0.61601500  1
  Al  Al40  1  0.84519800  0.84519800  0.11601500  1
  Al  Al41  1  0.15480200  0.15480200  0.88398500  1
  Al  Al42  1  0.15480200  0.15480200  0.61601500  1
  Al  Al43  1  0.84519800  0.84519800  0.38398500  1
  Al  Al44  1  0.24615900  0.49231900  0.50000000  1
  Al  Al45  1  0.75384100  0.50768100  0.50000000  1
  Al  Al46  1  0.50768100  0.75384100  0.50000000  1
  Al  Al47  1  0.75384100  0.50768100  0.00000000  1
  Al  Al48  1  0.49231900  0.24615900  0.00000000  1
  Al  Al49  1  0.49231900  0.24615900  0.50000000  1
  Al  Al50  1  0.24615900  0.49231900  0.00000000  1
  Al  Al51  1  0.50768100  0.75384100  0.00000000  1
  Al  Al52  1  0.24615900  0.75384100  0.50000000  1
  Al  Al53  1  0.75384100  0.24615900  0.50000000  1
  Al  Al54  1  0.75384100  0.24615900  0.00000000  1
  Al  Al55  1  0.24615900  0.75384100  0.00000000  1
  Al  Al56  1  0.14456800  0.00000000  0.75000000  1
  Al  Al57  1  0.85543200  0.00000000  0.25000000  1
  Al  Al58  1  0.00000000  0.14456800  0.75000000  1
  Al  Al59  1  0.00000000  0.85543200  0.25000000  1
  Al  Al60  1  0.85543200  0.85543200  0.75000000  1
  Al  Al61  1  0.14456800  0.14456800  0.25000000  1
  Al  Al62  1  0.33333300  0.66666700  0.62743300  1
  Al  Al63  1  0.66666700  0.33333300  0.37256700  1
  Al  Al64  1  0.66666700  0.33333300  0.12743300  1
  Al  Al65  1  0.66666700  0.33333300  0.87256700  1
  Al  Al66  1  0.33333300  0.66666700  0.87256700  1
  Al  Al67  1  0.33333300  0.66666700  0.12743300  1
  Al  Al68  1  0.33333300  0.66666700  0.37256700  1
  Al  Al69  1  0.66666700  0.33333300  0.62743300  1
  Al  Al70  1  0.25102500  0.00000000  0.53071100  1
  Al  Al71  1  0.74897500  0.00000000  0.46928900  1
  Al  Al72  1  0.00000000  0.25102500  0.53071100  1
  Al  Al73  1  0.74897500  0.00000000  0.03071100  1
  Al  Al74  1  0.00000000  0.25102500  0.96928900  1
  Al  Al75  1  0.00000000  0.74897500  0.46928900  1
  Al  Al76  1  0.25102500  0.00000000  0.96928900  1
  Al  Al77  1  0.00000000  0.74897500  0.03071100  1
  Al  Al78  1  0.74897500  0.74897500  0.53071100  1
  Al  Al79  1  0.25102500  0.25102500  0.46928900  1
  Al  Al80  1  0.25102500  0.25102500  0.03071100  1
  Al  Al81  1  0.74897500  0.74897500  0.96928900  1
  Al  Al82  1  0.15775400  0.39100500  0.66562300  1
  Al  Al83  1  0.84224600  0.60899500  0.33437700  1
  Al  Al84  1  0.60899500  0.76674800  0.66562300  1
  Al  Al85  1  0.84224600  0.60899500  0.16562300  1
  Al  Al86  1  0.39100500  0.15775400  0.83437700  1
  Al  Al87  1  0.39100500  0.23325200  0.33437700  1
  Al  Al88  1  0.15775400  0.39100500  0.83437700  1
  Al  Al89  1  0.60899500  0.84224600  0.16562300  1
  Al  Al90  1  0.23325200  0.84224600  0.66562300  1
  Al  Al91  1  0.39100500  0.23325200  0.16562300  1
  Al  Al92  1  0.76674800  0.60899500  0.83437700  1
  Al  Al93  1  0.76674800  0.15775400  0.33437700  1
  Al  Al94  1  0.60899500  0.76674800  0.83437700  1
  Al  Al95  1  0.23325200  0.39100500  0.16562300  1
  Al  Al96  1  0.60899500  0.84224600  0.33437700  1
  Al  Al97  1  0.39100500  0.15775400  0.66562300  1
  Al  Al98  1  0.76674800  0.15775400  0.16562300  1
  Al  Al99  1  0.23325200  0.39100500  0.33437700  1
  Al  Al100  1  0.23325200  0.84224600  0.83437700  1
  Al  Al101  1  0.76674800  0.60899500  0.66562300  1
  Al  Al102  1  0.84224600  0.23325200  0.83437700  1
  Al  Al103  1  0.15775400  0.76674800  0.16562300  1
  Al  Al104  1  0.15775400  0.76674800  0.33437700  1
  Al  Al105  1  0.84224600  0.23325200  0.66562300  1
