# generated using pymatgen
data_Dy2Cu(WO4)4
_symmetry_space_group_name_H-M   'P 1'
_cell_length_a   10.09544248
_cell_length_b   10.09544248
_cell_length_c   11.33911948
_cell_angle_alpha   70.30306766
_cell_angle_beta   70.30306766
_cell_angle_gamma   32.72973547
_symmetry_Int_Tables_number   1
_chemical_formula_structural   Dy2Cu(WO4)4
_chemical_formula_sum   'Dy4 Cu2 W8 O32'
_cell_volume   585.01892760
_cell_formula_units_Z   2
loop_
 _symmetry_equiv_pos_site_id
 _symmetry_equiv_pos_as_xyz
  1  'x, y, z'
loop_
 _atom_site_type_symbol
 _atom_site_label
 _atom_site_symmetry_multiplicity
 _atom_site_fract_x
 _atom_site_fract_y
 _atom_site_fract_z
 _atom_site_occupancy
  Dy  Dy0  1  0.48343400  0.81516000  0.04489000  1
  Dy  Dy1  1  0.51656600  0.18484000  0.95511000  1
  Dy  Dy2  1  0.18484000  0.51656600  0.45511000  1
  Dy  Dy3  1  0.81516000  0.48343400  0.54489000  1
  Cu  Cu4  1  0.66233900  0.33766100  0.25000000  1
  Cu  Cu5  1  0.33766100  0.66233900  0.75000000  1
  W  W6  1  0.69089100  0.93529400  0.28485700  1
  W  W7  1  0.30910900  0.06470600  0.71514300  1
  W  W8  1  0.06470600  0.30910900  0.21514300  1
  W  W9  1  0.93529400  0.69089100  0.78485700  1
  W  W10  1  0.75603400  0.13252500  0.59053400  1
  W  W11  1  0.24396600  0.86747500  0.40946600  1
  W  W12  1  0.86747500  0.24396600  0.90946600  1
  W  W13  1  0.13252500  0.75603400  0.09053400  1
  O  O14  1  0.41246500  0.08284000  0.26458400  1
  O  O15  1  0.58753500  0.91716000  0.73541600  1
  O  O16  1  0.91716000  0.58753500  0.23541600  1
  O  O17  1  0.08284000  0.41246500  0.76458400  1
  O  O18  1  0.53743400  0.21186600  0.32146600  1
  O  O19  1  0.46256600  0.78813400  0.67853400  1
  O  O20  1  0.78813400  0.46256600  0.17853400  1
  O  O21  1  0.21186600  0.53743400  0.82146600  1
  O  O22  1  0.77848600  0.95855000  0.10150000  1
  O  O23  1  0.22151400  0.04145000  0.89850000  1
  O  O24  1  0.04145000  0.22151400  0.39850000  1
  O  O25  1  0.95855000  0.77848600  0.60150000  1
  O  O26  1  0.24286500  0.97334000  0.22912400  1
  O  O27  1  0.75713500  0.02666000  0.77087600  1
  O  O28  1  0.02666000  0.75713500  0.27087600  1
  O  O29  1  0.97334000  0.24286500  0.72912400  1
  O  O30  1  0.87497800  0.10487100  0.41066400  1
  O  O31  1  0.12502200  0.89512900  0.58933600  1
  O  O32  1  0.89512900  0.12502200  0.08933600  1
  O  O33  1  0.10487100  0.87497800  0.91066400  1
  O  O34  1  0.39379100  0.63425900  0.11963000  1
  O  O35  1  0.60620900  0.36574100  0.88037000  1
  O  O36  1  0.36574100  0.60620900  0.38037000  1
  O  O37  1  0.63425900  0.39379100  0.61963000  1
  O  O38  1  0.52117300  0.71788800  0.42615600  1
  O  O39  1  0.47882700  0.28211200  0.57384400  1
  O  O40  1  0.28211200  0.47882700  0.07384400  1
  O  O41  1  0.71788800  0.52117300  0.92615600  1
  O  O42  1  0.25368900  0.21160300  0.05494000  1
  O  O43  1  0.74631100  0.78839700  0.94506000  1
  O  O44  1  0.78839700  0.74631100  0.44506000  1
  O  O45  1  0.21160300  0.25368900  0.55494000  1
