# generated using pymatgen
data_Fe3P6H14(NO8)3
_symmetry_space_group_name_H-M   'P 1'
_cell_length_a   7.44618522
_cell_length_b   9.03160824
_cell_length_c   9.59949673
_cell_angle_alpha   64.38606321
_cell_angle_beta   70.06714259
_cell_angle_gamma   68.72725783
_symmetry_Int_Tables_number   1
_chemical_formula_structural   Fe3P6H14(NO8)3
_chemical_formula_sum   'Fe3 P6 H14 N3 O24'
_cell_volume   529.29322703
_cell_formula_units_Z   1
loop_
 _symmetry_equiv_pos_site_id
 _symmetry_equiv_pos_as_xyz
  1  'x, y, z'
loop_
 _atom_site_type_symbol
 _atom_site_label
 _atom_site_symmetry_multiplicity
 _atom_site_fract_x
 _atom_site_fract_y
 _atom_site_fract_z
 _atom_site_occupancy
  Fe  Fe0  1  0.29610500  0.28795000  0.55283000  1
  Fe  Fe1  1  0.70389500  0.71205000  0.44717000  1
  Fe  Fe2  1  0.50000000  0.50000000  0.00000000  1
  P  P3  1  0.05924500  0.45173700  0.27535100  1
  P  P4  1  0.94075500  0.54826300  0.72464900  1
  P  P5  1  0.41675200  0.65572500  0.27753800  1
  P  P6  1  0.58324800  0.34427500  0.72246200  1
  P  P7  1  0.57978300  0.12125800  0.27112400  1
  P  P8  1  0.42021700  0.87874200  0.72887600  1
  H  H9  1  0.16236400  0.03322300  0.08268600  1
  H  H10  1  0.83763600  0.96677700  0.91731400  1
  H  H11  1  0.18675800  0.21573800  0.07122100  1
  H  H12  1  0.81324200  0.78426200  0.92877900  1
  H  H13  1  0.14947700  0.20716700  0.91078000  1
  H  H14  1  0.85052300  0.79283300  0.08922000  1
  H  H15  1  0.96619700  0.20529400  0.07140700  1
  H  H16  1  0.03380300  0.79470600  0.92859300  1
  H  H17  1  0.58624000  0.03338600  0.72269700  1
  H  H18  1  0.41376000  0.96661400  0.27730300  1
  H  H19  1  0.79554600  0.44504600  0.21855800  1
  H  H20  1  0.20445400  0.55495400  0.78144200  1
  H  H21  1  0.11539400  0.74756400  0.24345500  1
  H  H22  1  0.88460600  0.25243600  0.75654500  1
  N  N23  1  0.11739200  0.16437100  0.03359400  1
  N  N24  1  0.88260800  0.83562900  0.96640600  1
  N  N25  1  0.00000000  0.00000000  0.50000000  1
  O  O26  1  0.34018000  0.51934600  0.42653100  1
  O  O27  1  0.65982000  0.48065400  0.57346900  1
  O  O28  1  0.51899500  0.18437900  0.40986200  1
  O  O29  1  0.48100500  0.81562100  0.59013800  1
  O  O30  1  0.06987200  0.62350500  0.76713600  1
  O  O31  1  0.93012800  0.37649500  0.23286400  1
  O  O32  1  0.24307000  0.46864800  0.14099000  1
  O  O33  1  0.75693000  0.53135200  0.85901000  1
  O  O34  1  0.10553600  0.32575300  0.43453600  1
  O  O35  1  0.89446400  0.67424700  0.56546400  1
  O  O36  1  0.65519300  0.25901300  0.11795800  1
  O  O37  1  0.34480700  0.74098700  0.88204200  1
  O  O38  1  0.55847100  0.58373000  0.14740400  1
  O  O39  1  0.44152900  0.41627000  0.85259600  1
  O  O40  1  0.26011600  0.04797200  0.70075000  1
  O  O41  1  0.73988400  0.95202800  0.29925000  1
  O  O42  1  0.06085700  0.36850900  0.71882200  1
  O  O43  1  0.93914300  0.63149100  0.28117800  1
  O  O44  1  0.48249300  0.24241400  0.69283200  1
  O  O45  1  0.51750700  0.75758600  0.30716800  1
  O  O46  1  0.22957500  0.79696600  0.21127500  1
  O  O47  1  0.77042400  0.20303400  0.78872500  1
  O  O48  1  0.39674900  0.09153700  0.24544300  1
  O  O49  1  0.60325100  0.90846300  0.75455700  1
