# generated using pymatgen
data_Er2CO7
_symmetry_space_group_name_H-M   'P 1'
_cell_length_a   5.91722700
_cell_length_b   6.38271900
_cell_length_c   16.05497682
_cell_angle_alpha   84.53556562
_cell_angle_beta   90.00000000
_cell_angle_gamma   90.00000000
_symmetry_Int_Tables_number   1
_chemical_formula_structural   Er2CO7
_chemical_formula_sum   'Er8 C4 O28'
_cell_volume   603.60869777
_cell_formula_units_Z   4
loop_
 _symmetry_equiv_pos_site_id
 _symmetry_equiv_pos_as_xyz
  1  'x, y, z'
loop_
 _atom_site_type_symbol
 _atom_site_label
 _atom_site_symmetry_multiplicity
 _atom_site_fract_x
 _atom_site_fract_y
 _atom_site_fract_z
 _atom_site_occupancy
  Er  Er0  1  0.23313300  0.92529400  0.57586100  1
  Er  Er1  1  0.76686700  0.07470600  0.42413900  1
  Er  Er2  1  0.73313300  0.07470600  0.92413900  1
  Er  Er3  1  0.26686700  0.92529400  0.07586100  1
  Er  Er4  1  0.23261800  0.89711300  0.82335300  1
  Er  Er5  1  0.76738200  0.10288700  0.17664700  1
  Er  Er6  1  0.73261800  0.10288700  0.67664700  1
  Er  Er7  1  0.26738200  0.89711300  0.32335300  1
  C  C8  1  0.42300700  0.42646900  0.61813300  1
  C  C9  1  0.57699300  0.57353100  0.38186700  1
  C  C10  1  0.92300700  0.57353100  0.88186700  1
  C  C11  1  0.07699300  0.42646900  0.11813300  1
  O  O12  1  0.87769200  0.92363200  0.05196800  1
  O  O13  1  0.12230800  0.07636800  0.94803200  1
  O  O14  1  0.37769200  0.07636800  0.44803200  1
  O  O15  1  0.62230800  0.92363200  0.55196800  1
  O  O16  1  0.40911600  0.86535500  0.95111500  1
  O  O17  1  0.59088400  0.13464500  0.04888500  1
  O  O18  1  0.90911600  0.13464500  0.54888500  1
  O  O19  1  0.09088400  0.86535500  0.45111500  1
  O  O20  1  0.28878700  0.57553000  0.59500600  1
  O  O21  1  0.71121300  0.42447000  0.40499400  1
  O  O22  1  0.78878700  0.42447000  0.90499400  1
  O  O23  1  0.21121300  0.57553000  0.09500600  1
  O  O24  1  0.85378600  0.76878500  0.87852500  1
  O  O25  1  0.14621400  0.23121500  0.12147500  1
  O  O26  1  0.35378600  0.23121500  0.62147500  1
  O  O27  1  0.64621400  0.76878500  0.37852500  1
  O  O28  1  0.48336700  0.85266300  0.72123800  1
  O  O29  1  0.51663300  0.14733700  0.27876200  1
  O  O30  1  0.98336700  0.14733700  0.77876200  1
  O  O31  1  0.01663300  0.85266300  0.22123800  1
  O  O32  1  0.04252300  0.89254500  0.69976000  1
  O  O33  1  0.95747700  0.10745500  0.30024000  1
  O  O34  1  0.54252300  0.10745500  0.80024000  1
  O  O35  1  0.45747700  0.89254500  0.19976000  1
  O  O36  1  0.12921000  0.54706700  0.86006900  1
  O  O37  1  0.87079000  0.45293300  0.13993100  1
  O  O38  1  0.62921000  0.45293300  0.63993100  1
  O  O39  1  0.37079000  0.54706700  0.36006900  1
