# generated using pymatgen
data_Ni3SnH12(OF)6
_symmetry_space_group_name_H-M   'P 1'
_cell_length_a   10.25186117
_cell_length_b   7.70919378
_cell_length_c   11.42738191
_cell_angle_alpha   89.17749325
_cell_angle_beta   92.17457485
_cell_angle_gamma   127.31525749
_symmetry_Int_Tables_number   1
_chemical_formula_structural   Ni3SnH12(OF)6
_chemical_formula_sum   'Ni3 Sn1 H12 O6 F6'
_cell_volume   717.72392722
_cell_formula_units_Z   1
loop_
 _symmetry_equiv_pos_site_id
 _symmetry_equiv_pos_as_xyz
  1  'x, y, z'
loop_
 _atom_site_type_symbol
 _atom_site_label
 _atom_site_symmetry_multiplicity
 _atom_site_fract_x
 _atom_site_fract_y
 _atom_site_fract_z
 _atom_site_occupancy
  Ni  Ni0  1  0.00000000  0.00000000  0.50000000  1
  Ni  Ni1  1  0.50000000  0.50000000  0.00000000  1
  Ni  Ni2  1  0.00000000  0.50000000  0.00000000  1
  Sn  Sn3  1  0.00000000  0.00000000  0.00000000  1
  H  H4  1  0.73398200  0.17639900  0.91267500  1
  H  H5  1  0.26601800  0.82360100  0.08732500  1
  H  H6  1  0.87788600  0.16279200  0.57903300  1
  H  H7  1  0.12211400  0.83720800  0.42096700  1
  H  H8  1  0.57374500  0.67541500  0.72150500  1
  H  H9  1  0.42625500  0.32458500  0.27849500  1
  H  H10  1  0.90678100  0.05184000  0.69121200  1
  H  H11  1  0.09321900  0.94816000  0.30878800  1
  H  H12  1  0.66679400  0.79929300  0.83515800  1
  H  H13  1  0.33320600  0.20070700  0.16484200  1
  H  H14  1  0.87261400  0.20844700  0.84128500  1
  H  H15  1  0.12738600  0.79155300  0.15871500  1
  O  O16  1  0.88504500  0.04577700  0.59890200  1
  O  O17  1  0.11495500  0.95422300  0.40109800  1
  O  O18  1  0.55710300  0.71480900  0.79712000  1
  O  O19  1  0.44289700  0.28519100  0.20288000  1
  O  O20  1  0.83121300  0.29007400  0.87072000  1
  O  O21  1  0.16878700  0.70992600  0.12928000  1
  F  F22  1  0.95347800  0.24771600  0.07018700  1
  F  F23  1  0.04652200  0.75228400  0.92981300  1
  F  F24  1  0.92688900  0.06780500  0.80746400  1
  F  F25  1  0.07311100  0.93219500  0.19253600  1
  F  F26  1  0.72948100  0.72740300  0.00116400  1
  F  F27  1  0.27051900  0.27259700  0.99883600  1
