# generated using pymatgen
data_CsNaMo3O10
_symmetry_space_group_name_H-M   'P 1'
_cell_length_a   7.68381200
_cell_length_b   7.94592600
_cell_length_c   19.33895500
_cell_angle_alpha   90.00000000
_cell_angle_beta   90.00000000
_cell_angle_gamma   90.00000000
_symmetry_Int_Tables_number   1
_chemical_formula_structural   CsNaMo3O10
_chemical_formula_sum   'Cs4 Na4 Mo12 O40'
_cell_volume   1180.73992750
_cell_formula_units_Z   4
loop_
 _symmetry_equiv_pos_site_id
 _symmetry_equiv_pos_as_xyz
  1  'x, y, z'
loop_
 _atom_site_type_symbol
 _atom_site_label
 _atom_site_symmetry_multiplicity
 _atom_site_fract_x
 _atom_site_fract_y
 _atom_site_fract_z
 _atom_site_occupancy
  Cs  Cs0  1  0.75000000  0.58958200  0.72648500  1
  Cs  Cs1  1  0.25000000  0.41041800  0.27351500  1
  Cs  Cs2  1  0.25000000  0.91041800  0.22648500  1
  Cs  Cs3  1  0.75000000  0.08958200  0.77351500  1
  Na  Na4  1  0.75000000  0.68472100  0.44550500  1
  Na  Na5  1  0.25000000  0.31527900  0.55449500  1
  Na  Na6  1  0.25000000  0.81527900  0.94550500  1
  Na  Na7  1  0.75000000  0.18472100  0.05449500  1
  Mo  Mo8  1  0.49660100  0.90480700  0.58774400  1
  Mo  Mo9  1  0.50339900  0.09519300  0.41225600  1
  Mo  Mo10  1  0.50339900  0.59519300  0.08774400  1
  Mo  Mo11  1  0.99660100  0.09519300  0.41225600  1
  Mo  Mo12  1  0.49660100  0.40480700  0.91225600  1
  Mo  Mo13  1  0.00339900  0.90480700  0.58774400  1
  Mo  Mo14  1  0.00339900  0.40480700  0.91225600  1
  Mo  Mo15  1  0.99660100  0.59519300  0.08774400  1
  Mo  Mo16  1  0.75000000  0.73646200  0.95475000  1
  Mo  Mo17  1  0.25000000  0.26353800  0.04525000  1
  Mo  Mo18  1  0.25000000  0.76353800  0.45475000  1
  Mo  Mo19  1  0.75000000  0.23646200  0.54525000  1
  O  O20  1  0.75000000  0.59325300  0.05897000  1
  O  O21  1  0.25000000  0.40674700  0.94103000  1
  O  O22  1  0.25000000  0.90674700  0.55897000  1
  O  O23  1  0.75000000  0.09325300  0.44103000  1
  O  O24  1  0.75000000  0.78459400  0.86628900  1
  O  O25  1  0.25000000  0.21540600  0.13371100  1
  O  O26  1  0.25000000  0.71540600  0.36628900  1
  O  O27  1  0.75000000  0.28459400  0.63371100  1
  O  O28  1  0.98881300  0.65704100  0.96966200  1
  O  O29  1  0.01118700  0.34295900  0.03033800  1
  O  O30  1  0.01118700  0.84295900  0.46966200  1
  O  O31  1  0.48881300  0.34295900  0.03033800  1
  O  O32  1  0.98881300  0.15704100  0.53033800  1
  O  O33  1  0.51118700  0.65704100  0.96966200  1
  O  O34  1  0.51118700  0.15704100  0.53033800  1
  O  O35  1  0.48881300  0.84295900  0.46966200  1
  O  O36  1  0.75000000  0.93042500  0.99666500  1
  O  O37  1  0.25000000  0.06957500  0.00333500  1
  O  O38  1  0.25000000  0.56957500  0.49666500  1
  O  O39  1  0.75000000  0.43042500  0.50333500  1
  O  O40  1  0.46559100  0.00309300  0.66723800  1
  O  O41  1  0.53440900  0.99690700  0.33276200  1
  O  O42  1  0.53440900  0.49690700  0.16723800  1
  O  O43  1  0.96559100  0.99690700  0.33276200  1
  O  O44  1  0.46559100  0.50309300  0.83276200  1
  O  O45  1  0.03440900  0.00309300  0.66723800  1
  O  O46  1  0.03440900  0.50309300  0.83276200  1
  O  O47  1  0.96559100  0.49690700  0.16723800  1
  O  O48  1  0.75000000  0.94866900  0.57503400  1
  O  O49  1  0.25000000  0.05133100  0.42496600  1
  O  O50  1  0.25000000  0.55133100  0.07503400  1
  O  O51  1  0.75000000  0.44866900  0.92496600  1
  O  O52  1  0.98237900  0.69310500  0.60883200  1
  O  O53  1  0.01762100  0.30689500  0.39116800  1
  O  O54  1  0.01762100  0.80689500  0.10883200  1
  O  O55  1  0.48237900  0.30689500  0.39116800  1
  O  O56  1  0.98237900  0.19310500  0.89116800  1
  O  O57  1  0.51762100  0.69310500  0.60883200  1
  O  O58  1  0.51762100  0.19310500  0.89116800  1
  O  O59  1  0.48237900  0.80689500  0.10883200  1
