# generated using pymatgen
data_Na3PCO11
_symmetry_space_group_name_H-M   'P 1'
_cell_length_a   15.23715200
_cell_length_b   8.53761200
_cell_length_c   8.83282041
_cell_angle_alpha   74.67059107
_cell_angle_beta   90.00000000
_cell_angle_gamma   90.00000000
_symmetry_Int_Tables_number   1
_chemical_formula_structural   Na3PCO11
_chemical_formula_sum   'Na12 P4 C4 O44'
_cell_volume   1108.17068024
_cell_formula_units_Z   4
loop_
 _symmetry_equiv_pos_site_id
 _symmetry_equiv_pos_as_xyz
  1  'x, y, z'
loop_
 _atom_site_type_symbol
 _atom_site_label
 _atom_site_symmetry_multiplicity
 _atom_site_fract_x
 _atom_site_fract_y
 _atom_site_fract_z
 _atom_site_occupancy
  Na  Na0  1  0.20756300  0.46886200  0.19443300  1
  Na  Na1  1  0.79243700  0.53113800  0.80556700  1
  Na  Na2  1  0.70756300  0.53113800  0.30556700  1
  Na  Na3  1  0.29243700  0.46886200  0.69443300  1
  Na  Na4  1  0.26728200  0.00728800  0.83695600  1
  Na  Na5  1  0.73271800  0.99271200  0.16304400  1
  Na  Na6  1  0.76728200  0.99271200  0.66304400  1
  Na  Na7  1  0.23271800  0.00728800  0.33695600  1
  Na  Na8  1  0.61428300  0.75222800  0.91103300  1
  Na  Na9  1  0.38571700  0.24777200  0.08896700  1
  Na  Na10  1  0.11428300  0.24777200  0.58896700  1
  Na  Na11  1  0.88571700  0.75222800  0.41103300  1
  P  P12  1  0.37929500  0.29271200  0.42152200  1
  P  P13  1  0.62070500  0.70728800  0.57847800  1
  P  P14  1  0.87929500  0.70728800  0.07847800  1
  P  P15  1  0.12070500  0.29271200  0.92152200  1
  C  C16  1  0.42427500  0.68974700  0.16334200  1
  C  C17  1  0.57572500  0.31025300  0.83665800  1
  C  C18  1  0.92427500  0.31025300  0.33665800  1
  C  C19  1  0.07572500  0.68974700  0.66334200  1
  O  O20  1  0.10122200  0.87753100  0.91749400  1
  O  O21  1  0.89877800  0.12246900  0.08250600  1
  O  O22  1  0.60122200  0.12246900  0.58250600  1
  O  O23  1  0.39877800  0.87753100  0.41749400  1
  O  O24  1  0.38014100  0.29349700  0.58981900  1
  O  O25  1  0.61985900  0.70650300  0.41018100  1
  O  O26  1  0.88014100  0.70650300  0.91018100  1
  O  O27  1  0.11985900  0.29349700  0.08981900  1
  O  O28  1  0.12398900  0.73661900  0.98332500  1
  O  O29  1  0.87601100  0.26338100  0.01667500  1
  O  O30  1  0.62398900  0.26338100  0.51667500  1
  O  O31  1  0.37601100  0.73661900  0.48332500  1
  O  O32  1  0.92321300  0.09634500  0.68830700  1
  O  O33  1  0.07678700  0.90365500  0.31169300  1
  O  O34  1  0.42321300  0.90365500  0.81169300  1
  O  O35  1  0.57678700  0.09634500  0.18830700  1
  O  O36  1  0.49823300  0.72405700  0.13473700  1
  O  O37  1  0.50176700  0.27594300  0.86526300  1
  O  O38  1  0.99823300  0.27594300  0.36526300  1
  O  O39  1  0.00176700  0.72405700  0.63473700  1
  O  O40  1  0.95810200  0.66714300  0.18200300  1
  O  O41  1  0.04189800  0.33285700  0.81799700  1
  O  O42  1  0.45810200  0.33285700  0.31799700  1
  O  O43  1  0.54189800  0.66714300  0.68200300  1
  O  O44  1  0.35022400  0.65738900  0.19220400  1
  O  O45  1  0.64977600  0.34261100  0.80779600  1
  O  O46  1  0.85022400  0.34261100  0.30779600  1
  O  O47  1  0.14977600  0.65738900  0.69220400  1
  O  O48  1  0.39645100  0.76028600  0.84836300  1
  O  O49  1  0.60354900  0.23971400  0.15163700  1
  O  O50  1  0.89645100  0.23971400  0.65163700  1
  O  O51  1  0.10354900  0.76028600  0.34836300  1
  O  O52  1  0.29816600  0.24582400  0.34674900  1
  O  O53  1  0.70183400  0.75417600  0.65325100  1
  O  O54  1  0.79816600  0.75417600  0.15325100  1
  O  O55  1  0.20183400  0.24582400  0.84674900  1
  O  O56  1  0.19664400  0.01287700  0.59567800  1
  O  O57  1  0.80335600  0.98712300  0.40432200  1
  O  O58  1  0.69664400  0.98712300  0.90432200  1
  O  O59  1  0.30335600  0.01287700  0.09567800  1
  O  O60  1  0.20077700  0.47019500  0.46176900  1
  O  O61  1  0.79922300  0.52980500  0.53823100  1
  O  O62  1  0.70077700  0.52980500  0.03823100  1
  O  O63  1  0.29922300  0.47019500  0.96176900  1
