# generated using pymatgen
data_Fe2(WO4)3
_symmetry_space_group_name_H-M   'P 1'
_cell_length_a   9.46047634
_cell_length_b   16.17207456
_cell_length_c   16.12207602
_cell_angle_alpha   109.33525185
_cell_angle_beta   90.00000000
_cell_angle_gamma   90.00000000
_symmetry_Int_Tables_number   1
_chemical_formula_structural   Fe2(WO4)3
_chemical_formula_sum   'Fe16 W24 O96'
_cell_volume   2327.48262994
_cell_formula_units_Z   8
loop_
 _symmetry_equiv_pos_site_id
 _symmetry_equiv_pos_as_xyz
  1  'x, y, z'
loop_
 _atom_site_type_symbol
 _atom_site_label
 _atom_site_symmetry_multiplicity
 _atom_site_fract_x
 _atom_site_fract_y
 _atom_site_fract_z
 _atom_site_occupancy
  Fe  Fe0  1  0.97399651  0.31468952  0.93304835  1
  Fe  Fe1  1  0.02600349  0.68531048  0.06695165  1
  Fe  Fe2  1  0.47399651  0.68531048  0.56695165  1
  Fe  Fe3  1  0.52600349  0.31468952  0.43304835  1
  Fe  Fe4  1  0.98281918  0.91672126  0.81057308  1
  Fe  Fe5  1  0.01718082  0.08327874  0.18942692  1
  Fe  Fe6  1  0.48281918  0.08327874  0.68942692  1
  Fe  Fe7  1  0.51718082  0.91672126  0.31057308  1
  Fe  Fe8  1  0.53421396  0.81920978  0.93788368  1
  Fe  Fe9  1  0.46578604  0.18079022  0.06211632  1
  Fe  Fe10  1  0.03421396  0.18079022  0.56211632  1
  Fe  Fe11  1  0.96578604  0.81920978  0.43788368  1
  Fe  Fe12  1  0.53956301  0.45359458  0.82474775  1
  Fe  Fe13  1  0.46043699  0.54640542  0.17525225  1
  Fe  Fe14  1  0.03956301  0.54640542  0.67525225  1
  Fe  Fe15  1  0.96043699  0.45359458  0.32474775  1
  W  W16  1  0.61157617  0.25028220  0.88997272  1
  W  W17  1  0.38842383  0.74971780  0.11002728  1
  W  W18  1  0.11157617  0.74971780  0.61002728  1
  W  W19  1  0.88842383  0.25028220  0.38997272  1
  W  W20  1  0.24686894  0.98769758  0.99436232  1
  W  W21  1  0.75313106  0.01230242  0.00563768  1
  W  W22  1  0.74686894  0.01230242  0.50563768  1
  W  W23  1  0.25313106  0.98769758  0.49436232  1
  W  W24  1  0.87325630  0.36302959  0.72392657  1
  W  W25  1  0.12674370  0.63697041  0.27607343  1
  W  W26  1  0.37325630  0.63697041  0.77607343  1
  W  W27  1  0.62674370  0.36302959  0.22392657  1
  W  W28  1  0.74486539  0.51912582  0.51676445  1
  W  W29  1  0.25513461  0.48087418  0.48323555  1
  W  W30  1  0.24486539  0.48087418  0.98323555  1
  W  W31  1  0.75513461  0.51912582  0.01676445  1
  W  W32  1  0.87025942  0.71319089  0.86197231  1
  W  W33  1  0.12974058  0.28680911  0.13802769  1
  W  W34  1  0.37025942  0.28680911  0.63802769  1
  W  W35  1  0.62974058  0.71319089  0.36197231  1
  W  W36  1  0.61595147  0.88512880  0.73432003  1
  W  W37  1  0.38404853  0.11487120  0.26567997  1
  W  W38  1  0.11595147  0.11487120  0.76567997  1
  W  W39  1  0.88404853  0.88512880  0.23432003  1
  O  O40  1  0.38989311  0.91244304  0.99284066  1
  O  O41  1  0.61010689  0.08755696  0.00715934  1
  O  O42  1  0.88989311  0.08755696  0.50715934  1
  O  O43  1  0.11010689  0.91244304  0.49284066  1
  O  O44  1  0.60356877  0.16554775  0.78332544  1
  O  O45  1  0.39643123  0.83445225  0.21667456  1
  O  O46  1  0.10356877  0.83445225  0.71667456  1
  O  O47  1  0.89643123  0.16554775  0.28332544  1
  O  O48  1  0.86234592  0.99870973  0.90944049  1
  O  O49  1  0.13765408  0.00129027  0.09055951  1
  O  O50  1  0.36234592  0.00129027  0.59055951  1
  O  O51  1  0.63765408  0.99870973  0.40944049  1
  O  O52  1  0.88768756  0.50105815  0.58379930  1
  O  O53  1  0.11231244  0.49894185  0.41620070  1
  O  O54  1  0.38768756  0.49894185  0.91620070  1
  O  O55  1  0.61231244  0.50105815  0.08379930  1
  O  O56  1  0.81437622  0.90560677  0.50036133  1
  O  O57  1  0.18562378  0.09439323  0.49963867  1
  O  O58  1  0.31437622  0.09439323  0.99963867  1
  O  O59  1  0.68562378  0.90560677  0.00036133  1
  O  O60  1  0.78802735  0.25308555  0.93512409  1
  O  O61  1  0.21197265  0.74691445  0.06487591  1
  O  O62  1  0.28802735  0.74691445  0.56487591  1
  O  O63  1  0.71197265  0.25308555  0.43512409  1
  O  O64  1  0.55610957  0.86379928  0.83210619  1
  O  O65  1  0.44389043  0.13620072  0.16789381  1
  O  O66  1  0.05610957  0.13620072  0.66789381  1
  O  O67  1  0.94389043  0.86379928  0.33210619  1
  O  O68  1  0.65589861  0.62138189  0.57400648  1
  O  O69  1  0.34410139  0.37861811  0.42599352  1
  O  O70  1  0.15589861  0.37861811  0.92599352  1
  O  O71  1  0.84410139  0.62138189  0.07400648  1
  O  O72  1  0.68159676  0.72747433  0.88160970  1
  O  O73  1  0.31840324  0.27252567  0.11839030  1
  O  O74  1  0.18159676  0.27252567  0.61839030  1
  O  O75  1  0.81840324  0.72747433  0.38160970  1
  O  O76  1  0.89896378  0.62350106  0.75996966  1
  O  O77  1  0.10103622  0.37649894  0.24003034  1
  O  O78  1  0.39896378  0.37649894  0.74003034  1
  O  O79  1  0.60103622  0.62350106  0.25996966  1
  O  O80  1  0.69283318  0.40358281  0.73415748  1
  O  O81  1  0.30716682  0.59641719  0.26584252  1
  O  O82  1  0.19283318  0.59641719  0.76584252  1
  O  O83  1  0.80716682  0.40358281  0.23415748  1
  O  O84  1  0.38450116  0.73302931  0.87411911  1
  O  O85  1  0.61549884  0.26697069  0.12588089  1
  O  O86  1  0.88450116  0.26697069  0.62588089  1
  O  O87  1  0.11549884  0.73302931  0.37411911  1
  O  O88  1  0.53847111  0.98756942  0.73445795  1
  O  O89  1  0.46152889  0.01243058  0.26554205  1
  O  O90  1  0.03847111  0.01243058  0.76554205  1
  O  O91  1  0.96152889  0.98756942  0.23445795  1
  O  O92  1  0.91126810  0.32898017  0.81751806  1
  O  O93  1  0.08873190  0.67101983  0.18248194  1
  O  O94  1  0.41126810  0.67101983  0.68248194  1
  O  O95  1  0.58873190  0.32898017  0.31751806  1
  O  O96  1  0.80765025  0.89163136  0.73541674  1
  O  O97  1  0.19234975  0.10836864  0.26458326  1
  O  O98  1  0.30765025  0.10836864  0.76458326  1
  O  O99  1  0.69234975  0.89163136  0.23541674  1
  O  O100  1  0.57239569  0.35560706  0.87805552  1
  O  O101  1  0.42760431  0.64439294  0.12194448  1
  O  O102  1  0.07239569  0.64439294  0.62194448  1
  O  O103  1  0.92760431  0.35560706  0.37805552  1
  O  O104  1  0.93571253  0.81388432  0.85087283  1
  O  O105  1  0.06428747  0.18611568  0.14912717  1
  O  O106  1  0.43571253  0.18611568  0.64912717  1
  O  O107  1  0.56428747  0.81388432  0.35087283  1
  O  O108  1  0.98189092  0.77370028  0.53841133  1
  O  O109  1  0.01810908  0.22629972  0.46158867  1
  O  O110  1  0.48189092  0.22629972  0.96158867  1
  O  O111  1  0.51810908  0.77370028  0.03841133  1
  O  O112  1  0.88096412  0.43031844  0.99653771  1
  O  O113  1  0.11903588  0.56968156  0.00346229  1
  O  O114  1  0.38096412  0.56968156  0.50346229  1
  O  O115  1  0.61903588  0.43031844  0.49653771  1
  O  O116  1  0.14469580  0.94528368  0.89455845  1
  O  O117  1  0.85530420  0.05471632  0.10544155  1
  O  O118  1  0.64469580  0.05471632  0.60544155  1
  O  O119  1  0.35530420  0.94528368  0.39455845  1
  O  O120  1  0.96065065  0.69472349  0.95337455  1
  O  O121  1  0.03934935  0.30527651  0.04662545  1
  O  O122  1  0.46065065  0.30527651  0.54662545  1
  O  O123  1  0.53934935  0.69472349  0.45337455  1
  O  O124  1  0.56289746  0.79868646  0.63531873  1
  O  O125  1  0.43710254  0.20131354  0.36468127  1
  O  O126  1  0.06289746  0.20131354  0.86468127  1
  O  O127  1  0.93710254  0.79868646  0.13531873  1
  O  O128  1  0.68869042  0.52292338  0.91206454  1
  O  O129  1  0.31130958  0.47707662  0.08793546  1
  O  O130  1  0.18869042  0.47707662  0.58793546  1
  O  O131  1  0.81130958  0.52292338  0.41206454  1
  O  O132  1  0.99742430  0.44735913  0.71974183  1
  O  O133  1  0.00257570  0.55264087  0.28025817  1
  O  O134  1  0.49742430  0.55264087  0.78025817  1
  O  O135  1  0.50257570  0.44735913  0.21974183  1
