# generated using pymatgen
data_FeH18C6N6O13
_symmetry_space_group_name_H-M   'P 1'
_cell_length_a   7.09942481
_cell_length_b   14.06883900
_cell_length_c   17.01165396
_cell_angle_alpha   98.29217240
_cell_angle_beta   90.00000000
_cell_angle_gamma   90.00000000
_symmetry_Int_Tables_number   1
_chemical_formula_structural   FeH18C6N6O13
_chemical_formula_sum   'Fe4 H72 C24 N24 O52'
_cell_volume   1681.37169656
_cell_formula_units_Z   4
loop_
 _symmetry_equiv_pos_site_id
 _symmetry_equiv_pos_as_xyz
  1  'x, y, z'
loop_
 _atom_site_type_symbol
 _atom_site_label
 _atom_site_symmetry_multiplicity
 _atom_site_fract_x
 _atom_site_fract_y
 _atom_site_fract_z
 _atom_site_occupancy
  Fe  Fe0  1  0.18366967  0.06235420  0.82203593  1
  Fe  Fe1  1  0.81633033  0.93764580  0.17796407  1
  Fe  Fe2  1  0.68366967  0.43764580  0.67796407  1
  Fe  Fe3  1  0.31633033  0.56235420  0.32203593  1
  H  H4  1  0.20046564  0.18698272  0.96728397  1
  H  H5  1  0.79953436  0.81301728  0.03271603  1
  H  H6  1  0.70046564  0.31301728  0.53271603  1
  H  H7  1  0.29953436  0.68698272  0.46728397  1
  H  H8  1  0.36469276  0.40956414  0.76676323  1
  H  H9  1  0.63530724  0.59043586  0.23323677  1
  H  H10  1  0.86469276  0.09043586  0.73323677  1
  H  H11  1  0.13530724  0.90956414  0.26676323  1
  H  H12  1  0.51188364  0.43227213  0.39229688  1
  H  H13  1  0.48811636  0.56772787  0.60770312  1
  H  H14  1  0.01188364  0.06772787  0.10770312  1
  H  H15  1  0.98811636  0.93227213  0.89229688  1
  H  H16  1  0.17151123  0.23028788  0.60306667  1
  H  H17  1  0.82848877  0.76971212  0.39693333  1
  H  H18  1  0.67151123  0.26971212  0.89693333  1
  H  H19  1  0.32848877  0.73028788  0.10306667  1
  H  H20  1  0.60877863  0.53156551  0.43062655  1
  H  H21  1  0.39122137  0.46843449  0.56937345  1
  H  H22  1  0.10877863  0.96843449  0.06937345  1
  H  H23  1  0.89122137  0.03156551  0.93062655  1
  H  H24  1  0.71242852  0.80371463  0.78779594  1
  H  H25  1  0.28757148  0.19628537  0.21220406  1
  H  H26  1  0.21242852  0.69628537  0.71220406  1
  H  H27  1  0.78757148  0.30371463  0.28779594  1
  H  H28  1  0.47516176  0.17969211  0.79423821  1
  H  H29  1  0.52483824  0.82030789  0.20576179  1
  H  H30  1  0.97516176  0.32030789  0.70576179  1
  H  H31  1  0.02483824  0.67969211  0.29423821  1
  H  H32  1  0.36526927  0.32707599  0.69459882  1
  H  H33  1  0.63473073  0.67292401  0.30540118  1
  H  H34  1  0.86526927  0.17292401  0.80540118  1
  H  H35  1  0.13473073  0.82707599  0.19459882  1
  H  H36  1  0.25156788  0.86861786  0.53673105  1
  H  H37  1  0.74843212  0.13138214  0.46326895  1
  H  H38  1  0.75156788  0.63138214  0.96326895  1
  H  H39  1  0.24843212  0.36861786  0.03673105  1
  H  H40  1  0.69860944  0.16051077  0.99655102  1
  H  H41  1  0.30139056  0.83948923  0.00344898  1
  H  H42  1  0.19860944  0.33948923  0.50344898  1
  H  H43  1  0.80139056  0.66051077  0.49655102  1
  H  H44  1  0.18867901  0.19616656  0.68682106  1
  H  H45  1  0.81132099  0.80383344  0.31317894  1
  H  H46  1  0.68867901  0.30383344  0.81317894  1
  H  H47  1  0.31132099  0.69616656  0.18682106  1
  H  H48  1  0.71804921  0.78309540  0.64474008  1
  H  H49  1  0.28195079  0.21690460  0.35525992  1
  H  H50  1  0.21804921  0.71690460  0.85525992  1
  H  H51  1  0.78195079  0.28309540  0.14474008  1
  H  H52  1  0.22695706  0.03833204  0.52658569  1
  H  H53  1  0.77304294  0.96166796  0.47341431  1
  H  H54  1  0.72695706  0.46166796  0.97341431  1
  H  H55  1  0.27304294  0.53833204  0.02658569  1
  H  H56  1  0.19393875  0.25452826  0.90085280  1
  H  H57  1  0.80606125  0.74547174  0.09914720  1
  H  H58  1  0.69393875  0.24547174  0.59914720  1
  H  H59  1  0.30606125  0.75452826  0.40085280  1
  H  H60  1  0.51314330  0.97034012  0.83715399  1
  H  H61  1  0.48685670  0.02965988  0.16284601  1
  H  H62  1  0.01314330  0.52965988  0.66284601  1
  H  H63  1  0.98685670  0.47034012  0.33715399  1
  H  H64  1  0.83177478  0.56679481  0.53585547  1
  H  H65  1  0.16822522  0.43320519  0.46414453  1
  H  H66  1  0.33177478  0.93320519  0.96414453  1
  H  H67  1  0.66822522  0.06679481  0.03585547  1
  H  H68  1  0.48059486  0.09544093  0.72308392  1
  H  H69  1  0.51940514  0.90455907  0.27691608  1
  H  H70  1  0.98059486  0.40455907  0.77691608  1
  H  H71  1  0.01940514  0.59544093  0.22308392  1
  H  H72  1  0.51299370  0.04398723  0.91619034  1
  H  H73  1  0.48700630  0.95601277  0.08380966  1
  H  H74  1  0.01299370  0.45601277  0.58380966  1
  H  H75  1  0.98700630  0.54398723  0.41619034  1
  C  C76  1  0.25955332  0.64012719  0.94963750  1
  C  C77  1  0.74044668  0.35987281  0.05036250  1
  C  C78  1  0.75955332  0.85987281  0.55036250  1
  C  C79  1  0.24044668  0.14012719  0.44963750  1
  C  C80  1  0.21345691  0.46806351  0.91136225  1
  C  C81  1  0.78654309  0.53193649  0.08863775  1
  C  C82  1  0.71345691  0.03193649  0.58863775  1
  C  C83  1  0.28654309  0.96806351  0.41136225  1
  C  C84  1  0.24748237  0.76839312  0.61569292  1
  C  C85  1  0.75251763  0.23160688  0.38430708  1
  C  C86  1  0.74748237  0.73160688  0.88430708  1
  C  C87  1  0.25251763  0.26839312  0.11569292  1
  C  C88  1  0.20190335  0.94157559  0.65104879  1
  C  C89  1  0.79809665  0.05842441  0.34895121  1
  C  C90  1  0.70190335  0.55842441  0.84895121  1
  C  C91  1  0.29809665  0.44157559  0.15104879  1
  C  C92  1  0.19188515  0.84350138  0.75220861  1
  C  C93  1  0.80811485  0.15649862  0.24779139  1
  C  C94  1  0.69188515  0.65649862  0.74779139  1
  C  C95  1  0.30811485  0.34350138  0.25220861  1
  C  C96  1  0.68728741  0.93028343  0.68605894  1
  C  C97  1  0.31271259  0.06971657  0.31394106  1
  C  C98  1  0.18728741  0.56971657  0.81394106  1
  C  C99  1  0.81271259  0.43028343  0.18605894  1
  N  N100  1  0.22097956  0.76406150  0.69463197  1
  N  N101  1  0.77902044  0.23593850  0.30536803  1
  N  N102  1  0.72097956  0.73593850  0.80536803  1
  N  N103  1  0.27902044  0.26406150  0.19463197  1
  N  N104  1  0.18243636  0.48016752  0.83452265  1
  N  N105  1  0.81756364  0.51983248  0.16547735  1
  N  N106  1  0.68243636  0.01983248  0.66547735  1
  N  N107  1  0.31756364  0.98016752  0.33452265  1
  N  N108  1  0.18496582  0.93265322  0.72951190  1
  N  N109  1  0.81503418  0.06734678  0.27048810  1
  N  N110  1  0.68496582  0.56734678  0.77048810  1
  N  N111  1  0.31503418  0.43265322  0.22951190  1
  N  N112  1  0.23560320  0.85945581  0.59590170  1
  N  N113  1  0.76439680  0.14054419  0.40409830  1
  N  N114  1  0.73560320  0.64054419  0.90409830  1
  N  N115  1  0.26439680  0.35945581  0.09590170  1
  N  N116  1  0.22757508  0.64812192  0.87150819  1
  N  N117  1  0.77242492  0.35187808  0.12849181  1
  N  N118  1  0.72757508  0.85187808  0.62849181  1
  N  N119  1  0.27242492  0.14812192  0.37150819  1
  N  N120  1  0.25026468  0.54857404  0.96766424  1
  N  N121  1  0.74973532  0.45142596  0.03233576  1
  N  N122  1  0.75026468  0.95142596  0.53233576  1
  N  N123  1  0.24973532  0.04857404  0.46766424  1
  O  O124  1  0.39200453  0.13472466  0.75922511  1
  O  O125  1  0.60799547  0.86527534  0.24077489  1
  O  O126  1  0.89200453  0.36527534  0.74077489  1
  O  O127  1  0.10799547  0.63472466  0.25922511  1
  O  O128  1  0.49826014  0.50199596  0.40100276  1
  O  O129  1  0.50173986  0.49800404  0.59899724  1
  O  O130  1  0.99826014  0.99800404  0.09899724  1
  O  O131  1  0.00173986  0.00199596  0.90100276  1
  O  O132  1  0.16849943  0.25339180  0.66086066  1
  O  O133  1  0.83150057  0.74660820  0.33913934  1
  O  O134  1  0.66849943  0.24660820  0.83913934  1
  O  O135  1  0.33150057  0.75339180  0.16086066  1
  O  O136  1  0.19123087  0.18682858  0.90894278  1
  O  O137  1  0.80876913  0.81317142  0.09105722  1
  O  O138  1  0.69123087  0.31317142  0.59105722  1
  O  O139  1  0.30876913  0.68682858  0.40894278  1
  O  O140  1  0.65739481  0.91412232  0.75589659  1
  O  O141  1  0.34260519  0.08587768  0.24410341  1
  O  O142  1  0.15739481  0.58587768  0.74410341  1
  O  O143  1  0.84260519  0.41412232  0.25589659  1
  O  O144  1  0.68920044  0.08977236  0.98431369  1
  O  O145  1  0.31079956  0.91022764  0.01568631  1
  O  O146  1  0.18920044  0.41022764  0.51568631  1
  O  O147  1  0.81079956  0.58977236  0.48431369  1
  O  O148  1  0.45063451  0.37185448  0.72852498  1
  O  O149  1  0.54936549  0.62814552  0.27147502  1
  O  O150  1  0.95063451  0.12814552  0.77147502  1
  O  O151  1  0.04936549  0.87185448  0.22852498  1
  O  O152  1  0.27906398  0.69527277  0.56701786  1
  O  O153  1  0.72093602  0.30472723  0.43298214  1
  O  O154  1  0.77906398  0.80472723  0.93298214  1
  O  O155  1  0.22093602  0.19527277  0.06701786  1
  O  O156  1  0.18966204  0.02069149  0.62570583  1
  O  O157  1  0.81033796  0.97930851  0.37429417  1
  O  O158  1  0.68966204  0.47930851  0.87429417  1
  O  O159  1  0.31033796  0.52069149  0.12570583  1
  O  O160  1  0.21038652  0.38737386  0.93451531  1
  O  O161  1  0.78961348  0.61262614  0.06548469  1
  O  O162  1  0.71038652  0.11262614  0.56548469  1
  O  O163  1  0.28961348  0.88737386  0.43451531  1
  O  O164  1  0.17314131  0.82952132  0.82295673  1
  O  O165  1  0.82685869  0.17047868  0.17704327  1
  O  O166  1  0.67314131  0.67047868  0.67704327  1
  O  O167  1  0.32685869  0.32952132  0.32295673  1
  O  O168  1  0.29508719  0.71125552  0.00007418  1
  O  O169  1  0.70491281  0.28874448  0.99992582  1
  O  O170  1  0.79508719  0.78874448  0.49992582  1
  O  O171  1  0.20491281  0.21125552  0.50007418  1
  O  O172  1  0.42856208  0.00110514  0.87984364  1
  O  O173  1  0.57143792  0.99889486  0.12015636  1
  O  O174  1  0.92856208  0.49889486  0.62015636  1
  O  O175  1  0.07143792  0.50110514  0.37984364  1
