# generated using pymatgen
data_Cu2(ReSe2)3
_symmetry_space_group_name_H-M   'P 1'
_cell_length_a   9.75120020
_cell_length_b   9.75120020
_cell_length_c   12.21419036
_cell_angle_alpha   85.27615832
_cell_angle_beta   85.27615832
_cell_angle_gamma   61.49698841
_symmetry_Int_Tables_number   1
_chemical_formula_structural   Cu2(ReSe2)3
_chemical_formula_sum   'Cu8 Re12 Se24'
_cell_volume   1015.93008993
_cell_formula_units_Z   4
loop_
 _symmetry_equiv_pos_site_id
 _symmetry_equiv_pos_as_xyz
  1  'x, y, z'
loop_
 _atom_site_type_symbol
 _atom_site_label
 _atom_site_symmetry_multiplicity
 _atom_site_fract_x
 _atom_site_fract_y
 _atom_site_fract_z
 _atom_site_occupancy
  Cu  Cu0  1  0.58383000  0.41617000  0.75000000  1
  Cu  Cu1  1  0.41617000  0.58383000  0.25000000  1
  Cu  Cu2  1  0.67256400  0.12121200  0.90563800  1
  Cu  Cu3  1  0.32743600  0.87878800  0.09436200  1
  Cu  Cu4  1  0.87878800  0.32743600  0.59436200  1
  Cu  Cu5  1  0.12121200  0.67256400  0.40563800  1
  Cu  Cu6  1  0.84496300  0.15503700  0.75000000  1
  Cu  Cu7  1  0.15503700  0.84496300  0.25000000  1
  Re  Re8  1  0.48157400  0.11258300  0.62247900  1
  Re  Re9  1  0.51842600  0.88741700  0.37752100  1
  Re  Re10  1  0.88741700  0.51842600  0.87752100  1
  Re  Re11  1  0.11258300  0.48157400  0.12247900  1
  Re  Re12  1  0.59205400  0.81178300  0.58617200  1
  Re  Re13  1  0.40794600  0.18821700  0.41382800  1
  Re  Re14  1  0.18821700  0.40794600  0.91382800  1
  Re  Re15  1  0.81178300  0.59205400  0.08617200  1
  Re  Re16  1  0.30179500  0.01963400  0.53747600  1
  Re  Re17  1  0.69820500  0.98036600  0.46252400  1
  Re  Re18  1  0.98036600  0.69820500  0.96252400  1
  Re  Re19  1  0.01963400  0.30179500  0.03747600  1
  Se  Se20  1  0.38427400  0.93999400  0.73555300  1
  Se  Se21  1  0.61572600  0.06000600  0.26444700  1
  Se  Se22  1  0.06000600  0.61572600  0.76444700  1
  Se  Se23  1  0.93999400  0.38427400  0.23555300  1
  Se  Se24  1  0.45757600  0.26961500  0.79795200  1
  Se  Se25  1  0.54242400  0.73038500  0.20204800  1
  Se  Se26  1  0.73038500  0.54242400  0.70204800  1
  Se  Se27  1  0.26961500  0.45757600  0.29795200  1
  Se  Se28  1  0.75798500  0.91501000  0.66375000  1
  Se  Se29  1  0.24201500  0.08499000  0.33625000  1
  Se  Se30  1  0.08499000  0.24201500  0.83625000  1
  Se  Se31  1  0.91501000  0.75798500  0.16375000  1
  Se  Se32  1  0.58822100  0.26865300  0.49862300  1
  Se  Se33  1  0.41177900  0.73134700  0.50137700  1
  Se  Se34  1  0.73134700  0.41177900  0.00137700  1
  Se  Se35  1  0.26865300  0.58822100  0.99862300  1
  Se  Se36  1  0.69161200  0.79515000  0.93002200  1
  Se  Se37  1  0.30838800  0.20485000  0.06997800  1
  Se  Se38  1  0.20485000  0.30838800  0.56997800  1
  Se  Se39  1  0.79515000  0.69161200  0.43002200  1
  Se  Se40  1  0.02323100  0.05783600  0.58406400  1
  Se  Se41  1  0.97676900  0.94216400  0.41593600  1
  Se  Se42  1  0.94216400  0.97676900  0.91593600  1
  Se  Se43  1  0.05783600  0.02323100  0.08406400  1
