# generated using pymatgen
data_GdZr6(PO4)9
_symmetry_space_group_name_H-M   'P 1'
_cell_length_a   8.93088004
_cell_length_b   8.93088004
_cell_length_c   23.13728800
_cell_angle_alpha   90.00000000
_cell_angle_beta   90.00000000
_cell_angle_gamma   120.00000027
_symmetry_Int_Tables_number   1
_chemical_formula_structural   GdZr6(PO4)9
_chemical_formula_sum   'Gd2 Zr12 P18 O72'
_cell_volume   1598.20172289
_cell_formula_units_Z   2
loop_
 _symmetry_equiv_pos_site_id
 _symmetry_equiv_pos_as_xyz
  1  'x, y, z'
loop_
 _atom_site_type_symbol
 _atom_site_label
 _atom_site_symmetry_multiplicity
 _atom_site_fract_x
 _atom_site_fract_y
 _atom_site_fract_z
 _atom_site_occupancy
  Gd  Gd0  1  0.00000000  0.00000000  0.50000000  1
  Gd  Gd1  1  0.00000000  0.00000000  0.00000000  1
  Zr  Zr2  1  0.33333300  0.66666700  0.52640400  1
  Zr  Zr3  1  0.66666700  0.33333300  0.47359600  1
  Zr  Zr4  1  0.66666700  0.33333300  0.97359600  1
  Zr  Zr5  1  0.33333300  0.66666700  0.02640400  1
  Zr  Zr6  1  0.00000000  0.00000000  0.64983600  1
  Zr  Zr7  1  0.00000000  0.00000000  0.35016400  1
  Zr  Zr8  1  0.00000000  0.00000000  0.85016400  1
  Zr  Zr9  1  0.00000000  0.00000000  0.14983600  1
  Zr  Zr10  1  0.33333300  0.66666700  0.81300900  1
  Zr  Zr11  1  0.66666700  0.33333300  0.18699100  1
  Zr  Zr12  1  0.66666700  0.33333300  0.68699100  1
  Zr  Zr13  1  0.33333300  0.66666700  0.31300900  1
  P  P14  1  0.37361000  0.32091100  0.57917700  1
  P  P15  1  0.62639000  0.67908900  0.42082300  1
  P  P16  1  0.67908900  0.05269900  0.57917700  1
  P  P17  1  0.32091100  0.37361000  0.92082300  1
  P  P18  1  0.32091100  0.94730100  0.42082300  1
  P  P19  1  0.67908900  0.62639000  0.07917700  1
  P  P20  1  0.94730100  0.62639000  0.57917700  1
  P  P21  1  0.05269900  0.67908900  0.92082300  1
  P  P22  1  0.05269900  0.37361000  0.42082300  1
  P  P23  1  0.94730100  0.32091100  0.07917700  1
  P  P24  1  0.62639000  0.94730100  0.92082300  1
  P  P25  1  0.37361000  0.05269900  0.07917700  1
  P  P26  1  0.29236100  0.00000000  0.75000000  1
  P  P27  1  0.70763900  0.00000000  0.25000000  1
  P  P28  1  0.00000000  0.29236100  0.75000000  1
  P  P29  1  0.00000000  0.70763900  0.25000000  1
  P  P30  1  0.70763900  0.70763900  0.75000000  1
  P  P31  1  0.29236100  0.29236100  0.25000000  1
  O  O32  1  0.45274200  0.28053400  0.52672200  1
  O  O33  1  0.54725800  0.71946600  0.47327800  1
  O  O34  1  0.71946600  0.17220800  0.52672200  1
  O  O35  1  0.28053400  0.45274200  0.97327800  1
  O  O36  1  0.28053400  0.82779200  0.47327800  1
  O  O37  1  0.71946600  0.54725800  0.02672200  1
  O  O38  1  0.82779200  0.54725800  0.52672200  1
  O  O39  1  0.17220800  0.71946600  0.97327800  1
  O  O40  1  0.17220800  0.45274200  0.47327800  1
  O  O41  1  0.82779200  0.28053400  0.02672200  1
  O  O42  1  0.54725800  0.82779200  0.97327800  1
  O  O43  1  0.45274200  0.17220800  0.02672200  1
  O  O44  1  0.37664900  0.49314000  0.57271800  1
  O  O45  1  0.62335100  0.50686000  0.42728200  1
  O  O46  1  0.50686000  0.88350900  0.57271800  1
  O  O47  1  0.49314000  0.37664900  0.92728200  1
  O  O48  1  0.49314000  0.11649100  0.42728200  1
  O  O49  1  0.50686000  0.62335100  0.07271800  1
  O  O50  1  0.11649100  0.62335100  0.57271800  1
  O  O51  1  0.88350900  0.50686000  0.92728200  1
  O  O52  1  0.88350900  0.37664900  0.42728200  1
  O  O53  1  0.11649100  0.49314000  0.07271800  1
  O  O54  1  0.62335100  0.11649100  0.92728200  1
  O  O55  1  0.37664900  0.88350900  0.07271800  1
  O  O56  1  0.17684000  0.17040200  0.57981400  1
  O  O57  1  0.82316000  0.82959800  0.42018600  1
  O  O58  1  0.82959800  0.00643700  0.57981400  1
  O  O59  1  0.17040200  0.17684000  0.92018600  1
  O  O60  1  0.17040200  0.99356300  0.42018600  1
  O  O61  1  0.82959800  0.82316000  0.07981400  1
  O  O62  1  0.99356300  0.82316000  0.57981400  1
  O  O63  1  0.00643700  0.82959800  0.92018600  1
  O  O64  1  0.00643700  0.17684000  0.42018600  1
  O  O65  1  0.99356300  0.17040200  0.07981400  1
  O  O66  1  0.82316000  0.99356300  0.92018600  1
  O  O67  1  0.17684000  0.00643700  0.07981400  1
  O  O68  1  0.03034500  0.20485500  0.69633400  1
  O  O69  1  0.96965500  0.79514500  0.30366600  1
  O  O70  1  0.79514500  0.82549000  0.69633400  1
  O  O71  1  0.20485500  0.03034500  0.80366600  1
  O  O72  1  0.20485500  0.17451000  0.30366600  1
  O  O73  1  0.79514500  0.96965500  0.19633400  1
  O  O74  1  0.17451000  0.96965500  0.69633400  1
  O  O75  1  0.82549000  0.79514500  0.80366600  1
  O  O76  1  0.82549000  0.03034500  0.30366600  1
  O  O77  1  0.17451000  0.20485500  0.19633400  1
  O  O78  1  0.96965500  0.17451000  0.80366600  1
  O  O79  1  0.03034500  0.82549000  0.19633400  1
  O  O80  1  0.46467300  0.32155400  0.63533700  1
  O  O81  1  0.53532700  0.67844600  0.36466300  1
  O  O82  1  0.67844600  0.14312000  0.63533700  1
  O  O83  1  0.32155400  0.46467300  0.86466300  1
  O  O84  1  0.32155400  0.85688000  0.36466300  1
  O  O85  1  0.67844600  0.53532700  0.13533700  1
  O  O86  1  0.85688000  0.53532700  0.63533700  1
  O  O87  1  0.14312000  0.67844600  0.86466300  1
  O  O88  1  0.14312000  0.46467300  0.36466300  1
  O  O89  1  0.85688000  0.32155400  0.13533700  1
  O  O90  1  0.53532700  0.85688000  0.86466300  1
  O  O91  1  0.46467300  0.14312000  0.13533700  1
  O  O92  1  0.46850200  0.15931500  0.73986200  1
  O  O93  1  0.53149800  0.84068500  0.26013800  1
  O  O94  1  0.84068500  0.30918700  0.73986200  1
  O  O95  1  0.15931500  0.46850200  0.76013800  1
  O  O96  1  0.15931500  0.69081300  0.26013800  1
  O  O97  1  0.84068500  0.53149800  0.23986200  1
  O  O98  1  0.69081300  0.53149800  0.73986200  1
  O  O99  1  0.30918700  0.84068500  0.76013800  1
  O  O100  1  0.30918700  0.46850200  0.26013800  1
  O  O101  1  0.69081300  0.15931500  0.23986200  1
  O  O102  1  0.53149800  0.69081300  0.76013800  1
  O  O103  1  0.46850200  0.30918700  0.23986200  1
