# generated using pymatgen
data_CsNa3P4(HO2)8
_symmetry_space_group_name_H-M   'P 1'
_cell_length_a   7.17145500
_cell_length_b   7.87219200
_cell_length_c   9.02618600
_cell_angle_alpha   115.85373124
_cell_angle_beta   113.40689789
_cell_angle_gamma   90.00000000
_symmetry_Int_Tables_number   1
_chemical_formula_structural   CsNa3P4(HO2)8
_chemical_formula_sum   'Cs1 Na3 P4 H8 O16'
_cell_volume   411.47086317
_cell_formula_units_Z   1
loop_
 _symmetry_equiv_pos_site_id
 _symmetry_equiv_pos_as_xyz
  1  'x, y, z'
loop_
 _atom_site_type_symbol
 _atom_site_label
 _atom_site_symmetry_multiplicity
 _atom_site_fract_x
 _atom_site_fract_y
 _atom_site_fract_z
 _atom_site_occupancy
  Cs  Cs0  1  0.81775300  0.50000000  0.00000000  1
  Na  Na1  1  0.26655200  0.22209400  0.44418700  1
  Na  Na2  1  0.82236500  0.77790600  0.55581300  1
  Na  Na3  1  0.00818200  0.00000000  0.00000000  1
  P  P4  1  0.40969200  0.40753700  0.20332900  1
  P  P5  1  0.20636400  0.59246300  0.79667100  1
  P  P6  1  0.20636400  0.20420800  0.79667100  1
  P  P7  1  0.40969200  0.79579200  0.20332900  1
  H  H8  1  0.52674100  0.75978500  0.71658700  1
  H  H9  1  0.81015500  0.24021500  0.28341300  1
  H  H10  1  0.81015500  0.04319800  0.28341300  1
  H  H11  1  0.52674100  0.95680200  0.71658700  1
  H  H12  1  0.66841600  0.36019900  0.52215500  1
  H  H13  1  0.14626000  0.63980100  0.47784500  1
  H  H14  1  0.14626000  0.83804400  0.47784500  1
  H  H15  1  0.66841600  0.16195600  0.52215500  1
  O  O16  1  0.63820700  0.28995300  0.57990500  1
  O  O17  1  0.05830200  0.71004700  0.42009500  1
  O  O18  1  0.88393100  0.13292200  0.26584400  1
  O  O19  1  0.61808700  0.86707800  0.73415600  1
  O  O20  1  0.63417500  0.44703800  0.33579500  1
  O  O21  1  0.29838000  0.55296200  0.66420500  1
  O  O22  1  0.29838000  0.11124200  0.66420500  1
  O  O23  1  0.63417500  0.88875800  0.33579500  1
  O  O24  1  0.24227900  0.30338900  0.21039600  1
  O  O25  1  0.03188400  0.69661100  0.78960400  1
  O  O26  1  0.03188400  0.09299300  0.78960400  1
  O  O27  1  0.24227900  0.90700700  0.21039600  1
  O  O28  1  0.12564100  0.39369800  0.78739500  1
  O  O29  1  0.33824600  0.60630200  0.21260500  1
  O  O30  1  0.40462300  0.29985000  0.00000000  1
  O  O31  1  0.40462300  0.70015000  0.00000000  1
