# generated using pymatgen
data_CuC5O8
_symmetry_space_group_name_H-M   'P 1'
_cell_length_a   8.87997200
_cell_length_b   11.56832700
_cell_length_c   16.49498100
_cell_angle_alpha   90.00000000
_cell_angle_beta   90.00000000
_cell_angle_gamma   90.00000000
_symmetry_Int_Tables_number   1
_chemical_formula_structural   CuC5O8
_chemical_formula_sum   'Cu8 C40 O64'
_cell_volume   1694.47034357
_cell_formula_units_Z   8
loop_
 _symmetry_equiv_pos_site_id
 _symmetry_equiv_pos_as_xyz
  1  'x, y, z'
loop_
 _atom_site_type_symbol
 _atom_site_label
 _atom_site_symmetry_multiplicity
 _atom_site_fract_x
 _atom_site_fract_y
 _atom_site_fract_z
 _atom_site_occupancy
  Cu  Cu0  1  0.09263800  0.60058100  0.79987900  1
  Cu  Cu1  1  0.90736200  0.39941900  0.20012100  1
  Cu  Cu2  1  0.40736200  0.10058100  0.20012100  1
  Cu  Cu3  1  0.90736200  0.89941900  0.29987900  1
  Cu  Cu4  1  0.59263800  0.89941900  0.79987900  1
  Cu  Cu5  1  0.09263800  0.10058100  0.70012100  1
  Cu  Cu6  1  0.59263800  0.39941900  0.70012100  1
  Cu  Cu7  1  0.40736200  0.60058100  0.29987900  1
  C  C8  1  0.03434300  0.62376200  0.62949600  1
  C  C9  1  0.96565700  0.37623800  0.37050400  1
  C  C10  1  0.46565700  0.12376200  0.37050400  1
  C  C11  1  0.96565700  0.87623800  0.12949600  1
  C  C12  1  0.53434300  0.87623800  0.62949600  1
  C  C13  1  0.03434300  0.12376200  0.87050400  1
  C  C14  1  0.53434300  0.37623800  0.87050400  1
  C  C15  1  0.46565700  0.62376200  0.12949600  1
  C  C16  1  0.01191900  0.62056300  0.54000300  1
  C  C17  1  0.98808100  0.37943700  0.45999700  1
  C  C18  1  0.48808100  0.12056300  0.45999700  1
  C  C19  1  0.98808100  0.87943700  0.04000300  1
  C  C20  1  0.51191900  0.87943700  0.54000300  1
  C  C21  1  0.01191900  0.12056300  0.95999700  1
  C  C22  1  0.51191900  0.37943700  0.95999700  1
  C  C23  1  0.48808100  0.62056300  0.04000300  1
  C  C24  1  0.28450000  0.62643900  0.57082400  1
  C  C25  1  0.71550000  0.37356100  0.42917600  1
  C  C26  1  0.21550000  0.12643900  0.42917600  1
  C  C27  1  0.71550000  0.87356100  0.07082400  1
  C  C28  1  0.78450000  0.87356100  0.57082400  1
  C  C29  1  0.28450000  0.12643900  0.92917600  1
  C  C30  1  0.78450000  0.37356100  0.92917600  1
  C  C31  1  0.21550000  0.62643900  0.07082400  1
  C  C32  1  0.33075800  0.62676100  0.00227400  1
  C  C33  1  0.66924200  0.37323900  0.99772600  1
  C  C34  1  0.16924200  0.12676100  0.99772600  1
  C  C35  1  0.66924200  0.87323900  0.50227400  1
  C  C36  1  0.83075800  0.87323900  0.00227400  1
  C  C37  1  0.33075800  0.12676100  0.49772600  1
  C  C38  1  0.83075800  0.37323900  0.49772600  1
  C  C39  1  0.16924200  0.62676100  0.50227400  1
  C  C40  1  0.19581900  0.62639900  0.64625700  1
  C  C41  1  0.80418100  0.37360100  0.35374300  1
  C  C42  1  0.30418100  0.12639900  0.35374300  1
  C  C43  1  0.80418100  0.87360100  0.14625700  1
  C  C44  1  0.69581900  0.87360100  0.64625700  1
  C  C45  1  0.19581900  0.12639900  0.85374300  1
  C  C46  1  0.69581900  0.37360100  0.85374300  1
  C  C47  1  0.30418100  0.62639900  0.14625700  1
  O  O48  1  0.39419500  0.88931400  0.50222000  1
  O  O49  1  0.60580500  0.11068600  0.49778000  1
  O  O50  1  0.10580500  0.38931400  0.49778000  1
  O  O51  1  0.60580500  0.61068600  0.00222000  1
  O  O52  1  0.89419500  0.61068600  0.50222000  1
  O  O53  1  0.39419500  0.38931400  0.99778000  1
  O  O54  1  0.89419500  0.11068600  0.99778000  1
  O  O55  1  0.10580500  0.88931400  0.00222000  1
  O  O56  1  0.24800800  0.62029700  0.71733000  1
  O  O57  1  0.75199200  0.37970300  0.28267000  1
  O  O58  1  0.25199200  0.12029700  0.28267000  1
  O  O59  1  0.75199200  0.87970300  0.21733000  1
  O  O60  1  0.74800800  0.87970300  0.71733000  1
  O  O61  1  0.24800800  0.12029700  0.78267000  1
  O  O62  1  0.74800800  0.37970300  0.78267000  1
  O  O63  1  0.25199200  0.62029700  0.21733000  1
  O  O64  1  0.42131000  0.62764700  0.56223900  1
  O  O65  1  0.57869000  0.37235300  0.43776100  1
  O  O66  1  0.07869000  0.12764700  0.43776100  1
  O  O67  1  0.57869000  0.87235300  0.06223900  1
  O  O68  1  0.92131000  0.87235300  0.56223900  1
  O  O69  1  0.42131000  0.12764700  0.93776100  1
  O  O70  1  0.92131000  0.37235300  0.93776100  1
  O  O71  1  0.07869000  0.62764700  0.06223900  1
  O  O72  1  0.30243600  0.62904000  0.93001200  1
  O  O73  1  0.69756400  0.37096000  0.06998800  1
  O  O74  1  0.19756400  0.12904000  0.06998800  1
  O  O75  1  0.69756400  0.87096000  0.43001200  1
  O  O76  1  0.80243600  0.87096000  0.93001200  1
  O  O77  1  0.30243600  0.12904000  0.56998800  1
  O  O78  1  0.80243600  0.37096000  0.56998800  1
  O  O79  1  0.19756400  0.62904000  0.43001200  1
  O  O80  1  0.43878800  0.87643100  0.68456200  1
  O  O81  1  0.56121200  0.12356900  0.31543800  1
  O  O82  1  0.06121200  0.37643100  0.31543800  1
  O  O83  1  0.56121200  0.62356900  0.18456200  1
  O  O84  1  0.93878800  0.62356900  0.68456200  1
  O  O85  1  0.43878800  0.37643100  0.81543800  1
  O  O86  1  0.93878800  0.12356900  0.81543800  1
  O  O87  1  0.06121200  0.87643100  0.18456200  1
  O  O88  1  0.09198200  0.95034500  0.69575000  1
  O  O89  1  0.90801800  0.04965500  0.30425000  1
  O  O90  1  0.40801800  0.45034500  0.30425000  1
  O  O91  1  0.90801800  0.54965500  0.19575000  1
  O  O92  1  0.59198200  0.54965500  0.69575000  1
  O  O93  1  0.09198200  0.45034500  0.80425000  1
  O  O94  1  0.59198200  0.04965500  0.80425000  1
  O  O95  1  0.40801800  0.95034500  0.19575000  1
  O  O96  1  0.04923200  0.75312900  0.83402900  1
  O  O97  1  0.95076800  0.24687100  0.16597100  1
  O  O98  1  0.45076800  0.25312900  0.16597100  1
  O  O99  1  0.95076800  0.74687100  0.33402900  1
  O  O100  1  0.54923200  0.74687100  0.83402900  1
  O  O101  1  0.04923200  0.25312900  0.66597100  1
  O  O102  1  0.54923200  0.24687100  0.66597100  1
  O  O103  1  0.45076800  0.75312900  0.33402900  1
  O  O104  1  0.49403200  0.81808300  0.88722400  1
  O  O105  1  0.50596800  0.18191700  0.11277600  1
  O  O106  1  0.00596800  0.31808300  0.11277600  1
  O  O107  1  0.50596800  0.68191700  0.38722400  1
  O  O108  1  0.99403200  0.68191700  0.88722400  1
  O  O109  1  0.49403200  0.31808300  0.61277600  1
  O  O110  1  0.99403200  0.18191700  0.61277600  1
  O  O111  1  0.00596800  0.81808300  0.38722400  1
