# generated using pymatgen
data_Eu8Ni18P11
_symmetry_space_group_name_H-M   'P 1'
_cell_length_a   3.93471350
_cell_length_b   18.31918617
_cell_length_c   18.31918617
_cell_angle_alpha   120.00000039
_cell_angle_beta   90.00000000
_cell_angle_gamma   90.00000000
_symmetry_Int_Tables_number   1
_chemical_formula_structural   Eu8Ni18P11
_chemical_formula_sum   'Eu16 Ni36 P22'
_cell_volume   1143.55247384
_cell_formula_units_Z   2
loop_
 _symmetry_equiv_pos_site_id
 _symmetry_equiv_pos_as_xyz
  1  'x, y, z'
loop_
 _atom_site_type_symbol
 _atom_site_label
 _atom_site_symmetry_multiplicity
 _atom_site_fract_x
 _atom_site_fract_y
 _atom_site_fract_z
 _atom_site_occupancy
  Eu  Eu0  1  0.50000000  0.52379935  0.04759870  1
  Eu  Eu1  1  0.50000000  0.52379935  0.47620065  1
  Eu  Eu2  1  0.50000000  0.95240130  0.47620065  1
  Eu  Eu3  1  0.50000000  0.73869650  0.47739301  1
  Eu  Eu4  1  0.50000000  0.73869650  0.26130350  1
  Eu  Eu5  1  0.50000000  0.52260699  0.26130350  1
  Eu  Eu6  1  0.00000000  0.21991667  0.43983335  1
  Eu  Eu7  1  -0.00000000  0.21991667  0.78008333  1
  Eu  Eu8  1  -0.00000000  0.56016665  0.78008333  1
  Eu  Eu9  1  -0.00000000  0.00012272  0.21540315  1
  Eu  Eu10  1  -0.00000000  0.21528043  0.99987728  1
  Eu  Eu11  1  -0.00000000  0.21528043  0.21540315  1
  Eu  Eu12  1  0.00000000  0.78459685  0.78471957  1
  Eu  Eu13  1  -0.00000000  0.78459685  0.99987728  1
  Eu  Eu14  1  0.00000000  0.00012272  0.78471957  1
  Eu  Eu15  1  -0.00000000  -0.00000000  0.00000000  1
  Ni  Ni16  1  0.50000000  0.29018453  0.58036905  1
  Ni  Ni17  1  0.50000000  0.29018453  0.70981547  1
  Ni  Ni18  1  0.50000000  0.41963095  0.70981547  1
  Ni  Ni19  1  0.50000000  0.92409561  0.29426318  1
  Ni  Ni20  1  0.50000000  0.37016757  0.07590439  1
  Ni  Ni21  1  0.50000000  0.37016757  0.29426318  1
  Ni  Ni22  1  0.50000000  0.70573682  0.62983243  1
  Ni  Ni23  1  0.50000000  0.70573682  0.07590439  1
  Ni  Ni24  1  0.50000000  0.92409561  0.62983243  1
  Ni  Ni25  1  0.00000000  0.60040866  0.63157464  1
  Ni  Ni26  1  -0.00000000  0.03116598  0.39959134  1
  Ni  Ni27  1  0.00000000  0.03116598  0.63157464  1
  Ni  Ni28  1  -0.00000000  0.36842536  0.96883402  1
  Ni  Ni29  1  -0.00000000  0.36842536  0.39959134  1
  Ni  Ni30  1  -0.00000000  0.60040866  0.96883402  1
  Ni  Ni31  1  0.00000000  0.81593163  0.63186326  1
  Ni  Ni32  1  -0.00000000  0.81593163  0.18406837  1
  Ni  Ni33  1  -0.00000000  0.36813674  0.18406837  1
  Ni  Ni34  1  -0.00000000  0.59337703  0.18675406  1
  Ni  Ni35  1  0.00000000  0.59337703  0.40662297  1
  Ni  Ni36  1  0.00000000  0.81324594  0.40662297  1
  Ni  Ni37  1  0.50000000  0.92672165  0.85344329  1
  Ni  Ni38  1  0.50000000  0.92672165  0.07327835  1
  Ni  Ni39  1  0.50000000  0.14655671  0.07327835  1
  Ni  Ni40  1  0.50000000  0.50077196  0.63043072  1
  Ni  Ni41  1  0.50000000  0.12965876  0.49922804  1
  Ni  Ni42  1  0.50000000  0.12965876  0.63043072  1
  Ni  Ni43  1  0.50000000  0.36956928  0.87034124  1
  Ni  Ni44  1  0.50000000  0.36956928  0.49922804  1
  Ni  Ni45  1  0.50000000  0.50077196  0.87034124  1
  Ni  Ni46  1  -0.00000000  0.38406285  0.76812569  1
  Ni  Ni47  1  0.00000000  0.38406285  0.61593715  1
  Ni  Ni48  1  0.00000000  0.23187431  0.61593715  1
  Ni  Ni49  1  0.50000000  0.14541276  0.29082552  1
  Ni  Ni50  1  0.50000000  0.14541276  0.85458724  1
  Ni  Ni51  1  0.50000000  0.70917448  0.85458724  1
  P  P52  1  -0.00000000  0.66666700  0.33333300  1
  P  P53  1  0.50000000  0.85435542  0.70871084  1
  P  P54  1  0.50000000  0.85435542  0.14564458  1
  P  P55  1  0.50000000  0.29128916  0.14564458  1
  P  P56  1  0.00000000  0.88367193  0.33107439  1
  P  P57  1  -0.00000000  0.44740246  0.11632807  1
  P  P58  1  -0.00000000  0.44740246  0.33107439  1
  P  P59  1  0.00000000  0.66892561  0.55259754  1
  P  P60  1  -0.00000000  0.66892561  0.11632807  1
  P  P61  1  0.00000000  0.88367193  0.55259754  1
  P  P62  1  0.00000000  0.45198378  0.90396757  1
  P  P63  1  -0.00000000  0.45198378  0.54801622  1
  P  P64  1  -0.00000000  0.09603243  0.54801622  1
  P  P65  1  0.50000000  0.64057472  0.71143217  1
  P  P66  1  0.50000000  0.07085744  0.35942528  1
  P  P67  1  0.50000000  0.07085744  0.71143217  1
  P  P68  1  0.50000000  0.28856783  0.92914256  1
  P  P69  1  0.50000000  0.28856783  0.35942528  1
  P  P70  1  0.50000000  0.64057472  0.92914256  1
  P  P71  1  0.50000000  0.07245873  0.14491747  1
  P  P72  1  0.50000000  0.07245873  0.92754127  1
  P  P73  1  0.50000000  0.85508253  0.92754127  1
