# generated using pymatgen
data_CuHS(NO)4
_symmetry_space_group_name_H-M   'P 1'
_cell_length_a   8.33811700
_cell_length_b   9.19298600
_cell_length_c   10.41869900
_cell_angle_alpha   90.00000000
_cell_angle_beta   90.00000000
_cell_angle_gamma   90.00000000
_symmetry_Int_Tables_number   1
_chemical_formula_structural   CuHS(NO)4
_chemical_formula_sum   'Cu4 H4 S4 N16 O16'
_cell_volume   798.61612497
_cell_formula_units_Z   4
loop_
 _symmetry_equiv_pos_site_id
 _symmetry_equiv_pos_as_xyz
  1  'x, y, z'
loop_
 _atom_site_type_symbol
 _atom_site_label
 _atom_site_symmetry_multiplicity
 _atom_site_fract_x
 _atom_site_fract_y
 _atom_site_fract_z
 _atom_site_occupancy
  Cu  Cu0  1  0.25000000  0.62894900  0.04689400  1
  Cu  Cu1  1  0.75000000  0.37105100  0.95310600  1
  Cu  Cu2  1  0.75000000  0.12895000  0.45310600  1
  Cu  Cu3  1  0.25000000  0.87105100  0.54689400  1
  H  H4  1  0.25000000  0.68915700  0.18122300  1
  H  H5  1  0.75000000  0.31084300  0.81877700  1
  H  H6  1  0.75000000  0.18915700  0.31877700  1
  H  H7  1  0.25000000  0.81084300  0.68122300  1
  S  S8  1  0.25000000  0.04803800  0.27995300  1
  S  S9  1  0.75000000  0.95196200  0.72004700  1
  S  S10  1  0.75000000  0.54803800  0.22004700  1
  S  S11  1  0.25000000  0.45196200  0.77995300  1
  N  N12  1  0.44677500  0.31121500  0.48895100  1
  N  N13  1  0.55322500  0.68878500  0.51104900  1
  N  N14  1  0.55322500  0.81121500  0.01104900  1
  N  N15  1  0.94677500  0.68878500  0.51104900  1
  N  N16  1  0.44677500  0.18878500  0.98895100  1
  N  N17  1  0.05322500  0.31121500  0.48895100  1
  N  N18  1  0.05322500  0.18878500  0.98895100  1
  N  N19  1  0.94677500  0.81121500  0.01104900  1
  N  N20  1  0.55052100  0.26480000  0.98303700  1
  N  N21  1  0.44947900  0.73520000  0.01696300  1
  N  N22  1  0.44947900  0.76480000  0.51696300  1
  N  N23  1  0.05052100  0.73520000  0.01696300  1
  N  N24  1  0.55052100  0.23520000  0.48303700  1
  N  N25  1  0.94947900  0.26480000  0.98303700  1
  N  N26  1  0.94947900  0.23520000  0.48303700  1
  N  N27  1  0.05052100  0.76480000  0.51696300  1
  O  O28  1  0.10351500  0.98183600  0.22742700  1
  O  O29  1  0.89648500  0.01816400  0.77257300  1
  O  O30  1  0.89648500  0.48183600  0.27257300  1
  O  O31  1  0.60351500  0.01816400  0.77257300  1
  O  O32  1  0.10351500  0.51816400  0.72742700  1
  O  O33  1  0.39648500  0.98183600  0.22742700  1
  O  O34  1  0.39648500  0.51816400  0.72742700  1
  O  O35  1  0.60351500  0.48183600  0.27257300  1
  O  O36  1  0.25000000  0.01917400  0.42754400  1
  O  O37  1  0.75000000  0.98082600  0.57245600  1
  O  O38  1  0.75000000  0.51917400  0.07245600  1
  O  O39  1  0.25000000  0.48082600  0.92754400  1
  O  O40  1  0.25000000  0.20776500  0.27137700  1
  O  O41  1  0.75000000  0.79223500  0.72862300  1
  O  O42  1  0.75000000  0.70776500  0.22862300  1
  O  O43  1  0.25000000  0.29223500  0.77137700  1
