# generated using pymatgen
data_CsCoPO4
_symmetry_space_group_name_H-M   'P 1'
_cell_length_a   5.51902400
_cell_length_b   9.34741500
_cell_length_c   9.63819200
_cell_angle_alpha   90.00000000
_cell_angle_beta   90.00000000
_cell_angle_gamma   90.00000000
_symmetry_Int_Tables_number   1
_chemical_formula_structural   CsCoPO4
_chemical_formula_sum   'Cs4 Co4 P4 O16'
_cell_volume   497.22090625
_cell_formula_units_Z   4
loop_
 _symmetry_equiv_pos_site_id
 _symmetry_equiv_pos_as_xyz
  1  'x, y, z'
loop_
 _atom_site_type_symbol
 _atom_site_label
 _atom_site_symmetry_multiplicity
 _atom_site_fract_x
 _atom_site_fract_y
 _atom_site_fract_z
 _atom_site_occupancy
  Cs  Cs0  1  0.50023100  0.00313200  0.30002100  1
  Cs  Cs1  1  0.00023100  0.99686800  0.69997900  1
  Cs  Cs2  1  0.50023100  0.50313200  0.19997900  1
  Cs  Cs3  1  0.00023100  0.49686800  0.80002100  1
  Co  Co4  1  0.99401100  0.32615500  0.41840700  1
  Co  Co5  1  0.49401100  0.67384500  0.58159300  1
  Co  Co6  1  0.99401100  0.82615500  0.08159300  1
  Co  Co7  1  0.49401100  0.17384500  0.91840700  1
  P  P8  1  0.99479900  0.19797100  0.08880100  1
  P  P9  1  0.49479900  0.80202900  0.91119900  1
  P  P10  1  0.99479900  0.69797100  0.41119900  1
  P  P11  1  0.49479900  0.30202900  0.58880100  1
  O  O12  1  0.31345800  0.25327500  0.47368900  1
  O  O13  1  0.81345800  0.74672500  0.52631100  1
  O  O14  1  0.31345800  0.75327500  0.02631100  1
  O  O15  1  0.81345800  0.24672500  0.97368900  1
  O  O16  1  0.25261900  0.25349400  0.04860700  1
  O  O17  1  0.75261900  0.74650600  0.95139300  1
  O  O18  1  0.25261900  0.75349400  0.45139300  1
  O  O19  1  0.75261900  0.24650600  0.54860700  1
  O  O20  1  0.99672600  0.03418800  0.10322700  1
  O  O21  1  0.49672600  0.96581200  0.89677300  1
  O  O22  1  0.99672600  0.53418800  0.39677300  1
  O  O23  1  0.49672600  0.46581200  0.60322700  1
  O  O24  1  0.41515500  0.23295800  0.72744600  1
  O  O25  1  0.91515500  0.76704200  0.27255400  1
  O  O26  1  0.41515500  0.73295800  0.77255400  1
  O  O27  1  0.91515500  0.26704200  0.22744600  1
