# generated using pymatgen
data_CsEr(MoO4)2
_symmetry_space_group_name_H-M   'P 1'
_cell_length_a   7.58640356
_cell_length_b   7.58640356
_cell_length_c   7.77787429
_cell_angle_alpha   62.08060457
_cell_angle_beta   62.08060457
_cell_angle_gamma   88.58511734
_symmetry_Int_Tables_number   1
_chemical_formula_structural   CsEr(MoO4)2
_chemical_formula_sum   'Cs2 Er2 Mo4 O16'
_cell_volume   338.47940240
_cell_formula_units_Z   2
loop_
 _symmetry_equiv_pos_site_id
 _symmetry_equiv_pos_as_xyz
  1  'x, y, z'
loop_
 _atom_site_type_symbol
 _atom_site_label
 _atom_site_symmetry_multiplicity
 _atom_site_fract_x
 _atom_site_fract_y
 _atom_site_fract_z
 _atom_site_occupancy
  Cs  Cs0  1  0.19702200  0.80297800  0.75000000  1
  Cs  Cs1  1  0.80297800  0.19702200  0.25000000  1
  Er  Er2  1  0.77083300  0.22916700  0.75000000  1
  Er  Er3  1  0.22916700  0.77083300  0.25000000  1
  Mo  Mo4  1  0.69662300  0.69317700  0.76657700  1
  Mo  Mo5  1  0.30337700  0.30682300  0.23342300  1
  Mo  Mo6  1  0.30682300  0.30337700  0.73342300  1
  Mo  Mo7  1  0.69317700  0.69662300  0.26657700  1
  O  O8  1  0.61727700  0.75904700  0.56579600  1
  O  O9  1  0.38272300  0.24095300  0.43420400  1
  O  O10  1  0.24095300  0.38272300  0.93420400  1
  O  O11  1  0.75904700  0.61727700  0.06579600  1
  O  O12  1  0.38040200  0.06720700  0.87813200  1
  O  O13  1  0.61959800  0.93279300  0.12186800  1
  O  O14  1  0.93279300  0.61959800  0.62186800  1
  O  O15  1  0.06720700  0.38040200  0.37813200  1
  O  O16  1  0.58557200  0.36856100  0.96602600  1
  O  O17  1  0.41442800  0.63143900  0.03397400  1
  O  O18  1  0.63143900  0.41442800  0.53397400  1
  O  O19  1  0.36856100  0.58557200  0.46602600  1
  O  O20  1  0.78769700  0.94974200  0.69901300  1
  O  O21  1  0.21230300  0.05025800  0.30098700  1
  O  O22  1  0.05025800  0.21230300  0.80098700  1
  O  O23  1  0.94974200  0.78769700  0.19901300  1
