# generated using pymatgen
data_Cs2LaNb2O7
_symmetry_space_group_name_H-M   'P 1'
_cell_length_a   12.25729699
_cell_length_b   12.25729699
_cell_length_c   5.79406700
_cell_angle_alpha   90.00000000
_cell_angle_beta   90.00000000
_cell_angle_gamma   152.60382493
_symmetry_Int_Tables_number   1
_chemical_formula_structural   Cs2LaNb2O7
_chemical_formula_sum   'Cs4 La2 Nb4 O14'
_cell_volume   400.55615143
_cell_formula_units_Z   2
loop_
 _symmetry_equiv_pos_site_id
 _symmetry_equiv_pos_as_xyz
  1  'x, y, z'
loop_
 _atom_site_type_symbol
 _atom_site_label
 _atom_site_symmetry_multiplicity
 _atom_site_fract_x
 _atom_site_fract_y
 _atom_site_fract_z
 _atom_site_occupancy
  Cs  Cs0  1  0.92810600  0.54370800  0.75000000  1
  Cs  Cs1  1  0.07189400  0.45629200  0.25000000  1
  Cs  Cs2  1  0.54370800  0.92810600  0.75000000  1
  Cs  Cs3  1  0.45629200  0.07189400  0.25000000  1
  La  La4  1  0.73721500  0.73721500  0.75000000  1
  La  La5  1  0.26278500  0.26278500  0.25000000  1
  Nb  Nb6  1  0.16084500  0.33767600  0.75000000  1
  Nb  Nb7  1  0.83915500  0.66232400  0.25000000  1
  Nb  Nb8  1  0.33767600  0.16084500  0.75000000  1
  Nb  Nb9  1  0.66232400  0.83915500  0.25000000  1
  O  O10  1  0.30912600  0.30912600  0.75000000  1
  O  O11  1  0.69087400  0.69087400  0.25000000  1
  O  O12  1  0.93140100  0.06859900  0.50000000  1
  O  O13  1  0.06859900  0.93140100  0.50000000  1
  O  O14  1  0.06859900  0.93140100  0.00000000  1
  O  O15  1  0.93140100  0.06859900  0.00000000  1
  O  O16  1  0.05930500  0.39377800  0.75000000  1
  O  O17  1  0.94069500  0.60622200  0.25000000  1
  O  O18  1  0.39377800  0.05930500  0.75000000  1
  O  O19  1  0.60622200  0.94069500  0.25000000  1
  O  O20  1  0.58340800  0.41659200  0.50000000  1
  O  O21  1  0.41659200  0.58340800  0.50000000  1
  O  O22  1  0.41659200  0.58340800  0.00000000  1
  O  O23  1  0.58340800  0.41659200  0.00000000  1
