# generated using pymatgen
data_Cr5Te8
_symmetry_space_group_name_H-M   'P 1'
_cell_length_a   7.95611054
_cell_length_b   7.95611054
_cell_length_c   5.98590400
_cell_angle_alpha   90.00000000
_cell_angle_beta   90.00000000
_cell_angle_gamma   120.00000450
_symmetry_Int_Tables_number   1
_chemical_formula_structural   Cr5Te8
_chemical_formula_sum   'Cr5 Te8'
_cell_volume   328.14211770
_cell_formula_units_Z   1
loop_
 _symmetry_equiv_pos_site_id
 _symmetry_equiv_pos_as_xyz
  1  'x, y, z'
loop_
 _atom_site_type_symbol
 _atom_site_label
 _atom_site_symmetry_multiplicity
 _atom_site_fract_x
 _atom_site_fract_y
 _atom_site_fract_z
 _atom_site_occupancy
  Cr  Cr0  1  0.50000000  0.50000000  0.00000000  1
  Cr  Cr1  1  0.50000000  0.00000000  0.00000000  1
  Cr  Cr2  1  0.00000000  0.50000000  0.00000000  1
  Cr  Cr3  1  0.00000000  0.00000000  0.50000000  1
  Cr  Cr4  1  0.00000000  0.00000000  0.00000000  1
  Te  Te5  1  0.66666700  0.33333300  0.24378000  1
  Te  Te6  1  0.33333300  0.66666700  0.75622000  1
  Te  Te7  1  0.16734000  0.33467900  0.24897700  1
  Te  Te8  1  0.83266000  0.66532100  0.75102300  1
  Te  Te9  1  0.66532100  0.83266000  0.24897700  1
  Te  Te10  1  0.83266000  0.16734000  0.75102300  1
  Te  Te11  1  0.33467900  0.16734000  0.75102300  1
  Te  Te12  1  0.16734000  0.83266000  0.24897700  1
