# generated using pymatgen
data_Cs3IrBr6O
_symmetry_space_group_name_H-M   'P 1'
_cell_length_a   7.63702100
_cell_length_b   13.41338900
_cell_length_c   15.95244500
_cell_angle_alpha   90.00000000
_cell_angle_beta   90.00000000
_cell_angle_gamma   90.00000000
_symmetry_Int_Tables_number   1
_chemical_formula_structural   Cs3IrBr6O
_chemical_formula_sum   'Cs12 Ir4 Br24 O4'
_cell_volume   1634.14188064
_cell_formula_units_Z   4
loop_
 _symmetry_equiv_pos_site_id
 _symmetry_equiv_pos_as_xyz
  1  'x, y, z'
loop_
 _atom_site_type_symbol
 _atom_site_label
 _atom_site_symmetry_multiplicity
 _atom_site_fract_x
 _atom_site_fract_y
 _atom_site_fract_z
 _atom_site_occupancy
  Cs  Cs0  1  0.25000000  0.88735900  0.53884500  1
  Cs  Cs1  1  0.75000000  0.11264100  0.46115500  1
  Cs  Cs2  1  0.75000000  0.61264100  0.03884500  1
  Cs  Cs3  1  0.25000000  0.38735900  0.96115500  1
  Cs  Cs4  1  0.25000000  0.55956100  0.64336300  1
  Cs  Cs5  1  0.75000000  0.44043900  0.35663700  1
  Cs  Cs6  1  0.75000000  0.94043900  0.14336300  1
  Cs  Cs7  1  0.25000000  0.05956100  0.85663700  1
  Cs  Cs8  1  0.25000000  0.66576600  0.27381700  1
  Cs  Cs9  1  0.75000000  0.33423400  0.72618300  1
  Cs  Cs10  1  0.75000000  0.83423400  0.77381700  1
  Cs  Cs11  1  0.25000000  0.16576600  0.22618300  1
  Ir  Ir12  1  0.25000000  0.72445200  0.90496000  1
  Ir  Ir13  1  0.75000000  0.27554800  0.09504000  1
  Ir  Ir14  1  0.75000000  0.77554800  0.40496000  1
  Ir  Ir15  1  0.25000000  0.22445200  0.59504000  1
  Br  Br16  1  0.01960300  0.60718800  0.84930200  1
  Br  Br17  1  0.98039700  0.39281200  0.15069800  1
  Br  Br18  1  0.98039700  0.89281200  0.34930200  1
  Br  Br19  1  0.51960300  0.39281200  0.15069800  1
  Br  Br20  1  0.01960300  0.10718800  0.65069800  1
  Br  Br21  1  0.48039700  0.60718800  0.84930200  1
  Br  Br22  1  0.48039700  0.10718800  0.65069800  1
  Br  Br23  1  0.51960300  0.89281200  0.34930200  1
  Br  Br24  1  0.25000000  0.63716500  0.04425200  1
  Br  Br25  1  0.75000000  0.36283500  0.95574800  1
  Br  Br26  1  0.75000000  0.86283500  0.54425200  1
  Br  Br27  1  0.25000000  0.13716500  0.45574800  1
  Br  Br28  1  0.02099500  0.84136500  0.96072600  1
  Br  Br29  1  0.97900500  0.15863500  0.03927400  1
  Br  Br30  1  0.97900500  0.65863500  0.46072600  1
  Br  Br31  1  0.52099500  0.15863500  0.03927400  1
  Br  Br32  1  0.02099500  0.34136500  0.53927400  1
  Br  Br33  1  0.47900500  0.84136500  0.96072600  1
  Br  Br34  1  0.47900500  0.34136500  0.53927400  1
  Br  Br35  1  0.52099500  0.65863500  0.46072600  1
  Br  Br36  1  0.25000000  0.81210200  0.76352100  1
  Br  Br37  1  0.75000000  0.18789800  0.23647900  1
  Br  Br38  1  0.75000000  0.68789800  0.26352100  1
  Br  Br39  1  0.25000000  0.31210200  0.73647900  1
  O  O40  1  0.25000000  0.93940000  0.16055700  1
  O  O41  1  0.75000000  0.06060000  0.83944300  1
  O  O42  1  0.75000000  0.56060000  0.66055700  1
  O  O43  1  0.25000000  0.43940000  0.33944300  1
