# generated using pymatgen
data_Cs2TeSO10
_symmetry_space_group_name_H-M   'P 1'
_cell_length_a   7.64300300
_cell_length_b   12.73359600
_cell_length_c   12.80085000
_cell_angle_alpha   69.86308695
_cell_angle_beta   90.00000000
_cell_angle_gamma   90.00000000
_symmetry_Int_Tables_number   1
_chemical_formula_structural   Cs2TeSO10
_chemical_formula_sum   'Cs8 Te4 S4 O40'
_cell_volume   1169.66257640
_cell_formula_units_Z   4
loop_
 _symmetry_equiv_pos_site_id
 _symmetry_equiv_pos_as_xyz
  1  'x, y, z'
loop_
 _atom_site_type_symbol
 _atom_site_label
 _atom_site_symmetry_multiplicity
 _atom_site_fract_x
 _atom_site_fract_y
 _atom_site_fract_z
 _atom_site_occupancy
  Cs  Cs0  1  0.47151000  0.38553200  0.36997500  1
  Cs  Cs1  1  0.52849000  0.61446800  0.63002500  1
  Cs  Cs2  1  0.97151000  0.11446800  0.63002500  1
  Cs  Cs3  1  0.02849000  0.88553200  0.36997500  1
  Cs  Cs4  1  0.99050400  0.64162400  0.12710300  1
  Cs  Cs5  1  0.00949600  0.35837600  0.87289700  1
  Cs  Cs6  1  0.49050400  0.85837600  0.87289700  1
  Cs  Cs7  1  0.50949600  0.14162400  0.12710300  1
  Te  Te8  1  0.00000000  0.50000000  0.50000000  1
  Te  Te9  1  0.50000000  0.00000000  0.50000000  1
  Te  Te10  1  0.00000000  0.00000000  0.00000000  1
  Te  Te11  1  0.50000000  0.50000000  0.00000000  1
  S  S12  1  0.50607100  0.75034200  0.25392900  1
  S  S13  1  0.49392900  0.24965800  0.74607100  1
  S  S14  1  0.00607100  0.74965800  0.74607100  1
  S  S15  1  0.99392900  0.25034200  0.25392900  1
  O  O16  1  0.73333900  0.93792800  0.52430300  1
  O  O17  1  0.26666100  0.06207200  0.47569700  1
  O  O18  1  0.23333900  0.56207200  0.47569700  1
  O  O19  1  0.76666100  0.43792800  0.52430300  1
  O  O20  1  0.58615500  0.65635300  0.22868600  1
  O  O21  1  0.41384500  0.34364700  0.77131400  1
  O  O22  1  0.08615500  0.84364700  0.77131400  1
  O  O23  1  0.91384500  0.15635300  0.22868600  1
  O  O24  1  0.81186900  0.76166700  0.73254400  1
  O  O25  1  0.18813100  0.23833300  0.26745600  1
  O  O26  1  0.31186900  0.73833300  0.26745600  1
  O  O27  1  0.68813100  0.26166700  0.73254400  1
  O  O28  1  0.51758600  0.85823000  0.15808300  1
  O  O29  1  0.48241400  0.14177000  0.84191700  1
  O  O30  1  0.01758600  0.64177000  0.84191700  1
  O  O31  1  0.98241400  0.35823000  0.15808300  1
  O  O32  1  0.38786500  0.59089200  0.07531900  1
  O  O33  1  0.61213500  0.40910800  0.92468100  1
  O  O34  1  0.88786500  0.90910800  0.92468100  1
  O  O35  1  0.11213500  0.09089200  0.07531900  1
  O  O36  1  0.67095300  0.61644100  0.98448400  1
  O  O37  1  0.32904700  0.38355900  0.01551600  1
  O  O38  1  0.17095300  0.88355900  0.01551600  1
  O  O39  1  0.82904700  0.11644100  0.98448400  1
  O  O40  1  0.88839900  0.89998400  0.13075900  1
  O  O41  1  0.11160100  0.10001600  0.86924100  1
  O  O42  1  0.38839900  0.60001600  0.86924100  1
  O  O43  1  0.61160100  0.39998400  0.13075900  1
  O  O44  1  0.59091200  0.75695100  0.35537400  1
  O  O45  1  0.40908800  0.24304900  0.64462600  1
  O  O46  1  0.09091200  0.74304900  0.64462600  1
  O  O47  1  0.90908800  0.25695100  0.35537400  1
  O  O48  1  0.95571800  0.64553200  0.39085800  1
  O  O49  1  0.04428200  0.35446800  0.60914200  1
  O  O50  1  0.45571800  0.85446800  0.60914200  1
  O  O51  1  0.54428200  0.14553200  0.39085800  1
  O  O52  1  0.43569000  0.94700700  0.38048400  1
  O  O53  1  0.56431000  0.05299300  0.61951600  1
  O  O54  1  0.93569000  0.55299300  0.61951600  1
  O  O55  1  0.06431000  0.44700700  0.38048400  1
