# generated using pymatgen
data_Co(O2F)2
_symmetry_space_group_name_H-M   'P 1'
_cell_length_a   4.75227600
_cell_length_b   6.77056400
_cell_length_c   11.31685100
_cell_angle_alpha   90.00000000
_cell_angle_beta   90.00000000
_cell_angle_gamma   90.00000000
_symmetry_Int_Tables_number   1
_chemical_formula_structural   Co(O2F)2
_chemical_formula_sum   'Co4 O16 F8'
_cell_volume   364.12634433
_cell_formula_units_Z   4
loop_
 _symmetry_equiv_pos_site_id
 _symmetry_equiv_pos_as_xyz
  1  'x, y, z'
loop_
 _atom_site_type_symbol
 _atom_site_label
 _atom_site_symmetry_multiplicity
 _atom_site_fract_x
 _atom_site_fract_y
 _atom_site_fract_z
 _atom_site_occupancy
  Co  Co0  1  0.29149300  0.19671500  0.12411600  1
  Co  Co1  1  0.70850700  0.69671500  0.87588400  1
  Co  Co2  1  0.70850700  0.19671500  0.62411600  1
  Co  Co3  1  0.29149300  0.69671500  0.37588400  1
  O  O4  1  0.04394000  0.00973600  0.09667300  1
  O  O5  1  0.95606000  0.50973600  0.90332700  1
  O  O6  1  0.95606000  0.00973600  0.59667300  1
  O  O7  1  0.04394000  0.50973600  0.40332700  1
  O  O8  1  0.54537000  0.38616400  0.15320700  1
  O  O9  1  0.45463000  0.88616400  0.84679300  1
  O  O10  1  0.45463000  0.38616400  0.65320700  1
  O  O11  1  0.54537000  0.88616400  0.34679300  1
  O  O12  1  0.61288200  0.19439800  0.47479300  1
  O  O13  1  0.38711800  0.69439800  0.52520700  1
  O  O14  1  0.38711800  0.19439800  0.97479300  1
  O  O15  1  0.61288200  0.69439800  0.02520700  1
  O  O16  1  0.20352300  0.20216000  0.27523100  1
  O  O17  1  0.79647700  0.70216000  0.72476900  1
  O  O18  1  0.79647700  0.20216000  0.77523100  1
  O  O19  1  0.20352300  0.70216000  0.22476900  1
  F  F20  1  0.55523800  0.00349200  0.15467200  1
  F  F21  1  0.44476200  0.50349200  0.84532800  1
  F  F22  1  0.44476200  0.00349200  0.65467200  1
  F  F23  1  0.55523800  0.50349200  0.34532800  1
  F  F24  1  0.03318300  0.39433500  0.09804400  1
  F  F25  1  0.96681700  0.89433500  0.90195600  1
  F  F26  1  0.96681700  0.39433500  0.59804400  1
  F  F27  1  0.03318300  0.89433500  0.40195600  1
