# generated using pymatgen
data_CeSiRh
_symmetry_space_group_name_H-M   'P 1'
_cell_length_a   6.31963400
_cell_length_b   6.31963400
_cell_length_c   6.31963400
_cell_angle_alpha   90.00000000
_cell_angle_beta   90.00000000
_cell_angle_gamma   90.00000000
_symmetry_Int_Tables_number   1
_chemical_formula_structural   CeSiRh
_chemical_formula_sum   'Ce4 Si4 Rh4'
_cell_volume   252.39211378
_cell_formula_units_Z   4
loop_
 _symmetry_equiv_pos_site_id
 _symmetry_equiv_pos_as_xyz
  1  'x, y, z'
loop_
 _atom_site_type_symbol
 _atom_site_label
 _atom_site_symmetry_multiplicity
 _atom_site_fract_x
 _atom_site_fract_y
 _atom_site_fract_z
 _atom_site_occupancy
  Ce  Ce0  1  0.36677500  0.36677500  0.36677500  1
  Ce  Ce1  1  0.13322500  0.63322500  0.86677500  1
  Ce  Ce2  1  0.63322500  0.86677500  0.13322500  1
  Ce  Ce3  1  0.86677500  0.13322500  0.63322500  1
  Si  Si4  1  0.67026900  0.67026900  0.67026900  1
  Si  Si5  1  0.82973100  0.32973100  0.17026900  1
  Si  Si6  1  0.32973100  0.17026900  0.82973100  1
  Si  Si7  1  0.17026900  0.82973100  0.32973100  1
  Rh  Rh8  1  0.07019900  0.07019900  0.07019900  1
  Rh  Rh9  1  0.42980100  0.92980100  0.57019900  1
  Rh  Rh10  1  0.92980100  0.57019900  0.42980100  1
  Rh  Rh11  1  0.57019900  0.42980100  0.92980100  1
