# generated using pymatgen
data_Cs2MoO8
_symmetry_space_group_name_H-M   'P 1'
_cell_length_a   9.24486200
_cell_length_b   7.30405600
_cell_length_c   14.14141422
_cell_angle_alpha   63.03497523
_cell_angle_beta   90.00000000
_cell_angle_gamma   90.00000000
_symmetry_Int_Tables_number   1
_chemical_formula_structural   Cs2MoO8
_chemical_formula_sum   'Cs8 Mo4 O32'
_cell_volume   851.08557866
_cell_formula_units_Z   4
loop_
 _symmetry_equiv_pos_site_id
 _symmetry_equiv_pos_as_xyz
  1  'x, y, z'
loop_
 _atom_site_type_symbol
 _atom_site_label
 _atom_site_symmetry_multiplicity
 _atom_site_fract_x
 _atom_site_fract_y
 _atom_site_fract_z
 _atom_site_occupancy
  Cs  Cs0  1  0.81587900  0.66388400  0.08741800  1
  Cs  Cs1  1  0.18412100  0.33611600  0.91258200  1
  Cs  Cs2  1  0.31587900  0.33611600  0.41258200  1
  Cs  Cs3  1  0.68412100  0.66388400  0.58741800  1
  Cs  Cs4  1  0.98223400  0.99537300  0.26663200  1
  Cs  Cs5  1  0.01776600  0.00462700  0.73336800  1
  Cs  Cs6  1  0.48223400  0.00462700  0.23336800  1
  Cs  Cs7  1  0.51776600  0.99537300  0.76663200  1
  Mo  Mo8  1  0.27921600  0.67251900  0.09158700  1
  Mo  Mo9  1  0.72078400  0.32748100  0.90841300  1
  Mo  Mo10  1  0.77921600  0.32748100  0.40841300  1
  Mo  Mo11  1  0.22078400  0.67251900  0.59158700  1
  O  O12  1  0.13749600  0.70948400  0.18801900  1
  O  O13  1  0.86250400  0.29051600  0.81198100  1
  O  O14  1  0.63749600  0.29051600  0.31198100  1
  O  O15  1  0.36250400  0.70948400  0.68801900  1
  O  O16  1  0.48168300  0.77630600  0.08222800  1
  O  O17  1  0.51831700  0.22369400  0.91777200  1
  O  O18  1  0.98168300  0.22369400  0.41777200  1
  O  O19  1  0.01831700  0.77630600  0.58222800  1
  O  O20  1  0.23802600  0.83866200  0.43381000  1
  O  O21  1  0.76197400  0.16133800  0.56619000  1
  O  O22  1  0.73802600  0.16133800  0.06619000  1
  O  O23  1  0.26197400  0.83866200  0.93381000  1
  O  O24  1  0.34201100  0.42067000  0.08134400  1
  O  O25  1  0.65798900  0.57933000  0.91865600  1
  O  O26  1  0.84201100  0.57933000  0.41865600  1
  O  O27  1  0.15798900  0.42067000  0.58134400  1
  O  O28  1  0.20699500  0.90803900  0.11516400  1
  O  O29  1  0.79300500  0.09196100  0.88483600  1
  O  O30  1  0.70699500  0.09196100  0.38483600  1
  O  O31  1  0.29300500  0.90803900  0.61516400  1
  O  O32  1  0.23158300  0.37122500  0.16586200  1
  O  O33  1  0.76841700  0.62877500  0.83413800  1
  O  O34  1  0.73158300  0.62877500  0.33413800  1
  O  O35  1  0.26841700  0.37122500  0.66586200  1
  O  O36  1  0.37252100  0.72087600  0.48080300  1
  O  O37  1  0.62747900  0.27912400  0.51919700  1
  O  O38  1  0.87252100  0.27912400  0.01919700  1
  O  O39  1  0.12747900  0.72087600  0.98080300  1
  O  O40  1  0.44190900  0.63070600  0.19223900  1
  O  O41  1  0.55809100  0.36929400  0.80776100  1
  O  O42  1  0.94190900  0.36929400  0.30776100  1
  O  O43  1  0.05809100  0.63070600  0.69223900  1
