# generated using pymatgen
data_Cs2Co(SO7)2
_symmetry_space_group_name_H-M   'P 1'
_cell_length_a   13.10050700
_cell_length_b   6.60730300
_cell_length_c   9.36914528
_cell_angle_alpha   74.76976058
_cell_angle_beta   90.00000000
_cell_angle_gamma   90.00000000
_symmetry_Int_Tables_number   1
_chemical_formula_structural   Cs2Co(SO7)2
_chemical_formula_sum   'Cs4 Co2 S4 O28'
_cell_volume   782.50063143
_cell_formula_units_Z   2
loop_
 _symmetry_equiv_pos_site_id
 _symmetry_equiv_pos_as_xyz
  1  'x, y, z'
loop_
 _atom_site_type_symbol
 _atom_site_label
 _atom_site_symmetry_multiplicity
 _atom_site_fract_x
 _atom_site_fract_y
 _atom_site_fract_z
 _atom_site_occupancy
  Cs  Cs0  1  0.65498700  0.84522600  0.85984500  1
  Cs  Cs1  1  0.34501300  0.15477400  0.14015500  1
  Cs  Cs2  1  0.15498700  0.15477400  0.64015500  1
  Cs  Cs3  1  0.84501300  0.84522600  0.35984500  1
  Co  Co4  1  0.50000000  0.50000000  0.50000000  1
  Co  Co5  1  0.00000000  0.50000000  0.00000000  1
  S  S6  1  0.35649800  0.75783300  0.90508100  1
  S  S7  1  0.64350200  0.24216700  0.09491900  1
  S  S8  1  0.85649800  0.24216700  0.59491900  1
  S  S9  1  0.14350200  0.75783300  0.40508100  1
  O  O10  1  0.32068700  0.56286700  0.86669500  1
  O  O11  1  0.67931300  0.43713300  0.13330500  1
  O  O12  1  0.82068700  0.43713300  0.63330500  1
  O  O13  1  0.17931300  0.56286700  0.36669500  1
  O  O14  1  0.08008900  0.71056100  0.53892100  1
  O  O15  1  0.91991100  0.28943900  0.46107900  1
  O  O16  1  0.58008900  0.28943900  0.96107900  1
  O  O17  1  0.41991100  0.71056100  0.03892100  1
  O  O18  1  0.41222000  0.34130200  0.62507000  1
  O  O19  1  0.58778000  0.65869800  0.37493000  1
  O  O20  1  0.91222000  0.65869800  0.87493000  1
  O  O21  1  0.08778000  0.34130200  0.12507000  1
  O  O22  1  0.41981100  0.85653000  0.76982600  1
  O  O23  1  0.58018900  0.14347000  0.23017400  1
  O  O24  1  0.91981100  0.14347000  0.73017400  1
  O  O25  1  0.08018900  0.85653000  0.26982600  1
  O  O26  1  0.09056200  0.43296700  0.87889700  1
  O  O27  1  0.90943800  0.56703300  0.12110300  1
  O  O28  1  0.59056200  0.56703300  0.62110300  1
  O  O29  1  0.40943800  0.43296700  0.37889700  1
  O  O30  1  0.46185400  0.75803600  0.50138900  1
  O  O31  1  0.53814600  0.24196400  0.49861100  1
  O  O32  1  0.96185400  0.24196400  0.99861100  1
  O  O33  1  0.03814600  0.75803600  0.00138900  1
  O  O34  1  0.26983700  0.89635700  0.91443200  1
  O  O35  1  0.73016300  0.10364300  0.08556800  1
  O  O36  1  0.76983700  0.10364300  0.58556800  1
  O  O37  1  0.23016300  0.89635700  0.41443200  1
