# generated using pymatgen
data_Cs2TlHCl5
_symmetry_space_group_name_H-M   'P 1'
_cell_length_a   7.57118300
_cell_length_b   11.20916500
_cell_length_c   14.66038300
_cell_angle_alpha   90.00000000
_cell_angle_beta   90.00000000
_cell_angle_gamma   90.00000000
_symmetry_Int_Tables_number   1
_chemical_formula_structural   Cs2TlHCl5
_chemical_formula_sum   'Cs8 Tl4 H4 Cl20'
_cell_volume   1244.17743888
_cell_formula_units_Z   4
loop_
 _symmetry_equiv_pos_site_id
 _symmetry_equiv_pos_as_xyz
  1  'x, y, z'
loop_
 _atom_site_type_symbol
 _atom_site_label
 _atom_site_symmetry_multiplicity
 _atom_site_fract_x
 _atom_site_fract_y
 _atom_site_fract_z
 _atom_site_occupancy
  Cs  Cs0  1  0.81588600  0.49743900  0.86282700  1
  Cs  Cs1  1  0.18411400  0.50256100  0.13717300  1
  Cs  Cs2  1  0.31588600  0.50256100  0.63717300  1
  Cs  Cs3  1  0.18411400  0.99743900  0.13717300  1
  Cs  Cs4  1  0.68411400  0.49743900  0.36282700  1
  Cs  Cs5  1  0.81588600  0.00256100  0.86282700  1
  Cs  Cs6  1  0.68411400  0.00256100  0.36282700  1
  Cs  Cs7  1  0.31588600  0.99743900  0.63717300  1
  Tl  Tl8  1  0.78936100  0.75000000  0.62164900  1
  Tl  Tl9  1  0.21063900  0.25000000  0.37835100  1
  Tl  Tl10  1  0.28936100  0.25000000  0.87835100  1
  Tl  Tl11  1  0.71063900  0.75000000  0.12164900  1
  H  H12  1  0.95247200  0.75000000  0.53150400  1
  H  H13  1  0.04752800  0.25000000  0.46849600  1
  H  H14  1  0.45247200  0.25000000  0.96849600  1
  H  H15  1  0.54752800  0.75000000  0.03150400  1
  Cl  Cl16  1  0.81031900  0.51356100  0.60777600  1
  Cl  Cl17  1  0.18968100  0.48643900  0.39222400  1
  Cl  Cl18  1  0.31031900  0.48643900  0.89222400  1
  Cl  Cl19  1  0.18968100  0.01356100  0.39222400  1
  Cl  Cl20  1  0.68968100  0.51356100  0.10777600  1
  Cl  Cl21  1  0.81031900  0.98643900  0.60777600  1
  Cl  Cl22  1  0.68968100  0.98643900  0.10777600  1
  Cl  Cl23  1  0.31031900  0.01356100  0.89222400  1
  Cl  Cl24  1  0.57657800  0.75000000  0.75058300  1
  Cl  Cl25  1  0.42342200  0.25000000  0.24941700  1
  Cl  Cl26  1  0.07657800  0.25000000  0.74941700  1
  Cl  Cl27  1  0.92342200  0.75000000  0.25058300  1
  Cl  Cl28  1  0.53555800  0.75000000  0.49710800  1
  Cl  Cl29  1  0.46444200  0.25000000  0.50289200  1
  Cl  Cl30  1  0.03555800  0.25000000  0.00289200  1
  Cl  Cl31  1  0.96444200  0.75000000  0.99710800  1
  Cl  Cl32  1  0.06969100  0.75000000  0.72934800  1
  Cl  Cl33  1  0.93030900  0.25000000  0.27065200  1
  Cl  Cl34  1  0.56969100  0.25000000  0.77065200  1
  Cl  Cl35  1  0.43030900  0.75000000  0.22934800  1
