# generated using pymatgen
data_Cs2ZrMn(PO4)3
_symmetry_space_group_name_H-M   'P 1'
_cell_length_a   10.40269400
_cell_length_b   10.40269400
_cell_length_c   10.40269400
_cell_angle_alpha   90.00000000
_cell_angle_beta   90.00000000
_cell_angle_gamma   90.00000000
_symmetry_Int_Tables_number   1
_chemical_formula_structural   Cs2ZrMn(PO4)3
_chemical_formula_sum   'Cs8 Zr4 Mn4 P12 O48'
_cell_volume   1125.73837558
_cell_formula_units_Z   4
loop_
 _symmetry_equiv_pos_site_id
 _symmetry_equiv_pos_as_xyz
  1  'x, y, z'
loop_
 _atom_site_type_symbol
 _atom_site_label
 _atom_site_symmetry_multiplicity
 _atom_site_fract_x
 _atom_site_fract_y
 _atom_site_fract_z
 _atom_site_occupancy
  Cs  Cs0  1  0.81829500  0.81829500  0.81829500  1
  Cs  Cs1  1  0.68170500  0.18170500  0.31829500  1
  Cs  Cs2  1  0.18170500  0.31829500  0.68170500  1
  Cs  Cs3  1  0.31829500  0.68170500  0.18170500  1
  Cs  Cs4  1  0.04088300  0.04088300  0.04088300  1
  Cs  Cs5  1  0.45911700  0.95911700  0.54088300  1
  Cs  Cs6  1  0.95911700  0.54088300  0.45911700  1
  Cs  Cs7  1  0.54088300  0.45911700  0.95911700  1
  Zr  Zr8  1  0.33752500  0.33752500  0.33752500  1
  Zr  Zr9  1  0.16247500  0.66247500  0.83752500  1
  Zr  Zr10  1  0.66247500  0.83752500  0.16247500  1
  Zr  Zr11  1  0.83752500  0.16247500  0.66247500  1
  Mn  Mn12  1  0.60424500  0.60424500  0.60424500  1
  Mn  Mn13  1  0.89575500  0.39575500  0.10424500  1
  Mn  Mn14  1  0.39575500  0.10424500  0.89575500  1
  Mn  Mn15  1  0.10424500  0.89575500  0.39575500  1
  P  P16  1  0.02099800  0.20593800  0.37198600  1
  P  P17  1  0.47900200  0.79406200  0.87198600  1
  P  P18  1  0.97900200  0.70593800  0.12801400  1
  P  P19  1  0.37198600  0.02099800  0.20593800  1
  P  P20  1  0.52099800  0.29406200  0.62801400  1
  P  P21  1  0.87198600  0.47900200  0.79406200  1
  P  P22  1  0.12801400  0.97900200  0.70593800  1
  P  P23  1  0.62801400  0.52099800  0.29406200  1
  P  P24  1  0.20593800  0.37198600  0.02099800  1
  P  P25  1  0.70593800  0.12801400  0.97900200  1
  P  P26  1  0.29406200  0.62801400  0.52099800  1
  P  P27  1  0.79406200  0.87198600  0.47900200  1
  O  O28  1  0.27600500  0.49685100  0.44904500  1
  O  O29  1  0.22399500  0.50314900  0.94904500  1
  O  O30  1  0.72399500  0.99685100  0.05095500  1
  O  O31  1  0.44904500  0.27600500  0.49685100  1
  O  O32  1  0.77600500  0.00314900  0.55095500  1
  O  O33  1  0.94904500  0.22399500  0.50314900  1
  O  O34  1  0.05095500  0.72399500  0.99685100  1
  O  O35  1  0.55095500  0.77600500  0.00314900  1
  O  O36  1  0.49685100  0.44904500  0.27600500  1
  O  O37  1  0.99685100  0.05095500  0.72399500  1
  O  O38  1  0.00314900  0.55095500  0.77600500  1
  O  O39  1  0.50314900  0.94904500  0.22399500  1
  O  O40  1  0.16008700  0.25768000  0.39157400  1
  O  O41  1  0.33991300  0.74232000  0.89157400  1
  O  O42  1  0.83991300  0.75768000  0.10842600  1
  O  O43  1  0.39157400  0.16008700  0.25768000  1
  O  O44  1  0.66008700  0.24232000  0.60842600  1
  O  O45  1  0.89157400  0.33991300  0.74232000  1
  O  O46  1  0.10842600  0.83991300  0.75768000  1
  O  O47  1  0.60842600  0.66008700  0.24232000  1
  O  O48  1  0.25768000  0.39157400  0.16008700  1
  O  O49  1  0.75768000  0.10842600  0.83991300  1
  O  O50  1  0.24232000  0.60842600  0.66008700  1
  O  O51  1  0.74232000  0.89157400  0.33991300  1
  O  O52  1  0.04998300  0.78300800  0.23194100  1
  O  O53  1  0.45001700  0.21699200  0.73194100  1
  O  O54  1  0.95001700  0.28300800  0.26805900  1
  O  O55  1  0.23194100  0.04998300  0.78300800  1
  O  O56  1  0.54998300  0.71699200  0.76805900  1
  O  O57  1  0.73194100  0.45001700  0.21699200  1
  O  O58  1  0.26805900  0.95001700  0.28300800  1
  O  O59  1  0.76805900  0.54998300  0.71699200  1
  O  O60  1  0.78300800  0.23194100  0.04998300  1
  O  O61  1  0.28300800  0.26805900  0.95001700  1
  O  O62  1  0.71699200  0.76805900  0.54998300  1
  O  O63  1  0.21699200  0.73194100  0.45001700  1
  O  O64  1  0.01963200  0.06246300  0.33260700  1
  O  O65  1  0.48036800  0.93753700  0.83260700  1
  O  O66  1  0.98036800  0.56246300  0.16739300  1
  O  O67  1  0.33260700  0.01963200  0.06246300  1
  O  O68  1  0.51963200  0.43753700  0.66739300  1
  O  O69  1  0.83260700  0.48036800  0.93753700  1
  O  O70  1  0.16739300  0.98036800  0.56246300  1
  O  O71  1  0.66739300  0.51963200  0.43753700  1
  O  O72  1  0.06246300  0.33260700  0.01963200  1
  O  O73  1  0.56246300  0.16739300  0.98036800  1
  O  O74  1  0.43753700  0.66739300  0.51963200  1
  O  O75  1  0.93753700  0.83260700  0.48036800  1
