# generated using pymatgen
data_CoHSO4
_symmetry_space_group_name_H-M   'P 1'
_cell_length_a   5.20577719
_cell_length_b   5.20577719
_cell_length_c   7.12730798
_cell_angle_alpha   111.69547454
_cell_angle_beta   111.69547454
_cell_angle_gamma   100.27535973
_symmetry_Int_Tables_number   1
_chemical_formula_structural   CoHSO4
_chemical_formula_sum   'Co2 H2 S2 O8'
_cell_volume   155.25655517
_cell_formula_units_Z   2
loop_
 _symmetry_equiv_pos_site_id
 _symmetry_equiv_pos_as_xyz
  1  'x, y, z'
loop_
 _atom_site_type_symbol
 _atom_site_label
 _atom_site_symmetry_multiplicity
 _atom_site_fract_x
 _atom_site_fract_y
 _atom_site_fract_z
 _atom_site_occupancy
  Co  Co0  1  0.50000000  0.00000000  0.00000000  1
  Co  Co1  1  0.00000000  0.50000000  0.50000000  1
  H  H2  1  0.30779900  0.69220100  0.75000000  1
  H  H3  1  0.69220100  0.30779900  0.25000000  1
  S  S4  1  0.91752500  0.08247500  0.75000000  1
  S  S5  1  0.08247500  0.91752500  0.25000000  1
  O  O6  1  0.78567500  0.16418000  0.90424100  1
  O  O7  1  0.21432500  0.83582000  0.09575900  1
  O  O8  1  0.83582000  0.21432500  0.59575900  1
  O  O9  1  0.16418000  0.78567500  0.40424100  1
  O  O10  1  0.24992100  0.20234500  0.88871300  1
  O  O11  1  0.75007900  0.79765500  0.11128700  1
  O  O12  1  0.79765500  0.75007900  0.61128700  1
  O  O13  1  0.20234500  0.24992100  0.38871300  1
