# generated using pymatgen
data_Co(PO5)2
_symmetry_space_group_name_H-M   'P 1'
_cell_length_a   9.50445100
_cell_length_b   5.13177900
_cell_length_c   8.71332315
_cell_angle_alpha   53.80805078
_cell_angle_beta   90.00000000
_cell_angle_gamma   90.00000000
_symmetry_Int_Tables_number   1
_chemical_formula_structural   Co(PO5)2
_chemical_formula_sum   'Co2 P4 O20'
_cell_volume   342.98540055
_cell_formula_units_Z   2
loop_
 _symmetry_equiv_pos_site_id
 _symmetry_equiv_pos_as_xyz
  1  'x, y, z'
loop_
 _atom_site_type_symbol
 _atom_site_label
 _atom_site_symmetry_multiplicity
 _atom_site_fract_x
 _atom_site_fract_y
 _atom_site_fract_z
 _atom_site_occupancy
  Co  Co0  1  0.00000000  0.00000000  0.00000000  1
  Co  Co1  1  0.50000000  0.00000000  0.50000000  1
  P  P2  1  0.21149200  0.92316500  0.33315200  1
  P  P3  1  0.78850800  0.07683500  0.66684800  1
  P  P4  1  0.71149200  0.07683500  0.16684800  1
  P  P5  1  0.28850800  0.92316500  0.83315200  1
  O  O6  1  0.65100900  0.83074300  0.13479300  1
  O  O7  1  0.34899100  0.16925700  0.86520700  1
  O  O8  1  0.15100900  0.16925700  0.36520700  1
  O  O9  1  0.84899100  0.83074300  0.63479300  1
  O  O10  1  0.63932700  0.39957600  0.01033800  1
  O  O11  1  0.36067300  0.60042400  0.98966200  1
  O  O12  1  0.13932700  0.60042400  0.48966200  1
  O  O13  1  0.86067300  0.39957600  0.51033800  1
  O  O14  1  0.67562700  0.98202700  0.36702000  1
  O  O15  1  0.32437300  0.01797300  0.63298000  1
  O  O16  1  0.17562700  0.01797300  0.13298000  1
  O  O17  1  0.82437300  0.98202700  0.86702000  1
  O  O18  1  0.97388100  0.61560800  0.17149800  1
  O  O19  1  0.02611900  0.38439200  0.82850200  1
  O  O20  1  0.47388100  0.38439200  0.32850200  1
  O  O21  1  0.52611900  0.61560800  0.67149800  1
  O  O22  1  0.37302000  0.88663000  0.35842400  1
  O  O23  1  0.62698000  0.11337000  0.64157600  1
  O  O24  1  0.87302000  0.11337000  0.14157600  1
  O  O25  1  0.12698000  0.88663000  0.85842400  1
