# generated using pymatgen
data_CdGePO7
_symmetry_space_group_name_H-M   'P 1'
_cell_length_a   6.55701909
_cell_length_b   6.55701909
_cell_length_c   13.43943400
_cell_angle_alpha   90.00000000
_cell_angle_beta   90.00000000
_cell_angle_gamma   113.94701260
_symmetry_Int_Tables_number   1
_chemical_formula_structural   CdGePO7
_chemical_formula_sum   'Cd4 Ge4 P4 O28'
_cell_volume   528.08354529
_cell_formula_units_Z   4
loop_
 _symmetry_equiv_pos_site_id
 _symmetry_equiv_pos_as_xyz
  1  'x, y, z'
loop_
 _atom_site_type_symbol
 _atom_site_label
 _atom_site_symmetry_multiplicity
 _atom_site_fract_x
 _atom_site_fract_y
 _atom_site_fract_z
 _atom_site_occupancy
  Cd  Cd0  1  0.65135900  0.84864100  0.75000000  1
  Cd  Cd1  1  0.34864100  0.15135900  0.25000000  1
  Cd  Cd2  1  0.84864100  0.65135900  0.25000000  1
  Cd  Cd3  1  0.15135900  0.34864100  0.75000000  1
  Ge  Ge4  1  0.50000000  0.00000000  0.50000000  1
  Ge  Ge5  1  0.00000000  0.50000000  0.00000000  1
  Ge  Ge6  1  0.50000000  0.00000000  0.00000000  1
  Ge  Ge7  1  0.00000000  0.50000000  0.50000000  1
  P  P8  1  0.15026500  0.84973500  0.82222200  1
  P  P9  1  0.84973500  0.15026500  0.17777800  1
  P  P10  1  0.34973500  0.65026500  0.32222200  1
  P  P11  1  0.65026500  0.34973500  0.67777800  1
  O  O12  1  0.46897500  0.16784500  0.61337900  1
  O  O13  1  0.53102500  0.83215500  0.38662100  1
  O  O14  1  0.03102500  0.33215500  0.11337900  1
  O  O15  1  0.33215500  0.03102500  0.88662100  1
  O  O16  1  0.96897500  0.66784500  0.88662100  1
  O  O17  1  0.66784500  0.96897500  0.11337900  1
  O  O18  1  0.16784500  0.46897500  0.38662100  1
  O  O19  1  0.83215500  0.53102500  0.61337900  1
  O  O20  1  0.53044800  0.46955200  0.73700200  1
  O  O21  1  0.46955200  0.53044800  0.26299800  1
  O  O22  1  0.96955200  0.03044800  0.23700200  1
  O  O23  1  0.03044800  0.96955200  0.76299800  1
  O  O24  1  0.68335700  0.90578100  0.57596700  1
  O  O25  1  0.31664300  0.09421900  0.42403300  1
  O  O26  1  0.81664300  0.59421900  0.07596700  1
  O  O27  1  0.59421900  0.81664300  0.92403300  1
  O  O28  1  0.18335700  0.40578100  0.92403300  1
  O  O29  1  0.40578100  0.18335700  0.07596700  1
  O  O30  1  0.90578100  0.68335700  0.42403300  1
  O  O31  1  0.09421900  0.31664300  0.57596700  1
  O  O32  1  0.26576300  0.73423700  0.75588500  1
  O  O33  1  0.73423700  0.26576300  0.24411500  1
  O  O34  1  0.23423700  0.76576300  0.25588500  1
  O  O35  1  0.76576300  0.23423700  0.74411500  1
  O  O36  1  0.23762200  0.76237800  0.54436900  1
  O  O37  1  0.76237800  0.23762200  0.45563100  1
  O  O38  1  0.26237800  0.73762200  0.04436900  1
  O  O39  1  0.73762200  0.26237800  0.95563100  1
