# generated using pymatgen
data_CeAg(WO4)2
_symmetry_space_group_name_H-M   'P 1'
_cell_length_a   7.59613513
_cell_length_b   7.59613513
_cell_length_c   7.42265468
_cell_angle_alpha   65.23232896
_cell_angle_beta   65.23232896
_cell_angle_gamma   93.92416684
_symmetry_Int_Tables_number   1
_chemical_formula_structural   CeAg(WO4)2
_chemical_formula_sum   'Ce2 Ag2 W4 O16'
_cell_volume   337.31527747
_cell_formula_units_Z   2
loop_
 _symmetry_equiv_pos_site_id
 _symmetry_equiv_pos_as_xyz
  1  'x, y, z'
loop_
 _atom_site_type_symbol
 _atom_site_label
 _atom_site_symmetry_multiplicity
 _atom_site_fract_x
 _atom_site_fract_y
 _atom_site_fract_z
 _atom_site_occupancy
  Ce  Ce0  1  0.70206100  0.29793900  0.00000000  1
  Ce  Ce1  1  0.29793900  0.70206100  0.00000000  1
  Ag  Ag2  1  0.68984100  0.68984100  0.48024000  1
  Ag  Ag3  1  0.31015900  0.31015900  0.51976000  1
  W  W4  1  0.21458300  0.21458300  0.02770800  1
  W  W5  1  0.78541700  0.78541700  0.97229200  1
  W  W6  1  0.84023300  0.15976700  0.50000000  1
  W  W7  1  0.15976700  0.84023300  0.50000000  1
  O  O8  1  0.34748900  0.10095400  0.23982500  1
  O  O9  1  0.65251100  0.89904600  0.76017500  1
  O  O10  1  0.89904600  0.65251100  0.76017500  1
  O  O11  1  0.10095400  0.34748900  0.23982500  1
  O  O12  1  0.68906000  0.20959100  0.35925600  1
  O  O13  1  0.31094000  0.79040900  0.64074400  1
  O  O14  1  0.79040900  0.31094000  0.64074400  1
  O  O15  1  0.20959100  0.68906000  0.35925600  1
  O  O16  1  0.69840100  0.94961400  0.09301600  1
  O  O17  1  0.30159900  0.05038600  0.90698400  1
  O  O18  1  0.05038600  0.30159900  0.90698400  1
  O  O19  1  0.94961400  0.69840100  0.09301600  1
  O  O20  1  0.98074000  0.98074000  0.34038700  1
  O  O21  1  0.01926000  0.01926000  0.65961300  1
  O  O22  1  0.55673300  0.55673300  0.14318600  1
  O  O23  1  0.44326700  0.44326700  0.85681400  1
