# generated using pymatgen
data_CaH6PtO6
_symmetry_space_group_name_H-M   'P 1'
_cell_length_a   5.98450444
_cell_length_b   5.98450444
_cell_length_c   10.41089700
_cell_angle_alpha   90.00000000
_cell_angle_beta   90.00000000
_cell_angle_gamma   120.00000485
_symmetry_Int_Tables_number   1
_chemical_formula_structural   CaH6PtO6
_chemical_formula_sum   'Ca2 H12 Pt2 O12'
_cell_volume   322.90528054
_cell_formula_units_Z   2
loop_
 _symmetry_equiv_pos_site_id
 _symmetry_equiv_pos_as_xyz
  1  'x, y, z'
loop_
 _atom_site_type_symbol
 _atom_site_label
 _atom_site_symmetry_multiplicity
 _atom_site_fract_x
 _atom_site_fract_y
 _atom_site_fract_z
 _atom_site_occupancy
  Ca  Ca0  1  0.66666700  0.33333300  0.75000000  1
  Ca  Ca1  1  0.33333300  0.66666700  0.25000000  1
  H  H2  1  0.23982600  0.33594600  0.65249200  1
  H  H3  1  0.76017400  0.66405400  0.34750800  1
  H  H4  1  0.66405400  0.90388000  0.65249200  1
  H  H5  1  0.23982600  0.90388000  0.84750800  1
  H  H6  1  0.33594600  0.09612000  0.34750800  1
  H  H7  1  0.76017400  0.09612000  0.15249200  1
  H  H8  1  0.09612000  0.76017400  0.65249200  1
  H  H9  1  0.66405400  0.76017400  0.84750800  1
  H  H10  1  0.90388000  0.23982600  0.34750800  1
  H  H11  1  0.33594600  0.23982600  0.15249200  1
  H  H12  1  0.09612000  0.33594600  0.84750800  1
  H  H13  1  0.90388000  0.66405400  0.15249200  1
  Pt  Pt14  1  0.00000000  0.00000000  0.50000000  1
  Pt  Pt15  1  0.00000000  0.00000000  0.00000000  1
  O  O16  1  0.76713500  0.07427600  0.61328400  1
  O  O17  1  0.23286500  0.92572400  0.38671600  1
  O  O18  1  0.92572400  0.69286000  0.61328400  1
  O  O19  1  0.76713500  0.69286000  0.88671600  1
  O  O20  1  0.07427600  0.30714000  0.38671600  1
  O  O21  1  0.23286500  0.30714000  0.11328400  1
  O  O22  1  0.30714000  0.23286500  0.61328400  1
  O  O23  1  0.92572400  0.23286500  0.88671600  1
  O  O24  1  0.69286000  0.76713500  0.38671600  1
  O  O25  1  0.07427600  0.76713500  0.11328400  1
  O  O26  1  0.30714000  0.07427600  0.88671600  1
  O  O27  1  0.69286000  0.92572400  0.11328400  1
