# generated using pymatgen
data_CaW6NCl18
_symmetry_space_group_name_H-M   'P 1'
_cell_length_a   9.08499212
_cell_length_b   9.08499212
_cell_length_c   18.19290800
_cell_angle_alpha   90.00000000
_cell_angle_beta   90.00000000
_cell_angle_gamma   120.00000085
_symmetry_Int_Tables_number   1
_chemical_formula_structural   CaW6NCl18
_chemical_formula_sum   'Ca2 W12 N2 Cl36'
_cell_volume   1300.41467229
_cell_formula_units_Z   2
loop_
 _symmetry_equiv_pos_site_id
 _symmetry_equiv_pos_as_xyz
  1  'x, y, z'
loop_
 _atom_site_type_symbol
 _atom_site_label
 _atom_site_symmetry_multiplicity
 _atom_site_fract_x
 _atom_site_fract_y
 _atom_site_fract_z
 _atom_site_occupancy
  Ca  Ca0  1  0.00000000  0.00000000  0.00000000  1
  Ca  Ca1  1  0.00000000  0.00000000  0.50000000  1
  W  W2  1  0.81555000  0.29879000  0.83524200  1
  W  W3  1  0.18445000  0.70121000  0.16475800  1
  W  W4  1  0.48324000  0.18445000  0.83524200  1
  W  W5  1  0.18445000  0.70121000  0.33524200  1
  W  W6  1  0.51676000  0.81555000  0.16475800  1
  W  W7  1  0.81555000  0.29879000  0.66475800  1
  W  W8  1  0.70121000  0.51676000  0.83524200  1
  W  W9  1  0.51676000  0.81555000  0.33524200  1
  W  W10  1  0.29879000  0.48324000  0.16475800  1
  W  W11  1  0.48324000  0.18445000  0.66475800  1
  W  W12  1  0.29879000  0.48324000  0.33524200  1
  W  W13  1  0.70121000  0.51676000  0.66475800  1
  N  N14  1  0.66666700  0.33333300  0.75000000  1
  N  N15  1  0.33333300  0.66666700  0.25000000  1
  Cl  Cl16  1  0.53095400  0.58407900  0.75000000  1
  Cl  Cl17  1  0.46904600  0.41592100  0.25000000  1
  Cl  Cl18  1  0.05312600  0.46904600  0.75000000  1
  Cl  Cl19  1  0.94687400  0.53095400  0.25000000  1
  Cl  Cl20  1  0.41592100  0.94687400  0.75000000  1
  Cl  Cl21  1  0.58407900  0.05312600  0.25000000  1
  Cl  Cl22  1  0.62440700  0.10737100  0.92658600  1
  Cl  Cl23  1  0.37559300  0.89262900  0.07341400  1
  Cl  Cl24  1  0.48296300  0.37559300  0.92658600  1
  Cl  Cl25  1  0.37559300  0.89262900  0.42658600  1
  Cl  Cl26  1  0.51703700  0.62440700  0.07341400  1
  Cl  Cl27  1  0.62440700  0.10737100  0.57341400  1
  Cl  Cl28  1  0.89262900  0.51703700  0.92658600  1
  Cl  Cl29  1  0.51703700  0.62440700  0.42658600  1
  Cl  Cl30  1  0.10737100  0.48296300  0.07341400  1
  Cl  Cl31  1  0.48296300  0.37559300  0.57341400  1
  Cl  Cl32  1  0.10737100  0.48296300  0.42658600  1
  Cl  Cl33  1  0.89262900  0.51703700  0.57341400  1
  Cl  Cl34  1  0.79785800  0.08056200  0.75000000  1
  Cl  Cl35  1  0.20214200  0.91943800  0.25000000  1
  Cl  Cl36  1  0.28270400  0.20214200  0.75000000  1
  Cl  Cl37  1  0.71729600  0.79785800  0.25000000  1
  Cl  Cl38  1  0.91943800  0.71729600  0.75000000  1
  Cl  Cl39  1  0.08056200  0.28270400  0.25000000  1
  Cl  Cl40  1  0.74560600  0.77603100  0.90166100  1
  Cl  Cl41  1  0.25439400  0.22396900  0.09833900  1
  Cl  Cl42  1  0.03042500  0.25439400  0.90166100  1
  Cl  Cl43  1  0.25439400  0.22396900  0.40166100  1
  Cl  Cl44  1  0.96957500  0.74560600  0.09833900  1
  Cl  Cl45  1  0.74560600  0.77603100  0.59833900  1
  Cl  Cl46  1  0.22396900  0.96957500  0.90166100  1
  Cl  Cl47  1  0.96957500  0.74560600  0.40166100  1
  Cl  Cl48  1  0.77603100  0.03042500  0.09833900  1
  Cl  Cl49  1  0.03042500  0.25439400  0.59833900  1
  Cl  Cl50  1  0.77603100  0.03042500  0.40166100  1
  Cl  Cl51  1  0.22396900  0.96957500  0.59833900  1
