# generated using pymatgen
data_Ca4Tl3O9
_symmetry_space_group_name_H-M   'P 1'
_cell_length_a   5.89516341
_cell_length_b   5.89516341
_cell_length_c   12.38886902
_cell_angle_alpha   78.53852266
_cell_angle_beta   78.53852266
_cell_angle_gamma   33.46009134
_symmetry_Int_Tables_number   1
_chemical_formula_structural   Ca4Tl3O9
_chemical_formula_sum   'Ca4 Tl3 O9'
_cell_volume   232.21990984
_cell_formula_units_Z   1
loop_
 _symmetry_equiv_pos_site_id
 _symmetry_equiv_pos_as_xyz
  1  'x, y, z'
loop_
 _atom_site_type_symbol
 _atom_site_label
 _atom_site_symmetry_multiplicity
 _atom_site_fract_x
 _atom_site_fract_y
 _atom_site_fract_z
 _atom_site_occupancy
  Ca  Ca0  1  0.45275600  0.45275600  0.28571800  1
  Ca  Ca1  1  0.54724400  0.54724400  0.71428200  1
  Ca  Ca2  1  0.23798400  0.23798400  0.12761700  1
  Ca  Ca3  1  0.76201600  0.76201600  0.87238300  1
  Tl  Tl4  1  0.85096100  0.85096100  0.56322400  1
  Tl  Tl5  1  0.14903900  0.14903900  0.43677600  1
  Tl  Tl6  1  0.00000000  0.00000000  0.00000000  1
  O  O7  1  0.80691800  0.80691800  0.39859200  1
  O  O8  1  0.19308200  0.19308200  0.60140800  1
  O  O9  1  0.62581500  0.62581500  0.05263900  1
  O  O10  1  0.37418500  0.37418500  0.94736100  1
  O  O11  1  0.90691300  0.90691300  0.71538000  1
  O  O12  1  0.09308700  0.09308700  0.28462000  1
  O  O13  1  0.87585500  0.87585500  0.16424200  1
  O  O14  1  0.12414500  0.12414500  0.83575800  1
  O  O15  1  0.50000000  0.50000000  0.50000000  1
