# generated using pymatgen
data_CrH6CN3ClO3
_symmetry_space_group_name_H-M   'P 1'
_cell_length_a   6.29254300
_cell_length_b   7.39300500
_cell_length_c   16.06065600
_cell_angle_alpha   90.00000000
_cell_angle_beta   90.00000000
_cell_angle_gamma   90.00000000
_symmetry_Int_Tables_number   1
_chemical_formula_structural   CrH6CN3ClO3
_chemical_formula_sum   'Cr4 H24 C4 N12 Cl4 O12'
_cell_volume   747.15459555
_cell_formula_units_Z   4
loop_
 _symmetry_equiv_pos_site_id
 _symmetry_equiv_pos_as_xyz
  1  'x, y, z'
loop_
 _atom_site_type_symbol
 _atom_site_label
 _atom_site_symmetry_multiplicity
 _atom_site_fract_x
 _atom_site_fract_y
 _atom_site_fract_z
 _atom_site_occupancy
  Cr  Cr0  1  0.36520300  0.25000000  0.35680500  1
  Cr  Cr1  1  0.63479700  0.75000000  0.64319500  1
  Cr  Cr2  1  0.13479700  0.75000000  0.85680500  1
  Cr  Cr3  1  0.86520300  0.25000000  0.14319500  1
  H  H4  1  0.23600000  0.09211300  0.56911900  1
  H  H5  1  0.76400000  0.90788700  0.43088100  1
  H  H6  1  0.26400000  0.90788700  0.06911900  1
  H  H7  1  0.76400000  0.59211300  0.43088100  1
  H  H8  1  0.73600000  0.09211300  0.93088100  1
  H  H9  1  0.23600000  0.40788700  0.56911900  1
  H  H10  1  0.73600000  0.40788700  0.93088100  1
  H  H11  1  0.26400000  0.59211300  0.06911900  1
  H  H12  1  0.03866400  0.97123700  0.62102500  1
  H  H13  1  0.96133600  0.02876300  0.37897500  1
  H  H14  1  0.46133600  0.02876300  0.12102500  1
  H  H15  1  0.96133600  0.47123700  0.37897500  1
  H  H16  1  0.53866400  0.97123700  0.87897500  1
  H  H17  1  0.03866400  0.52876300  0.62102500  1
  H  H18  1  0.53866400  0.52876300  0.87897500  1
  H  H19  1  0.46133600  0.47123700  0.12102500  1
  H  H20  1  0.23037000  0.63162700  0.30721000  1
  H  H21  1  0.76963000  0.36837300  0.69279000  1
  H  H22  1  0.26963000  0.36837300  0.80721000  1
  H  H23  1  0.76963000  0.13162700  0.69279000  1
  H  H24  1  0.73037000  0.63162700  0.19279000  1
  H  H25  1  0.23037000  0.86837300  0.30721000  1
  H  H26  1  0.73037000  0.86837300  0.19279000  1
  H  H27  1  0.26963000  0.13162700  0.80721000  1
  C  C28  1  0.01805800  0.25000000  0.63012800  1
  C  C29  1  0.98194200  0.75000000  0.36987200  1
  C  C30  1  0.48194200  0.75000000  0.13012800  1
  C  C31  1  0.51805800  0.25000000  0.86987200  1
  N  N32  1  0.10459200  0.09323500  0.60561600  1
  N  N33  1  0.89540800  0.90676500  0.39438400  1
  N  N34  1  0.39540800  0.90676500  0.10561600  1
  N  N35  1  0.89540800  0.59323500  0.39438400  1
  N  N36  1  0.60459200  0.09323500  0.89438400  1
  N  N37  1  0.10459200  0.40676500  0.60561600  1
  N  N38  1  0.60459200  0.40676500  0.89438400  1
  N  N39  1  0.39540800  0.59323500  0.10561600  1
  N  N40  1  0.34754700  0.25000000  0.82016800  1
  N  N41  1  0.65245300  0.75000000  0.17983200  1
  N  N42  1  0.15245300  0.75000000  0.32016800  1
  N  N43  1  0.84754700  0.25000000  0.67983200  1
  Cl  Cl44  1  0.05016000  0.25000000  0.02686800  1
  Cl  Cl45  1  0.94984000  0.75000000  0.97313200  1
  Cl  Cl46  1  0.44984000  0.75000000  0.52686800  1
  Cl  Cl47  1  0.55016000  0.25000000  0.47313200  1
  O  O48  1  0.11284000  0.25000000  0.38193200  1
  O  O49  1  0.88716000  0.75000000  0.61806800  1
  O  O50  1  0.38716000  0.75000000  0.88193200  1
  O  O51  1  0.61284000  0.25000000  0.11806800  1
  O  O52  1  0.42551100  0.06882900  0.30524800  1
  O  O53  1  0.57448900  0.93117100  0.69475200  1
  O  O54  1  0.07448900  0.93117100  0.80524800  1
  O  O55  1  0.57448900  0.56882900  0.69475200  1
  O  O56  1  0.92551100  0.06882900  0.19475200  1
  O  O57  1  0.42551100  0.43117100  0.30524800  1
  O  O58  1  0.92551100  0.43117100  0.19475200  1
  O  O59  1  0.07448900  0.56882900  0.80524800  1
