# generated using pymatgen
data_CaFe2(AsO5)2
_symmetry_space_group_name_H-M   'P 1'
_cell_length_a   5.38982538
_cell_length_b   5.38982538
_cell_length_c   7.77315013
_cell_angle_alpha   70.27813127
_cell_angle_beta   70.27813127
_cell_angle_gamma   68.72672195
_symmetry_Int_Tables_number   1
_chemical_formula_structural   CaFe2(AsO5)2
_chemical_formula_sum   'Ca1 Fe2 As2 O10'
_cell_volume   192.03885533
_cell_formula_units_Z   1
loop_
 _symmetry_equiv_pos_site_id
 _symmetry_equiv_pos_as_xyz
  1  'x, y, z'
loop_
 _atom_site_type_symbol
 _atom_site_label
 _atom_site_symmetry_multiplicity
 _atom_site_fract_x
 _atom_site_fract_y
 _atom_site_fract_z
 _atom_site_occupancy
  Ca  Ca0  1  0.00000000  0.00000000  0.00000000  1
  Fe  Fe1  1  0.50000000  0.00000000  0.50000000  1
  Fe  Fe2  1  0.00000000  0.50000000  0.50000000  1
  As  As3  1  0.57756600  0.57756600  0.21209300  1
  As  As4  1  0.42243400  0.42243400  0.78790700  1
  O  O5  1  0.26807900  0.26807900  0.00324400  1
  O  O6  1  0.73192100  0.73192100  0.99675600  1
  O  O7  1  0.68370700  0.22281400  0.25448500  1
  O  O8  1  0.31629300  0.77718600  0.74551500  1
  O  O9  1  0.77718600  0.31629300  0.74551500  1
  O  O10  1  0.22281400  0.68370700  0.25448500  1
  O  O11  1  0.83920600  0.83920600  0.56275900  1
  O  O12  1  0.16079400  0.16079400  0.43724100  1
  O  O13  1  0.67004600  0.67004600  0.37469300  1
  O  O14  1  0.32995400  0.32995400  0.62530700  1
