# generated using pymatgen
data_Cd5Fe2(P2O7)4
_symmetry_space_group_name_H-M   'P 1'
_cell_length_a   6.73517884
_cell_length_b   6.73517884
_cell_length_c   24.48955200
_cell_angle_alpha   90.00000000
_cell_angle_beta   90.00000000
_cell_angle_gamma   97.20285061
_symmetry_Int_Tables_number   1
_chemical_formula_structural   Cd5Fe2(P2O7)4
_chemical_formula_sum   'Cd10 Fe4 P16 O56'
_cell_volume   1102.14379285
_cell_formula_units_Z   2
loop_
 _symmetry_equiv_pos_site_id
 _symmetry_equiv_pos_as_xyz
  1  'x, y, z'
loop_
 _atom_site_type_symbol
 _atom_site_label
 _atom_site_symmetry_multiplicity
 _atom_site_fract_x
 _atom_site_fract_y
 _atom_site_fract_z
 _atom_site_occupancy
  Cd  Cd0  1  0.69261600  0.69261600  0.50000000  1
  Cd  Cd1  1  0.30738400  0.30738400  0.00000000  1
  Cd  Cd2  1  0.08163300  0.08163300  0.50000000  1
  Cd  Cd3  1  0.91836700  0.91836700  0.00000000  1
  Cd  Cd4  1  0.70354400  0.29645600  0.75000000  1
  Cd  Cd5  1  0.29645600  0.70354400  0.25000000  1
  Cd  Cd6  1  0.03691600  0.33546600  0.63624600  1
  Cd  Cd7  1  0.96308400  0.66453400  0.13624600  1
  Cd  Cd8  1  0.66453400  0.96308400  0.86375400  1
  Cd  Cd9  1  0.33546600  0.03691600  0.36375400  1
  Fe  Fe10  1  0.26334200  0.58132900  0.87767900  1
  Fe  Fe11  1  0.73665800  0.41867100  0.37767900  1
  Fe  Fe12  1  0.41867100  0.73665800  0.62232100  1
  Fe  Fe13  1  0.58132900  0.26334200  0.12232100  1
  P  P14  1  0.20390300  0.30286600  0.76917800  1
  P  P15  1  0.79609700  0.69713400  0.26917800  1
  P  P16  1  0.69713400  0.79609700  0.73082200  1
  P  P17  1  0.30286600  0.20390300  0.23082200  1
  P  P18  1  0.74919400  0.47875400  0.88457400  1
  P  P19  1  0.25080600  0.52124600  0.38457400  1
  P  P20  1  0.52124600  0.25080600  0.61542600  1
  P  P21  1  0.47875400  0.74919400  0.11542600  1
  P  P22  1  0.19653600  0.60428500  0.50544200  1
  P  P23  1  0.80346400  0.39571500  0.00544200  1
  P  P24  1  0.39571500  0.80346400  0.99455800  1
  P  P25  1  0.60428500  0.19653600  0.49455800  1
  P  P26  1  0.92501600  0.82979800  0.62576700  1
  P  P27  1  0.07498400  0.17020200  0.12576700  1
  P  P28  1  0.17020200  0.07498400  0.87423300  1
  P  P29  1  0.82979800  0.92501600  0.37423300  1
  O  O30  1  0.24780200  0.49668300  0.80337700  1
  O  O31  1  0.75219800  0.50331700  0.30337700  1
  O  O32  1  0.50331700  0.75219800  0.69662300  1
  O  O33  1  0.49668300  0.24780200  0.19662300  1
  O  O34  1  0.00106400  0.02702100  0.59775500  1
  O  O35  1  0.99893600  0.97297900  0.09775500  1
  O  O36  1  0.97297900  0.99893600  0.90224500  1
  O  O37  1  0.02702100  0.00106400  0.40224500  1
  O  O38  1  0.03223500  0.31318400  0.72893600  1
  O  O39  1  0.96776500  0.68681600  0.22893600  1
  O  O40  1  0.68681600  0.96776500  0.77106400  1
  O  O41  1  0.31318400  0.03223500  0.27106400  1
  O  O42  1  0.76656400  0.61915300  0.75875300  1
  O  O43  1  0.23343600  0.38084700  0.25875300  1
  O  O44  1  0.38084700  0.23343600  0.74124700  1
  O  O45  1  0.61915300  0.76656400  0.24124700  1
  O  O46  1  0.69595500  0.39702000  0.94656300  1
  O  O47  1  0.30404500  0.60298000  0.44656300  1
  O  O48  1  0.60298000  0.30404500  0.55343700  1
  O  O49  1  0.39702000  0.69595500  0.05343700  1
  O  O50  1  0.38064500  0.69487100  0.53998500  1
  O  O51  1  0.61935500  0.30512900  0.03998500  1
  O  O52  1  0.30512900  0.61935500  0.96001500  1
  O  O53  1  0.69487100  0.38064500  0.46001500  1
  O  O54  1  0.09326200  0.68960800  0.62843500  1
  O  O55  1  0.90673800  0.31039200  0.12843500  1
  O  O56  1  0.31039200  0.90673800  0.87156500  1
  O  O57  1  0.68960800  0.09326200  0.37156500  1
  O  O58  1  0.72834500  0.72450000  0.59968100  1
  O  O59  1  0.27165500  0.27550000  0.09968100  1
  O  O60  1  0.27550000  0.27165500  0.90031900  1
  O  O61  1  0.72450000  0.72834500  0.40031900  1
  O  O62  1  0.96600000  0.57667300  0.88552800  1
  O  O63  1  0.03400000  0.42332700  0.38552800  1
  O  O64  1  0.42332700  0.03400000  0.61447200  1
  O  O65  1  0.57667300  0.96600000  0.11447200  1
  O  O66  1  0.37366500  0.40596800  0.62549800  1
  O  O67  1  0.62633500  0.59403200  0.12549800  1
  O  O68  1  0.59403200  0.62633500  0.87450200  1
  O  O69  1  0.40596800  0.37366500  0.37450200  1
  O  O70  1  0.03527100  0.74450300  0.50228400  1
  O  O71  1  0.96472900  0.25549700  0.00228400  1
  O  O72  1  0.25549700  0.96472900  0.99771600  1
  O  O73  1  0.74450300  0.03527100  0.49771600  1
  O  O74  1  0.10911500  0.39825200  0.52438900  1
  O  O75  1  0.89088500  0.60174800  0.02438900  1
  O  O76  1  0.60174800  0.89088500  0.97561100  1
  O  O77  1  0.39825200  0.10911500  0.47561100  1
  O  O78  1  0.11421100  0.12921400  0.81296700  1
  O  O79  1  0.88578900  0.87078600  0.31296700  1
  O  O80  1  0.87078600  0.88578900  0.68703300  1
  O  O81  1  0.12921400  0.11421100  0.18703300  1
  O  O82  1  0.70542100  0.29166100  0.65149200  1
  O  O83  1  0.29457900  0.70833900  0.15149200  1
  O  O84  1  0.70833900  0.29457900  0.84850800  1
  O  O85  1  0.29166100  0.70542100  0.34850800  1
