# generated using pymatgen
data_CaMgVO5
_symmetry_space_group_name_H-M   'P 1'
_cell_length_a   6.05694900
_cell_length_b   7.42925000
_cell_length_c   9.15937000
_cell_angle_alpha   90.00000000
_cell_angle_beta   90.00000000
_cell_angle_gamma   90.00000000
_symmetry_Int_Tables_number   1
_chemical_formula_structural   CaMgVO5
_chemical_formula_sum   'Ca4 Mg4 V4 O20'
_cell_volume   412.15872025
_cell_formula_units_Z   4
loop_
 _symmetry_equiv_pos_site_id
 _symmetry_equiv_pos_as_xyz
  1  'x, y, z'
loop_
 _atom_site_type_symbol
 _atom_site_label
 _atom_site_symmetry_multiplicity
 _atom_site_fract_x
 _atom_site_fract_y
 _atom_site_fract_z
 _atom_site_occupancy
  Ca  Ca0  1  0.47389500  0.12939700  0.33649800  1
  Ca  Ca1  1  0.02610500  0.87060300  0.83649800  1
  Ca  Ca2  1  0.52610500  0.62939700  0.16350200  1
  Ca  Ca3  1  0.97389500  0.37060300  0.66350200  1
  Mg  Mg4  1  0.25420600  0.25793700  0.99529300  1
  Mg  Mg5  1  0.24579400  0.74206300  0.49529300  1
  Mg  Mg6  1  0.74579400  0.75793700  0.50470700  1
  Mg  Mg7  1  0.75420600  0.24206300  0.00470700  1
  V  V8  1  0.01494000  0.38082000  0.31777100  1
  V  V9  1  0.48506000  0.61918000  0.81777100  1
  V  V10  1  0.98506000  0.88082000  0.18222900  1
  V  V11  1  0.51494000  0.11918000  0.68222900  1
  O  O12  1  0.01185000  0.06433800  0.05973200  1
  O  O13  1  0.48815000  0.93566200  0.55973200  1
  O  O14  1  0.98815000  0.56433800  0.44026800  1
  O  O15  1  0.51185000  0.43566200  0.94026800  1
  O  O16  1  0.49457800  0.11306400  0.08748800  1
  O  O17  1  0.00542200  0.88693600  0.58748800  1
  O  O18  1  0.50542200  0.61306400  0.41251200  1
  O  O19  1  0.99457800  0.38693600  0.91251200  1
  O  O20  1  0.26410300  0.15227500  0.77668400  1
  O  O21  1  0.23589700  0.84772500  0.27668400  1
  O  O22  1  0.73589700  0.65227500  0.72331600  1
  O  O23  1  0.76410300  0.34772500  0.22331600  1
  O  O24  1  0.07735800  0.20858900  0.43486600  1
  O  O25  1  0.42264200  0.79141100  0.93486600  1
  O  O26  1  0.92264200  0.70858900  0.06513400  1
  O  O27  1  0.57735800  0.29141100  0.56513400  1
  O  O28  1  0.24507600  0.39116700  0.20202300  1
  O  O29  1  0.25492400  0.60883300  0.70202300  1
  O  O30  1  0.75492400  0.89116700  0.29797700  1
  O  O31  1  0.74507600  0.10883300  0.79797700  1
