# generated using pymatgen
data_Ca3Ge4Au7
_symmetry_space_group_name_H-M   'P 1'
_cell_length_a   4.52294900
_cell_length_b   9.70927200
_cell_length_c   13.29966400
_cell_angle_alpha   90.00000000
_cell_angle_beta   90.00000000
_cell_angle_gamma   90.00000000
_symmetry_Int_Tables_number   1
_chemical_formula_structural   Ca3Ge4Au7
_chemical_formula_sum   'Ca6 Ge8 Au14'
_cell_volume   584.04865442
_cell_formula_units_Z   2
loop_
 _symmetry_equiv_pos_site_id
 _symmetry_equiv_pos_as_xyz
  1  'x, y, z'
loop_
 _atom_site_type_symbol
 _atom_site_label
 _atom_site_symmetry_multiplicity
 _atom_site_fract_x
 _atom_site_fract_y
 _atom_site_fract_z
 _atom_site_occupancy
  Ca  Ca0  1  0.00000000  0.00097700  0.18899000  1
  Ca  Ca1  1  0.00000000  0.99902300  0.81101000  1
  Ca  Ca2  1  0.50000000  0.49902300  0.68899000  1
  Ca  Ca3  1  0.50000000  0.50097700  0.31101000  1
  Ca  Ca4  1  0.00000000  0.00000000  0.50000000  1
  Ca  Ca5  1  0.50000000  0.50000000  0.00000000  1
  Ge  Ge6  1  0.00000000  0.35222200  0.18268100  1
  Ge  Ge7  1  0.00000000  0.64777800  0.81731900  1
  Ge  Ge8  1  0.50000000  0.14777800  0.68268100  1
  Ge  Ge9  1  0.50000000  0.85222200  0.31731900  1
  Ge  Ge10  1  0.00000000  0.27578900  0.37459800  1
  Ge  Ge11  1  0.00000000  0.72421100  0.62540200  1
  Ge  Ge12  1  0.50000000  0.22421100  0.87459800  1
  Ge  Ge13  1  0.50000000  0.77578900  0.12540200  1
  Au  Au14  1  0.00000000  0.19843700  0.00273300  1
  Au  Au15  1  0.00000000  0.80156300  0.99726700  1
  Au  Au16  1  0.50000000  0.30156300  0.50273300  1
  Au  Au17  1  0.50000000  0.69843700  0.49726700  1
  Au  Au18  1  0.00000000  0.26016700  0.63923700  1
  Au  Au19  1  0.00000000  0.73983300  0.36076300  1
  Au  Au20  1  0.50000000  0.23983300  0.13923700  1
  Au  Au21  1  0.50000000  0.76016700  0.86076300  1
  Au  Au22  1  0.50000000  0.00000000  0.00000000  1
  Au  Au23  1  0.00000000  0.50000000  0.50000000  1
  Au  Au24  1  0.00000000  0.61325500  0.15826300  1
  Au  Au25  1  0.00000000  0.38674500  0.84173700  1
  Au  Au26  1  0.50000000  0.88674500  0.65826300  1
  Au  Au27  1  0.50000000  0.11325500  0.34173700  1
