# generated using pymatgen
data_Ca3NbGa3(SiO7)2
_symmetry_space_group_name_H-M   'P 1'
_cell_length_a   5.03760500
_cell_length_b   8.20439482
_cell_length_c   8.20439482
_cell_angle_alpha   119.99999051
_cell_angle_beta   90.00000000
_cell_angle_gamma   90.00000000
_symmetry_Int_Tables_number   1
_chemical_formula_structural   Ca3NbGa3(SiO7)2
_chemical_formula_sum   'Ca3 Nb1 Ga3 Si2 O14'
_cell_volume   293.66209207
_cell_formula_units_Z   1
loop_
 _symmetry_equiv_pos_site_id
 _symmetry_equiv_pos_as_xyz
  1  'x, y, z'
loop_
 _atom_site_type_symbol
 _atom_site_label
 _atom_site_symmetry_multiplicity
 _atom_site_fract_x
 _atom_site_fract_y
 _atom_site_fract_z
 _atom_site_occupancy
  Ca  Ca0  1  0.00000000  0.42606400  0.42606400  1
  Ca  Ca1  1  0.00000000  0.00000000  0.57393600  1
  Ca  Ca2  1  0.00000000  0.57393600  0.00000000  1
  Nb  Nb3  1  0.00000000  0.00000000  0.00000000  1
  Ga  Ga4  1  0.50000000  0.74628300  0.74628300  1
  Ga  Ga5  1  0.50000000  0.00000000  0.25371700  1
  Ga  Ga6  1  0.50000000  0.25371700  0.00000000  1
  Si  Si7  1  0.45657200  0.66666700  0.33333300  1
  Si  Si8  1  0.54342800  0.33333300  0.66666700  1
  O  O9  1  0.77651100  0.66666700  0.33333300  1
  O  O10  1  0.22348900  0.33333300  0.66666700  1
  O  O11  1  0.76309100  0.85711200  0.08302200  1
  O  O12  1  0.76309100  0.22591100  0.14288800  1
  O  O13  1  0.23690900  0.77408900  0.91697800  1
  O  O14  1  0.76309100  0.91697800  0.77408900  1
  O  O15  1  0.23690900  0.08302200  0.85711200  1
  O  O16  1  0.23690900  0.14288800  0.22591100  1
  O  O17  1  0.68473000  0.52241600  0.67794300  1
  O  O18  1  0.68473000  0.15552700  0.47758400  1
  O  O19  1  0.31527000  0.84447300  0.32205700  1
  O  O20  1  0.68473000  0.32205700  0.84447300  1
  O  O21  1  0.31527000  0.67794300  0.52241600  1
  O  O22  1  0.31527000  0.47758400  0.15552700  1
