# generated using pymatgen
data_Cd(C5N)12
_symmetry_space_group_name_H-M   'P 1'
_cell_length_a   10.04021600
_cell_length_b   10.35704434
_cell_length_c   10.69089057
_cell_angle_alpha   77.45519560
_cell_angle_beta   79.86528101
_cell_angle_gamma   79.31558537
_symmetry_Int_Tables_number   1
_chemical_formula_structural   Cd(C5N)12
_chemical_formula_sum   'Cd1 C60 N12'
_cell_volume   1055.63520868
_cell_formula_units_Z   1
loop_
 _symmetry_equiv_pos_site_id
 _symmetry_equiv_pos_as_xyz
  1  'x, y, z'
loop_
 _atom_site_type_symbol
 _atom_site_label
 _atom_site_symmetry_multiplicity
 _atom_site_fract_x
 _atom_site_fract_y
 _atom_site_fract_z
 _atom_site_occupancy
  Cd  Cd0  1  0.50000000  0.00000000  0.00000000  1
  C  C1  1  0.15200300  0.26501500  0.29891700  1
  C  C2  1  0.84799700  0.73498500  0.70108300  1
  C  C3  1  0.86085300  0.32455800  0.31385500  1
  C  C4  1  0.13914700  0.67544200  0.68614500  1
  C  C5  1  0.06590400  0.18679800  0.39887600  1
  C  C6  1  0.93409600  0.81320200  0.60112400  1
  C  C7  1  0.09322300  0.45502000  0.81409700  1
  C  C8  1  0.90677700  0.54498000  0.18590300  1
  C  C9  1  0.29417600  0.26804400  0.58289800  1
  C  C10  1  0.70582400  0.73195600  0.41710200  1
  C  C11  1  0.04809200  0.15376100  0.63696500  1
  C  C12  1  0.95190800  0.84623900  0.36303500  1
  C  C13  1  0.15075800  0.73984900  0.25278400  1
  C  C14  1  0.84924200  0.26015100  0.74721600  1
  C  C15  1  0.21201600  0.39119500  0.74909600  1
  C  C16  1  0.78798400  0.60880500  0.25090400  1
  C  C17  1  0.26844400  0.28183200  0.35430200  1
  C  C18  1  0.73155600  0.71816800  0.64569800  1
  C  C19  1  0.05623800  0.59956400  0.78224600  1
  C  C20  1  0.94376200  0.40043600  0.21775400  1
  C  C21  1  0.20971800  0.26633000  0.70844100  1
  C  C22  1  0.79028200  0.73367000  0.29155900  1
  C  C23  1  0.03201300  0.60338000  0.15876400  1
  C  C24  1  0.96798700  0.39662000  0.84123600  1
  C  C25  1  0.07661300  0.78432600  0.59363700  1
  C  C26  1  0.92338700  0.21567400  0.40636300  1
  C  C27  1  0.32091700  0.40241100  0.31894100  1
  C  C28  1  0.67908300  0.59758900  0.68105900  1
  C  C29  1  0.25463800  0.21339600  0.48882900  1
  C  C30  1  0.74536200  0.78660400  0.51117100  1
  C  C31  1  0.34803800  0.39378100  0.54607100  1
  C  C32  1  0.65196200  0.60621900  0.45392900  1
  C  C33  1  0.14639100  0.49541000  0.17369900  1
  C  C34  1  0.85360900  0.50459000  0.82630100  1
  C  C35  1  0.25878700  0.51141000  0.22662700  1
  C  C36  1  0.74121300  0.48859000  0.77337300  1
  C  C37  1  0.26102100  0.63602400  0.26692500  1
  C  C38  1  0.73897900  0.36397600  0.73307500  1
  C  C39  1  0.32432000  0.60397500  0.38445800  1
  C  C40  1  0.67568000  0.39602500  0.61554200  1
  C  C41  1  0.29753000  0.46999200  0.64867200  1
  C  C42  1  0.70247000  0.53000800  0.35132800  1
  C  C43  1  0.03412300  0.72340500  0.19762100  1
  C  C44  1  0.96587700  0.27659500  0.80237900  1
  C  C45  1  0.26214700  0.60915900  0.61792100  1
  C  C46  1  0.73785300  0.39084100  0.38207900  1
  C  C47  1  0.36109600  0.45978100  0.41646200  1
  C  C48  1  0.63890400  0.54021900  0.58353800  1
  C  C49  1  0.09967300  0.81567600  0.35532500  1
  C  C50  1  0.90032700  0.18432400  0.64467500  1
  C  C51  1  0.12957500  0.15510400  0.51621700  1
  C  C52  1  0.87042500  0.84489600  0.48378300  1
  C  C53  1  0.08906700  0.21046000  0.73454500  1
  C  C54  1  0.91093300  0.78954000  0.26545500  1
  C  C55  1  0.09187600  0.37009300  0.21016000  1
  C  C56  1  0.90812400  0.62990700  0.78984000  1
  C  C57  1  0.27547900  0.67741500  0.48317700  1
  C  C58  1  0.72452100  0.32258500  0.51682300  1
  C  C59  1  0.16116000  0.78524300  0.46835600  1
  C  C60  1  0.83884000  0.21475700  0.53164400  1
  N  N61  1  0.68427000  0.04685000  0.04400300  1
  N  N62  1  0.31573000  0.95315000  0.95599700  1
  N  N63  1  0.04390800  0.09280400  0.09629600  1
  N  N64  1  0.95609200  0.90719600  0.90370400  1
  N  N65  1  0.40143300  0.20452400  0.00586000  1
  N  N66  1  0.59856700  0.79547600  0.99414000  1
  N  N67  1  0.57270900  0.05297100  0.79241000  1
  N  N68  1  0.42729100  0.94702900  0.20759000  1
  N  N69  1  0.59958000  0.09424500  0.35312100  1
  N  N70  1  0.40042000  0.90575500  0.64687900  1
  N  N71  1  0.61623200  0.37092300  0.08973900  1
  N  N72  1  0.38376800  0.62907700  0.91026100  1
