# generated using pymatgen
data_CaP2HO8
_symmetry_space_group_name_H-M   'P 1'
_cell_length_a   5.78564875
_cell_length_b   6.42240403
_cell_length_c   12.53332938
_cell_angle_alpha   91.21518219
_cell_angle_beta   96.64958322
_cell_angle_gamma   117.55964772
_symmetry_Int_Tables_number   1
_chemical_formula_structural   CaP2HO8
_chemical_formula_sum   'Ca2 P4 H2 O16'
_cell_volume   408.60733448
_cell_formula_units_Z   2
loop_
 _symmetry_equiv_pos_site_id
 _symmetry_equiv_pos_as_xyz
  1  'x, y, z'
loop_
 _atom_site_type_symbol
 _atom_site_label
 _atom_site_symmetry_multiplicity
 _atom_site_fract_x
 _atom_site_fract_y
 _atom_site_fract_z
 _atom_site_occupancy
  Ca  Ca0  1  0.45962200  0.23434700  0.40539300  1
  Ca  Ca1  1  0.54037800  0.76565300  0.59460700  1
  P  P2  1  0.02925200  0.27591300  0.59822800  1
  P  P3  1  0.97074800  0.72408700  0.40177200  1
  P  P4  1  0.23706700  0.37794200  0.13345700  1
  P  P5  1  0.76293300  0.62205800  0.86654300  1
  H  H6  1  0.56811300  0.99802000  0.24985200  1
  H  H7  1  0.43188700  0.00198000  0.75014800  1
  O  O8  1  0.34304900  0.22262600  0.08394000  1
  O  O9  1  0.65695100  0.77737400  0.91606000  1
  O  O10  1  0.09795100  0.50662200  0.66686200  1
  O  O11  1  0.90204900  0.49337800  0.33313800  1
  O  O12  1  0.01354200  0.09285200  0.67967200  1
  O  O13  1  0.98645800  0.90714800  0.32032800  1
  O  O14  1  0.35719700  0.62883200  0.09612600  1
  O  O15  1  0.64280300  0.37116800  0.90387400  1
  O  O16  1  0.94061600  0.26813200  0.09133500  1
  O  O17  1  0.05938400  0.73186800  0.90866500  1
  O  O18  1  0.25615700  0.33706500  0.53090500  1
  O  O19  1  0.74384300  0.66293500  0.46909500  1
  O  O20  1  0.75917200  0.17262700  0.52660100  1
  O  O21  1  0.24082800  0.82737300  0.47339900  1
  O  O22  1  0.30300600  0.38477600  0.25558700  1
  O  O23  1  0.69699400  0.61522400  0.74441300  1
