# generated using pymatgen
data_Ca3GeO4F
_symmetry_space_group_name_H-M   'P 1'
_cell_length_a   5.39807500
_cell_length_b   7.51139800
_cell_length_c   13.30082700
_cell_angle_alpha   90.00000000
_cell_angle_beta   90.00000000
_cell_angle_gamma   90.00000000
_symmetry_Int_Tables_number   1
_chemical_formula_structural   Ca3GeO4F
_chemical_formula_sum   'Ca12 Ge4 O16 F4'
_cell_volume   539.30982624
_cell_formula_units_Z   4
loop_
 _symmetry_equiv_pos_site_id
 _symmetry_equiv_pos_as_xyz
  1  'x, y, z'
loop_
 _atom_site_type_symbol
 _atom_site_label
 _atom_site_symmetry_multiplicity
 _atom_site_fract_x
 _atom_site_fract_y
 _atom_site_fract_z
 _atom_site_occupancy
  Ca  Ca0  1  0.24075000  0.25000000  0.41325900  1
  Ca  Ca1  1  0.75925000  0.75000000  0.58674100  1
  Ca  Ca2  1  0.25925000  0.75000000  0.91325900  1
  Ca  Ca3  1  0.74075000  0.25000000  0.08674100  1
  Ca  Ca4  1  0.26782200  0.00633900  0.16990200  1
  Ca  Ca5  1  0.73217800  0.99366100  0.83009800  1
  Ca  Ca6  1  0.23217800  0.99366100  0.66990200  1
  Ca  Ca7  1  0.73217800  0.50633900  0.83009800  1
  Ca  Ca8  1  0.76782200  0.00633900  0.33009800  1
  Ca  Ca9  1  0.26782200  0.49366100  0.16990200  1
  Ca  Ca10  1  0.76782200  0.49366100  0.33009800  1
  Ca  Ca11  1  0.23217800  0.50633900  0.66990200  1
  Ge  Ge12  1  0.71901600  0.25000000  0.58198600  1
  Ge  Ge13  1  0.28098400  0.75000000  0.41801400  1
  Ge  Ge14  1  0.78098400  0.75000000  0.08198600  1
  Ge  Ge15  1  0.21901600  0.25000000  0.91801400  1
  O  O16  1  0.36472500  0.25000000  0.58230600  1
  O  O17  1  0.63527500  0.75000000  0.41769400  1
  O  O18  1  0.13527500  0.75000000  0.08230600  1
  O  O19  1  0.86472500  0.25000000  0.91769400  1
  O  O20  1  0.20502300  0.54060000  0.34280700  1
  O  O21  1  0.79497700  0.45940000  0.65719300  1
  O  O22  1  0.29497700  0.45940000  0.84280700  1
  O  O23  1  0.79497700  0.04060000  0.65719300  1
  O  O24  1  0.70502300  0.54060000  0.15719300  1
  O  O25  1  0.20502300  0.95940000  0.34280700  1
  O  O26  1  0.70502300  0.95940000  0.15719300  1
  O  O27  1  0.29497700  0.04060000  0.84280700  1
  O  O28  1  0.30403800  0.25000000  0.05996200  1
  O  O29  1  0.69596200  0.75000000  0.94003800  1
  O  O30  1  0.19596200  0.75000000  0.55996200  1
  O  O31  1  0.80403800  0.25000000  0.44003800  1
  F  F32  1  0.99953800  0.25000000  0.23340700  1
  F  F33  1  0.00046200  0.75000000  0.76659300  1
  F  F34  1  0.50046200  0.75000000  0.73340700  1
  F  F35  1  0.49953800  0.25000000  0.26659300  1
