# generated using pymatgen
data_CoCuSe2(ClO5)2
_symmetry_space_group_name_H-M   'P 1'
_cell_length_a   6.81957500
_cell_length_b   8.69445800
_cell_length_c   18.60304000
_cell_angle_alpha   90.00000000
_cell_angle_beta   90.00000000
_cell_angle_gamma   90.00000000
_symmetry_Int_Tables_number   1
_chemical_formula_structural   CoCuSe2(ClO5)2
_chemical_formula_sum   'Co4 Cu4 Se8 Cl8 O40'
_cell_volume   1103.02090575
_cell_formula_units_Z   4
loop_
 _symmetry_equiv_pos_site_id
 _symmetry_equiv_pos_as_xyz
  1  'x, y, z'
loop_
 _atom_site_type_symbol
 _atom_site_label
 _atom_site_symmetry_multiplicity
 _atom_site_fract_x
 _atom_site_fract_y
 _atom_site_fract_z
 _atom_site_occupancy
  Co  Co0  1  0.08543800  0.17016700  0.25000000  1
  Co  Co1  1  0.91456200  0.82983300  0.75000000  1
  Co  Co2  1  0.58543800  0.32983300  0.75000000  1
  Co  Co3  1  0.41456200  0.67016700  0.25000000  1
  Cu  Cu4  1  0.00000000  0.00000000  0.00000000  1
  Cu  Cu5  1  0.50000000  0.50000000  0.00000000  1
  Cu  Cu6  1  0.00000000  0.00000000  0.50000000  1
  Cu  Cu7  1  0.50000000  0.50000000  0.50000000  1
  Se  Se8  1  0.15160400  0.31162200  0.55934600  1
  Se  Se9  1  0.84839600  0.68837800  0.44065400  1
  Se  Se10  1  0.65160400  0.18837800  0.44065400  1
  Se  Se11  1  0.84839600  0.68837800  0.05934600  1
  Se  Se12  1  0.34839600  0.81162200  0.55934600  1
  Se  Se13  1  0.15160400  0.31162200  0.94065400  1
  Se  Se14  1  0.34839600  0.81162200  0.94065400  1
  Se  Se15  1  0.65160400  0.18837800  0.05934600  1
  Cl  Cl16  1  0.01691100  0.00196200  0.66468900  1
  Cl  Cl17  1  0.98308900  0.99803800  0.33531100  1
  Cl  Cl18  1  0.51691100  0.49803800  0.33531100  1
  Cl  Cl19  1  0.98308900  0.99803800  0.16468900  1
  Cl  Cl20  1  0.48308900  0.50196200  0.66468900  1
  Cl  Cl21  1  0.01691100  0.00196200  0.83531100  1
  Cl  Cl22  1  0.48308900  0.50196200  0.83531100  1
  Cl  Cl23  1  0.51691100  0.49803800  0.16468900  1
  O  O24  1  0.23285300  0.47082500  0.99171800  1
  O  O25  1  0.76714700  0.52917500  0.00828200  1
  O  O26  1  0.73285300  0.02917500  0.00828200  1
  O  O27  1  0.76714700  0.52917500  0.49171800  1
  O  O28  1  0.26714700  0.97082500  0.99171800  1
  O  O29  1  0.23285300  0.47082500  0.50828200  1
  O  O30  1  0.26714700  0.97082500  0.50828200  1
  O  O31  1  0.73285300  0.02917500  0.49171800  1
  O  O32  1  0.31699400  0.08398100  0.25000000  1
  O  O33  1  0.68300600  0.91601900  0.75000000  1
  O  O34  1  0.81699400  0.41601900  0.75000000  1
  O  O35  1  0.18300600  0.58398100  0.25000000  1
  O  O36  1  0.46429400  0.11022900  0.10242200  1
  O  O37  1  0.53570600  0.88977100  0.89757800  1
  O  O38  1  0.96429400  0.38977100  0.89757800  1
  O  O39  1  0.53570600  0.88977100  0.60242200  1
  O  O40  1  0.03570600  0.61022900  0.10242200  1
  O  O41  1  0.46429400  0.11022900  0.39757800  1
  O  O42  1  0.03570600  0.61022900  0.39757800  1
  O  O43  1  0.96429400  0.38977100  0.60242200  1
  O  O44  1  0.13319200  0.29123400  0.17971100  1
  O  O45  1  0.86680800  0.70876600  0.82028900  1
  O  O46  1  0.63319200  0.20876600  0.82028900  1
  O  O47  1  0.86680800  0.70876600  0.67971100  1
  O  O48  1  0.36680800  0.79123400  0.17971100  1
  O  O49  1  0.13319200  0.29123400  0.32028900  1
  O  O50  1  0.36680800  0.79123400  0.32028900  1
  O  O51  1  0.63319200  0.20876600  0.67971100  1
  O  O52  1  0.83109000  0.22499200  0.25000000  1
  O  O53  1  0.16891000  0.77500800  0.75000000  1
  O  O54  1  0.33109000  0.27500800  0.75000000  1
  O  O55  1  0.66891000  0.72499200  0.25000000  1
  O  O56  1  0.04524100  0.20889600  0.01371300  1
  O  O57  1  0.95475900  0.79110400  0.98628700  1
  O  O58  1  0.54524100  0.29110400  0.98628700  1
  O  O59  1  0.95475900  0.79110400  0.51371300  1
  O  O60  1  0.45475900  0.70889600  0.01371300  1
  O  O61  1  0.04524100  0.20889600  0.48628700  1
  O  O62  1  0.45475900  0.70889600  0.48628700  1
  O  O63  1  0.54524100  0.29110400  0.51371300  1
