# generated using pymatgen
data_Ca2YNbO6
_symmetry_space_group_name_H-M   'P 1'
_cell_length_a   5.65497016
_cell_length_b   5.87017500
_cell_length_c   8.15756363
_cell_angle_alpha   90.00000000
_cell_angle_beta   89.60377554
_cell_angle_gamma   90.00000000
_symmetry_Int_Tables_number   1
_chemical_formula_structural   Ca2YNbO6
_chemical_formula_sum   'Ca4 Y2 Nb2 O12'
_cell_volume   270.78926986
_cell_formula_units_Z   2
loop_
 _symmetry_equiv_pos_site_id
 _symmetry_equiv_pos_as_xyz
  1  'x, y, z'
loop_
 _atom_site_type_symbol
 _atom_site_label
 _atom_site_symmetry_multiplicity
 _atom_site_fract_x
 _atom_site_fract_y
 _atom_site_fract_z
 _atom_site_occupancy
  Ca  Ca0  1  0.01444700  0.44566700  0.25071400  1
  Ca  Ca1  1  0.98555300  0.55433300  0.74928600  1
  Ca  Ca2  1  0.48555300  0.94566700  0.24928600  1
  Ca  Ca3  1  0.51444700  0.05433300  0.75071400  1
  Y  Y4  1  0.00000000  0.00000000  0.00000000  1
  Y  Y5  1  0.50000000  0.50000000  0.50000000  1
  Nb  Nb6  1  0.00000000  0.00000000  0.50000000  1
  Nb  Nb7  1  0.50000000  0.50000000  0.00000000  1
  O  O8  1  0.88554900  0.04607000  0.26578300  1
  O  O9  1  0.11445100  0.95393000  0.73421700  1
  O  O10  1  0.61445100  0.54607000  0.23421700  1
  O  O11  1  0.38554900  0.45393000  0.76578300  1
  O  O12  1  0.21017800  0.68384900  0.05934600  1
  O  O13  1  0.78982200  0.31615100  0.94065400  1
  O  O14  1  0.28982200  0.18384900  0.44065400  1
  O  O15  1  0.71017800  0.81615100  0.55934600  1
  O  O16  1  0.32284800  0.21044500  0.06290700  1
  O  O17  1  0.67715200  0.78955500  0.93709300  1
  O  O18  1  0.17715200  0.71044500  0.43709300  1
  O  O19  1  0.82284800  0.28955500  0.56290700  1
