# generated using pymatgen
data_Ca10VP5(O12F)2
_symmetry_space_group_name_H-M   'P 1'
_cell_length_a   6.97893500
_cell_length_b   9.50546500
_cell_length_c   9.51700708
_cell_angle_alpha   60.28858879
_cell_angle_beta   90.00000000
_cell_angle_gamma   90.00000000
_symmetry_Int_Tables_number   1
_chemical_formula_structural   Ca10VP5(O12F)2
_chemical_formula_sum   'Ca10 V1 P5 O24 F2'
_cell_volume   548.33901454
_cell_formula_units_Z   1
loop_
 _symmetry_equiv_pos_site_id
 _symmetry_equiv_pos_as_xyz
  1  'x, y, z'
loop_
 _atom_site_type_symbol
 _atom_site_label
 _atom_site_symmetry_multiplicity
 _atom_site_fract_x
 _atom_site_fract_y
 _atom_site_fract_z
 _atom_site_occupancy
  Ca  Ca0  1  0.50000000  0.00891300  0.48820800  1
  Ca  Ca1  1  0.74983700  0.67260800  0.90547400  1
  Ca  Ca2  1  0.25016300  0.67260800  0.90547400  1
  Ca  Ca3  1  0.74805500  0.33449000  0.58164800  1
  Ca  Ca4  1  0.25194500  0.33449000  0.58164800  1
  Ca  Ca5  1  0.50000000  0.24782000  0.99672400  1
  Ca  Ca6  1  0.00000000  0.76464200  0.49735600  1
  Ca  Ca7  1  0.00000000  0.24836800  0.23806200  1
  Ca  Ca8  1  0.00000000  0.00166600  0.99783700  1
  Ca  Ca9  1  0.50000000  0.76404400  0.24622000  1
  V  V10  1  0.00000000  0.60766400  0.27432800  1
  P  P11  1  0.50000000  0.63403000  0.64573100  1
  P  P12  1  0.50000000  0.97525900  0.87720300  1
  P  P13  1  0.00000000  0.37294700  0.84581000  1
  P  P14  1  0.00000000  0.03233000  0.60991200  1
  P  P15  1  0.50000000  0.40318100  0.21483500  1
  O  O16  1  0.50000000  0.53542300  0.83506900  1
  O  O17  1  0.00000000  0.69571300  0.06443100  1
  O  O18  1  0.50000000  0.51787400  0.57494200  1
  O  O19  1  0.50000000  0.16203000  0.76207000  1
  O  O20  1  0.67958800  0.34680600  0.15909700  1
  O  O21  1  0.32041200  0.34680600  0.15909700  1
  O  O22  1  0.82078500  0.26063700  0.90170900  1
  O  O23  1  0.17921500  0.26063700  0.90170900  1
  O  O24  1  0.00000000  0.48695100  0.91891800  1
  O  O25  1  0.67882800  0.92113000  0.98903600  1
  O  O26  1  0.32117200  0.92113000  0.98903600  1
  O  O27  1  0.50000000  0.88444400  0.77843300  1
  O  O28  1  0.00000000  0.39641000  0.37889900  1
  O  O29  1  0.50000000  0.33054500  0.40188800  1
  O  O30  1  0.00000000  0.12064500  0.71165700  1
  O  O31  1  0.67873900  0.74608500  0.59189700  1
  O  O32  1  0.32126100  0.74608500  0.59189700  1
  O  O33  1  0.50000000  0.59268500  0.12462000  1
  O  O34  1  0.00000000  0.47093400  0.65682400  1
  O  O35  1  0.82032400  0.08712500  0.49890900  1
  O  O36  1  0.17967600  0.08712500  0.49890900  1
  O  O37  1  0.00000000  0.84536900  0.72068100  1
  O  O38  1  0.80575100  0.66943300  0.34159600  1
  O  O39  1  0.19424900  0.66943300  0.34159600  1
  F  F40  1  0.50000000  0.00822700  0.24474300  1
  F  F41  1  0.00000000  0.00181100  0.24332900  1
