# generated using pymatgen
data_CaCeAlFe2Si3O13
_symmetry_space_group_name_H-M   'P 1'
_cell_length_a   5.85701400
_cell_length_b   9.01372600
_cell_length_c   10.22218360
_cell_angle_alpha   64.82301752
_cell_angle_beta   90.00000000
_cell_angle_gamma   90.00000000
_symmetry_Int_Tables_number   1
_chemical_formula_structural   CaCeAlFe2Si3O13
_chemical_formula_sum   'Ca2 Ce2 Al2 Fe4 Si6 O26'
_cell_volume   488.39580417
_cell_formula_units_Z   2
loop_
 _symmetry_equiv_pos_site_id
 _symmetry_equiv_pos_as_xyz
  1  'x, y, z'
loop_
 _atom_site_type_symbol
 _atom_site_label
 _atom_site_symmetry_multiplicity
 _atom_site_fract_x
 _atom_site_fract_y
 _atom_site_fract_z
 _atom_site_occupancy
  Ca  Ca0  1  0.25000000  0.61994700  0.14957700  1
  Ca  Ca1  1  0.75000000  0.38005300  0.85042300  1
  Ce  Ce2  1  0.25000000  0.19303100  0.43833100  1
  Ce  Ce3  1  0.75000000  0.80696900  0.56166900  1
  Al  Al4  1  0.00000000  0.50000000  0.50000000  1
  Al  Al5  1  0.50000000  0.50000000  0.50000000  1
  Fe  Fe6  1  0.25000000  0.92183500  0.77325500  1
  Fe  Fe7  1  0.75000000  0.07816500  0.22674500  1
  Fe  Fe8  1  0.00000000  0.00000000  0.00000000  1
  Fe  Fe9  1  0.50000000  0.00000000  0.00000000  1
  Si  Si10  1  0.25000000  0.30251000  0.04581500  1
  Si  Si11  1  0.75000000  0.69749000  0.95418500  1
  Si  Si12  1  0.25000000  0.86251200  0.33343400  1
  Si  Si13  1  0.75000000  0.13748800  0.66656600  1
  Si  Si14  1  0.25000000  0.58188000  0.73268800  1
  Si  Si15  1  0.75000000  0.41812000  0.26731200  1
  O  O16  1  0.25000000  0.49172800  0.91272400  1
  O  O17  1  0.75000000  0.50827200  0.08727600  1
  O  O18  1  0.01161900  0.21271800  0.03366200  1
  O  O19  1  0.98838100  0.78728200  0.96633800  1
  O  O20  1  0.51161900  0.78728200  0.96633800  1
  O  O21  1  0.48838100  0.21271800  0.03366200  1
  O  O22  1  0.25000000  0.66053400  0.41788100  1
  O  O23  1  0.75000000  0.33946600  0.58211900  1
  O  O24  1  0.25000000  0.07295000  0.86596400  1
  O  O25  1  0.75000000  0.92705000  0.13403600  1
  O  O26  1  0.25000000  0.32541000  0.19600000  1
  O  O27  1  0.75000000  0.67459000  0.80400000  1
  O  O28  1  0.25000000  0.77800400  0.67393500  1
  O  O29  1  0.75000000  0.22199600  0.32606500  1
  O  O30  1  0.02088800  0.52437600  0.67409500  1
  O  O31  1  0.97911200  0.47562400  0.32590500  1
  O  O32  1  0.52088800  0.47562400  0.32590500  1
  O  O33  1  0.47911200  0.52437600  0.67409500  1
  O  O34  1  0.25000000  0.35081600  0.54567000  1
  O  O35  1  0.75000000  0.64918400  0.45433000  1
  O  O36  1  0.25000000  0.89631500  0.16045100  1
  O  O37  1  0.75000000  0.10368500  0.83954900  1
  O  O38  1  0.02768300  0.94537000  0.37742200  1
  O  O39  1  0.97231700  0.05463000  0.62257800  1
  O  O40  1  0.52768300  0.05463000  0.62257800  1
  O  O41  1  0.47231700  0.94537000  0.37742200  1
