# generated using pymatgen
data_Ca2EuBeO5
_symmetry_space_group_name_H-M   'P 1'
_cell_length_a   6.52970200
_cell_length_b   7.18419900
_cell_length_c   9.42088200
_cell_angle_alpha   90.00000000
_cell_angle_beta   90.00000000
_cell_angle_gamma   90.00000000
_symmetry_Int_Tables_number   1
_chemical_formula_structural   Ca2EuBeO5
_chemical_formula_sum   'Ca8 Eu4 Be4 O20'
_cell_volume   441.93996743
_cell_formula_units_Z   4
loop_
 _symmetry_equiv_pos_site_id
 _symmetry_equiv_pos_as_xyz
  1  'x, y, z'
loop_
 _atom_site_type_symbol
 _atom_site_label
 _atom_site_symmetry_multiplicity
 _atom_site_fract_x
 _atom_site_fract_y
 _atom_site_fract_z
 _atom_site_occupancy
  Ca  Ca0  1  0.58099600  0.52387100  0.82610100  1
  Ca  Ca1  1  0.41900400  0.47612900  0.17389900  1
  Ca  Ca2  1  0.08099600  0.47612900  0.67389900  1
  Ca  Ca3  1  0.41900400  0.02387100  0.17389900  1
  Ca  Ca4  1  0.91900400  0.52387100  0.32610100  1
  Ca  Ca5  1  0.58099600  0.97612900  0.82610100  1
  Ca  Ca6  1  0.91900400  0.97612900  0.32610100  1
  Ca  Ca7  1  0.08099600  0.02387100  0.67389900  1
  Eu  Eu8  1  0.09288200  0.75000000  0.97721500  1
  Eu  Eu9  1  0.90711800  0.25000000  0.02278500  1
  Eu  Eu10  1  0.59288200  0.25000000  0.52278500  1
  Eu  Eu11  1  0.40711800  0.75000000  0.47721500  1
  Be  Be12  1  0.81094800  0.75000000  0.60512000  1
  Be  Be13  1  0.18905200  0.25000000  0.39488000  1
  Be  Be14  1  0.31094800  0.25000000  0.89488000  1
  Be  Be15  1  0.68905200  0.75000000  0.10512000  1
  O  O16  1  0.33268400  0.75000000  0.72278400  1
  O  O17  1  0.66731600  0.25000000  0.27721600  1
  O  O18  1  0.83268400  0.25000000  0.77721600  1
  O  O19  1  0.16731600  0.75000000  0.22278400  1
  O  O20  1  0.86504900  0.75000000  0.77813000  1
  O  O21  1  0.13495100  0.25000000  0.22187000  1
  O  O22  1  0.36504900  0.25000000  0.72187000  1
  O  O23  1  0.63495100  0.75000000  0.27813000  1
  O  O24  1  0.02448400  0.75000000  0.51138100  1
  O  O25  1  0.97551600  0.25000000  0.48861900  1
  O  O26  1  0.52448400  0.25000000  0.98861900  1
  O  O27  1  0.47551600  0.75000000  0.01138100  1
  O  O28  1  0.68613100  0.55880900  0.57079000  1
  O  O29  1  0.31386900  0.44119100  0.42921000  1
  O  O30  1  0.18613100  0.44119100  0.92921000  1
  O  O31  1  0.31386900  0.05880900  0.42921000  1
  O  O32  1  0.81386900  0.55880900  0.07079000  1
  O  O33  1  0.68613100  0.94119100  0.57079000  1
  O  O34  1  0.81386900  0.94119100  0.07079000  1
  O  O35  1  0.18613100  0.05880900  0.92921000  1
