# generated using pymatgen
data_C2SF6
_symmetry_space_group_name_H-M   'P 1'
_cell_length_a   5.70849400
_cell_length_b   6.66918400
_cell_length_c   14.62280509
_cell_angle_alpha   63.19522556
_cell_angle_beta   90.00000000
_cell_angle_gamma   90.00000000
_symmetry_Int_Tables_number   1
_chemical_formula_structural   C2SF6
_chemical_formula_sum   'C8 S4 F24'
_cell_volume   496.88586156
_cell_formula_units_Z   4
loop_
 _symmetry_equiv_pos_site_id
 _symmetry_equiv_pos_as_xyz
  1  'x, y, z'
loop_
 _atom_site_type_symbol
 _atom_site_label
 _atom_site_symmetry_multiplicity
 _atom_site_fract_x
 _atom_site_fract_y
 _atom_site_fract_z
 _atom_site_occupancy
  C  C0  1  0.31942100  0.84237100  0.93403300  1
  C  C1  1  0.68057900  0.15762900  0.06596700  1
  C  C2  1  0.81942100  0.15762900  0.56596700  1
  C  C3  1  0.18057900  0.84237100  0.43403300  1
  C  C4  1  0.94584800  0.98095100  0.54391600  1
  C  C5  1  0.05415200  0.01904900  0.45608400  1
  C  C6  1  0.44584800  0.01904900  0.95608400  1
  C  C7  1  0.55415200  0.98095100  0.04391600  1
  S  S8  1  0.94581100  0.69827700  0.65455600  1
  S  S9  1  0.05418900  0.30172300  0.34544400  1
  S  S10  1  0.44581100  0.30172300  0.84544400  1
  S  S11  1  0.55418900  0.69827700  0.15455600  1
  F  F12  1  0.18913000  0.63827300  0.51923100  1
  F  F13  1  0.81087000  0.36172700  0.48076900  1
  F  F14  1  0.68913000  0.36172700  0.98076900  1
  F  F15  1  0.31087000  0.63827300  0.01923100  1
  F  F16  1  0.81762200  0.74054300  0.74132500  1
  F  F17  1  0.18237800  0.25945700  0.25867500  1
  F  F18  1  0.31762200  0.25945700  0.75867500  1
  F  F19  1  0.68237800  0.74054300  0.24132500  1
  F  F20  1  0.09730300  0.90147900  0.90283200  1
  F  F21  1  0.90269700  0.09852100  0.09716800  1
  F  F22  1  0.59730300  0.09852100  0.59716800  1
  F  F23  1  0.40269700  0.90147900  0.40283200  1
  F  F24  1  0.43593300  0.81195000  0.86066500  1
  F  F25  1  0.56406700  0.18805000  0.13933500  1
  F  F26  1  0.93593300  0.18805000  0.63933500  1
  F  F27  1  0.06406700  0.81195000  0.36066500  1
  F  F28  1  0.20345800  0.77548100  0.69082700  1
  F  F29  1  0.79654200  0.22451900  0.30917300  1
  F  F30  1  0.70345800  0.22451900  0.80917300  1
  F  F31  1  0.29654200  0.77548100  0.19082700  1
  F  F32  1  0.17256400  0.33507500  0.88750300  1
  F  F33  1  0.82743600  0.66492500  0.11249700  1
  F  F34  1  0.67256400  0.66492500  0.61249700  1
  F  F35  1  0.32743600  0.33507500  0.38750300  1
