# generated using pymatgen
data_Ca2FeP2(H2O5)2
_symmetry_space_group_name_H-M   'P 1'
_cell_length_a   5.56352359
_cell_length_b   5.78169826
_cell_length_c   6.63396036
_cell_angle_alpha   89.91364299
_cell_angle_beta   103.13226929
_cell_angle_gamma   108.59464776
_symmetry_Int_Tables_number   1
_chemical_formula_structural   Ca2FeP2(H2O5)2
_chemical_formula_sum   'Ca2 Fe1 P2 H4 O10'
_cell_volume   196.38072376
_cell_formula_units_Z   1
loop_
 _symmetry_equiv_pos_site_id
 _symmetry_equiv_pos_as_xyz
  1  'x, y, z'
loop_
 _atom_site_type_symbol
 _atom_site_label
 _atom_site_symmetry_multiplicity
 _atom_site_fract_x
 _atom_site_fract_y
 _atom_site_fract_z
 _atom_site_occupancy
  Ca  Ca0  1  0.16803500  0.40186000  0.76758800  1
  Ca  Ca1  1  0.83196500  0.59814000  0.23241200  1
  Fe  Fe2  1  0.50000000  0.00000000  0.00000000  1
  P  P3  1  0.14830200  0.24213400  0.23291900  1
  P  P4  1  0.85169800  0.75786600  0.76708100  1
  H  H5  1  0.41644100  0.72093600  0.33395300  1
  H  H6  1  0.58355900  0.27906400  0.66604700  1
  H  H7  1  0.30966300  0.06679800  0.57058000  1
  H  H8  1  0.69033700  0.93320200  0.42942000  1
  O  O9  1  0.37500400  0.29805500  0.11598800  1
  O  O10  1  0.62499600  0.70194500  0.88401200  1
  O  O11  1  0.11899400  0.99965400  0.33431100  1
  O  O12  1  0.88100600  0.00034600  0.66568900  1
  O  O13  1  0.43195000  0.15482800  0.70572300  1
  O  O14  1  0.56805000  0.84517200  0.29427700  1
  O  O15  1  0.89419900  0.24154000  0.06898700  1
  O  O16  1  0.10580100  0.75846000  0.93101300  1
  O  O17  1  0.20086700  0.45922800  0.39660600  1
  O  O18  1  0.79913300  0.54077200  0.60339400  1
