# generated using pymatgen
data_Ca2TaInO6
_symmetry_space_group_name_H-M   'P 1'
_cell_length_a   5.77576500
_cell_length_b   5.57418000
_cell_length_c   9.75757261
_cell_angle_alpha   55.19010314
_cell_angle_beta   90.00000000
_cell_angle_gamma   90.00000000
_symmetry_Int_Tables_number   1
_chemical_formula_structural   Ca2TaInO6
_chemical_formula_sum   'Ca4 Ta2 In2 O12'
_cell_volume   257.93021864
_cell_formula_units_Z   2
loop_
 _symmetry_equiv_pos_site_id
 _symmetry_equiv_pos_as_xyz
  1  'x, y, z'
loop_
 _atom_site_type_symbol
 _atom_site_label
 _atom_site_symmetry_multiplicity
 _atom_site_fract_x
 _atom_site_fract_y
 _atom_site_fract_z
 _atom_site_occupancy
  Ca  Ca0  1  0.44473800  0.23557400  0.75000600  1
  Ca  Ca1  1  0.55526200  0.76442600  0.24999400  1
  Ca  Ca2  1  0.94473800  0.76442600  0.74999400  1
  Ca  Ca3  1  0.05526200  0.23557400  0.25000600  1
  Ta  Ta4  1  0.00000000  0.50000000  0.50000000  1
  Ta  Ta5  1  0.50000000  0.50000000  0.00000000  1
  In  In6  1  0.00000000  0.00000000  0.00000000  1
  In  In7  1  0.50000000  0.00000000  0.50000000  1
  O  O8  1  0.03895700  0.36855500  0.73817900  1
  O  O9  1  0.96104300  0.63144500  0.26182100  1
  O  O10  1  0.53895700  0.63144500  0.76182100  1
  O  O11  1  0.46104300  0.36855500  0.23817900  1
  O  O12  1  0.68913600  0.84456700  0.94642700  1
  O  O13  1  0.31086400  0.15543300  0.05357300  1
  O  O14  1  0.18913600  0.15543300  0.55357300  1
  O  O15  1  0.81086400  0.84456700  0.44642700  1
  O  O16  1  0.21145500  0.74260400  0.94140000  1
  O  O17  1  0.78854500  0.25739600  0.05860000  1
  O  O18  1  0.71145500  0.25739600  0.55860000  1
  O  O19  1  0.28854500  0.74260400  0.44140000  1
