# generated using pymatgen
data_Cd3H16C8(N10F)2
_symmetry_space_group_name_H-M   'P 1'
_cell_length_a   8.18876900
_cell_length_b   9.37416132
_cell_length_c   13.31053477
_cell_angle_alpha   105.76339500
_cell_angle_beta   90.00000000
_cell_angle_gamma   90.00000000
_symmetry_Int_Tables_number   1
_chemical_formula_structural   Cd3H16C8(N10F)2
_chemical_formula_sum   'Cd6 H32 C16 N40 F4'
_cell_volume   983.32807613
_cell_formula_units_Z   2
loop_
 _symmetry_equiv_pos_site_id
 _symmetry_equiv_pos_as_xyz
  1  'x, y, z'
loop_
 _atom_site_type_symbol
 _atom_site_label
 _atom_site_symmetry_multiplicity
 _atom_site_fract_x
 _atom_site_fract_y
 _atom_site_fract_z
 _atom_site_occupancy
  Cd  Cd0  1  0.80815100  0.65602900  0.51351500  1
  Cd  Cd1  1  0.19184900  0.34397100  0.48648500  1
  Cd  Cd2  1  0.30815100  0.34397100  0.98648500  1
  Cd  Cd3  1  0.69184900  0.65602900  0.01351500  1
  Cd  Cd4  1  0.00000000  0.00000000  0.00000000  1
  Cd  Cd5  1  0.50000000  0.00000000  0.50000000  1
  H  H6  1  0.40387400  0.97180800  0.27646300  1
  H  H7  1  0.59612600  0.02819200  0.72353700  1
  H  H8  1  0.90387400  0.02819200  0.22353700  1
  H  H9  1  0.09612600  0.97180800  0.77646300  1
  H  H10  1  0.34920000  0.96196100  0.89798800  1
  H  H11  1  0.65080000  0.03803900  0.10201200  1
  H  H12  1  0.84920000  0.03803900  0.60201200  1
  H  H13  1  0.15080000  0.96196100  0.39798800  1
  H  H14  1  0.97744700  0.40322400  0.86477700  1
  H  H15  1  0.02255300  0.59677700  0.13522300  1
  H  H16  1  0.47744700  0.59677700  0.63522300  1
  H  H17  1  0.52255300  0.40322400  0.36477700  1
  H  H18  1  0.69244400  0.43559300  0.66778000  1
  H  H19  1  0.30755600  0.56440700  0.33222000  1
  H  H20  1  0.19244400  0.56440700  0.83222000  1
  H  H21  1  0.80755600  0.43559300  0.16778000  1
  H  H22  1  0.52159300  0.84337800  0.87456300  1
  H  H23  1  0.47840700  0.15662200  0.12543700  1
  H  H24  1  0.02159300  0.15662200  0.62543700  1
  H  H25  1  0.97840700  0.84337800  0.37456300  1
  H  H26  1  0.54595200  0.75988300  0.61465800  1
  H  H27  1  0.45404800  0.24011700  0.38534200  1
  H  H28  1  0.04595200  0.24011700  0.88534200  1
  H  H29  1  0.95404800  0.75988300  0.11465800  1
  H  H30  1  0.62175900  0.47159200  0.79109600  1
  H  H31  1  0.37824100  0.52840800  0.20890400  1
  H  H32  1  0.12175900  0.52840800  0.70890400  1
  H  H33  1  0.87824100  0.47159200  0.29109600  1
  H  H34  1  0.56547400  0.13407900  0.84977600  1
  H  H35  1  0.43452600  0.86592100  0.15022400  1
  H  H36  1  0.06547400  0.86592100  0.65022400  1
  H  H37  1  0.93452600  0.13407900  0.34977600  1
  C  C38  1  0.34182200  0.78397600  0.96114200  1
  C  C39  1  0.65817800  0.21602400  0.03885800  1
  C  C40  1  0.84182200  0.21602400  0.53885800  1
  C  C41  1  0.15817800  0.78397600  0.46114200  1
  C  C42  1  0.76234300  0.63340000  0.76279600  1
  C  C43  1  0.23765700  0.36660000  0.23720400  1
  C  C44  1  0.26234300  0.36660000  0.73720400  1
  C  C45  1  0.73765700  0.63340000  0.26279600  1
  C  C46  1  0.92323900  0.81031600  0.75801700  1
  C  C47  1  0.07676100  0.18968400  0.24198300  1
  C  C48  1  0.42323900  0.18968400  0.74198300  1
  C  C49  1  0.57676100  0.81031600  0.25801700  1
  C  C50  1  0.83364100  0.31200000  0.95766500  1
  C  C51  1  0.16635900  0.68800000  0.04233500  1
  C  C52  1  0.33364100  0.68800000  0.54233500  1
  C  C53  1  0.66635900  0.31200000  0.45766500  1
  N  N54  1  0.41439300  0.66282500  0.97716400  1
  N  N55  1  0.58560700  0.33717500  0.02283600  1
  N  N56  1  0.91439300  0.33717500  0.52283600  1
  N  N57  1  0.08560700  0.66282500  0.47716400  1
  N  N58  1  0.84646200  0.68956100  0.69405600  1
  N  N59  1  0.15353800  0.31043900  0.30594400  1
  N  N60  1  0.34646200  0.31043900  0.80594400  1
  N  N61  1  0.65353800  0.68956100  0.19405600  1
  N  N62  1  0.97869400  0.33534800  0.91319400  1
  N  N63  1  0.02130600  0.66465200  0.08680600  1
  N  N64  1  0.47869400  0.66465200  0.58680600  1
  N  N65  1  0.52130600  0.33534800  0.41319400  1
  N  N66  1  0.81172300  0.19413700  0.99754100  1
  N  N67  1  0.18827700  0.80586300  0.00245900  1
  N  N68  1  0.31172300  0.80586300  0.50245900  1
  N  N69  1  0.68827700  0.19413700  0.49754100  1
  N  N70  1  0.88955400  0.82732500  0.85855100  1
  N  N71  1  0.11044600  0.17267500  0.14144900  1
  N  N72  1  0.38955400  0.17267500  0.64144900  1
  N  N73  1  0.61044600  0.82732500  0.35855100  1
  N  N74  1  0.41137300  0.87190600  0.90834500  1
  N  N75  1  0.58862700  0.12809400  0.09165500  1
  N  N76  1  0.91137300  0.12809400  0.59165500  1
  N  N77  1  0.08862700  0.87190600  0.40834500  1
  N  N78  1  0.70296700  0.40115200  0.96983600  1
  N  N79  1  0.29703300  0.59884800  0.03016400  1
  N  N80  1  0.20296700  0.59884800  0.53016400  1
  N  N81  1  0.79703300  0.40115200  0.46983600  1
  N  N82  1  0.48211900  0.90694600  0.22267200  1
  N  N83  1  0.51788100  0.09305400  0.77732800  1
  N  N84  1  0.98211900  0.09305400  0.27732800  1
  N  N85  1  0.01788100  0.90694600  0.72267200  1
  N  N86  1  0.65506600  0.51546200  0.73196600  1
  N  N87  1  0.34493400  0.48453800  0.26803400  1
  N  N88  1  0.15506600  0.48453800  0.76803400  1
  N  N89  1  0.84493400  0.51546200  0.23196600  1
  N  N90  1  0.78442100  0.71083100  0.86224400  1
  N  N91  1  0.21557900  0.28916900  0.13775600  1
  N  N92  1  0.28442100  0.28916900  0.63775600  1
  N  N93  1  0.71557900  0.71083100  0.36224400  1
  F  F94  1  0.69013000  0.90157600  0.59907400  1
  F  F95  1  0.30987000  0.09842400  0.40092600  1
  F  F96  1  0.19013000  0.09842400  0.90092600  1
  F  F97  1  0.80987000  0.90157600  0.09907400  1
