# generated using pymatgen
data_CCl3
_symmetry_space_group_name_H-M   'P 1'
_cell_length_a   6.64938200
_cell_length_b   10.55170800
_cell_length_c   11.88942700
_cell_angle_alpha   90.00000000
_cell_angle_beta   90.00000000
_cell_angle_gamma   90.00000000
_symmetry_Int_Tables_number   1
_chemical_formula_structural   CCl3
_chemical_formula_sum   'C8 Cl24'
_cell_volume   834.18998682
_cell_formula_units_Z   8
loop_
 _symmetry_equiv_pos_site_id
 _symmetry_equiv_pos_as_xyz
  1  'x, y, z'
loop_
 _atom_site_type_symbol
 _atom_site_label
 _atom_site_symmetry_multiplicity
 _atom_site_fract_x
 _atom_site_fract_y
 _atom_site_fract_z
 _atom_site_occupancy
  C  C0  1  0.78663900  0.75000000  0.61112400  1
  C  C1  1  0.21336100  0.25000000  0.38887600  1
  C  C2  1  0.28663900  0.25000000  0.88887600  1
  C  C3  1  0.71336100  0.75000000  0.11112400  1
  C  C4  1  0.02083800  0.75000000  0.64034300  1
  C  C5  1  0.97916200  0.25000000  0.35965700  1
  C  C6  1  0.52083800  0.25000000  0.85965700  1
  C  C7  1  0.47916200  0.75000000  0.14034300  1
  Cl  Cl8  1  0.08154500  0.61263000  0.71994900  1
  Cl  Cl9  1  0.91845500  0.38737000  0.28005100  1
  Cl  Cl10  1  0.58154500  0.38737000  0.78005100  1
  Cl  Cl11  1  0.91845500  0.11263000  0.28005100  1
  Cl  Cl12  1  0.41845500  0.61263000  0.21994900  1
  Cl  Cl13  1  0.08154500  0.88737000  0.71994900  1
  Cl  Cl14  1  0.41845500  0.88737000  0.21994900  1
  Cl  Cl15  1  0.58154500  0.11263000  0.78005100  1
  Cl  Cl16  1  0.72686700  0.61246000  0.53144400  1
  Cl  Cl17  1  0.27313300  0.38754000  0.46855600  1
  Cl  Cl18  1  0.22686700  0.38754000  0.96855600  1
  Cl  Cl19  1  0.27313300  0.11246000  0.46855600  1
  Cl  Cl20  1  0.77313300  0.61246000  0.03144400  1
  Cl  Cl21  1  0.72686700  0.88754000  0.53144400  1
  Cl  Cl22  1  0.77313300  0.88754000  0.03144400  1
  Cl  Cl23  1  0.22686700  0.11246000  0.96855600  1
  Cl  Cl24  1  0.16272600  0.75000000  0.51337300  1
  Cl  Cl25  1  0.83727400  0.25000000  0.48662700  1
  Cl  Cl26  1  0.66272600  0.25000000  0.98662700  1
  Cl  Cl27  1  0.33727400  0.75000000  0.01337300  1
  Cl  Cl28  1  0.64477500  0.75000000  0.73764100  1
  Cl  Cl29  1  0.35522500  0.25000000  0.26235900  1
  Cl  Cl30  1  0.14477500  0.25000000  0.76235900  1
  Cl  Cl31  1  0.85522500  0.75000000  0.23764100  1
