# generated using pymatgen
data_Ca14Al12Zn4O35
_symmetry_space_group_name_H-M   'P 1'
_cell_length_a   10.61940176
_cell_length_b   10.61940176
_cell_length_c   10.61940176
_cell_angle_alpha   60.00000000
_cell_angle_beta   60.00000000
_cell_angle_gamma   60.00000000
_symmetry_Int_Tables_number   1
_chemical_formula_structural   Ca14Al12Zn4O35
_chemical_formula_sum   'Ca14 Al12 Zn4 O35'
_cell_volume   846.80840041
_cell_formula_units_Z   1
loop_
 _symmetry_equiv_pos_site_id
 _symmetry_equiv_pos_as_xyz
  1  'x, y, z'
loop_
 _atom_site_type_symbol
 _atom_site_label
 _atom_site_symmetry_multiplicity
 _atom_site_fract_x
 _atom_site_fract_y
 _atom_site_fract_z
 _atom_site_occupancy
  Ca  Ca0  1  0.46880800  0.03119200  0.03119200  1
  Ca  Ca1  1  0.03119200  0.46880800  0.46880800  1
  Ca  Ca2  1  0.03119200  0.46880800  0.03119200  1
  Ca  Ca3  1  0.46880800  0.03119200  0.46880800  1
  Ca  Ca4  1  0.03119200  0.03119200  0.46880800  1
  Ca  Ca5  1  0.46880800  0.46880800  0.03119200  1
  Ca  Ca6  1  0.86368300  0.86368300  0.86368300  1
  Ca  Ca7  1  0.86368300  0.86368300  0.40895000  1
  Ca  Ca8  1  0.86368300  0.40895000  0.86368300  1
  Ca  Ca9  1  0.40895000  0.86368300  0.86368300  1
  Ca  Ca10  1  0.63650600  0.63650600  0.63650600  1
  Ca  Ca11  1  0.63650600  0.63650600  0.09048200  1
  Ca  Ca12  1  0.63650600  0.09048200  0.63650600  1
  Ca  Ca13  1  0.09048200  0.63650600  0.63650600  1
  Al  Al14  1  0.75000000  0.75000000  0.75000000  1
  Al  Al15  1  0.38782800  0.38782800  0.38782800  1
  Al  Al16  1  0.38782800  0.38782800  0.83651600  1
  Al  Al17  1  0.38782800  0.83651600  0.38782800  1
  Al  Al18  1  0.83651600  0.38782800  0.38782800  1
  Al  Al19  1  0.74406100  0.25593900  0.25593900  1
  Al  Al20  1  0.25593900  0.74406100  0.74406100  1
  Al  Al21  1  0.25593900  0.74406100  0.25593900  1
  Al  Al22  1  0.74406100  0.25593900  0.74406100  1
  Al  Al23  1  0.25593900  0.25593900  0.74406100  1
  Al  Al24  1  0.74406100  0.74406100  0.25593900  1
  Al  Al25  1  0.25000000  0.25000000  0.25000000  1
  Zn  Zn26  1  0.07771600  0.07771600  0.07771600  1
  Zn  Zn27  1  0.07771600  0.07771600  0.76685100  1
  Zn  Zn28  1  0.07771600  0.76685100  0.07771600  1
  Zn  Zn29  1  0.76685100  0.07771600  0.07771600  1
  O  O30  1  0.87963300  0.62036700  0.62036700  1
  O  O31  1  0.62036700  0.87963300  0.87963300  1
  O  O32  1  0.62036700  0.87963300  0.62036700  1
  O  O33  1  0.87963300  0.62036700  0.87963300  1
  O  O34  1  0.62036700  0.62036700  0.87963300  1
  O  O35  1  0.87963300  0.87963300  0.62036700  1
  O  O36  1  0.31833400  0.31833400  0.31833400  1
  O  O37  1  0.31833400  0.31833400  0.04499700  1
  O  O38  1  0.31833400  0.04499700  0.31833400  1
  O  O39  1  0.04499700  0.31833400  0.31833400  1
  O  O40  1  0.29365500  0.90897700  0.09526300  1
  O  O41  1  0.90897700  0.29365500  0.70210400  1
  O  O42  1  0.09526300  0.70210400  0.29365500  1
  O  O43  1  0.09526300  0.29365500  0.90897700  1
  O  O44  1  0.70210400  0.09526300  0.90897700  1
  O  O45  1  0.70210400  0.90897700  0.29365500  1
  O  O46  1  0.29365500  0.09526300  0.70210400  1
  O  O47  1  0.90897700  0.70210400  0.09526300  1
  O  O48  1  0.90897700  0.09526300  0.29365500  1
  O  O49  1  0.70210400  0.29365500  0.09526300  1
  O  O50  1  0.09526300  0.90897700  0.70210400  1
  O  O51  1  0.29365500  0.70210400  0.90897700  1
  O  O52  1  0.41431900  0.23909400  0.78235500  1
  O  O53  1  0.23909400  0.41431900  0.56423100  1
  O  O54  1  0.78235500  0.56423100  0.41431900  1
  O  O55  1  0.78235500  0.41431900  0.23909400  1
  O  O56  1  0.56423100  0.78235500  0.23909400  1
  O  O57  1  0.56423100  0.23909400  0.41431900  1
  O  O58  1  0.41431900  0.78235500  0.56423100  1
  O  O59  1  0.23909400  0.56423100  0.78235500  1
  O  O60  1  0.23909400  0.78235500  0.41431900  1
  O  O61  1  0.56423100  0.41431900  0.78235500  1
  O  O62  1  0.78235500  0.23909400  0.56423100  1
  O  O63  1  0.41431900  0.56423100  0.23909400  1
  O  O64  1  0.00000000  0.00000000  0.00000000  1
