# generated using pymatgen
data_CaB5H4O9
_symmetry_space_group_name_H-M   'P 1'
_cell_length_a   20.36059100
_cell_length_b   6.59088300
_cell_length_c   6.61651805
_cell_angle_alpha   60.83317987
_cell_angle_beta   90.00000000
_cell_angle_gamma   90.00000000
_symmetry_Int_Tables_number   1
_chemical_formula_structural   CaB5H4O9
_chemical_formula_sum   'Ca4 B20 H16 O36'
_cell_volume   775.31720897
_cell_formula_units_Z   4
loop_
 _symmetry_equiv_pos_site_id
 _symmetry_equiv_pos_as_xyz
  1  'x, y, z'
loop_
 _atom_site_type_symbol
 _atom_site_label
 _atom_site_symmetry_multiplicity
 _atom_site_fract_x
 _atom_site_fract_y
 _atom_site_fract_z
 _atom_site_occupancy
  Ca  Ca0  1  0.69807100  0.95087900  0.68360000  1
  Ca  Ca1  1  0.30192900  0.04912100  0.31640000  1
  Ca  Ca2  1  0.19807100  0.54912100  0.31640000  1
  Ca  Ca3  1  0.80192900  0.45087900  0.68360000  1
  B  B4  1  0.84395600  0.94014500  0.58628800  1
  B  B5  1  0.15604400  0.05985500  0.41371200  1
  B  B6  1  0.34395600  0.55985500  0.41371200  1
  B  B7  1  0.65604400  0.44014500  0.58628800  1
  B  B8  1  0.68315300  0.83725800  0.27703100  1
  B  B9  1  0.31684700  0.16274200  0.72296900  1
  B  B10  1  0.18315300  0.66274200  0.72296900  1
  B  B11  1  0.81684700  0.33725800  0.27703100  1
  B  B12  1  0.44557800  0.65124000  0.18128500  1
  B  B13  1  0.55442200  0.34876000  0.81871500  1
  B  B14  1  0.94557800  0.84876000  0.81871500  1
  B  B15  1  0.05442200  0.15124000  0.18128500  1
  B  B16  1  0.83951000  0.75804400  0.01131000  1
  B  B17  1  0.16049000  0.24195600  0.98869000  1
  B  B18  1  0.33951000  0.74195600  0.98869000  1
  B  B19  1  0.66049000  0.25804400  0.01131000  1
  B  B20  1  0.67252200  0.52677300  0.18066300  1
  B  B21  1  0.32747800  0.47322700  0.81933700  1
  B  B22  1  0.17252200  0.97322700  0.81933700  1
  B  B23  1  0.82747800  0.02677300  0.18066300  1
  H  H24  1  0.56245400  0.93986300  0.54597200  1
  H  H25  1  0.43754600  0.06013700  0.45402800  1
  H  H26  1  0.06245400  0.56013700  0.45402800  1
  H  H27  1  0.93754600  0.43986300  0.54597200  1
  H  H28  1  0.55623600  0.88618100  0.86296400  1
  H  H29  1  0.44376400  0.11381900  0.13703600  1
  H  H30  1  0.05623600  0.61381900  0.13703600  1
  H  H31  1  0.94376400  0.38618100  0.86296400  1
  H  H32  1  0.53402500  0.57852800  0.32673900  1
  H  H33  1  0.46597500  0.42147200  0.67326100  1
  H  H34  1  0.03402500  0.92147200  0.67326100  1
  H  H35  1  0.96597500  0.07852800  0.32673900  1
  H  H36  1  0.55823000  0.91532100  0.72332300  1
  H  H37  1  0.44177000  0.08467900  0.27667700  1
  H  H38  1  0.05823000  0.58467900  0.27667700  1
  H  H39  1  0.94177000  0.41532100  0.72332300  1
  O  O40  1  0.31022600  0.73127600  0.20303200  1
  O  O41  1  0.68977400  0.26872400  0.79696800  1
  O  O42  1  0.81022600  0.76872400  0.79696800  1
  O  O43  1  0.18977400  0.23127600  0.20303200  1
  O  O44  1  0.91352000  0.96557700  0.60581200  1
  O  O45  1  0.08648000  0.03442300  0.39418800  1
  O  O46  1  0.41352000  0.53442300  0.39418800  1
  O  O47  1  0.58648000  0.46557700  0.60581200  1
  O  O48  1  0.82123400  0.98246100  0.00320700  1
  O  O49  1  0.17876600  0.01753900  0.99679300  1
  O  O50  1  0.32123400  0.51753900  0.99679300  1
  O  O51  1  0.67876600  0.48246100  0.00320700  1
  O  O52  1  0.69081300  0.67213700  0.50797400  1
  O  O53  1  0.30918700  0.32786300  0.49202600  1
  O  O54  1  0.19081300  0.82786300  0.49202600  1
  O  O55  1  0.80918700  0.17213700  0.50797400  1
  O  O56  1  0.90987400  0.73187300  0.01803200  1
  O  O57  1  0.09012600  0.26812700  0.98196800  1
  O  O58  1  0.40987400  0.76812700  0.98196800  1
  O  O59  1  0.59012600  0.23187300  0.01803200  1
  O  O60  1  0.67262900  0.76643200  0.11279300  1
  O  O61  1  0.32737100  0.23356800  0.88720700  1
  O  O62  1  0.17262900  0.73356800  0.88720700  1
  O  O63  1  0.82737100  0.26643200  0.11279300  1
  O  O64  1  0.51268600  0.65052300  0.17380100  1
  O  O65  1  0.48731400  0.34947700  0.82619900  1
  O  O66  1  0.01268600  0.84947700  0.82619900  1
  O  O67  1  0.98731400  0.15052300  0.17380100  1
  O  O68  1  0.83158900  0.86423500  0.41096900  1
  O  O69  1  0.16841100  0.13576500  0.58903100  1
  O  O70  1  0.33158900  0.63576500  0.58903100  1
  O  O71  1  0.66841100  0.36423500  0.41096900  1
  O  O72  1  0.81081400  0.56261800  0.22304600  1
  O  O73  1  0.18918600  0.43738200  0.77695400  1
  O  O74  1  0.31081400  0.93738200  0.77695400  1
  O  O75  1  0.68918600  0.06261800  0.22304600  1
