# generated using pymatgen
data_CaH16C4(N7O2)2
_symmetry_space_group_name_H-M   'P 1'
_cell_length_a   8.34901915
_cell_length_b   10.36628325
_cell_length_c   10.36628325
_cell_angle_alpha   80.28897809
_cell_angle_beta   77.00987463
_cell_angle_gamma   77.00987463
_symmetry_Int_Tables_number   1
_chemical_formula_structural   CaH16C4(N7O2)2
_chemical_formula_sum   'Ca2 H32 C8 N28 O8'
_cell_volume   845.23049867
_cell_formula_units_Z   2
loop_
 _symmetry_equiv_pos_site_id
 _symmetry_equiv_pos_as_xyz
  1  'x, y, z'
loop_
 _atom_site_type_symbol
 _atom_site_label
 _atom_site_symmetry_multiplicity
 _atom_site_fract_x
 _atom_site_fract_y
 _atom_site_fract_z
 _atom_site_occupancy
  Ca  Ca0  1  0.25000000  0.74828500  0.25171500  1
  Ca  Ca1  1  0.75000000  0.25171500  0.74828500  1
  H  H2  1  0.12713800  0.15607100  0.60708000  1
  H  H3  1  0.87286200  0.84392900  0.39292000  1
  H  H4  1  0.37286200  0.39292000  0.84392900  1
  H  H5  1  0.62713800  0.60708000  0.15607100  1
  H  H6  1  0.47025000  0.24985400  0.44876100  1
  H  H7  1  0.52975000  0.75014600  0.55123900  1
  H  H8  1  0.02975000  0.55123900  0.75014600  1
  H  H9  1  0.97025000  0.44876100  0.24985400  1
  H  H10  1  0.30938500  0.03485600  0.62961300  1
  H  H11  1  0.69061500  0.96514400  0.37038700  1
  H  H12  1  0.19061500  0.37038700  0.96514400  1
  H  H13  1  0.80938500  0.62961300  0.03485600  1
  H  H14  1  0.49170300  0.38522700  0.52257000  1
  H  H15  1  0.50829700  0.61477300  0.47743000  1
  H  H16  1  0.00829700  0.47743000  0.61477300  1
  H  H17  1  0.99170300  0.52257000  0.38522700  1
  H  H18  1  0.09253400  0.75428300  0.72102700  1
  H  H19  1  0.90746600  0.24571700  0.27897300  1
  H  H20  1  0.40746600  0.27897300  0.24571700  1
  H  H21  1  0.59253400  0.72102700  0.75428300  1
  H  H22  1  0.31885900  0.90779200  0.83107100  1
  H  H23  1  0.68114100  0.09220800  0.16892900  1
  H  H24  1  0.18114100  0.16892900  0.09220800  1
  H  H25  1  0.81885900  0.83107100  0.90779200  1
  H  H26  1  0.12973700  0.84354300  0.55984900  1
  H  H27  1  0.87026300  0.15645700  0.44015100  1
  H  H28  1  0.37026300  0.44015100  0.15645700  1
  H  H29  1  0.62973700  0.55984900  0.84354300  1
  H  H30  1  0.64331400  0.96170700  0.92151900  1
  H  H31  1  0.35668600  0.03829300  0.07848100  1
  H  H32  1  0.85668600  0.07848100  0.03829300  1
  H  H33  1  0.14331400  0.92151900  0.96170700  1
  C  C34  1  0.05849900  0.66713400  0.56893200  1
  C  C35  1  0.94150100  0.33286600  0.43106800  1
  C  C36  1  0.44150100  0.43106800  0.33286600  1
  C  C37  1  0.55849900  0.56893200  0.66713400  1
  C  C38  1  0.10991700  0.04200700  0.78891000  1
  C  C39  1  0.89008300  0.95799300  0.21109000  1
  C  C40  1  0.39008300  0.21109000  0.95799300  1
  C  C41  1  0.60991700  0.78891000  0.04200700  1
  N  N42  1  0.19400900  0.94018300  0.86278000  1
  N  N43  1  0.80599100  0.05981800  0.13722000  1
  N  N44  1  0.30599100  0.13722000  0.05981800  1
  N  N45  1  0.69400900  0.86278000  0.94018300  1
  N  N46  1  0.18874000  0.07972000  0.66411400  1
  N  N47  1  0.81126000  0.92028000  0.33588600  1
  N  N48  1  0.31126000  0.33588600  0.92028000  1
  N  N49  1  0.68874000  0.66411400  0.07972000  1
  N  N50  1  0.46622600  0.34932800  0.44497200  1
  N  N51  1  0.53377400  0.65067200  0.55502800  1
  N  N52  1  0.03377400  0.55502800  0.65067200  1
  N  N53  1  0.96622600  0.44497200  0.34932800  1
  N  N54  1  0.36794000  0.99739800  0.36670500  1
  N  N55  1  0.63206000  0.00260200  0.63329500  1
  N  N56  1  0.13206000  0.63329500  0.00260200  1
  N  N57  1  0.86794000  0.36670500  0.99739800  1
  N  N58  1  0.55339900  0.91795600  0.64518000  1
  N  N59  1  0.44660100  0.08204400  0.35482000  1
  N  N60  1  0.94660100  0.35482000  0.08204400  1
  N  N61  1  0.05339900  0.64518000  0.91795600  1
  N  N62  1  0.28990100  0.91188300  0.38053300  1
  N  N63  1  0.71009900  0.08811700  0.61946700  1
  N  N64  1  0.21009900  0.61946700  0.08811700  1
  N  N65  1  0.78990100  0.38053300  0.91188300  1
  N  N66  1  0.07923100  0.77024200  0.62365100  1
  N  N67  1  0.92076900  0.22975800  0.37634900  1
  N  N68  1  0.42076900  0.37634900  0.22975800  1
  N  N69  1  0.57923100  0.62365100  0.77024200  1
  O  O70  1  0.03974600  0.90283900  0.16482500  1
  O  O71  1  0.96025400  0.09716100  0.83517500  1
  O  O72  1  0.46025400  0.83517500  0.09716100  1
  O  O73  1  0.53974600  0.16482500  0.90283900  1
  O  O74  1  0.05899100  0.67707000  0.44377600  1
  O  O75  1  0.94100900  0.32293000  0.55622400  1
  O  O76  1  0.44100900  0.55622400  0.32293000  1
  O  O77  1  0.55899100  0.44377600  0.67707000  1
