# generated using pymatgen
data_Ce6N8O33
_symmetry_space_group_name_H-M   'P 1'
_cell_length_a   9.29243308
_cell_length_b   10.56520559
_cell_length_c   11.02795676
_cell_angle_alpha   123.57177256
_cell_angle_beta   112.01111959
_cell_angle_gamma   89.86659419
_symmetry_Int_Tables_number   1
_chemical_formula_structural   Ce6N8O33
_chemical_formula_sum   'Ce6 N8 O33'
_cell_volume   806.36955104
_cell_formula_units_Z   1
loop_
 _symmetry_equiv_pos_site_id
 _symmetry_equiv_pos_as_xyz
  1  'x, y, z'
loop_
 _atom_site_type_symbol
 _atom_site_label
 _atom_site_symmetry_multiplicity
 _atom_site_fract_x
 _atom_site_fract_y
 _atom_site_fract_z
 _atom_site_occupancy
  Ce  Ce0  1  0.84091400  0.92129300  0.59086500  1
  Ce  Ce1  1  0.15908600  0.07870700  0.40913500  1
  Ce  Ce2  1  0.80515200  0.79605300  0.21701500  1
  Ce  Ce3  1  0.19484800  0.20394700  0.78298500  1
  Ce  Ce4  1  0.15617300  0.80625100  0.49162500  1
  Ce  Ce5  1  0.84382700  0.19374900  0.50837500  1
  N  N6  1  0.36353300  0.71936000  0.86536000  1
  N  N7  1  0.63646700  0.28064000  0.13464000  1
  N  N8  1  0.58223000  0.87991600  0.67234000  1
  N  N9  1  0.41777000  0.12008400  0.32766000  1
  N  N10  1  0.83403500  0.52382500  0.66337300  1
  N  N11  1  0.16596500  0.47617500  0.33662700  1
  N  N12  1  0.67591100  0.47021200  0.92168400  1
  N  N13  1  0.32408900  0.52978800  0.07831600  1
  O  O14  1  0.87708900  0.72469700  0.37978800  1
  O  O15  1  0.12291100  0.27530300  0.62021200  1
  O  O16  1  0.45946400  0.86955000  0.69151600  1
  O  O17  1  0.54053600  0.13045000  0.30848400  1
  O  O18  1  0.61234700  0.33077500  0.80996700  1
  O  O19  1  0.38765300  0.66922500  0.19003300  1
  O  O20  1  0.36189600  0.62747000  0.72958100  1
  O  O21  1  0.63810400  0.37253000  0.27041900  1
  O  O22  1  0.11052800  0.95986100  0.71593200  1
  O  O23  1  0.88947200  0.04013900  0.28406800  1
  O  O24  1  0.92707600  0.18112900  0.71883200  1
  O  O25  1  0.07292400  0.81887100  0.28116800  1
  O  O26  1  0.59457600  0.76659800  0.54765400  1
  O  O27  1  0.40542400  0.23340200  0.45234600  1
  O  O28  1  0.82843000  0.52948200  0.00957100  1
  O  O29  1  0.17157000  0.47051800  0.99042900  1
  O  O30  1  0.70328000  0.94565600  0.39853400  1
  O  O31  1  0.29672000  0.05434400  0.60146600  1
  O  O32  1  0.23824100  0.70842600  0.88059800  1
  O  O33  1  0.76175900  0.29157400  0.11940200  1
  O  O34  1  0.30150800  0.99560100  0.22491400  1
  O  O35  1  0.69849200  0.00439900  0.77508600  1
  O  O36  1  0.00000000  0.00000000  0.50000000  1
  O  O37  1  0.49010300  0.82334800  0.98604300  1
  O  O38  1  0.50989700  0.17665200  0.01395700  1
  O  O39  1  0.90910600  0.46238300  0.57533700  1
  O  O40  1  0.09089400  0.53761700  0.42466300  1
  O  O41  1  0.83645000  0.66377700  0.73744500  1
  O  O42  1  0.16355000  0.33622300  0.26255500  1
  O  O43  1  0.59050700  0.57143100  0.96186300  1
  O  O44  1  0.40949300  0.42856900  0.03813700  1
  O  O45  1  0.75624300  0.42771600  0.66939400  1
  O  O46  1  0.24375700  0.57228400  0.33060600  1
