# generated using pymatgen
data_Ca2Mn3Si3O14
_symmetry_space_group_name_H-M   'P 1'
_cell_length_a   6.04904900
_cell_length_b   8.67015700
_cell_length_c   10.43489950
_cell_angle_alpha   72.98273032
_cell_angle_beta   90.00000000
_cell_angle_gamma   90.00000000
_symmetry_Int_Tables_number   1
_chemical_formula_structural   Ca2Mn3Si3O14
_chemical_formula_sum   'Ca4 Mn6 Si6 O28'
_cell_volume   523.30948752
_cell_formula_units_Z   2
loop_
 _symmetry_equiv_pos_site_id
 _symmetry_equiv_pos_as_xyz
  1  'x, y, z'
loop_
 _atom_site_type_symbol
 _atom_site_label
 _atom_site_symmetry_multiplicity
 _atom_site_fract_x
 _atom_site_fract_y
 _atom_site_fract_z
 _atom_site_occupancy
  Ca  Ca0  1  0.25000000  0.33169700  0.81162400  1
  Ca  Ca1  1  0.75000000  0.66830300  0.18837600  1
  Ca  Ca2  1  0.25000000  0.23890400  0.17872100  1
  Ca  Ca3  1  0.75000000  0.76109600  0.82127900  1
  Mn  Mn4  1  0.50000000  0.50000000  0.50000000  1
  Mn  Mn5  1  0.00000000  0.50000000  0.50000000  1
  Mn  Mn6  1  0.50000000  0.00000000  0.00000000  1
  Mn  Mn7  1  0.00000000  0.00000000  0.00000000  1
  Mn  Mn8  1  0.50000000  0.00000000  0.50000000  1
  Mn  Mn9  1  0.00000000  0.00000000  0.50000000  1
  Si  Si10  1  0.25000000  0.66560300  0.99701900  1
  Si  Si11  1  0.75000000  0.33439700  0.00298100  1
  Si  Si12  1  0.25000000  0.80588500  0.30725000  1
  Si  Si13  1  0.75000000  0.19411500  0.69275000  1
  Si  Si14  1  0.25000000  0.71588200  0.68951800  1
  Si  Si15  1  0.75000000  0.28411800  0.31048200  1
  O  O16  1  0.25000000  0.61608600  0.85075500  1
  O  O17  1  0.75000000  0.38391400  0.14924500  1
  O  O18  1  0.25000000  0.40734800  0.44068500  1
  O  O19  1  0.75000000  0.59265200  0.55931500  1
  O  O20  1  0.25000000  0.09896500  0.55798200  1
  O  O21  1  0.75000000  0.90103500  0.44201800  1
  O  O22  1  0.25000000  0.91565100  0.41774900  1
  O  O23  1  0.75000000  0.08434900  0.58225100  1
  O  O24  1  0.48130700  0.77037800  0.99678400  1
  O  O25  1  0.51869300  0.22962200  0.00321600  1
  O  O26  1  0.98130700  0.22962200  0.00321600  1
  O  O27  1  0.01869300  0.77037800  0.99678400  1
  O  O28  1  0.25000000  0.05599500  0.88893900  1
  O  O29  1  0.75000000  0.94400500  0.11106100  1
  O  O30  1  0.25000000  0.94493800  0.15692500  1
  O  O31  1  0.75000000  0.05506200  0.84307500  1
  O  O32  1  0.47493700  0.82336100  0.65942000  1
  O  O33  1  0.52506300  0.17663900  0.34058000  1
  O  O34  1  0.97493700  0.17663900  0.34058000  1
  O  O35  1  0.02506300  0.82336100  0.65942000  1
  O  O36  1  0.47072500  0.69449200  0.33668000  1
  O  O37  1  0.52927500  0.30550800  0.66332000  1
  O  O38  1  0.97072500  0.30550800  0.66332000  1
  O  O39  1  0.02927500  0.69449200  0.33668000  1
  O  O40  1  0.25000000  0.57498900  0.61170400  1
  O  O41  1  0.75000000  0.42501100  0.38829600  1
  O  O42  1  0.25000000  0.50224000  0.11670100  1
  O  O43  1  0.75000000  0.49776000  0.88329900  1
