# generated using pymatgen
data_Sr2Mg17
_symmetry_space_group_name_H-M   'P 1'
_cell_length_a   10.50870432
_cell_length_b   10.50870432
_cell_length_c   10.31168700
_cell_angle_alpha   90.00000000
_cell_angle_beta   90.00000000
_cell_angle_gamma   120.00000205
_symmetry_Int_Tables_number   1
_chemical_formula_structural   Sr2Mg17
_chemical_formula_sum   'Sr4 Mg34'
_cell_volume   986.18567624
_cell_formula_units_Z   2
loop_
 _symmetry_equiv_pos_site_id
 _symmetry_equiv_pos_as_xyz
  1  'x, y, z'
loop_
 _atom_site_type_symbol
 _atom_site_label
 _atom_site_symmetry_multiplicity
 _atom_site_fract_x
 _atom_site_fract_y
 _atom_site_fract_z
 _atom_site_occupancy
  Sr  Sr0  1  0.66666700  0.33333300  0.25000000  1
  Sr  Sr1  1  0.33333300  0.66666700  0.75000000  1
  Sr  Sr2  1  0.00000000  0.00000000  0.75000000  1
  Sr  Sr3  1  0.00000000  0.00000000  0.25000000  1
  Mg  Mg4  1  0.16513100  0.33026200  0.52081400  1
  Mg  Mg5  1  0.66973800  0.83486900  0.52081400  1
  Mg  Mg6  1  0.16513100  0.83486900  0.52081400  1
  Mg  Mg7  1  0.83486900  0.16513100  0.02081400  1
  Mg  Mg8  1  0.33333300  0.66666700  0.10212700  1
  Mg  Mg9  1  0.66666700  0.33333300  0.60212700  1
  Mg  Mg10  1  0.66666700  0.33333300  0.89787300  1
  Mg  Mg11  1  0.33333300  0.66666700  0.39787300  1
  Mg  Mg12  1  0.50000000  0.00000000  0.00000000  1
  Mg  Mg13  1  0.50000000  0.50000000  0.50000000  1
  Mg  Mg14  1  0.00000000  0.50000000  0.50000000  1
  Mg  Mg15  1  0.00000000  0.50000000  0.00000000  1
  Mg  Mg16  1  0.50000000  0.50000000  0.00000000  1
  Mg  Mg17  1  0.50000000  0.00000000  0.50000000  1
  Mg  Mg18  1  0.32901300  0.96148700  0.25000000  1
  Mg  Mg19  1  0.36752600  0.32901300  0.75000000  1
  Mg  Mg20  1  0.96148700  0.63247400  0.75000000  1
  Mg  Mg21  1  0.03851300  0.36752600  0.25000000  1
  Mg  Mg22  1  0.63247400  0.67098700  0.25000000  1
  Mg  Mg23  1  0.36752600  0.03851300  0.75000000  1
  Mg  Mg24  1  0.67098700  0.63247400  0.75000000  1
  Mg  Mg25  1  0.67098700  0.03851300  0.75000000  1
  Mg  Mg26  1  0.96148700  0.32901300  0.75000000  1
  Mg  Mg27  1  0.03851300  0.67098700  0.25000000  1
  Mg  Mg28  1  0.63247400  0.96148700  0.25000000  1
  Mg  Mg29  1  0.32901300  0.36752600  0.25000000  1
  Mg  Mg30  1  0.16513100  0.83486900  0.97918600  1
  Mg  Mg31  1  0.33026200  0.16513100  0.47918600  1
  Mg  Mg32  1  0.83486900  0.66973800  0.47918600  1
  Mg  Mg33  1  0.16513100  0.33026200  0.97918600  1
  Mg  Mg34  1  0.66973800  0.83486900  0.97918600  1
  Mg  Mg35  1  0.33026200  0.16513100  0.02081400  1
  Mg  Mg36  1  0.83486900  0.66973800  0.02081400  1
  Mg  Mg37  1  0.83486900  0.16513100  0.47918600  1
