# generated using pymatgen
data_BaTi(GeO3)3
_symmetry_space_group_name_H-M   'P 1'
_cell_length_a   6.92360491
_cell_length_b   6.92360491
_cell_length_c   10.25525800
_cell_angle_alpha   90.00000000
_cell_angle_beta   90.00000000
_cell_angle_gamma   120.00000869
_symmetry_Int_Tables_number   1
_chemical_formula_structural   BaTi(GeO3)3
_chemical_formula_sum   'Ba2 Ti2 Ge6 O18'
_cell_volume   425.73733654
_cell_formula_units_Z   2
loop_
 _symmetry_equiv_pos_site_id
 _symmetry_equiv_pos_as_xyz
  1  'x, y, z'
loop_
 _atom_site_type_symbol
 _atom_site_label
 _atom_site_symmetry_multiplicity
 _atom_site_fract_x
 _atom_site_fract_y
 _atom_site_fract_z
 _atom_site_occupancy
  Ba  Ba0  1  0.00000000  0.00000000  0.00000000  1
  Ba  Ba1  1  0.00000000  0.00000000  0.50000000  1
  Ti  Ti2  1  0.66666700  0.33333300  0.00000000  1
  Ti  Ti3  1  0.66666700  0.33333300  0.50000000  1
  Ge  Ge4  1  0.41362900  0.44804600  0.25000000  1
  Ge  Ge5  1  0.55195400  0.96558300  0.25000000  1
  Ge  Ge6  1  0.41362900  0.96558300  0.75000000  1
  Ge  Ge7  1  0.03441700  0.58637100  0.25000000  1
  Ge  Ge8  1  0.55195400  0.58637100  0.75000000  1
  Ge  Ge9  1  0.03441700  0.44804600  0.75000000  1
  O  O10  1  0.89346000  0.57869700  0.10686200  1
  O  O11  1  0.42130300  0.31476200  0.10686200  1
  O  O12  1  0.89346000  0.57869700  0.39313800  1
  O  O13  1  0.89346000  0.31476200  0.60686200  1
  O  O14  1  0.68523800  0.10654000  0.10686200  1
  O  O15  1  0.42130300  0.31476200  0.39313800  1
  O  O16  1  0.42130300  0.10654000  0.60686200  1
  O  O17  1  0.89346000  0.31476200  0.89313800  1
  O  O18  1  0.68523800  0.10654000  0.39313800  1
  O  O19  1  0.42130300  0.10654000  0.89313800  1
  O  O20  1  0.68523800  0.57869700  0.60686200  1
  O  O21  1  0.68523800  0.57869700  0.89313800  1
  O  O22  1  0.13054600  0.39185400  0.25000000  1
  O  O23  1  0.60814600  0.73869200  0.25000000  1
  O  O24  1  0.13054600  0.73869200  0.75000000  1
  O  O25  1  0.26130800  0.86945400  0.25000000  1
  O  O26  1  0.60814600  0.86945400  0.75000000  1
  O  O27  1  0.26130800  0.39185400  0.75000000  1
