# generated using pymatgen
data_Ce3CrS6
_symmetry_space_group_name_H-M   'P 1'
_cell_length_a   3.87768300
_cell_length_b   13.50698000
_cell_length_c   16.11890200
_cell_angle_alpha   90.00000000
_cell_angle_beta   90.00000000
_cell_angle_gamma   90.00000000
_symmetry_Int_Tables_number   1
_chemical_formula_structural   Ce3CrS6
_chemical_formula_sum   'Ce12 Cr4 S24'
_cell_volume   844.24017343
_cell_formula_units_Z   4
loop_
 _symmetry_equiv_pos_site_id
 _symmetry_equiv_pos_as_xyz
  1  'x, y, z'
loop_
 _atom_site_type_symbol
 _atom_site_label
 _atom_site_symmetry_multiplicity
 _atom_site_fract_x
 _atom_site_fract_y
 _atom_site_fract_z
 _atom_site_occupancy
  Ce  Ce0  1  0.00000000  0.54997100  0.28542800  1
  Ce  Ce1  1  0.00000000  0.45002900  0.71457200  1
  Ce  Ce2  1  0.50000000  0.95002900  0.78542800  1
  Ce  Ce3  1  0.50000000  0.04997100  0.21457200  1
  Ce  Ce4  1  0.00000000  0.75797200  0.09819800  1
  Ce  Ce5  1  0.00000000  0.24202800  0.90180200  1
  Ce  Ce6  1  0.50000000  0.74202800  0.59819800  1
  Ce  Ce7  1  0.50000000  0.25797200  0.40180200  1
  Ce  Ce8  1  0.00000000  0.32011600  0.14754000  1
  Ce  Ce9  1  0.00000000  0.67988400  0.85246000  1
  Ce  Ce10  1  0.50000000  0.17988400  0.64754000  1
  Ce  Ce11  1  0.50000000  0.82011600  0.35246000  1
  Cr  Cr12  1  0.00000000  0.00000000  0.50000000  1
  Cr  Cr13  1  0.50000000  0.50000000  0.00000000  1
  Cr  Cr14  1  0.00000000  0.00000000  0.00000000  1
  Cr  Cr15  1  0.50000000  0.50000000  0.50000000  1
  S  S16  1  0.00000000  0.12280000  0.10180100  1
  S  S17  1  0.00000000  0.87720000  0.89819900  1
  S  S18  1  0.50000000  0.37720000  0.60180100  1
  S  S19  1  0.50000000  0.62280000  0.39819900  1
  S  S20  1  0.00000000  0.18600100  0.28916000  1
  S  S21  1  0.00000000  0.81399900  0.71084000  1
  S  S22  1  0.50000000  0.31399900  0.78916000  1
  S  S23  1  0.50000000  0.68600100  0.21084000  1
  S  S24  1  0.00000000  0.17862200  0.51963200  1
  S  S25  1  0.00000000  0.82137800  0.48036800  1
  S  S26  1  0.50000000  0.32137800  0.01963200  1
  S  S27  1  0.50000000  0.67862200  0.98036800  1
  S  S28  1  0.00000000  0.52390300  0.09599300  1
  S  S29  1  0.00000000  0.47609700  0.90400700  1
  S  S30  1  0.50000000  0.97609700  0.59599300  1
  S  S31  1  0.50000000  0.02390300  0.40400700  1
  S  S32  1  0.00000000  0.09979100  0.75289700  1
  S  S33  1  0.00000000  0.90020900  0.24710300  1
  S  S34  1  0.50000000  0.40020900  0.25289700  1
  S  S35  1  0.50000000  0.59979100  0.74710300  1
  S  S36  1  0.00000000  0.41518600  0.42736900  1
  S  S37  1  0.00000000  0.58481400  0.57263100  1
  S  S38  1  0.50000000  0.08481400  0.92736900  1
  S  S39  1  0.50000000  0.91518600  0.07263100  1
