# generated using pymatgen
data_CdHC2(NO)4
_symmetry_space_group_name_H-M   'P 1'
_cell_length_a   9.06523600
_cell_length_b   10.12700500
_cell_length_c   15.98598900
_cell_angle_alpha   90.00000000
_cell_angle_beta   90.00000000
_cell_angle_gamma   90.00000000
_symmetry_Int_Tables_number   1
_chemical_formula_structural   CdHC2(NO)4
_chemical_formula_sum   'Cd4 H4 C8 N16 O16'
_cell_volume   1467.57278327
_cell_formula_units_Z   4
loop_
 _symmetry_equiv_pos_site_id
 _symmetry_equiv_pos_as_xyz
  1  'x, y, z'
loop_
 _atom_site_type_symbol
 _atom_site_label
 _atom_site_symmetry_multiplicity
 _atom_site_fract_x
 _atom_site_fract_y
 _atom_site_fract_z
 _atom_site_occupancy
  Cd  Cd0  1  0.00000000  0.75000000  0.72053700  1
  Cd  Cd1  1  0.00000000  0.25000000  0.27946300  1
  Cd  Cd2  1  0.50000000  0.25000000  0.77946300  1
  Cd  Cd3  1  0.50000000  0.75000000  0.22053700  1
  H  H4  1  0.00000000  0.75000000  0.37373800  1
  H  H5  1  0.00000000  0.25000000  0.62626200  1
  H  H6  1  0.50000000  0.25000000  0.12626200  1
  H  H7  1  0.50000000  0.75000000  0.87373800  1
  C  C8  1  0.14088500  0.49727000  0.16927900  1
  C  C9  1  0.85911500  0.50273000  0.83072100  1
  C  C10  1  0.35911500  0.99727000  0.33072100  1
  C  C11  1  0.85911500  0.00273000  0.16927900  1
  C  C12  1  0.64088500  0.00273000  0.66927900  1
  C  C13  1  0.14088500  0.99727000  0.83072100  1
  C  C14  1  0.64088500  0.50273000  0.33072100  1
  C  C15  1  0.35911500  0.49727000  0.66927900  1
  N  N16  1  0.30799200  0.81962300  0.04345600  1
  N  N17  1  0.69200800  0.18037700  0.95654400  1
  N  N18  1  0.19200800  0.31962300  0.45654400  1
  N  N19  1  0.69200800  0.68037700  0.04345600  1
  N  N20  1  0.80799200  0.68037700  0.54345600  1
  N  N21  1  0.30799200  0.31962300  0.95654400  1
  N  N22  1  0.80799200  0.18037700  0.45654400  1
  N  N23  1  0.19200800  0.81962300  0.54345600  1
  N  N24  1  0.21184800  0.75184000  0.03632200  1
  N  N25  1  0.78815200  0.24816000  0.96367800  1
  N  N26  1  0.28815200  0.25184000  0.46367800  1
  N  N27  1  0.78815200  0.74816000  0.03632200  1
  N  N28  1  0.71184800  0.74816000  0.53632200  1
  N  N29  1  0.21184800  0.25184000  0.96367800  1
  N  N30  1  0.71184800  0.24816000  0.46367800  1
  N  N31  1  0.28815200  0.75184000  0.53632200  1
  O  O32  1  0.20463500  0.53802200  0.22827700  1
  O  O33  1  0.79536500  0.46197800  0.77172300  1
  O  O34  1  0.29536500  0.03802200  0.27172300  1
  O  O35  1  0.79536500  0.96197800  0.22827700  1
  O  O36  1  0.70463500  0.96197800  0.72827700  1
  O  O37  1  0.20463500  0.03802200  0.77172300  1
  O  O38  1  0.70463500  0.46197800  0.27172300  1
  O  O39  1  0.29536500  0.53802200  0.72827700  1
  O  O40  1  0.57937100  0.53946700  0.39115000  1
  O  O41  1  0.42062900  0.46053300  0.60885000  1
  O  O42  1  0.92062900  0.03946700  0.10885000  1
  O  O43  1  0.42062900  0.96053300  0.39115000  1
  O  O44  1  0.07937100  0.96053300  0.89115000  1
  O  O45  1  0.57937100  0.03946700  0.60885000  1
  O  O46  1  0.07937100  0.46053300  0.10885000  1
  O  O47  1  0.92062900  0.53946700  0.89115000  1
