# generated using pymatgen
data_Be3Cd2(NF6)2
_symmetry_space_group_name_H-M   'P 1'
_cell_length_a   10.65596400
_cell_length_b   10.65596400
_cell_length_c   10.65596400
_cell_angle_alpha   90.00000000
_cell_angle_beta   90.00000000
_cell_angle_gamma   90.00000000
_symmetry_Int_Tables_number   1
_chemical_formula_structural   Be3Cd2(NF6)2
_chemical_formula_sum   'Be12 Cd8 N8 F48'
_cell_volume   1209.98011702
_cell_formula_units_Z   4
loop_
 _symmetry_equiv_pos_site_id
 _symmetry_equiv_pos_as_xyz
  1  'x, y, z'
loop_
 _atom_site_type_symbol
 _atom_site_label
 _atom_site_symmetry_multiplicity
 _atom_site_fract_x
 _atom_site_fract_y
 _atom_site_fract_z
 _atom_site_occupancy
  Be  Be0  1  0.01763700  0.21606600  0.37534100  1
  Be  Be1  1  0.48236300  0.78393400  0.87534100  1
  Be  Be2  1  0.98236300  0.71606600  0.12465900  1
  Be  Be3  1  0.37534100  0.01763700  0.21606600  1
  Be  Be4  1  0.51763700  0.28393400  0.62465900  1
  Be  Be5  1  0.87534100  0.48236300  0.78393400  1
  Be  Be6  1  0.12465900  0.98236300  0.71606600  1
  Be  Be7  1  0.62465900  0.51763700  0.28393400  1
  Be  Be8  1  0.21606600  0.37534100  0.01763700  1
  Be  Be9  1  0.71606600  0.12465900  0.98236300  1
  Be  Be10  1  0.28393400  0.62465900  0.51763700  1
  Be  Be11  1  0.78393400  0.87534100  0.48236300  1
  Cd  Cd12  1  0.33505000  0.33505000  0.33505000  1
  Cd  Cd13  1  0.16495000  0.66495000  0.83505000  1
  Cd  Cd14  1  0.66495000  0.83505000  0.16495000  1
  Cd  Cd15  1  0.83505000  0.16495000  0.66495000  1
  Cd  Cd16  1  0.59875800  0.59875800  0.59875800  1
  Cd  Cd17  1  0.90124200  0.40124200  0.09875800  1
  Cd  Cd18  1  0.40124200  0.09875800  0.90124200  1
  Cd  Cd19  1  0.09875800  0.90124200  0.40124200  1
  N  N20  1  0.04851800  0.04851800  0.04851800  1
  N  N21  1  0.45148200  0.95148200  0.54851800  1
  N  N22  1  0.95148200  0.54851800  0.45148200  1
  N  N23  1  0.54851800  0.45148200  0.95148200  1
  N  N24  1  0.81665600  0.81665600  0.81665600  1
  N  N25  1  0.68334400  0.18334400  0.31665600  1
  N  N26  1  0.18334400  0.31665600  0.68334400  1
  N  N27  1  0.31665600  0.68334400  0.18334400  1
  F  F28  1  0.00981100  0.07673000  0.32978200  1
  F  F29  1  0.49018900  0.92327000  0.82978200  1
  F  F30  1  0.99018900  0.57673000  0.17021800  1
  F  F31  1  0.32978200  0.00981100  0.07673000  1
  F  F32  1  0.50981100  0.42327000  0.67021800  1
  F  F33  1  0.82978200  0.49018900  0.92327000  1
  F  F34  1  0.17021800  0.99018900  0.57673000  1
  F  F35  1  0.67021800  0.50981100  0.42327000  1
  F  F36  1  0.07673000  0.32978200  0.00981100  1
  F  F37  1  0.57673000  0.17021800  0.99018900  1
  F  F38  1  0.42327000  0.67021800  0.50981100  1
  F  F39  1  0.92327000  0.82978200  0.49018900  1
  F  F40  1  0.26605500  0.50079800  0.44211400  1
  F  F41  1  0.23394500  0.49920200  0.94211400  1
  F  F42  1  0.73394500  0.00079800  0.05788600  1
  F  F43  1  0.44211400  0.26605500  0.50079800  1
  F  F44  1  0.76605500  0.99920200  0.55788600  1
  F  F45  1  0.94211400  0.23394500  0.49920200  1
  F  F46  1  0.05788600  0.73394500  0.00079800  1
  F  F47  1  0.55788600  0.76605500  0.99920200  1
  F  F48  1  0.50079800  0.44211400  0.26605500  1
  F  F49  1  0.00079800  0.05788600  0.73394500  1
  F  F50  1  0.99920200  0.55788600  0.76605500  1
  F  F51  1  0.49920200  0.94211400  0.23394500  1
  F  F52  1  0.04180800  0.80309300  0.22494600  1
  F  F53  1  0.45819200  0.19690700  0.72494600  1
  F  F54  1  0.95819200  0.30309300  0.27505400  1
  F  F55  1  0.22494600  0.04180800  0.80309300  1
  F  F56  1  0.54180800  0.69690700  0.77505400  1
  F  F57  1  0.72494600  0.45819200  0.19690700  1
  F  F58  1  0.27505400  0.95819200  0.30309300  1
  F  F59  1  0.77505400  0.54180800  0.69690700  1
  F  F60  1  0.80309300  0.22494600  0.04180800  1
  F  F61  1  0.30309300  0.27505400  0.95819200  1
  F  F62  1  0.69690700  0.77505400  0.54180800  1
  F  F63  1  0.19690700  0.72494600  0.45819200  1
  F  F64  1  0.15648900  0.25245100  0.40294700  1
  F  F65  1  0.34351100  0.74754900  0.90294700  1
  F  F66  1  0.84351100  0.75245100  0.09705300  1
  F  F67  1  0.40294700  0.15648900  0.25245100  1
  F  F68  1  0.65648900  0.24754900  0.59705300  1
  F  F69  1  0.90294700  0.34351100  0.74754900  1
  F  F70  1  0.09705300  0.84351100  0.75245100  1
  F  F71  1  0.59705300  0.65648900  0.24754900  1
  F  F72  1  0.25245100  0.40294700  0.15648900  1
  F  F73  1  0.75245100  0.09705300  0.84351100  1
  F  F74  1  0.24754900  0.59705300  0.65648900  1
  F  F75  1  0.74754900  0.90294700  0.34351100  1
