# generated using pymatgen
data_CaB6(HO4)3
_symmetry_space_group_name_H-M   'P 1'
_cell_length_a   16.52823400
_cell_length_b   6.58623800
_cell_length_c   12.79098667
_cell_angle_alpha   59.85176508
_cell_angle_beta   90.00000000
_cell_angle_gamma   90.00000000
_symmetry_Int_Tables_number   1
_chemical_formula_structural   CaB6(HO4)3
_chemical_formula_sum   'Ca4 B24 H12 O48'
_cell_volume   1204.05936439
_cell_formula_units_Z   4
loop_
 _symmetry_equiv_pos_site_id
 _symmetry_equiv_pos_as_xyz
  1  'x, y, z'
loop_
 _atom_site_type_symbol
 _atom_site_label
 _atom_site_symmetry_multiplicity
 _atom_site_fract_x
 _atom_site_fract_y
 _atom_site_fract_z
 _atom_site_occupancy
  Ca  Ca0  1  0.74435300  0.30421400  0.30538800  1
  Ca  Ca1  1  0.25564700  0.69578600  0.69461200  1
  Ca  Ca2  1  0.24435300  0.69578600  0.19461200  1
  Ca  Ca3  1  0.75564700  0.30421400  0.80538800  1
  B  B4  1  0.56389000  0.40485300  0.26603900  1
  B  B5  1  0.43611000  0.59514700  0.73396100  1
  B  B6  1  0.06389000  0.59514700  0.23396100  1
  B  B7  1  0.93611000  0.40485300  0.76603900  1
  B  B8  1  0.43959800  0.81300800  0.41738400  1
  B  B9  1  0.56040200  0.18699200  0.58261600  1
  B  B10  1  0.93959800  0.18699200  0.08261600  1
  B  B11  1  0.06040200  0.81300800  0.91738400  1
  B  B12  1  0.76131200  0.68723000  0.37044300  1
  B  B13  1  0.23868800  0.31277000  0.62955700  1
  B  B14  1  0.26131200  0.31277000  0.12955700  1
  B  B15  1  0.73868800  0.68723000  0.87044300  1
  B  B16  1  0.77597600  0.78648300  0.02245700  1
  B  B17  1  0.22402400  0.21351700  0.97754300  1
  B  B18  1  0.27597600  0.21351700  0.47754300  1
  B  B19  1  0.72402400  0.78648300  0.52245700  1
  B  B20  1  0.81033100  0.39079200  0.05710500  1
  B  B21  1  0.18966900  0.60920800  0.94289500  1
  B  B22  1  0.31033100  0.60920800  0.44289500  1
  B  B23  1  0.68966900  0.39079200  0.55710500  1
  B  B24  1  0.81394000  0.95323600  0.15598500  1
  B  B25  1  0.18606000  0.04676400  0.84401500  1
  B  B26  1  0.31394000  0.04676400  0.34401500  1
  B  B27  1  0.68606000  0.95323600  0.65598500  1
  H  H28  1  0.95210200  0.74925300  0.41283100  1
  H  H29  1  0.04789800  0.25074700  0.58716900  1
  H  H30  1  0.45210200  0.25074700  0.08716900  1
  H  H31  1  0.54789800  0.74925300  0.91283100  1
  H  H32  1  0.39767700  0.79632800  0.13170300  1
  H  H33  1  0.60232300  0.20367200  0.86829700  1
  H  H34  1  0.89767700  0.20367200  0.36829700  1
  H  H35  1  0.10232300  0.79632800  0.63170300  1
  H  H36  1  0.11051400  0.94287000  0.37811200  1
  H  H37  1  0.88948600  0.05713000  0.62188800  1
  H  H38  1  0.61051400  0.05713000  0.12188800  1
  H  H39  1  0.38948600  0.94287000  0.87811200  1
  O  O40  1  0.79520300  0.55735800  0.10063700  1
  O  O41  1  0.20479700  0.44264200  0.89936300  1
  O  O42  1  0.29520300  0.44264200  0.39936300  1
  O  O43  1  0.70479700  0.55735800  0.60063700  1
  O  O44  1  0.79049100  0.73331400  0.26199400  1
  O  O45  1  0.20950900  0.26668600  0.73800600  1
  O  O46  1  0.29049100  0.26668600  0.23800600  1
  O  O47  1  0.70950900  0.73331400  0.76199400  1
  O  O48  1  0.28708500  0.83812800  0.34067400  1
  O  O49  1  0.71291500  0.16187200  0.65932600  1
  O  O50  1  0.78708500  0.16187200  0.15932600  1
  O  O51  1  0.21291500  0.83812800  0.84067400  1
  O  O52  1  0.75395700  0.85497200  0.40616300  1
  O  O53  1  0.24604300  0.14502800  0.59383700  1
  O  O54  1  0.25395700  0.14502800  0.09383700  1
  O  O55  1  0.74604300  0.85497200  0.90616300  1
  O  O56  1  0.52311900  0.81586900  0.42670300  1
  O  O57  1  0.47688100  0.18413100  0.57329700  1
  O  O58  1  0.02311900  0.18413100  0.07329700  1
  O  O59  1  0.97688100  0.81586900  0.92670300  1
  O  O60  1  0.10561100  0.80326100  0.18857700  1
  O  O61  1  0.89438900  0.19673900  0.81142300  1
  O  O62  1  0.60561100  0.19673900  0.31142300  1
  O  O63  1  0.39438900  0.80326100  0.68857700  1
  O  O64  1  0.98509400  0.54121300  0.23641400  1
  O  O65  1  0.01490600  0.45878700  0.76358600  1
  O  O66  1  0.48509400  0.45878700  0.26358600  1
  O  O67  1  0.51490600  0.54121300  0.73641400  1
  O  O68  1  0.89673100  0.39076400  0.02706000  1
  O  O69  1  0.10326900  0.60923600  0.97294000  1
  O  O70  1  0.39673100  0.60923600  0.47294000  1
  O  O71  1  0.60326900  0.39076400  0.52706000  1
  O  O72  1  0.73802200  0.45813000  0.44637900  1
  O  O73  1  0.26197800  0.54187000  0.55362100  1
  O  O74  1  0.23802200  0.54187000  0.05362100  1
  O  O75  1  0.76197800  0.45813000  0.94637900  1
  O  O76  1  0.78198400  0.96559700  0.04512000  1
  O  O77  1  0.21801600  0.03440300  0.95488000  1
  O  O78  1  0.28198400  0.03440300  0.45488000  1
  O  O79  1  0.71801600  0.96559700  0.54512000  1
  O  O80  1  0.62494600  0.56903000  0.21068200  1
  O  O81  1  0.37505400  0.43097000  0.78931800  1
  O  O82  1  0.12494600  0.43097000  0.28931800  1
  O  O83  1  0.87505400  0.56903000  0.71068200  1
  O  O84  1  0.90488700  0.96800700  0.15063100  1
  O  O85  1  0.09511300  0.03199300  0.84936900  1
  O  O86  1  0.40488700  0.03199300  0.34936900  1
  O  O87  1  0.59511300  0.96800700  0.65063100  1
