# generated using pymatgen
data_CaAl2Si3W3O10
_symmetry_space_group_name_H-M   'P 1'
_cell_length_a   10.72075066
_cell_length_b   10.72075066
_cell_length_c   10.17851004
_cell_angle_alpha   84.50150089
_cell_angle_beta   84.50150089
_cell_angle_gamma   143.98358134
_symmetry_Int_Tables_number   1
_chemical_formula_structural   CaAl2Si3W3O10
_chemical_formula_sum   'Ca2 Al4 Si6 W6 O20'
_cell_volume   654.02343469
_cell_formula_units_Z   2
loop_
 _symmetry_equiv_pos_site_id
 _symmetry_equiv_pos_as_xyz
  1  'x, y, z'
loop_
 _atom_site_type_symbol
 _atom_site_label
 _atom_site_symmetry_multiplicity
 _atom_site_fract_x
 _atom_site_fract_y
 _atom_site_fract_z
 _atom_site_occupancy
  Ca  Ca0  1  0.64455000  0.32405000  0.26967800  1
  Ca  Ca1  1  0.32405000  0.64455000  0.76967800  1
  Al  Al2  1  0.15079300  0.24198700  0.30409100  1
  Al  Al3  1  0.24198700  0.15079300  0.80409100  1
  Al  Al4  1  0.07425700  0.48908500  0.10216600  1
  Al  Al5  1  0.48908500  0.07425700  0.60216600  1
  Si  Si6  1  0.15650000  0.00077900  0.52667600  1
  Si  Si7  1  0.00077900  0.15650000  0.02667600  1
  Si  Si8  1  0.49669400  0.75193500  0.19731300  1
  Si  Si9  1  0.75193400  0.49669400  0.69731300  1
  Si  Si10  1  0.73410700  0.09012300  0.37031900  1
  Si  Si11  1  0.09012300  0.73410700  0.87031900  1
  W  W12  1  0.77350500  0.87367400  0.77509500  1
  W  W13  1  0.87367400  0.77350500  0.27509500  1
  W  W14  1  0.61815200  0.52142100  0.01662500  1
  W  W15  1  0.52142100  0.61815200  0.51662500  1
  W  W16  1  0.31460900  0.02733200  0.09161700  1
  W  W17  1  0.02733200  0.31460900  0.59161700  1
  O  O18  1  0.72871300  0.93166700  0.07167200  1
  O  O19  1  0.93166700  0.72871300  0.57167200  1
  O  O20  1  0.39561700  0.53163200  0.27347200  1
  O  O21  1  0.53163200  0.39561700  0.77347200  1
  O  O22  1  0.93406600  0.16288200  0.39235000  1
  O  O23  1  0.16288200  0.93406600  0.89235000  1
  O  O24  1  0.14753100  0.08509300  0.38901700  1
  O  O25  1  0.08509300  0.14753100  0.88901700  1
  O  O26  1  0.16064400  0.08575400  0.65267900  1
  O  O27  1  0.08575400  0.16064400  0.15267900  1
  O  O28  1  0.08630200  0.37529600  0.99164000  1
  O  O29  1  0.37529600  0.08630200  0.49164000  1
  O  O30  1  0.55347700  0.86907700  0.31944700  1
  O  O31  1  0.86907700  0.55347700  0.81944700  1
  O  O32  1  0.32481500  0.69423300  0.13790200  1
  O  O33  1  0.69423300  0.32481500  0.63790200  1
  O  O34  1  0.60663900  0.04114200  0.51523200  1
  O  O35  1  0.04114200  0.60663900  0.01523200  1
  O  O36  1  0.83891500  0.29295200  0.25151000  1
  O  O37  1  0.29295200  0.83891500  0.75151000  1
