# generated using pymatgen
data_Ca2Mn3Si3H3O14
_symmetry_space_group_name_H-M   'P 1'
_cell_length_a   6.20288200
_cell_length_b   9.08309400
_cell_length_c   10.35615371
_cell_angle_alpha   68.62638143
_cell_angle_beta   90.00000000
_cell_angle_gamma   90.00000000
_symmetry_Int_Tables_number   1
_chemical_formula_structural   Ca2Mn3Si3H3O14
_chemical_formula_sum   'Ca4 Mn6 Si6 H6 O28'
_cell_volume   543.35021901
_cell_formula_units_Z   2
loop_
 _symmetry_equiv_pos_site_id
 _symmetry_equiv_pos_as_xyz
  1  'x, y, z'
loop_
 _atom_site_type_symbol
 _atom_site_label
 _atom_site_symmetry_multiplicity
 _atom_site_fract_x
 _atom_site_fract_y
 _atom_site_fract_z
 _atom_site_occupancy
  Ca  Ca0  1  0.25000000  0.20430100  0.17990400  1
  Ca  Ca1  1  0.75000000  0.79569900  0.82009600  1
  Ca  Ca2  1  0.25000000  0.33001800  0.81262000  1
  Ca  Ca3  1  0.75000000  0.66998200  0.18738000  1
  Mn  Mn4  1  0.50000000  0.50000000  0.50000000  1
  Mn  Mn5  1  0.00000000  0.50000000  0.50000000  1
  Mn  Mn6  1  0.50000000  0.00000000  0.00000000  1
  Mn  Mn7  1  0.00000000  0.00000000  0.00000000  1
  Mn  Mn8  1  0.50000000  0.00000000  0.50000000  1
  Mn  Mn9  1  0.00000000  0.00000000  0.50000000  1
  Si  Si10  1  0.25000000  0.66397900  0.00477800  1
  Si  Si11  1  0.75000000  0.33602100  0.99522200  1
  Si  Si12  1  0.25000000  0.70746300  0.69859800  1
  Si  Si13  1  0.75000000  0.29253700  0.30140200  1
  Si  Si14  1  0.25000000  0.80673200  0.31180400  1
  Si  Si15  1  0.75000000  0.19326800  0.68819600  1
  H  H16  1  0.25000000  0.08467900  0.66288600  1
  H  H17  1  0.75000000  0.91532100  0.33711400  1
  H  H18  1  0.25000000  0.49184800  0.23690100  1
  H  H19  1  0.75000000  0.50815200  0.76309900  1
  H  H20  1  0.25000000  0.29117500  0.48588000  1
  H  H21  1  0.75000000  0.70882500  0.51412000  1
  O  O22  1  0.25000000  0.06097800  0.88314400  1
  O  O23  1  0.75000000  0.93902200  0.11685600  1
  O  O24  1  0.46521200  0.69309900  0.33620500  1
  O  O25  1  0.53478800  0.30690100  0.66379500  1
  O  O26  1  0.96521200  0.30690100  0.66379500  1
  O  O27  1  0.03478800  0.69309900  0.33620500  1
  O  O28  1  0.25000000  0.49117400  0.14123100  1
  O  O29  1  0.75000000  0.50882600  0.85876900  1
  O  O30  1  0.46943800  0.81615800  0.66818300  1
  O  O31  1  0.53056200  0.18384200  0.33181700  1
  O  O32  1  0.96943800  0.18384200  0.33181700  1
  O  O33  1  0.03056200  0.81615800  0.66818300  1
  O  O34  1  0.25000000  0.91401300  0.40924200  1
  O  O35  1  0.75000000  0.08598700  0.59075800  1
  O  O36  1  0.25000000  0.94560800  0.15358200  1
  O  O37  1  0.75000000  0.05439200  0.84641800  1
  O  O38  1  0.25000000  0.57418600  0.62730500  1
  O  O39  1  0.75000000  0.42581400  0.37269500  1
  O  O40  1  0.25000000  0.60261300  0.87063700  1
  O  O41  1  0.75000000  0.39738700  0.12936300  1
  O  O42  1  0.25000000  0.10518900  0.56267300  1
  O  O43  1  0.75000000  0.89481100  0.43732700  1
  O  O44  1  0.47712900  0.75767600  0.00377600  1
  O  O45  1  0.52287100  0.24232400  0.99622400  1
  O  O46  1  0.97712900  0.24232400  0.99622400  1
  O  O47  1  0.02287100  0.75767600  0.00377600  1
  O  O48  1  0.25000000  0.41151100  0.43675300  1
  O  O49  1  0.75000000  0.58848900  0.56324700  1
