# generated using pymatgen
data_BaTbFe4O7
_symmetry_space_group_name_H-M   'P 1'
_cell_length_a   6.37849364
_cell_length_b   6.37849364
_cell_length_c   10.76551900
_cell_angle_alpha   90.00000000
_cell_angle_beta   90.00000000
_cell_angle_gamma   120.00001698
_symmetry_Int_Tables_number   1
_chemical_formula_structural   BaTbFe4O7
_chemical_formula_sum   'Ba2 Tb2 Fe8 O14'
_cell_volume   379.31654174
_cell_formula_units_Z   2
loop_
 _symmetry_equiv_pos_site_id
 _symmetry_equiv_pos_as_xyz
  1  'x, y, z'
loop_
 _atom_site_type_symbol
 _atom_site_label
 _atom_site_symmetry_multiplicity
 _atom_site_fract_x
 _atom_site_fract_y
 _atom_site_fract_z
 _atom_site_occupancy
  Ba  Ba0  1  0.66666700  0.33333300  0.53407900  1
  Ba  Ba1  1  0.33333300  0.66666700  0.03407900  1
  Tb  Tb2  1  0.66666700  0.33333300  0.94048200  1
  Tb  Tb3  1  0.33333300  0.66666700  0.44048200  1
  Fe  Fe4  1  0.18885500  0.37770900  0.73870500  1
  Fe  Fe5  1  0.18885500  0.81114500  0.73870500  1
  Fe  Fe6  1  0.81114500  0.62229100  0.23870500  1
  Fe  Fe7  1  0.62229100  0.81114500  0.73870500  1
  Fe  Fe8  1  0.81114500  0.18885500  0.23870500  1
  Fe  Fe9  1  0.37770900  0.18885500  0.23870500  1
  Fe  Fe10  1  0.00000000  0.00000000  0.98582200  1
  Fe  Fe11  1  0.00000000  0.00000000  0.48582200  1
  O  O12  1  0.00000000  0.00000000  0.80773400  1
  O  O13  1  0.00000000  0.00000000  0.30773400  1
  O  O14  1  0.15697800  0.31395500  0.55957800  1
  O  O15  1  0.15697800  0.84302200  0.55957800  1
  O  O16  1  0.84302200  0.68604500  0.05957800  1
  O  O17  1  0.68604500  0.84302200  0.55957800  1
  O  O18  1  0.84302200  0.15697800  0.05957800  1
  O  O19  1  0.31395500  0.15697800  0.05957800  1
  O  O20  1  0.49233600  0.98467200  0.83661200  1
  O  O21  1  0.49233600  0.50766400  0.83661200  1
  O  O22  1  0.50766400  0.01532800  0.33661200  1
  O  O23  1  0.01532800  0.50766400  0.83661200  1
  O  O24  1  0.50766400  0.49233600  0.33661200  1
  O  O25  1  0.98467200  0.49233600  0.33661200  1
