# generated using pymatgen
data_CrPO10
_symmetry_space_group_name_H-M   'P 1'
_cell_length_a   6.34418307
_cell_length_b   6.34418307
_cell_length_c   25.60748065
_cell_angle_alpha   88.09663763
_cell_angle_beta   88.09663763
_cell_angle_gamma   74.40554522
_symmetry_Int_Tables_number   1
_chemical_formula_structural   CrPO10
_chemical_formula_sum   'Cr4 P4 O40'
_cell_volume   991.86297048
_cell_formula_units_Z   4
loop_
 _symmetry_equiv_pos_site_id
 _symmetry_equiv_pos_as_xyz
  1  'x, y, z'
loop_
 _atom_site_type_symbol
 _atom_site_label
 _atom_site_symmetry_multiplicity
 _atom_site_fract_x
 _atom_site_fract_y
 _atom_site_fract_z
 _atom_site_occupancy
  Cr  Cr0  1  0.58638500  0.57627900  0.90591600  1
  Cr  Cr1  1  0.57627900  0.58638500  0.40591600  1
  Cr  Cr2  1  0.47223700  0.55614200  0.68830600  1
  Cr  Cr3  1  0.55614200  0.47223700  0.18830600  1
  P  P4  1  0.95082600  0.77805100  0.55885400  1
  P  P5  1  0.77805100  0.95082600  0.05885400  1
  P  P6  1  0.09973800  0.20679800  0.79302800  1
  P  P7  1  0.20679800  0.09973800  0.29302800  1
  O  O8  1  0.37064400  0.35004200  0.65693600  1
  O  O9  1  0.35004200  0.37064400  0.15693600  1
  O  O10  1  0.74667600  0.38094300  0.44427100  1
  O  O11  1  0.38094300  0.74667600  0.94427100  1
  O  O12  1  0.07547400  0.11624100  0.73887100  1
  O  O13  1  0.11624100  0.07547400  0.23887100  1
  O  O14  1  0.82461600  0.50508400  0.93607700  1
  O  O15  1  0.50508400  0.82461600  0.43607700  1
  O  O16  1  0.22773500  0.49256300  0.00251500  1
  O  O17  1  0.49256300  0.22773500  0.50251500  1
  O  O18  1  0.35737900  0.51439200  0.39360800  1
  O  O19  1  0.51439200  0.35737900  0.89360800  1
  O  O20  1  0.68038700  0.42461400  0.61839200  1
  O  O21  1  0.42461400  0.68038700  0.11839200  1
  O  O22  1  0.00598000  0.08465800  0.83651600  1
  O  O23  1  0.08465800  0.00598000  0.33651600  1
  O  O24  1  0.73469900  0.60490400  0.68698800  1
  O  O25  1  0.60490400  0.73469900  0.18698800  1
  O  O26  1  0.70832000  0.79287000  0.54817200  1
  O  O27  1  0.79287000  0.70832000  0.04817200  1
  O  O28  1  0.32813300  0.65772100  0.73805100  1
  O  O29  1  0.65772100  0.32813300  0.23805100  1
  O  O30  1  0.96220700  0.88465100  0.61151100  1
  O  O31  1  0.88465100  0.96220700  0.11151100  1
  O  O32  1  0.26073800  0.61134800  0.21027400  1
  O  O33  1  0.61134800  0.26073800  0.71027400  1
  O  O34  1  0.90422900  0.04139300  0.01529900  1
  O  O35  1  0.04139300  0.90422900  0.51529900  1
  O  O36  1  0.63663900  0.70535900  0.85147500  1
  O  O37  1  0.70535900  0.63663900  0.35147500  1
  O  O38  1  0.41716300  0.73789700  0.63483000  1
  O  O39  1  0.73789700  0.41716300  0.13483000  1
  O  O40  1  0.98109400  0.45364100  0.79111300  1
  O  O41  1  0.45364100  0.98109400  0.29111300  1
  O  O42  1  0.17863500  0.61322900  0.96461800  1
  O  O43  1  0.61322900  0.17863500  0.46461800  1
  O  O44  1  0.08164600  0.53661400  0.55951200  1
  O  O45  1  0.53661400  0.08164600  0.05951200  1
  O  O46  1  0.17728900  0.34510000  0.30166700  1
  O  O47  1  0.34510000  0.17728900  0.80166700  1
