# generated using pymatgen
data_Ca(SiO2)8
_symmetry_space_group_name_H-M   'P 1'
_cell_length_a   14.06700200
_cell_length_b   6.75415700
_cell_length_c   10.10241113
_cell_angle_alpha   68.97879896
_cell_angle_beta   90.00000000
_cell_angle_gamma   90.00000000
_symmetry_Int_Tables_number   1
_chemical_formula_structural   Ca(SiO2)8
_chemical_formula_sum   'Ca2 Si16 O32'
_cell_volume   895.95821424
_cell_formula_units_Z   2
loop_
 _symmetry_equiv_pos_site_id
 _symmetry_equiv_pos_as_xyz
  1  'x, y, z'
loop_
 _atom_site_type_symbol
 _atom_site_label
 _atom_site_symmetry_multiplicity
 _atom_site_fract_x
 _atom_site_fract_y
 _atom_site_fract_z
 _atom_site_occupancy
  Ca  Ca0  1  0.72225400  0.50926900  0.63714100  1
  Ca  Ca1  1  0.27774600  0.50926900  0.13714100  1
  Si  Si2  1  0.64866300  0.82575400  0.05307500  1
  Si  Si3  1  0.35133700  0.82575400  0.55307500  1
  Si  Si4  1  0.87259100  0.82425300  0.09046400  1
  Si  Si5  1  0.12740900  0.82425300  0.59046400  1
  Si  Si6  1  0.62790200  0.87506800  0.35239200  1
  Si  Si7  1  0.37209800  0.87506800  0.85239200  1
  Si  Si8  1  0.47123000  0.19168700  0.35386800  1
  Si  Si9  1  0.52877000  0.19168700  0.85386800  1
  Si  Si10  1  0.50420200  0.48615600  0.03917500  1
  Si  Si11  1  0.49579800  0.48615600  0.53917500  1
  Si  Si12  1  0.99644000  0.21263200  0.41682000  1
  Si  Si13  1  0.00356000  0.21263200  0.91682000  1
  Si  Si14  1  0.97317600  0.50046300  0.60271400  1
  Si  Si15  1  0.02682400  0.50046300  0.10271400  1
  Si  Si16  1  0.85460600  0.87264400  0.39143300  1
  Si  Si17  1  0.14539400  0.87264400  0.89143300  1
  O  O18  1  0.88584100  0.67640400  0.54031500  1
  O  O19  1  0.11415900  0.67640400  0.04031500  1
  O  O20  1  0.92080100  0.03996900  0.98376700  1
  O  O21  1  0.07919900  0.03996900  0.48376700  1
  O  O22  1  0.90119100  0.09726800  0.38330700  1
  O  O23  1  0.09880900  0.09726800  0.88330700  1
  O  O24  1  0.61714000  0.88193500  0.19169000  1
  O  O25  1  0.38286000  0.88193500  0.69169000  1
  O  O26  1  0.88474500  0.81737700  0.25350200  1
  O  O27  1  0.11525500  0.81737700  0.75350200  1
  O  O28  1  0.38864100  0.01265100  0.40887300  1
  O  O29  1  0.61135900  0.01265100  0.90887300  1
  O  O30  1  0.44974200  0.33888500  0.18700000  1
  O  O31  1  0.55025800  0.33888500  0.68700000  1
  O  O32  1  0.92493800  0.62073800  0.07177100  1
  O  O33  1  0.07506200  0.62073800  0.57177100  1
  O  O34  1  0.58298600  0.65412000  0.46684300  1
  O  O35  1  0.41701400  0.65412000  0.96684300  1
  O  O36  1  0.57520300  0.08046200  0.36580600  1
  O  O37  1  0.42479700  0.08046200  0.86580600  1
  O  O38  1  0.73809400  0.86974400  0.40752000  1
  O  O39  1  0.26190600  0.86974400  0.90752000  1
  O  O40  1  0.95938700  0.38955400  0.77345000  1
  O  O41  1  0.04061300  0.38955400  0.27345000  1
  O  O42  1  0.47029900  0.34472500  0.44552500  1
  O  O43  1  0.52970100  0.34472500  0.94552500  1
  O  O44  1  0.60003100  0.59847000  0.06738800  1
  O  O45  1  0.39996900  0.59847000  0.56738800  1
  O  O46  1  0.96709500  0.32490600  0.52848900  1
  O  O47  1  0.03290500  0.32490600  0.02848900  1
  O  O48  1  0.76258900  0.81286800  0.04867400  1
  O  O49  1  0.23741100  0.81286800  0.54867400  1
