# generated using pymatgen
data_Ca3Si6W7O15
_symmetry_space_group_name_H-M   'P 1'
_cell_length_a   7.46950956
_cell_length_b   7.81570382
_cell_length_c   10.10187473
_cell_angle_alpha   82.82743225
_cell_angle_beta   69.64015987
_cell_angle_gamma   77.98264079
_symmetry_Int_Tables_number   1
_chemical_formula_structural   Ca3Si6W7O15
_chemical_formula_sum   'Ca3 Si6 W7 O15'
_cell_volume   539.89729191
_cell_formula_units_Z   1
loop_
 _symmetry_equiv_pos_site_id
 _symmetry_equiv_pos_as_xyz
  1  'x, y, z'
loop_
 _atom_site_type_symbol
 _atom_site_label
 _atom_site_symmetry_multiplicity
 _atom_site_fract_x
 _atom_site_fract_y
 _atom_site_fract_z
 _atom_site_occupancy
  Ca  Ca0  1  0.60003600  0.41575500  0.12420300  1
  Ca  Ca1  1  0.19840600  0.43229500  0.44504500  1
  Ca  Ca2  1  0.04690400  0.42891800  0.15188800  1
  Si  Si3  1  0.13844900  0.10373900  0.68032100  1
  Si  Si4  1  0.55328700  0.08776100  0.42420300  1
  Si  Si5  1  0.97478900  0.08742900  0.43519700  1
  Si  Si6  1  0.65273200  0.82453700  0.18422100  1
  Si  Si7  1  0.98363400  0.03414400  0.01426300  1
  Si  Si8  1  0.22717000  0.81211300  0.20357500  1
  W  W9  1  0.44857400  0.13417100  0.99044300  1
  W  W10  1  0.74118600  0.34935500  0.77253000  1
  W  W11  1  0.31389100  0.71494000  0.59854200  1
  W  W12  1  0.72976800  0.90160100  0.76132000  1
  W  W13  1  0.48055600  0.64774900  0.80897400  1
  W  W14  1  0.29457500  0.38270400  0.78800600  1
  W  W15  1  0.75403200  0.65485700  0.54482600  1
  O  O16  1  0.12660300  0.88844700  0.08359100  1
  O  O17  1  0.09111700  0.01116000  0.83988700  1
  O  O18  1  0.44393400  0.87696200  0.14633200  1
  O  O19  1  0.74316300  0.08579900  0.47104400  1
  O  O20  1  0.07720400  0.31699900  0.69069000  1
  O  O21  1  0.60278200  0.90530800  0.33995100  1
  O  O22  1  0.36419500  0.05723400  0.57050600  1
  O  O23  1  0.74051000  0.61847900  0.18247500  1
  O  O24  1  0.00650100  0.04300000  0.59518200  1
  O  O25  1  0.78702600  0.94386700  0.06071600  1
  O  O26  1  0.03953600  0.26987300  0.36343600  1
  O  O27  1  0.25330100  0.60018300  0.22777300  1
  O  O28  1  0.49460400  0.26552500  0.33935000  1
  O  O29  1  0.10214200  0.91336800  0.34919700  1
  O  O30  1  0.91889400  0.23012800  0.06981400  1
