# generated using pymatgen
data_BaY2(MoO4)4
_symmetry_space_group_name_H-M   'P 1'
_cell_length_a   6.91812458
_cell_length_b   6.91812458
_cell_length_c   19.63154869
_cell_angle_alpha   89.46344620
_cell_angle_beta   89.46344620
_cell_angle_gamma   134.73951036
_symmetry_Int_Tables_number   1
_chemical_formula_structural   BaY2(MoO4)4
_chemical_formula_sum   'Ba2 Y4 Mo8 O32'
_cell_volume   667.19563175
_cell_formula_units_Z   2
loop_
 _symmetry_equiv_pos_site_id
 _symmetry_equiv_pos_as_xyz
  1  'x, y, z'
loop_
 _atom_site_type_symbol
 _atom_site_label
 _atom_site_symmetry_multiplicity
 _atom_site_fract_x
 _atom_site_fract_y
 _atom_site_fract_z
 _atom_site_occupancy
  Ba  Ba0  1  0.53129600  0.46870400  0.75000000  1
  Ba  Ba1  1  0.46870400  0.53129600  0.25000000  1
  Y  Y2  1  0.64647300  0.34905200  0.96790100  1
  Y  Y3  1  0.35352700  0.65094800  0.03209900  1
  Y  Y4  1  0.65094800  0.35352700  0.53209900  1
  Y  Y5  1  0.34905200  0.64647300  0.46790100  1
  Mo  Mo6  1  0.92922900  0.04593000  0.59006500  1
  Mo  Mo7  1  0.07077100  0.95407000  0.40993500  1
  Mo  Mo8  1  0.95407000  0.07077100  0.90993500  1
  Mo  Mo9  1  0.04593000  0.92922900  0.09006500  1
  Mo  Mo10  1  0.24341400  0.76369000  0.64785500  1
  Mo  Mo11  1  0.75658600  0.23631000  0.35214500  1
  Mo  Mo12  1  0.23631000  0.75658600  0.85214500  1
  Mo  Mo13  1  0.76369000  0.24341400  0.14785500  1
  O  O14  1  0.67074600  0.01184500  0.54391000  1
  O  O15  1  0.32925400  0.98815500  0.45609000  1
  O  O16  1  0.98815500  0.32925400  0.95609000  1
  O  O17  1  0.01184500  0.67074600  0.04391000  1
  O  O18  1  0.42743700  0.90896600  0.93346600  1
  O  O19  1  0.57256300  0.09103400  0.06653400  1
  O  O20  1  0.09103400  0.57256300  0.56653400  1
  O  O21  1  0.90896600  0.42743700  0.43346600  1
  O  O22  1  0.79924400  0.96370600  0.83101700  1
  O  O23  1  0.20075600  0.03629400  0.16898300  1
  O  O24  1  0.03629400  0.20075600  0.66898300  1
  O  O25  1  0.96370600  0.79924400  0.33101700  1
  O  O26  1  0.72011000  0.81586100  0.10194000  1
  O  O27  1  0.27989000  0.18413900  0.89806000  1
  O  O28  1  0.18413900  0.27989000  0.39806000  1
  O  O29  1  0.81586100  0.72011000  0.60194000  1
  O  O30  1  0.41501500  0.11647400  0.63242000  1
  O  O31  1  0.58498500  0.88352600  0.36758000  1
  O  O32  1  0.88352600  0.58498500  0.86758000  1
  O  O33  1  0.11647400  0.41501500  0.13242000  1
  O  O34  1  0.72472900  0.75941900  0.96487400  1
  O  O35  1  0.27527100  0.24058100  0.03512600  1
  O  O36  1  0.24058100  0.27527100  0.53512600  1
  O  O37  1  0.75941900  0.72472900  0.46487400  1
  O  O38  1  0.48841700  0.76531800  0.67389700  1
  O  O39  1  0.51158300  0.23468200  0.32610300  1
  O  O40  1  0.23468200  0.51158300  0.82610300  1
  O  O41  1  0.76531800  0.48841700  0.17389700  1
  O  O42  1  0.40150500  0.01385800  0.78880700  1
  O  O43  1  0.59849500  0.98614200  0.21119300  1
  O  O44  1  0.98614200  0.59849500  0.71119300  1
  O  O45  1  0.01385800  0.40150500  0.28880700  1
