# generated using pymatgen
data_Ca2Mg2B4O13
_symmetry_space_group_name_H-M   'P 1'
_cell_length_a   8.56320200
_cell_length_b   8.62586100
_cell_length_c   13.25706600
_cell_angle_alpha   90.00000000
_cell_angle_beta   90.00000000
_cell_angle_gamma   90.00000000
_symmetry_Int_Tables_number   1
_chemical_formula_structural   Ca2Mg2B4O13
_chemical_formula_sum   'Ca8 Mg8 B16 O52'
_cell_volume   979.23304973
_cell_formula_units_Z   4
loop_
 _symmetry_equiv_pos_site_id
 _symmetry_equiv_pos_as_xyz
  1  'x, y, z'
loop_
 _atom_site_type_symbol
 _atom_site_label
 _atom_site_symmetry_multiplicity
 _atom_site_fract_x
 _atom_site_fract_y
 _atom_site_fract_z
 _atom_site_occupancy
  Ca  Ca0  1  0.25516500  0.26760000  0.36244600  1
  Ca  Ca1  1  0.74483500  0.73240000  0.63755400  1
  Ca  Ca2  1  0.25516500  0.73240000  0.63755400  1
  Ca  Ca3  1  0.74483500  0.23240000  0.86244600  1
  Ca  Ca4  1  0.74483500  0.26760000  0.36244600  1
  Ca  Ca5  1  0.25516500  0.76760000  0.13755400  1
  Ca  Ca6  1  0.74483500  0.76760000  0.13755400  1
  Ca  Ca7  1  0.25516500  0.23240000  0.86244600  1
  Mg  Mg8  1  0.00000000  0.03287500  0.23836300  1
  Mg  Mg9  1  0.00000000  0.96712500  0.76163700  1
  Mg  Mg10  1  0.00000000  0.46712500  0.73836300  1
  Mg  Mg11  1  0.00000000  0.53287500  0.26163700  1
  Mg  Mg12  1  0.00000000  0.00000000  0.50000000  1
  Mg  Mg13  1  0.00000000  0.50000000  0.00000000  1
  Mg  Mg14  1  0.00000000  0.00000000  0.00000000  1
  Mg  Mg15  1  0.00000000  0.50000000  0.50000000  1
  B  B16  1  0.50000000  0.28230100  0.20583600  1
  B  B17  1  0.50000000  0.71769900  0.79416400  1
  B  B18  1  0.50000000  0.21769900  0.70583600  1
  B  B19  1  0.50000000  0.78230100  0.29416400  1
  B  B20  1  0.50000000  0.26329600  0.02033400  1
  B  B21  1  0.50000000  0.73670400  0.97966600  1
  B  B22  1  0.50000000  0.23670400  0.52033400  1
  B  B23  1  0.50000000  0.76329600  0.47966600  1
  B  B24  1  0.28728600  0.12970400  0.11756000  1
  B  B25  1  0.71271400  0.87029600  0.88244000  1
  B  B26  1  0.28728600  0.87029600  0.88244000  1
  B  B27  1  0.71271400  0.37029600  0.61756000  1
  B  B28  1  0.71271400  0.12970400  0.11756000  1
  B  B29  1  0.28728600  0.62970400  0.38244000  1
  B  B30  1  0.71271400  0.62970400  0.38244000  1
  B  B31  1  0.28728600  0.37029600  0.61756000  1
  O  O32  1  0.15871100  0.03521700  0.12006800  1
  O  O33  1  0.84128900  0.96478300  0.87993200  1
  O  O34  1  0.15871100  0.96478300  0.87993200  1
  O  O35  1  0.84128900  0.46478300  0.62006800  1
  O  O36  1  0.84128900  0.03521700  0.12006800  1
  O  O37  1  0.15871100  0.53521700  0.37993200  1
  O  O38  1  0.84128900  0.53521700  0.37993200  1
  O  O39  1  0.15871100  0.46478300  0.62006800  1
  O  O40  1  0.50000000  0.16381300  0.42200600  1
  O  O41  1  0.50000000  0.83618700  0.57799400  1
  O  O42  1  0.50000000  0.33618700  0.92200600  1
  O  O43  1  0.50000000  0.66381300  0.07799400  1
  O  O44  1  0.35342200  0.18631700  0.20570900  1
  O  O45  1  0.64657800  0.81368300  0.79429100  1
  O  O46  1  0.35342200  0.81368300  0.79429100  1
  O  O47  1  0.64657800  0.31368300  0.70570900  1
  O  O48  1  0.64657800  0.18631700  0.20570900  1
  O  O49  1  0.35342200  0.68631700  0.29429100  1
  O  O50  1  0.64657800  0.68631700  0.29429100  1
  O  O51  1  0.35342200  0.31368300  0.70570900  1
  O  O52  1  0.50000000  0.37414000  0.29692100  1
  O  O53  1  0.50000000  0.62586000  0.70307900  1
  O  O54  1  0.50000000  0.12586000  0.79692100  1
  O  O55  1  0.50000000  0.87414000  0.20307900  1
  O  O56  1  0.13002000  0.01844800  0.37278800  1
  O  O57  1  0.86998000  0.98155200  0.62721200  1
  O  O58  1  0.13002000  0.98155200  0.62721200  1
  O  O59  1  0.86998000  0.48155200  0.87278800  1
  O  O60  1  0.86998000  0.01844800  0.37278800  1
  O  O61  1  0.13002000  0.51844800  0.12721200  1
  O  O62  1  0.86998000  0.51844800  0.12721200  1
  O  O63  1  0.13002000  0.48155200  0.87278800  1
  O  O64  1  0.50000000  0.36845500  0.10883100  1
  O  O65  1  0.50000000  0.63154500  0.89116900  1
  O  O66  1  0.50000000  0.13154500  0.60883100  1
  O  O67  1  0.50000000  0.86845500  0.39116900  1
  O  O68  1  0.35444900  0.16860900  0.02636600  1
  O  O69  1  0.64555100  0.83139100  0.97363400  1
  O  O70  1  0.35444900  0.83139100  0.97363400  1
  O  O71  1  0.64555100  0.33139100  0.52636600  1
  O  O72  1  0.64555100  0.16860900  0.02636600  1
  O  O73  1  0.35444900  0.66860900  0.47363400  1
  O  O74  1  0.64555100  0.66860900  0.47363400  1
  O  O75  1  0.35444900  0.33139100  0.52636600  1
  O  O76  1  0.00000000  0.23402700  0.45534600  1
  O  O77  1  0.00000000  0.76597300  0.54465400  1
  O  O78  1  0.00000000  0.26597300  0.95534600  1
  O  O79  1  0.00000000  0.73402700  0.04465400  1
  O  O80  1  0.00000000  0.27963400  0.26959500  1
  O  O81  1  0.00000000  0.72036600  0.73040500  1
  O  O82  1  0.00000000  0.22036600  0.76959500  1
  O  O83  1  0.00000000  0.77963400  0.23040500  1
