# generated using pymatgen
data_BaSm2(MoO4)4
_symmetry_space_group_name_H-M   'P 1'
_cell_length_a   6.98871949
_cell_length_b   6.98871949
_cell_length_c   19.68761773
_cell_angle_alpha   89.50143321
_cell_angle_beta   89.50143321
_cell_angle_gamma   134.54365389
_symmetry_Int_Tables_number   1
_chemical_formula_structural   BaSm2(MoO4)4
_chemical_formula_sum   'Ba2 Sm4 Mo8 O32'
_cell_volume   685.16450289
_cell_formula_units_Z   2
loop_
 _symmetry_equiv_pos_site_id
 _symmetry_equiv_pos_as_xyz
  1  'x, y, z'
loop_
 _atom_site_type_symbol
 _atom_site_label
 _atom_site_symmetry_multiplicity
 _atom_site_fract_x
 _atom_site_fract_y
 _atom_site_fract_z
 _atom_site_occupancy
  Ba  Ba0  1  0.53194500  0.46805500  0.25000000  1
  Ba  Ba1  1  0.46805500  0.53194500  0.75000000  1
  Sm  Sm2  1  0.64544600  0.34910800  0.46717100  1
  Sm  Sm3  1  0.35455400  0.65089200  0.53282900  1
  Sm  Sm4  1  0.65089200  0.35455400  0.03282900  1
  Sm  Sm5  1  0.34910800  0.64544600  0.96717100  1
  Mo  Mo6  1  0.93189800  0.04740000  0.09113800  1
  Mo  Mo7  1  0.06810200  0.95260000  0.90886200  1
  Mo  Mo8  1  0.95260000  0.06810200  0.40886200  1
  Mo  Mo9  1  0.04740000  0.93189800  0.59113800  1
  Mo  Mo10  1  0.24318400  0.76401400  0.14996000  1
  Mo  Mo11  1  0.75681600  0.23598600  0.85004000  1
  Mo  Mo12  1  0.23598600  0.75681600  0.35004000  1
  Mo  Mo13  1  0.76401400  0.24318400  0.64996000  1
  O  O14  1  0.67982800  0.02015700  0.04614100  1
  O  O15  1  0.32017200  0.97984300  0.95385900  1
  O  O16  1  0.97984300  0.32017200  0.45385900  1
  O  O17  1  0.02015700  0.67982800  0.54614100  1
  O  O18  1  0.41742800  0.90175500  0.43221700  1
  O  O19  1  0.58257200  0.09824500  0.56778300  1
  O  O20  1  0.09824500  0.58257200  0.06778300  1
  O  O21  1  0.90175500  0.41742800  0.93221700  1
  O  O22  1  0.80098700  0.96458200  0.33021300  1
  O  O23  1  0.19901300  0.03541800  0.66978700  1
  O  O24  1  0.03541800  0.19901300  0.16978700  1
  O  O25  1  0.96458200  0.80098700  0.83021300  1
  O  O26  1  0.72285600  0.81434400  0.60319000  1
  O  O27  1  0.27714400  0.18565600  0.39681000  1
  O  O28  1  0.18565600  0.27714400  0.89681000  1
  O  O29  1  0.81434400  0.72285600  0.10319000  1
  O  O30  1  0.40936200  0.11181200  0.13532000  1
  O  O31  1  0.59063800  0.88818800  0.86468000  1
  O  O32  1  0.88818800  0.59063800  0.36468000  1
  O  O33  1  0.11181200  0.40936200  0.63532000  1
  O  O34  1  0.72960500  0.76276400  0.46430300  1
  O  O35  1  0.27039500  0.23723600  0.53569700  1
  O  O36  1  0.23723600  0.27039500  0.03569700  1
  O  O37  1  0.76276400  0.72960500  0.96430300  1
  O  O38  1  0.48377900  0.76244700  0.17512300  1
  O  O39  1  0.51622100  0.23755300  0.82487700  1
  O  O40  1  0.23755300  0.51622100  0.32487700  1
  O  O41  1  0.76244700  0.48377900  0.67512300  1
  O  O42  1  0.40325800  0.01497300  0.28810400  1
  O  O43  1  0.59674200  0.98502700  0.71189600  1
  O  O44  1  0.98502700  0.59674200  0.21189600  1
  O  O45  1  0.01497300  0.40325800  0.78810400  1
