# generated using pymatgen
data_BaU2S5
_symmetry_space_group_name_H-M   'P 1'
_cell_length_a   7.37953300
_cell_length_b   7.94909800
_cell_length_c   13.01188100
_cell_angle_alpha   90.00000000
_cell_angle_beta   90.00000000
_cell_angle_gamma   90.00000000
_symmetry_Int_Tables_number   1
_chemical_formula_structural   BaU2S5
_chemical_formula_sum   'Ba4 U8 S20'
_cell_volume   763.28515010
_cell_formula_units_Z   4
loop_
 _symmetry_equiv_pos_site_id
 _symmetry_equiv_pos_as_xyz
  1  'x, y, z'
loop_
 _atom_site_type_symbol
 _atom_site_label
 _atom_site_symmetry_multiplicity
 _atom_site_fract_x
 _atom_site_fract_y
 _atom_site_fract_z
 _atom_site_occupancy
  Ba  Ba0  1  0.92611100  0.75000000  0.99281400  1
  Ba  Ba1  1  0.07388900  0.25000000  0.00718600  1
  Ba  Ba2  1  0.42611100  0.25000000  0.50718600  1
  Ba  Ba3  1  0.57388900  0.75000000  0.49281400  1
  U  U4  1  0.99355900  0.00649600  0.68457900  1
  U  U5  1  0.00644100  0.99350400  0.31542100  1
  U  U6  1  0.49355900  0.99350400  0.81542100  1
  U  U7  1  0.00644100  0.50649600  0.31542100  1
  U  U8  1  0.50644100  0.00649600  0.18457900  1
  U  U9  1  0.99355900  0.49350400  0.68457900  1
  U  U10  1  0.50644100  0.49350400  0.18457900  1
  U  U11  1  0.49355900  0.50649600  0.81542100  1
  S  S12  1  0.71922100  0.75000000  0.71650900  1
  S  S13  1  0.28077900  0.25000000  0.28349100  1
  S  S14  1  0.21922100  0.25000000  0.78349100  1
  S  S15  1  0.78077900  0.75000000  0.21650900  1
  S  S16  1  0.18350800  0.75000000  0.80769700  1
  S  S17  1  0.81649200  0.25000000  0.19230300  1
  S  S18  1  0.68350800  0.25000000  0.69230300  1
  S  S19  1  0.31649200  0.75000000  0.30769700  1
  S  S20  1  0.50872400  0.75000000  0.98751900  1
  S  S21  1  0.49127600  0.25000000  0.01248100  1
  S  S22  1  0.00872400  0.25000000  0.51248100  1
  S  S23  1  0.99127600  0.75000000  0.48751900  1
  S  S24  1  0.83210200  0.45253200  0.86768200  1
  S  S25  1  0.16789800  0.54746800  0.13231800  1
  S  S26  1  0.33210200  0.54746800  0.63231800  1
  S  S27  1  0.16789800  0.95253200  0.13231800  1
  S  S28  1  0.66789800  0.45253200  0.36768200  1
  S  S29  1  0.83210200  0.04746800  0.86768200  1
  S  S30  1  0.66789800  0.04746800  0.36768200  1
  S  S31  1  0.33210200  0.95253200  0.63231800  1
