# generated using pymatgen
data_Ca2P4PdO8
_symmetry_space_group_name_H-M   'P 1'
_cell_length_a   9.14707340
_cell_length_b   9.14707340
_cell_length_c   9.14069585
_cell_angle_alpha   114.07188878
_cell_angle_beta   114.07188878
_cell_angle_gamma   100.64968679
_symmetry_Int_Tables_number   1
_chemical_formula_structural   Ca2P4PdO8
_chemical_formula_sum   'Ca4 P8 Pd2 O16'
_cell_volume   578.22575370
_cell_formula_units_Z   2
loop_
 _symmetry_equiv_pos_site_id
 _symmetry_equiv_pos_as_xyz
  1  'x, y, z'
loop_
 _atom_site_type_symbol
 _atom_site_label
 _atom_site_symmetry_multiplicity
 _atom_site_fract_x
 _atom_site_fract_y
 _atom_site_fract_z
 _atom_site_occupancy
  Ca  Ca0  1  0.12500000  0.37500000  0.75000000  1
  Ca  Ca1  1  0.62500000  0.37500000  0.75000000  1
  Ca  Ca2  1  0.62500000  0.87500000  0.25000000  1
  Ca  Ca3  1  0.62500000  0.37500000  0.25000000  1
  P  P4  1  0.32405700  0.59847400  0.27524800  1
  P  P5  1  0.95119200  0.67677500  0.27524800  1
  P  P6  1  0.40152600  0.67594300  0.72475200  1
  P  P7  1  0.92594300  0.15152600  0.22475200  1
  P  P8  1  0.32322500  0.04880800  0.72475200  1
  P  P9  1  0.29880800  0.07322500  0.22475200  1
  P  P10  1  0.84847400  0.07405700  0.77524800  1
  P  P11  1  0.92677500  0.70119200  0.77524800  1
  Pd  Pd12  1  0.00000000  0.00000000  0.00000000  1
  Pd  Pd13  1  0.25000000  0.75000000  0.50000000  1
  O  O14  1  0.46804300  0.15270600  0.93356700  1
  O  O15  1  0.46552400  0.78086100  0.93356700  1
  O  O16  1  0.84729400  0.53195700  0.06643300  1
  O  O17  1  0.78195700  0.59729400  0.56643300  1
  O  O18  1  0.21913900  0.53447600  0.06643300  1
  O  O19  1  0.78447600  0.96913900  0.56643300  1
  O  O20  1  0.40270600  0.21804300  0.43356700  1
  O  O21  1  0.03086100  0.21552400  0.43356700  1
  O  O22  1  0.46807100  0.53277300  0.31218200  1
  O  O23  1  0.84411100  0.77940900  0.31218200  1
  O  O24  1  0.46722700  0.53192900  0.68781800  1
  O  O25  1  0.78192900  0.21722700  0.18781800  1
  O  O26  1  0.22059100  0.15588900  0.68781800  1
  O  O27  1  0.40588900  0.97059100  0.18781800  1
  O  O28  1  0.78277300  0.21807100  0.81218200  1
  O  O29  1  0.02940900  0.59411100  0.81218200  1
