# generated using pymatgen
data_BaTl(PO3)3
_symmetry_space_group_name_H-M   'P 1'
_cell_length_a   6.30578300
_cell_length_b   11.37474400
_cell_length_c   13.07618600
_cell_angle_alpha   90.00000000
_cell_angle_beta   90.00000000
_cell_angle_gamma   90.00000000
_symmetry_Int_Tables_number   1
_chemical_formula_structural   BaTl(PO3)3
_chemical_formula_sum   'Ba4 Tl4 P12 O36'
_cell_volume   937.91124336
_cell_formula_units_Z   4
loop_
 _symmetry_equiv_pos_site_id
 _symmetry_equiv_pos_as_xyz
  1  'x, y, z'
loop_
 _atom_site_type_symbol
 _atom_site_label
 _atom_site_symmetry_multiplicity
 _atom_site_fract_x
 _atom_site_fract_y
 _atom_site_fract_z
 _atom_site_occupancy
  Ba  Ba0  1  0.40434800  0.39303500  0.42053600  1
  Ba  Ba1  1  0.09565200  0.60696500  0.92053600  1
  Ba  Ba2  1  0.59565200  0.89303500  0.07946400  1
  Ba  Ba3  1  0.90434800  0.10696500  0.57946400  1
  Tl  Tl4  1  0.40003100  0.01157100  0.36651800  1
  Tl  Tl5  1  0.09996900  0.98842900  0.86651800  1
  Tl  Tl6  1  0.59996900  0.51157100  0.13348200  1
  Tl  Tl7  1  0.90003100  0.48842900  0.63348200  1
  P  P8  1  0.08333600  0.71633400  0.18444600  1
  P  P9  1  0.41666400  0.28366600  0.68444600  1
  P  P10  1  0.91666400  0.21633400  0.31555400  1
  P  P11  1  0.58333600  0.78366600  0.81555400  1
  P  P12  1  0.10761000  0.34316100  0.14775600  1
  P  P13  1  0.39239000  0.65683900  0.64775600  1
  P  P14  1  0.89239000  0.84316100  0.35224400  1
  P  P15  1  0.60761000  0.15683900  0.85224400  1
  P  P16  1  0.09734900  0.08714700  0.13697400  1
  P  P17  1  0.40265100  0.91285300  0.63697400  1
  P  P18  1  0.90265100  0.58714700  0.36302600  1
  P  P19  1  0.59734900  0.41285300  0.86302600  1
  O  O20  1  0.08429100  0.82283800  0.26759000  1
  O  O21  1  0.41570900  0.17716200  0.76759000  1
  O  O22  1  0.91570900  0.32283800  0.23241000  1
  O  O23  1  0.58429100  0.67716200  0.73241000  1
  O  O24  1  0.20038200  0.29052700  0.63650500  1
  O  O25  1  0.29961800  0.70947300  0.13650500  1
  O  O26  1  0.79961800  0.79052700  0.86349500  1
  O  O27  1  0.70038200  0.20947300  0.36349500  1
  O  O28  1  0.46154800  0.56387700  0.57402900  1
  O  O29  1  0.03845200  0.43612300  0.07402900  1
  O  O30  1  0.53845200  0.06387700  0.92597100  1
  O  O31  1  0.96154800  0.93612300  0.42597100  1
  O  O32  1  0.09965000  0.22449100  0.39001900  1
  O  O33  1  0.40035000  0.77550900  0.89001900  1
  O  O34  1  0.90035000  0.72449100  0.10998100  1
  O  O35  1  0.59965000  0.27550900  0.60998100  1
  O  O36  1  0.09501200  0.21772400  0.08759200  1
  O  O37  1  0.40498800  0.78227600  0.58759200  1
  O  O38  1  0.90498800  0.71772400  0.41240800  1
  O  O39  1  0.59501200  0.28227600  0.91240800  1
  O  O40  1  0.97049300  0.00746900  0.06901500  1
  O  O41  1  0.52950700  0.99253100  0.56901500  1
  O  O42  1  0.02950700  0.50746900  0.43098500  1
  O  O43  1  0.47049300  0.49253100  0.93098500  1
  O  O44  1  0.32041400  0.05113900  0.16281100  1
  O  O45  1  0.17958600  0.94886100  0.66281100  1
  O  O46  1  0.67958600  0.55113900  0.33718900  1
  O  O47  1  0.82041400  0.44886100  0.83718900  1
  O  O48  1  0.04493800  0.60425000  0.25942200  1
  O  O49  1  0.45506200  0.39575000  0.75942200  1
  O  O50  1  0.95506200  0.10425000  0.24057800  1
  O  O51  1  0.54493800  0.89575000  0.74057800  1
  O  O52  1  0.31121100  0.35480600  0.20654000  1
  O  O53  1  0.18878900  0.64519400  0.70654000  1
  O  O54  1  0.68878900  0.85480600  0.29346000  1
  O  O55  1  0.81121100  0.14519400  0.79346000  1
