# generated using pymatgen
data_CsRuN2
_symmetry_space_group_name_H-M   'P 1'
_cell_length_a   13.74553619
_cell_length_b   13.74553619
_cell_length_c   8.52993329
_cell_angle_alpha   90.00000000
_cell_angle_beta   90.00000000
_cell_angle_gamma   90.00000000
_symmetry_Int_Tables_number   1
_chemical_formula_structural   CsRuN2
_chemical_formula_sum   'Cs20 Ru20 N40'
_cell_volume   1611.64359256
_cell_formula_units_Z   20
loop_
 _symmetry_equiv_pos_site_id
 _symmetry_equiv_pos_as_xyz
  1  'x, y, z'
loop_
 _atom_site_type_symbol
 _atom_site_label
 _atom_site_symmetry_multiplicity
 _atom_site_fract_x
 _atom_site_fract_y
 _atom_site_fract_z
 _atom_site_occupancy
  Cs  Cs0  1  0.10084768  0.30195767  0.73208559  1
  Cs  Cs1  1  0.89915232  0.69804233  0.73208559  1
  Cs  Cs2  1  0.80195767  0.89915232  0.98208559  1
  Cs  Cs3  1  0.19804233  0.10084768  0.98208559  1
  Cs  Cs4  1  0.10074179  0.80132463  0.48741419  1
  Cs  Cs5  1  0.89925821  0.19867537  0.48741419  1
  Cs  Cs6  1  0.30132463  0.89925821  0.73741419  1
  Cs  Cs7  1  0.69867537  0.10074179  0.73741419  1
  Cs  Cs8  1  0.00000000  0.50000000  0.98544086  1
  Cs  Cs9  1  0.00000000  -0.00000000  0.23544086  1
  Cs  Cs10  1  0.60084768  0.80195767  0.23208559  1
  Cs  Cs11  1  0.39915232  0.19804233  0.23208559  1
  Cs  Cs12  1  0.30195767  0.39915232  0.48208559  1
  Cs  Cs13  1  0.69804233  0.60084768  0.48208559  1
  Cs  Cs14  1  0.60074179  0.30132463  0.98741419  1
  Cs  Cs15  1  0.39925821  0.69867537  0.98741419  1
  Cs  Cs16  1  0.80132463  0.39925821  0.23741419  1
  Cs  Cs17  1  0.19867537  0.60074179  0.23741419  1
  Cs  Cs18  1  0.50000000  -0.00000000  0.48544086  1
  Cs  Cs19  1  0.50000000  0.50000000  0.73544086  1
  Ru  Ru20  1  0.00000000  -0.00000000  0.73469521  1
  Ru  Ru21  1  0.00000000  0.50000000  0.48469521  1
  Ru  Ru22  1  0.20026414  0.09968101  0.48563324  1
  Ru  Ru23  1  0.79973586  0.90031899  0.48563324  1
  Ru  Ru24  1  0.09968101  0.29973586  0.23563324  1
  Ru  Ru25  1  0.90031899  0.70026414  0.23563324  1
  Ru  Ru26  1  0.90020880  0.20008959  0.98415439  1
  Ru  Ru27  1  0.09979120  0.79991041  0.98415439  1
  Ru  Ru28  1  0.70008959  0.09979120  0.23415439  1
  Ru  Ru29  1  0.29991041  0.90020880  0.23415439  1
  Ru  Ru30  1  0.50000000  0.50000000  0.23469521  1
  Ru  Ru31  1  0.50000000  -0.00000000  0.98469521  1
  Ru  Ru32  1  0.70026414  0.59968101  0.98563324  1
  Ru  Ru33  1  0.29973586  0.40031899  0.98563324  1
  Ru  Ru34  1  0.59968101  0.79973586  0.73563324  1
  Ru  Ru35  1  0.40031899  0.20026414  0.73563324  1
  Ru  Ru36  1  0.40020880  0.70008959  0.48415439  1
  Ru  Ru37  1  0.59979120  0.29991041  0.48415439  1
  Ru  Ru38  1  0.20008959  0.59979120  0.73415439  1
  Ru  Ru39  1  0.79991041  0.40020880  0.73415439  1
  N  N40  1  0.10074253  0.04877778  0.60993774  1
  N  N41  1  0.89925747  0.95122222  0.60993774  1
  N  N42  1  0.04877778  0.39925747  0.35993774  1
  N  N43  1  0.95122222  0.60074253  0.35993774  1
  N  N44  1  0.60066343  0.04913947  0.10959335  1
  N  N45  1  0.39933657  0.95086053  0.10959335  1
  N  N46  1  0.04913947  0.89933657  0.85959335  1
  N  N47  1  0.95086053  0.10066343  0.85959335  1
  N  N48  1  0.29987448  0.15027382  0.61127568  1
  N  N49  1  0.70012552  0.84972618  0.61127568  1
  N  N50  1  0.15027382  0.20012552  0.36127568  1
  N  N51  1  0.84972618  0.79987448  0.36127568  1
  N  N52  1  0.79977015  0.15032856  0.10868629  1
  N  N53  1  0.20022985  0.84967144  0.10868629  1
  N  N54  1  0.15032856  0.70022985  0.85868629  1
  N  N55  1  0.84967144  0.29977015  0.85868629  1
  N  N56  1  0.00004429  0.24974461  0.10970151  1
  N  N57  1  0.99995571  0.75025539  0.10970151  1
  N  N58  1  0.74974461  0.99995571  0.35970151  1
  N  N59  1  0.25025539  0.00004429  0.35970151  1
  N  N60  1  0.60074253  0.54877778  0.10993774  1
  N  N61  1  0.39925747  0.45122222  0.10993774  1
  N  N62  1  0.54877778  0.89925747  0.85993774  1
  N  N63  1  0.45122222  0.10074253  0.85993774  1
  N  N64  1  0.10066343  0.54913947  0.60959335  1
  N  N65  1  0.89933657  0.45086053  0.60959335  1
  N  N66  1  0.54913947  0.39933657  0.35959335  1
  N  N67  1  0.45086053  0.60066343  0.35959335  1
  N  N68  1  0.79987448  0.65027382  0.11127568  1
  N  N69  1  0.20012552  0.34972618  0.11127568  1
  N  N70  1  0.65027382  0.70012552  0.86127568  1
  N  N71  1  0.34972618  0.29987448  0.86127568  1
  N  N72  1  0.29977015  0.65032856  0.60868629  1
  N  N73  1  0.70022985  0.34967144  0.60868629  1
  N  N74  1  0.65032856  0.20022985  0.35868629  1
  N  N75  1  0.34967144  0.79977015  0.35868629  1
  N  N76  1  0.50004429  0.74974461  0.60970151  1
  N  N77  1  0.49995571  0.25025539  0.60970151  1
  N  N78  1  0.24974461  0.49995571  0.85970151  1
  N  N79  1  0.75025539  0.50004429  0.85970151  1
