# generated using pymatgen
data_CaCd(NO3)4
_symmetry_space_group_name_H-M   'P 1'
_cell_length_a   7.69458468
_cell_length_b   7.69458468
_cell_length_c   17.51785900
_cell_angle_alpha   90.00000000
_cell_angle_beta   90.00000000
_cell_angle_gamma   120.00000584
_symmetry_Int_Tables_number   1
_chemical_formula_structural   CaCd(NO3)4
_chemical_formula_sum   'Ca3 Cd3 N12 O36'
_cell_volume   898.21850777
_cell_formula_units_Z   3
loop_
 _symmetry_equiv_pos_site_id
 _symmetry_equiv_pos_as_xyz
  1  'x, y, z'
loop_
 _atom_site_type_symbol
 _atom_site_label
 _atom_site_symmetry_multiplicity
 _atom_site_fract_x
 _atom_site_fract_y
 _atom_site_fract_z
 _atom_site_occupancy
  Ca  Ca0  1  0.49119000  0.00000000  0.83333300  1
  Ca  Ca1  1  0.00000000  0.49119000  0.16666700  1
  Ca  Ca2  1  0.50881000  0.50881000  0.50000000  1
  Cd  Cd3  1  0.99635700  0.00000000  0.33333300  1
  Cd  Cd4  1  0.00000000  0.99635700  0.66666700  1
  Cd  Cd5  1  0.00364300  0.00364300  0.00000000  1
  N  N6  1  0.31719000  0.26242000  0.77425400  1
  N  N7  1  0.73758000  0.05477000  0.10758800  1
  N  N8  1  0.26242000  0.31719000  0.22574600  1
  N  N9  1  0.94523000  0.68281000  0.44092100  1
  N  N10  1  0.05477000  0.73758000  0.89241200  1
  N  N11  1  0.68281000  0.94523000  0.55907900  1
  N  N12  1  0.31967600  0.10064000  0.56114900  1
  N  N13  1  0.89936000  0.21903600  0.89448200  1
  N  N14  1  0.10064000  0.31967600  0.43885100  1
  N  N15  1  0.78096400  0.68032400  0.22781500  1
  N  N16  1  0.21903600  0.89936000  0.10551800  1
  N  N17  1  0.68032400  0.78096400  0.77218500  1
  O  O18  1  0.07598700  0.29322800  0.91973500  1
  O  O19  1  0.70677200  0.78276000  0.25306900  1
  O  O20  1  0.29322800  0.07598700  0.08026500  1
  O  O21  1  0.21724000  0.92401300  0.58640200  1
  O  O22  1  0.78276000  0.70677200  0.74693100  1
  O  O23  1  0.92401300  0.21724000  0.41359800  1
  O  O24  1  0.15227700  0.45441500  0.48749700  1
  O  O25  1  0.54558500  0.69786200  0.82083000  1
  O  O26  1  0.45441500  0.15227700  0.51250300  1
  O  O27  1  0.30213800  0.84772300  0.15416300  1
  O  O28  1  0.69786200  0.54558500  0.17917000  1
  O  O29  1  0.84772300  0.30213800  0.84583700  1
  O  O30  1  0.21404800  0.32932900  0.75006700  1
  O  O31  1  0.67067100  0.88471900  0.08340100  1
  O  O32  1  0.32932900  0.21404800  0.24993300  1
  O  O33  1  0.11528100  0.78595200  0.41673400  1
  O  O34  1  0.88471900  0.67067100  0.91659900  1
  O  O35  1  0.78595200  0.11528100  0.58326600  1
  O  O36  1  0.47875300  0.28103000  0.88569200  1
  O  O37  1  0.71897000  0.19772300  0.21902600  1
  O  O38  1  0.28103000  0.47875300  0.11430800  1
  O  O39  1  0.80227700  0.52124700  0.55235900  1
  O  O40  1  0.19772300  0.71897000  0.78097400  1
  O  O41  1  0.52124700  0.80227700  0.44764100  1
  O  O42  1  0.27808600  0.23594200  0.58732500  1
  O  O43  1  0.76405800  0.04214400  0.92065900  1
  O  O44  1  0.23594200  0.27808600  0.41267500  1
  O  O45  1  0.95785600  0.72191400  0.25399200  1
  O  O46  1  0.04214400  0.76405800  0.07934100  1
  O  O47  1  0.72191400  0.95785600  0.74600800  1
  O  O48  1  0.27527400  0.08635200  0.75192700  1
  O  O49  1  0.91364800  0.18892200  0.08526100  1
  O  O50  1  0.08635200  0.27527400  0.24807300  1
  O  O51  1  0.81107800  0.72472600  0.41859400  1
  O  O52  1  0.18892200  0.91364800  0.91473900  1
  O  O53  1  0.72472600  0.81107800  0.58140600  1
