# generated using pymatgen
data_BaMoO2
_symmetry_space_group_name_H-M   'P 1'
_cell_length_a   8.02062116
_cell_length_b   8.02062116
_cell_length_c   8.02062116
_cell_angle_alpha   129.36798950
_cell_angle_beta   129.36798950
_cell_angle_gamma   74.41917937
_symmetry_Int_Tables_number   1
_chemical_formula_structural   BaMoO2
_chemical_formula_sum   'Ba4 Mo4 O8'
_cell_volume   300.55739980
_cell_formula_units_Z   4
loop_
 _symmetry_equiv_pos_site_id
 _symmetry_equiv_pos_as_xyz
  1  'x, y, z'
loop_
 _atom_site_type_symbol
 _atom_site_label
 _atom_site_symmetry_multiplicity
 _atom_site_fract_x
 _atom_site_fract_y
 _atom_site_fract_z
 _atom_site_occupancy
  Ba  Ba0  1  0.87500000  0.62500000  0.25000000  1
  Ba  Ba1  1  0.37500000  0.62500000  0.75000000  1
  Ba  Ba2  1  0.37500000  0.62500000  0.25000000  1
  Ba  Ba3  1  0.37500000  0.12500000  0.75000000  1
  Mo  Mo4  1  0.37500000  0.12500000  0.25000000  1
  Mo  Mo5  1  0.87500000  0.12500000  0.75000000  1
  Mo  Mo6  1  0.87500000  0.12500000  0.25000000  1
  Mo  Mo7  1  0.87500000  0.62500000  0.75000000  1
  O  O8  1  0.15855700  0.36203400  0.20347700  1
  O  O9  1  0.15855700  0.95508000  0.79652300  1
  O  O10  1  0.11203400  0.40855700  0.70347700  1
  O  O11  1  0.59144300  0.88796600  0.29652300  1
  O  O12  1  0.70508000  0.40855700  0.29652300  1
  O  O13  1  0.59144300  0.29492000  0.70347700  1
  O  O14  1  0.63796600  0.84144300  0.79652300  1
  O  O15  1  0.04492000  0.84144300  0.20347700  1
