# generated using pymatgen
data_CeN2Cl5
_symmetry_space_group_name_H-M   'P 1'
_cell_length_a   8.46523800
_cell_length_b   10.08499300
_cell_length_c   11.63737900
_cell_angle_alpha   90.00000000
_cell_angle_beta   90.00000000
_cell_angle_gamma   90.00000000
_symmetry_Int_Tables_number   1
_chemical_formula_structural   CeN2Cl5
_chemical_formula_sum   'Ce4 N8 Cl20'
_cell_volume   993.50476027
_cell_formula_units_Z   4
loop_
 _symmetry_equiv_pos_site_id
 _symmetry_equiv_pos_as_xyz
  1  'x, y, z'
loop_
 _atom_site_type_symbol
 _atom_site_label
 _atom_site_symmetry_multiplicity
 _atom_site_fract_x
 _atom_site_fract_y
 _atom_site_fract_z
 _atom_site_occupancy
  Ce  Ce0  1  0.25000000  0.47599300  0.01208100  1
  Ce  Ce1  1  0.75000000  0.52400700  0.98791900  1
  Ce  Ce2  1  0.75000000  0.97599300  0.48791900  1
  Ce  Ce3  1  0.25000000  0.02400700  0.51208100  1
  N  N4  1  0.58562600  0.51648700  0.40520900  1
  N  N5  1  0.41437400  0.48351300  0.59479100  1
  N  N6  1  0.41437400  0.01648700  0.09479100  1
  N  N7  1  0.08562600  0.48351300  0.59479100  1
  N  N8  1  0.58562600  0.98351300  0.90520900  1
  N  N9  1  0.91437400  0.51648700  0.40520900  1
  N  N10  1  0.91437400  0.98351300  0.90520900  1
  N  N11  1  0.08562600  0.01648700  0.09479100  1
  Cl  Cl12  1  0.25000000  0.60100300  0.19820700  1
  Cl  Cl13  1  0.75000000  0.39899700  0.80179300  1
  Cl  Cl14  1  0.75000000  0.10100300  0.30179300  1
  Cl  Cl15  1  0.25000000  0.89899700  0.69820700  1
  Cl  Cl16  1  0.52946500  0.36042300  0.08254000  1
  Cl  Cl17  1  0.47053500  0.63957700  0.91746000  1
  Cl  Cl18  1  0.47053500  0.86042300  0.41746000  1
  Cl  Cl19  1  0.02946500  0.63957700  0.91746000  1
  Cl  Cl20  1  0.52946500  0.13957700  0.58254000  1
  Cl  Cl21  1  0.97053500  0.36042300  0.08254000  1
  Cl  Cl22  1  0.97053500  0.13957700  0.58254000  1
  Cl  Cl23  1  0.02946500  0.86042300  0.41746000  1
  Cl  Cl24  1  0.25000000  0.01340700  0.04009700  1
  Cl  Cl25  1  0.75000000  0.98659300  0.95990300  1
  Cl  Cl26  1  0.75000000  0.51340700  0.45990300  1
  Cl  Cl27  1  0.25000000  0.48659300  0.54009700  1
  Cl  Cl28  1  0.25000000  0.19228200  0.35057800  1
  Cl  Cl29  1  0.75000000  0.80771800  0.64942200  1
  Cl  Cl30  1  0.75000000  0.69228200  0.14942200  1
  Cl  Cl31  1  0.25000000  0.30771800  0.85057800  1
