# generated using pymatgen
data_BaMnO4
_symmetry_space_group_name_H-M   'P 1'
_cell_length_a   5.68842400
_cell_length_b   9.18048900
_cell_length_c   7.49389400
_cell_angle_alpha   90.00000000
_cell_angle_beta   90.00000000
_cell_angle_gamma   90.00000000
_symmetry_Int_Tables_number   1
_chemical_formula_structural   BaMnO4
_chemical_formula_sum   'Ba4 Mn4 O16'
_cell_volume   391.34998402
_cell_formula_units_Z   4
loop_
 _symmetry_equiv_pos_site_id
 _symmetry_equiv_pos_as_xyz
  1  'x, y, z'
loop_
 _atom_site_type_symbol
 _atom_site_label
 _atom_site_symmetry_multiplicity
 _atom_site_fract_x
 _atom_site_fract_y
 _atom_site_fract_z
 _atom_site_occupancy
  Ba  Ba0  1  0.75000000  0.81417800  0.34173900  1
  Ba  Ba1  1  0.25000000  0.18582200  0.65826100  1
  Ba  Ba2  1  0.25000000  0.68582200  0.84173900  1
  Ba  Ba3  1  0.75000000  0.31417800  0.15826100  1
  Mn  Mn4  1  0.75000000  0.93799700  0.80856900  1
  Mn  Mn5  1  0.25000000  0.06200300  0.19143100  1
  Mn  Mn6  1  0.25000000  0.56200300  0.30856900  1
  Mn  Mn7  1  0.75000000  0.43799700  0.69143100  1
  O  O8  1  0.75000000  0.60070600  0.59948200  1
  O  O9  1  0.25000000  0.39929400  0.40051800  1
  O  O10  1  0.25000000  0.89929400  0.09948200  1
  O  O11  1  0.75000000  0.10070600  0.90051800  1
  O  O12  1  0.75000000  0.80891400  0.96295800  1
  O  O13  1  0.25000000  0.19108600  0.03704200  1
  O  O14  1  0.25000000  0.69108600  0.46295800  1
  O  O15  1  0.75000000  0.30891400  0.53704200  1
  O  O16  1  0.98785500  0.91813700  0.67977000  1
  O  O17  1  0.01214500  0.08186300  0.32023000  1
  O  O18  1  0.01214500  0.58186300  0.17977000  1
  O  O19  1  0.48785500  0.08186300  0.32023000  1
  O  O20  1  0.98785500  0.41813700  0.82023000  1
  O  O21  1  0.51214500  0.91813700  0.67977000  1
  O  O22  1  0.51214500  0.41813700  0.82023000  1
  O  O23  1  0.48785500  0.58186300  0.17977000  1
