# generated using pymatgen
data_Ba5Y2ZrAl2O13
_symmetry_space_group_name_H-M   'P 1'
_cell_length_a   6.04825570
_cell_length_b   6.04825570
_cell_length_c   25.33382400
_cell_angle_alpha   90.00000000
_cell_angle_beta   90.00000000
_cell_angle_gamma   119.99999674
_symmetry_Int_Tables_number   1
_chemical_formula_structural   Ba5Y2ZrAl2O13
_chemical_formula_sum   'Ba10 Y4 Zr2 Al4 O26'
_cell_volume   802.58618902
_cell_formula_units_Z   2
loop_
 _symmetry_equiv_pos_site_id
 _symmetry_equiv_pos_as_xyz
  1  'x, y, z'
loop_
 _atom_site_type_symbol
 _atom_site_label
 _atom_site_symmetry_multiplicity
 _atom_site_fract_x
 _atom_site_fract_y
 _atom_site_fract_z
 _atom_site_occupancy
  Ba  Ba0  1  0.33333300  0.66666700  0.54140000  1
  Ba  Ba1  1  0.66666700  0.33333300  0.45860000  1
  Ba  Ba2  1  0.66666700  0.33333300  0.04140000  1
  Ba  Ba3  1  0.33333300  0.66666700  0.95860000  1
  Ba  Ba4  1  0.00000000  0.00000000  0.13676000  1
  Ba  Ba5  1  0.00000000  0.00000000  0.86324000  1
  Ba  Ba6  1  0.00000000  0.00000000  0.63676000  1
  Ba  Ba7  1  0.00000000  0.00000000  0.36324000  1
  Ba  Ba8  1  0.33333300  0.66666700  0.25000000  1
  Ba  Ba9  1  0.66666700  0.33333300  0.75000000  1
  Y  Y10  1  0.33333300  0.66666700  0.10420600  1
  Y  Y11  1  0.66666700  0.33333300  0.89579400  1
  Y  Y12  1  0.66666700  0.33333300  0.60420600  1
  Y  Y13  1  0.33333300  0.66666700  0.39579400  1
  Zr  Zr14  1  0.00000000  0.00000000  0.00000000  1
  Zr  Zr15  1  0.00000000  0.00000000  0.50000000  1
  Al  Al16  1  0.33333300  0.66666700  0.68130900  1
  Al  Al17  1  0.66666700  0.33333300  0.31869100  1
  Al  Al18  1  0.66666700  0.33333300  0.18130900  1
  Al  Al19  1  0.33333300  0.66666700  0.81869100  1
  O  O20  1  0.50575500  0.01151100  0.15869700  1
  O  O21  1  0.49424500  0.98848900  0.84130300  1
  O  O22  1  0.98848900  0.49424500  0.15869700  1
  O  O23  1  0.49424500  0.98848900  0.65869700  1
  O  O24  1  0.01151100  0.50575500  0.84130300  1
  O  O25  1  0.50575500  0.01151100  0.34130300  1
  O  O26  1  0.50575500  0.49424500  0.15869700  1
  O  O27  1  0.01151100  0.50575500  0.65869700  1
  O  O28  1  0.49424500  0.50575500  0.84130300  1
  O  O29  1  0.98848900  0.49424500  0.34130300  1
  O  O30  1  0.49424500  0.50575500  0.65869700  1
  O  O31  1  0.50575500  0.49424500  0.34130300  1
  O  O32  1  0.16221600  0.32443200  0.05007100  1
  O  O33  1  0.83778400  0.67556800  0.94992900  1
  O  O34  1  0.67556800  0.83778400  0.05007100  1
  O  O35  1  0.83778400  0.67556800  0.55007100  1
  O  O36  1  0.32443200  0.16221600  0.94992900  1
  O  O37  1  0.16221600  0.32443200  0.44992900  1
  O  O38  1  0.16221600  0.83778400  0.05007100  1
  O  O39  1  0.32443200  0.16221600  0.55007100  1
  O  O40  1  0.83778400  0.16221600  0.94992900  1
  O  O41  1  0.67556800  0.83778400  0.44992900  1
  O  O42  1  0.83778400  0.16221600  0.55007100  1
  O  O43  1  0.16221600  0.83778400  0.44992900  1
  O  O44  1  0.33333300  0.66666700  0.75000000  1
  O  O45  1  0.66666700  0.33333300  0.25000000  1
