# generated using pymatgen
data_K2BaCu(NO2)6
_symmetry_space_group_name_H-M   'P 1'
_cell_length_a   7.91103329
_cell_length_b   7.89215806
_cell_length_c   7.66908348
_cell_angle_alpha   61.09209449
_cell_angle_beta   60.84549629
_cell_angle_gamma   58.06240922
_symmetry_Int_Tables_number   1
_chemical_formula_structural   K2BaCu(NO2)6
_chemical_formula_sum   'K2 Ba1 Cu1 N6 O12'
_cell_volume   338.00389979
_cell_formula_units_Z   1
loop_
 _symmetry_equiv_pos_site_id
 _symmetry_equiv_pos_as_xyz
  1  'x, y, z'
loop_
 _atom_site_type_symbol
 _atom_site_label
 _atom_site_symmetry_multiplicity
 _atom_site_fract_x
 _atom_site_fract_y
 _atom_site_fract_z
 _atom_site_occupancy
  K  K0  1  0.25000000  0.25000000  0.25000000  1
  K  K1  1  0.75000000  0.75000000  0.75000000  1
  Ba  Ba2  1  0.50000000  0.50000000  0.50000000  1
  Cu  Cu3  1  0.00000000  0.00000000  0.00000000  1
  N  N4  1  0.81023600  0.18976400  0.81023600  1
  N  N5  1  0.18976400  0.81023600  0.18976400  1
  N  N6  1  0.79220100  0.79220100  0.20779900  1
  N  N7  1  0.20779900  0.20779900  0.79220100  1
  N  N8  1  0.80990500  0.19009500  0.19009500  1
  N  N9  1  0.19009500  0.80990500  0.80990500  1
  O  O10  1  0.15563400  0.65617400  0.84436600  1
  O  O11  1  0.84436600  0.34382600  0.15563400  1
  O  O12  1  0.65617400  0.15563400  0.34382600  1
  O  O13  1  0.63456500  0.83303600  0.16696400  1
  O  O14  1  0.83303600  0.63456500  0.36543500  1
  O  O15  1  0.16696400  0.36543500  0.63456500  1
  O  O16  1  0.34913500  0.65086500  0.14922600  1
  O  O17  1  0.85077400  0.14922600  0.65086500  1
  O  O18  1  0.14922600  0.85077400  0.34913500  1
  O  O19  1  0.65086500  0.34913500  0.85077400  1
  O  O20  1  0.36543500  0.16696400  0.83303600  1
  O  O21  1  0.34382600  0.84436600  0.65617400  1
