# generated using pymatgen
data_Ba7Fe7F34
_symmetry_space_group_name_H-M   'P 1'
_cell_length_a   10.39911559
_cell_length_b   10.39911559
_cell_length_c   7.92941447
_cell_angle_alpha   79.71572601
_cell_angle_beta   79.71572601
_cell_angle_gamma   67.51103908
_symmetry_Int_Tables_number   1
_chemical_formula_structural   Ba7Fe7F34
_chemical_formula_sum   'Ba7 Fe7 F34'
_cell_volume   773.80770581
_cell_formula_units_Z   1
loop_
 _symmetry_equiv_pos_site_id
 _symmetry_equiv_pos_as_xyz
  1  'x, y, z'
loop_
 _atom_site_type_symbol
 _atom_site_label
 _atom_site_symmetry_multiplicity
 _atom_site_fract_x
 _atom_site_fract_y
 _atom_site_fract_z
 _atom_site_occupancy
  Ba  Ba0  1  0.44963000  0.83961500  0.20025300  1
  Ba  Ba1  1  0.55037000  0.16038500  0.79974700  1
  Ba  Ba2  1  0.16038500  0.55037000  0.79974700  1
  Ba  Ba3  1  0.83961500  0.44963000  0.20025300  1
  Ba  Ba4  1  0.00000000  0.00000000  0.50000000  1
  Ba  Ba5  1  0.73840300  0.73840300  0.61529300  1
  Ba  Ba6  1  0.26159700  0.26159700  0.38470700  1
  Fe  Fe7  1  0.64758500  0.13748200  0.29973300  1
  Fe  Fe8  1  0.35241500  0.86251800  0.70026700  1
  Fe  Fe9  1  0.86251800  0.35241500  0.70026700  1
  Fe  Fe10  1  0.13748200  0.64758500  0.29973300  1
  Fe  Fe11  1  0.83482000  0.83482000  0.03971400  1
  Fe  Fe12  1  0.16518000  0.16518000  0.96028600  1
  Fe  Fe13  1  0.50000000  0.50000000  0.00000000  1
  F  F14  1  0.21923600  0.78446300  0.30394100  1
  F  F15  1  0.78076400  0.21553700  0.69605900  1
  F  F16  1  0.21553700  0.78076400  0.69605900  1
  F  F17  1  0.78446300  0.21923600  0.30394100  1
  F  F18  1  0.73846000  0.99798700  0.48862100  1
  F  F19  1  0.26154000  0.00201300  0.51137900  1
  F  F20  1  0.00201300  0.26154000  0.51137900  1
  F  F21  1  0.99798700  0.73846000  0.48862100  1
  F  F22  1  0.89768300  0.89768300  0.80746000  1
  F  F23  1  0.10231700  0.10231700  0.19254000  1
  F  F24  1  0.34821100  0.11116200  0.04329800  1
  F  F25  1  0.65178900  0.88883800  0.95670200  1
  F  F26  1  0.88883800  0.65178900  0.95670200  1
  F  F27  1  0.11116200  0.34821100  0.04329800  1
  F  F28  1  0.77604200  0.02084000  0.11887400  1
  F  F29  1  0.22395800  0.97916000  0.88112600  1
  F  F30  1  0.97916000  0.22395800  0.88112600  1
  F  F31  1  0.02084000  0.77604200  0.11887400  1
  F  F32  1  0.75369600  0.75369600  0.25578800  1
  F  F33  1  0.24630400  0.24630400  0.74421200  1
  F  F34  1  0.50884000  0.24405400  0.47155100  1
  F  F35  1  0.49116000  0.75594600  0.52844900  1
  F  F36  1  0.75594600  0.49116000  0.52844900  1
  F  F37  1  0.24405400  0.50884000  0.47155100  1
  F  F38  1  0.55072100  0.28272800  0.11633000  1
  F  F39  1  0.44927900  0.71727200  0.88367000  1
  F  F40  1  0.71727200  0.44927900  0.88367000  1
  F  F41  1  0.28272800  0.55072100  0.11633000  1
  F  F42  1  0.57084100  0.57084100  0.17689400  1
  F  F43  1  0.42915900  0.42915900  0.82310600  1
  F  F44  1  0.51800900  0.04380700  0.29972000  1
  F  F45  1  0.48199100  0.95619300  0.70028000  1
  F  F46  1  0.95619300  0.48199100  0.70028000  1
  F  F47  1  0.04380700  0.51800900  0.29972000  1
