# generated using pymatgen
data_Cs3W2N5
_symmetry_space_group_name_H-M   'P 1'
_cell_length_a   11.02398435
_cell_length_b   11.02398435
_cell_length_c   11.02398435
_cell_angle_alpha   102.08374816
_cell_angle_beta   102.08374816
_cell_angle_gamma   125.54326792
_symmetry_Int_Tables_number   1
_chemical_formula_structural   Cs3W2N5
_chemical_formula_sum   'Cs12 W8 N20'
_cell_volume   969.30896026
_cell_formula_units_Z   4
loop_
 _symmetry_equiv_pos_site_id
 _symmetry_equiv_pos_as_xyz
  1  'x, y, z'
loop_
 _atom_site_type_symbol
 _atom_site_label
 _atom_site_symmetry_multiplicity
 _atom_site_fract_x
 _atom_site_fract_y
 _atom_site_fract_z
 _atom_site_occupancy
  Cs  Cs0  1  0.83577000  0.55074000  0.86906400  1
  Cs  Cs1  1  0.68167600  0.96670600  0.13093600  1
  Cs  Cs2  1  0.80074000  0.43167600  0.21497000  1
  Cs  Cs3  1  0.21670600  0.58577000  0.78503000  1
  Cs  Cs4  1  0.51868500  0.69606200  0.34402700  1
  Cs  Cs5  1  0.35203400  0.17465800  0.65597300  1
  Cs  Cs6  1  0.94606200  0.10203400  0.67737700  1
  Cs  Cs7  1  0.42465800  0.26868500  0.32262300  1
  Cs  Cs8  1  0.97999100  0.97999100  0.00000000  1
  Cs  Cs9  1  0.22999100  0.72999100  0.50000000  1
  Cs  Cs10  1  0.72140200  0.22140200  0.50000000  1
  Cs  Cs11  1  0.47140200  0.47140200  0.00000000  1
  W  W12  1  0.62772300  0.05777000  0.81612000  1
  W  W13  1  0.24164900  0.81160200  0.18388000  1
  W  W14  1  0.30777000  0.99164900  0.93004700  1
  W  W15  1  0.06160200  0.37772300  0.06995300  1
  W  W16  1  0.93681200  0.76366200  0.61842000  1
  W  W17  1  0.14524200  0.31839200  0.38158000  1
  W  W18  1  0.01366200  0.89524200  0.32685000  1
  W  W19  1  0.56839200  0.68681200  0.67315000  1
  N  N20  1  0.62926200  0.17809400  0.72998900  1
  N  N21  1  0.44810500  0.89927200  0.27001100  1
  N  N22  1  0.42809400  0.19810500  0.04883300  1
  N  N23  1  0.14927200  0.37926200  0.95116700  1
  N  N24  1  0.83253900  0.74708700  0.17240700  1
  N  N25  1  0.57468000  0.66013200  0.82759300  1
  N  N26  1  0.99708700  0.32468000  0.41454800  1
  N  N27  1  0.91013200  0.58253900  0.58545200  1
  N  N28  1  0.83022100  0.19524500  0.97504800  1
  N  N29  1  0.22019800  0.85517300  0.02495200  1
  N  N30  1  0.44524500  0.97019800  0.86502400  1
  N  N31  1  0.10517300  0.58022100  0.13497600  1
  N  N32  1  0.97365900  0.83299000  0.47366600  1
  N  N33  1  0.35932400  0.49999300  0.52633400  1
  N  N34  1  0.08299000  0.10932400  0.35933100  1
  N  N35  1  0.74999300  0.72365900  0.64066900  1
  N  N36  1  0.13059300  0.94132300  0.78378600  1
  N  N37  1  0.15753700  0.34680800  0.21621400  1
  N  N38  1  0.19132300  0.90753700  0.31072900  1
  N  N39  1  0.59680800  0.88059300  0.68927100  1
