# generated using pymatgen
data_Be13W
_symmetry_space_group_name_H-M   'P 1'
_cell_length_a   9.74209155
_cell_length_b   9.74209155
_cell_length_c   9.74209155
_cell_angle_alpha   60.00000000
_cell_angle_beta   60.00000000
_cell_angle_gamma   60.00000000
_symmetry_Int_Tables_number   1
_chemical_formula_structural   Be13W
_chemical_formula_sum   'Be52 W4'
_cell_volume   653.79504076
_cell_formula_units_Z   4
loop_
 _symmetry_equiv_pos_site_id
 _symmetry_equiv_pos_as_xyz
  1  'x, y, z'
loop_
 _atom_site_type_symbol
 _atom_site_label
 _atom_site_symmetry_multiplicity
 _atom_site_fract_x
 _atom_site_fract_y
 _atom_site_fract_z
 _atom_site_occupancy
  Be  Be0  1  0.96866400  0.32388400  0.73878800  1
  Be  Be1  1  0.32388400  0.96866400  0.96866400  1
  Be  Be2  1  0.73878800  0.96866400  0.96866400  1
  Be  Be3  1  0.73878800  0.96866400  0.32388400  1
  Be  Be4  1  0.28133600  0.92611600  0.28133600  1
  Be  Be5  1  0.28133600  0.92611600  0.51121200  1
  Be  Be6  1  0.96866400  0.73878800  0.32388400  1
  Be  Be7  1  0.96866400  0.32388400  0.96866400  1
  Be  Be8  1  0.92611600  0.28133600  0.51121200  1
  Be  Be9  1  0.92611600  0.28133600  0.28133600  1
  Be  Be10  1  0.96866400  0.73878800  0.96866400  1
  Be  Be11  1  0.51121200  0.28133600  0.92611600  1
  Be  Be12  1  0.51121200  0.28133600  0.28133600  1
  Be  Be13  1  0.32388400  0.96866400  0.73878800  1
  Be  Be14  1  0.28133600  0.51121200  0.28133600  1
  Be  Be15  1  0.28133600  0.51121200  0.92611600  1
  Be  Be16  1  0.32388400  0.73878800  0.96866400  1
  Be  Be17  1  0.96866400  0.96866400  0.73878800  1
  Be  Be18  1  0.73878800  0.32388400  0.96866400  1
  Be  Be19  1  0.96866400  0.96866400  0.32388400  1
  Be  Be20  1  0.28133600  0.28133600  0.92611600  1
  Be  Be21  1  0.51121200  0.92611600  0.28133600  1
  Be  Be22  1  0.28133600  0.28133600  0.51121200  1
  Be  Be23  1  0.92611600  0.51121200  0.28133600  1
  Be  Be24  1  0.50000000  0.50000000  0.50000000  1
  Be  Be25  1  0.75000000  0.75000000  0.75000000  1
  Be  Be26  1  0.00000000  0.00000000  0.00000000  1
  Be  Be27  1  0.25000000  0.25000000  0.25000000  1
  Be  Be28  1  0.72400200  0.50949000  0.50949000  1
  Be  Be29  1  0.50949000  0.72400200  0.25701900  1
  Be  Be30  1  0.50949000  0.25701900  0.72400200  1
  Be  Be31  1  0.50949000  0.72400200  0.50949000  1
  Be  Be32  1  0.52599800  0.74051000  0.99298100  1
  Be  Be33  1  0.52599800  0.74051000  0.74051000  1
  Be  Be34  1  0.25701900  0.50949000  0.50949000  1
  Be  Be35  1  0.25701900  0.50949000  0.72400200  1
  Be  Be36  1  0.74051000  0.52599800  0.74051000  1
  Be  Be37  1  0.74051000  0.52599800  0.99298100  1
  Be  Be38  1  0.72400200  0.50949000  0.25701900  1
  Be  Be39  1  0.74051000  0.99298100  0.74051000  1
  Be  Be40  1  0.74051000  0.99298100  0.52599800  1
  Be  Be41  1  0.50949000  0.25701900  0.50949000  1
  Be  Be42  1  0.99298100  0.74051000  0.52599800  1
  Be  Be43  1  0.99298100  0.74051000  0.74051000  1
  Be  Be44  1  0.50949000  0.50949000  0.72400200  1
  Be  Be45  1  0.25701900  0.72400200  0.50949000  1
  Be  Be46  1  0.50949000  0.50949000  0.25701900  1
  Be  Be47  1  0.72400200  0.25701900  0.50949000  1
  Be  Be48  1  0.99298100  0.52599800  0.74051000  1
  Be  Be49  1  0.74051000  0.74051000  0.52599800  1
  Be  Be50  1  0.52599800  0.99298100  0.74051000  1
  Be  Be51  1  0.74051000  0.74051000  0.99298100  1
  W  W52  1  0.12500000  0.12500000  0.12500000  1
  W  W53  1  0.12500000  0.12500000  0.62500000  1
  W  W54  1  0.12500000  0.62500000  0.12500000  1
  W  W55  1  0.62500000  0.12500000  0.12500000  1
