# generated using pymatgen
data_Ba3Sr3(SbN)2
_symmetry_space_group_name_H-M   'P 1'
_cell_length_a   7.54675204
_cell_length_b   7.54675204
_cell_length_c   12.71654900
_cell_angle_alpha   90.00000000
_cell_angle_beta   90.00000000
_cell_angle_gamma   120.00000039
_symmetry_Int_Tables_number   1
_chemical_formula_structural   Ba3Sr3(SbN)2
_chemical_formula_sum   'Ba6 Sr6 Sb4 N4'
_cell_volume   627.22023556
_cell_formula_units_Z   2
loop_
 _symmetry_equiv_pos_site_id
 _symmetry_equiv_pos_as_xyz
  1  'x, y, z'
loop_
 _atom_site_type_symbol
 _atom_site_label
 _atom_site_symmetry_multiplicity
 _atom_site_fract_x
 _atom_site_fract_y
 _atom_site_fract_z
 _atom_site_occupancy
  Ba  Ba0  1  0.82731600  0.17268400  0.75000000  1
  Ba  Ba1  1  0.17268400  0.82731600  0.25000000  1
  Ba  Ba2  1  0.34536800  0.17268400  0.75000000  1
  Ba  Ba3  1  0.65463200  0.82731600  0.25000000  1
  Ba  Ba4  1  0.82731600  0.65463200  0.75000000  1
  Ba  Ba5  1  0.17268400  0.34536800  0.25000000  1
  Sr  Sr6  1  0.50000000  0.50000000  0.00000000  1
  Sr  Sr7  1  0.00000000  0.50000000  0.00000000  1
  Sr  Sr8  1  0.50000000  0.50000000  0.50000000  1
  Sr  Sr9  1  0.50000000  0.00000000  0.00000000  1
  Sr  Sr10  1  0.00000000  0.50000000  0.50000000  1
  Sr  Sr11  1  0.50000000  0.00000000  0.50000000  1
  Sb  Sb12  1  0.00000000  0.00000000  0.00000000  1
  Sb  Sb13  1  0.00000000  0.00000000  0.50000000  1
  Sb  Sb14  1  0.66666700  0.33333300  0.25000000  1
  Sb  Sb15  1  0.33333300  0.66666700  0.75000000  1
  N  N16  1  0.66666700  0.33333300  0.88727300  1
  N  N17  1  0.33333300  0.66666700  0.11272700  1
  N  N18  1  0.33333300  0.66666700  0.38727300  1
  N  N19  1  0.66666700  0.33333300  0.61272700  1
