# generated using pymatgen
data_RbOsN2
_symmetry_space_group_name_H-M   'P 1'
_cell_length_a   6.35132600
_cell_length_b   12.45977300
_cell_length_c   15.41618800
_cell_angle_alpha   90.00000000
_cell_angle_beta   90.00000000
_cell_angle_gamma   90.00000000
_symmetry_Int_Tables_number   1
_chemical_formula_structural   RbOsN2
_chemical_formula_sum   'Rb16 Os16 N32'
_cell_volume   1219.97669008
_cell_formula_units_Z   16
loop_
 _symmetry_equiv_pos_site_id
 _symmetry_equiv_pos_as_xyz
  1  'x, y, z'
loop_
 _atom_site_type_symbol
 _atom_site_label
 _atom_site_symmetry_multiplicity
 _atom_site_fract_x
 _atom_site_fract_y
 _atom_site_fract_z
 _atom_site_occupancy
  Rb  Rb0  1  0.24705800  0.00160900  0.93510200  1
  Rb  Rb1  1  0.74705800  0.49839100  0.06489800  1
  Rb  Rb2  1  0.75294200  0.50160900  0.56489800  1
  Rb  Rb3  1  0.25294200  0.99839100  0.43510200  1
  Rb  Rb4  1  0.75294200  0.99839100  0.06489800  1
  Rb  Rb5  1  0.25294200  0.50160900  0.93510200  1
  Rb  Rb6  1  0.24705800  0.49839100  0.43510200  1
  Rb  Rb7  1  0.74705800  0.00160900  0.56489800  1
  Rb  Rb8  1  0.41309600  0.24877900  0.80746600  1
  Rb  Rb9  1  0.91309600  0.25122100  0.19253400  1
  Rb  Rb10  1  0.58690400  0.74877900  0.69253400  1
  Rb  Rb11  1  0.08690400  0.75122100  0.30746600  1
  Rb  Rb12  1  0.58690400  0.75122100  0.19253400  1
  Rb  Rb13  1  0.08690400  0.74877900  0.80746600  1
  Rb  Rb14  1  0.41309600  0.25122100  0.30746600  1
  Rb  Rb15  1  0.91309600  0.24877900  0.69253400  1
  Os  Os16  1  0.74297500  0.99783600  0.81450400  1
  Os  Os17  1  0.24297500  0.50216400  0.18549600  1
  Os  Os18  1  0.25702500  0.49783600  0.68549600  1
  Os  Os19  1  0.75702500  0.00216400  0.31450400  1
  Os  Os20  1  0.25702500  0.00216400  0.18549600  1
  Os  Os21  1  0.75702500  0.49783600  0.81450400  1
  Os  Os22  1  0.74297500  0.50216400  0.31450400  1
  Os  Os23  1  0.24297500  0.99783600  0.68549600  1
  Os  Os24  1  0.85588100  0.24676000  0.94131500  1
  Os  Os25  1  0.35588100  0.25324000  0.05868500  1
  Os  Os26  1  0.14411900  0.74676000  0.55868500  1
  Os  Os27  1  0.64411900  0.75324000  0.44131500  1
  Os  Os28  1  0.14411900  0.75324000  0.05868500  1
  Os  Os29  1  0.64411900  0.74676000  0.94131500  1
  Os  Os30  1  0.85588100  0.25324000  0.44131500  1
  Os  Os31  1  0.35588100  0.24676000  0.55868500  1
  N  N32  1  0.14052900  0.24795600  0.97251000  1
  N  N33  1  0.64052900  0.25204400  0.02749000  1
  N  N34  1  0.85947100  0.74795600  0.52749000  1
  N  N35  1  0.35947100  0.75204400  0.47251000  1
  N  N36  1  0.85947100  0.75204400  0.02749000  1
  N  N37  1  0.35947100  0.74795600  0.97251000  1
  N  N38  1  0.14052900  0.25204400  0.47251000  1
  N  N39  1  0.64052900  0.24795600  0.52749000  1
  N  N40  1  0.78915800  0.37691200  0.88425200  1
  N  N41  1  0.28915800  0.12308800  0.11574800  1
  N  N42  1  0.21084200  0.87691200  0.61574800  1
  N  N43  1  0.71084200  0.62308800  0.38425200  1
  N  N44  1  0.21084200  0.62308800  0.11574800  1
  N  N45  1  0.71084200  0.87691200  0.88425200  1
  N  N46  1  0.78915800  0.12308800  0.38425200  1
  N  N47  1  0.28915800  0.37691200  0.61574800  1
  N  N48  1  0.79033500  0.12222800  0.88223400  1
  N  N49  1  0.29033500  0.37777200  0.11776600  1
  N  N50  1  0.20966500  0.62222800  0.61776600  1
  N  N51  1  0.70966500  0.87777200  0.38223400  1
  N  N52  1  0.20966500  0.87777200  0.11776600  1
  N  N53  1  0.70966500  0.62222800  0.88223400  1
  N  N54  1  0.79033500  0.37777200  0.38223400  1
  N  N55  1  0.29033500  0.12222800  0.61776600  1
  N  N56  1  0.50285200  0.50306600  0.75058600  1
  N  N57  1  0.00285200  0.99693400  0.24941400  1
  N  N58  1  0.49714800  0.00306600  0.74941400  1
  N  N59  1  0.99714800  0.49693400  0.25058600  1
  N  N60  1  0.49714800  0.49693400  0.24941400  1
  N  N61  1  0.99714800  0.00306600  0.75058600  1
  N  N62  1  0.50285200  0.99693400  0.25058600  1
  N  N63  1  0.00285200  0.50306600  0.74941400  1
