# generated using pymatgen
data_BaHS2O3
_symmetry_space_group_name_H-M   'P 1'
_cell_length_a   7.15359900
_cell_length_b   7.44298600
_cell_length_c   20.66357000
_cell_angle_alpha   90.00000000
_cell_angle_beta   90.00000000
_cell_angle_gamma   90.00000000
_symmetry_Int_Tables_number   1
_chemical_formula_structural   BaHS2O3
_chemical_formula_sum   'Ba8 H8 S16 O24'
_cell_volume   1100.21395626
_cell_formula_units_Z   8
loop_
 _symmetry_equiv_pos_site_id
 _symmetry_equiv_pos_as_xyz
  1  'x, y, z'
loop_
 _atom_site_type_symbol
 _atom_site_label
 _atom_site_symmetry_multiplicity
 _atom_site_fract_x
 _atom_site_fract_y
 _atom_site_fract_z
 _atom_site_occupancy
  Ba  Ba0  1  0.22343800  0.04396900  0.16737000  1
  Ba  Ba1  1  0.77656200  0.95603100  0.83263000  1
  Ba  Ba2  1  0.27656200  0.54396900  0.33263000  1
  Ba  Ba3  1  0.22343800  0.45603100  0.83263000  1
  Ba  Ba4  1  0.72343800  0.45603100  0.66737000  1
  Ba  Ba5  1  0.77656200  0.54396900  0.16737000  1
  Ba  Ba6  1  0.27656200  0.95603100  0.66737000  1
  Ba  Ba7  1  0.72343800  0.04396900  0.33263000  1
  H  H8  1  0.15978600  0.07392200  0.02511200  1
  H  H9  1  0.84021400  0.92607800  0.97488800  1
  H  H10  1  0.34021400  0.57392200  0.47488800  1
  H  H11  1  0.15978600  0.42607800  0.97488800  1
  H  H12  1  0.65978600  0.42607800  0.52511200  1
  H  H13  1  0.84021400  0.57392200  0.02511200  1
  H  H14  1  0.34021400  0.92607800  0.52511200  1
  H  H15  1  0.65978600  0.07392200  0.47488800  1
  S  S16  1  0.11213300  0.17329800  0.41519400  1
  S  S17  1  0.88786700  0.82670200  0.58480600  1
  S  S18  1  0.38786700  0.67329800  0.08480600  1
  S  S19  1  0.11213300  0.32670200  0.58480600  1
  S  S20  1  0.61213300  0.32670200  0.91519400  1
  S  S21  1  0.88786700  0.67329800  0.41519400  1
  S  S22  1  0.38786700  0.82670200  0.91519400  1
  S  S23  1  0.61213300  0.17329800  0.08480600  1
  S  S24  1  0.22953600  0.04663900  0.34119400  1
  S  S25  1  0.77046400  0.95336100  0.65880600  1
  S  S26  1  0.27046400  0.54663900  0.15880600  1
  S  S27  1  0.22953600  0.45336100  0.65880600  1
  S  S28  1  0.72953600  0.45336100  0.84119400  1
  S  S29  1  0.77046400  0.54663900  0.34119400  1
  S  S30  1  0.27046400  0.95336100  0.84119400  1
  S  S31  1  0.72953600  0.04663900  0.15880600  1
  O  O32  1  0.13823500  0.40341600  0.13660400  1
  O  O33  1  0.86176500  0.59658400  0.86339600  1
  O  O34  1  0.36176500  0.90341600  0.36339600  1
  O  O35  1  0.13823500  0.09658400  0.86339600  1
  O  O36  1  0.63823500  0.09658400  0.63660400  1
  O  O37  1  0.86176500  0.90341600  0.13660400  1
  O  O38  1  0.36176500  0.59658400  0.63660400  1
  O  O39  1  0.63823500  0.40341600  0.36339600  1
  O  O40  1  0.41461200  0.46477900  0.20263500  1
  O  O41  1  0.58538800  0.53522100  0.79736500  1
  O  O42  1  0.08538800  0.96477900  0.29736500  1
  O  O43  1  0.41461200  0.03522100  0.79736500  1
  O  O44  1  0.91461200  0.03522100  0.70263500  1
  O  O45  1  0.58538800  0.96477900  0.20263500  1
  O  O46  1  0.08538800  0.53522100  0.70263500  1
  O  O47  1  0.91461200  0.46477900  0.29736500  1
  O  O48  1  0.34002200  0.17918100  0.30097900  1
  O  O49  1  0.65997800  0.82081900  0.69902100  1
  O  O50  1  0.15997800  0.67918100  0.19902100  1
  O  O51  1  0.34002200  0.32081900  0.69902100  1
  O  O52  1  0.84002200  0.32081900  0.80097900  1
  O  O53  1  0.65997800  0.67918100  0.30097900  1
  O  O54  1  0.15997800  0.82081900  0.80097900  1
  O  O55  1  0.84002200  0.17918100  0.19902100  1
