# generated using pymatgen
data_BaNa4Ti2(Si2O5)6
_symmetry_space_group_name_H-M   'P 1'
_cell_length_a   10.10518043
_cell_length_b   10.10518043
_cell_length_c   7.38506089
_cell_angle_alpha   88.09737089
_cell_angle_beta   88.09737089
_cell_angle_gamma   119.35232640
_symmetry_Int_Tables_number   1
_chemical_formula_structural   BaNa4Ti2(Si2O5)6
_chemical_formula_sum   'Ba1 Na4 Ti2 Si12 O30'
_cell_volume   655.88749302
_cell_formula_units_Z   1
loop_
 _symmetry_equiv_pos_site_id
 _symmetry_equiv_pos_as_xyz
  1  'x, y, z'
loop_
 _atom_site_type_symbol
 _atom_site_label
 _atom_site_symmetry_multiplicity
 _atom_site_fract_x
 _atom_site_fract_y
 _atom_site_fract_z
 _atom_site_occupancy
  Ba  Ba0  1  0.50000000  0.50000000  0.50000000  1
  Na  Na1  1  0.76724700  0.23275300  0.00000000  1
  Na  Na2  1  0.23275300  0.76724700  0.00000000  1
  Na  Na3  1  0.77563600  0.77563600  0.01581000  1
  Na  Na4  1  0.22436400  0.22436400  0.98419000  1
  Ti  Ti5  1  0.58362900  0.41637100  0.00000000  1
  Ti  Ti6  1  0.41637100  0.58362900  0.00000000  1
  Si  Si7  1  0.42607000  0.08566400  0.26381700  1
  Si  Si8  1  0.57393000  0.91433600  0.73618300  1
  Si  Si9  1  0.91433600  0.57393000  0.73618300  1
  Si  Si10  1  0.08566400  0.42607000  0.26381700  1
  Si  Si11  1  0.56357700  0.87223200  0.31334100  1
  Si  Si12  1  0.43642300  0.12776800  0.68665900  1
  Si  Si13  1  0.12776800  0.43642300  0.68665900  1
  Si  Si14  1  0.87223200  0.56357700  0.31334100  1
  Si  Si15  1  0.90603900  0.08018300  0.28385900  1
  Si  Si16  1  0.09396100  0.91981700  0.71614100  1
  Si  Si17  1  0.91981700  0.09396100  0.71614100  1
  Si  Si18  1  0.08018300  0.90603900  0.28385900  1
  O  O19  1  0.91741500  0.08258500  0.50000000  1
  O  O20  1  0.08258500  0.91741500  0.50000000  1
  O  O21  1  0.55038700  0.21016100  0.12427500  1
  O  O22  1  0.44961300  0.78983900  0.87572500  1
  O  O23  1  0.78983900  0.44961300  0.87572500  1
  O  O24  1  0.21016100  0.55038700  0.12427500  1
  O  O25  1  0.73173000  0.02003600  0.23036300  1
  O  O26  1  0.26827000  0.97996400  0.76963700  1
  O  O27  1  0.97996400  0.26827000  0.76963700  1
  O  O28  1  0.02003600  0.73173000  0.23036300  1
  O  O29  1  0.53443700  0.71982000  0.22351300  1
  O  O30  1  0.46556300  0.28018000  0.77648700  1
  O  O31  1  0.28018000  0.46556300  0.77648700  1
  O  O32  1  0.71982000  0.53443700  0.22351300  1
  O  O33  1  0.43779400  0.92837800  0.28676300  1
  O  O34  1  0.56220600  0.07162200  0.71323700  1
  O  O35  1  0.07162200  0.56220600  0.71323700  1
  O  O36  1  0.92837800  0.43779400  0.28676300  1
  O  O37  1  0.57844400  0.85087000  0.53389800  1
  O  O38  1  0.42155600  0.14913000  0.46610200  1
  O  O39  1  0.14913000  0.42155600  0.46610200  1
  O  O40  1  0.85087000  0.57844400  0.53389800  1
  O  O41  1  0.24871100  0.01889800  0.18886300  1
  O  O42  1  0.75128900  0.98110200  0.81113700  1
  O  O43  1  0.98110200  0.75128900  0.81113700  1
  O  O44  1  0.01889800  0.24871100  0.18886300  1
  O  O45  1  0.40953000  0.40953000  0.12789600  1
  O  O46  1  0.59047000  0.59047000  0.87210400  1
  O  O47  1  0.96292700  0.96292700  0.20720500  1
  O  O48  1  0.03707300  0.03707300  0.79279500  1
