# generated using pymatgen
data_Ba3Cd(SiO4)2
_symmetry_space_group_name_H-M   'P 1'
_cell_length_a   5.81295551
_cell_length_b   5.81295551
_cell_length_c   7.46557900
_cell_angle_alpha   90.00000000
_cell_angle_beta   90.00000000
_cell_angle_gamma   119.99999441
_symmetry_Int_Tables_number   1
_chemical_formula_structural   Ba3Cd(SiO4)2
_chemical_formula_sum   'Ba3 Cd1 Si2 O8'
_cell_volume   218.46815932
_cell_formula_units_Z   1
loop_
 _symmetry_equiv_pos_site_id
 _symmetry_equiv_pos_as_xyz
  1  'x, y, z'
loop_
 _atom_site_type_symbol
 _atom_site_label
 _atom_site_symmetry_multiplicity
 _atom_site_fract_x
 _atom_site_fract_y
 _atom_site_fract_z
 _atom_site_occupancy
  Ba  Ba0  1  0.33333300  0.66666700  0.67292000  1
  Ba  Ba1  1  0.66666700  0.33333300  0.32708000  1
  Ba  Ba2  1  0.00000000  0.00000000  0.00000000  1
  Cd  Cd3  1  0.00000000  0.00000000  0.50000000  1
  Si  Si4  1  0.33333300  0.66666700  0.22351200  1
  Si  Si5  1  0.66666700  0.33333300  0.77648800  1
  O  O6  1  0.33333300  0.66666700  0.00708900  1
  O  O7  1  0.66666700  0.33333300  0.99291100  1
  O  O8  1  0.17960800  0.82039200  0.30572300  1
  O  O9  1  0.82039200  0.17960800  0.69427700  1
  O  O10  1  0.17960800  0.35921600  0.30572300  1
  O  O11  1  0.82039200  0.64078400  0.69427700  1
  O  O12  1  0.64078400  0.82039200  0.30572300  1
  O  O13  1  0.35921600  0.17960800  0.69427700  1
