# generated using pymatgen
data_Ba2La2Mn4O11
_symmetry_space_group_name_H-M   'P 1'
_cell_length_a   3.91489900
_cell_length_b   8.27953100
_cell_length_c   8.89821913
_cell_angle_alpha   117.72838344
_cell_angle_beta   89.99938267
_cell_angle_gamma   89.99976528
_symmetry_Int_Tables_number   1
_chemical_formula_structural   Ba2La2Mn4O11
_chemical_formula_sum   'Ba2 La2 Mn4 O11'
_cell_volume   255.30114714
_cell_formula_units_Z   1
loop_
 _symmetry_equiv_pos_site_id
 _symmetry_equiv_pos_as_xyz
  1  'x, y, z'
loop_
 _atom_site_type_symbol
 _atom_site_label
 _atom_site_symmetry_multiplicity
 _atom_site_fract_x
 _atom_site_fract_y
 _atom_site_fract_z
 _atom_site_occupancy
  Ba  Ba0  1  0.49999600  0.50000700  0.50000100  1
  Ba  Ba1  1  0.49999500  0.00001400  0.50000400  1
  La  La2  1  0.49998000  0.23172300  0.00000800  1
  La  La3  1  0.50000900  0.76826700  0.00000600  1
  Mn  Mn4  1  0.00000800  0.38028900  0.76057400  1
  Mn  Mn5  1  0.99999600  0.61970800  0.23941900  1
  Mn  Mn6  1  0.00001000  0.12490700  0.24984200  1
  Mn  Mn7  1  0.99999700  0.87509500  0.75015400  1
  O  O8  1  0.49999500  0.11624300  0.23251600  1
  O  O9  1  0.50000000  0.88376300  0.76749200  1
  O  O10  1  0.99998800  0.37410700  0.21118300  1
  O  O11  1  0.00001700  0.62590100  0.78882100  1
  O  O12  1  0.99999900  0.83702900  0.21115400  1
  O  O13  1  0.00001500  0.16296400  0.78883900  1
  O  O14  1  0.50001000  0.40704300  0.81409200  1
  O  O15  1  0.49999800  0.59295800  0.18590100  1
  O  O16  1  0.99997500  0.99999200  0.99999700  1
  O  O17  1  0.00000300  0.24731900  0.49467500  1
  O  O18  1  0.00001000  0.75267100  0.50532000  1
