# generated using pymatgen
data_CdRe2C6(N6O7)2
_symmetry_space_group_name_H-M   'P 1'
_cell_length_a   8.16744100
_cell_length_b   10.68960000
_cell_length_c   18.55380065
_cell_angle_alpha   57.26761350
_cell_angle_beta   90.00000000
_cell_angle_gamma   90.00000000
_symmetry_Int_Tables_number   1
_chemical_formula_structural   CdRe2C6(N6O7)2
_chemical_formula_sum   'Cd2 Re4 C12 N24 O28'
_cell_volume   1362.64376804
_cell_formula_units_Z   2
loop_
 _symmetry_equiv_pos_site_id
 _symmetry_equiv_pos_as_xyz
  1  'x, y, z'
loop_
 _atom_site_type_symbol
 _atom_site_label
 _atom_site_symmetry_multiplicity
 _atom_site_fract_x
 _atom_site_fract_y
 _atom_site_fract_z
 _atom_site_occupancy
  Cd  Cd0  1  0.00000000  0.00000000  0.00000000  1
  Cd  Cd1  1  0.50000000  0.00000000  0.50000000  1
  Re  Re2  1  0.85832500  0.58228600  0.34063300  1
  Re  Re3  1  0.14167500  0.41771400  0.65936700  1
  Re  Re4  1  0.35832500  0.41771400  0.15936700  1
  Re  Re5  1  0.64167500  0.58228600  0.84063300  1
  C  C6  1  0.86364800  0.68952600  0.04883000  1
  C  C7  1  0.13635200  0.31047400  0.95117000  1
  C  C8  1  0.36364800  0.31047400  0.45117000  1
  C  C9  1  0.63635200  0.68952600  0.54883000  1
  C  C10  1  0.35457400  0.96651400  0.34550800  1
  C  C11  1  0.64542600  0.03348600  0.65449200  1
  C  C12  1  0.85457400  0.03348600  0.15449200  1
  C  C13  1  0.14542600  0.96651400  0.84550800  1
  C  C14  1  0.34397900  0.86401100  0.10228500  1
  C  C15  1  0.65602100  0.13598900  0.89771500  1
  C  C16  1  0.84397900  0.13598900  0.39771500  1
  C  C17  1  0.15602100  0.86401100  0.60228500  1
  N  N18  1  0.34479900  0.74510600  0.18654200  1
  N  N19  1  0.65520100  0.25489400  0.81345800  1
  N  N20  1  0.84479900  0.25489400  0.31345800  1
  N  N21  1  0.15520100  0.74510600  0.68654200  1
  N  N22  1  0.79446600  0.56313200  0.06086500  1
  N  N23  1  0.20553400  0.43686800  0.93913500  1
  N  N24  1  0.29446600  0.43686800  0.43913500  1
  N  N25  1  0.70553400  0.56313200  0.56086500  1
  N  N26  1  0.77436300  0.04473200  0.21582400  1
  N  N27  1  0.22563700  0.95526800  0.78417600  1
  N  N28  1  0.27436300  0.95526800  0.28417600  1
  N  N29  1  0.72563700  0.04473200  0.71582400  1
  N  N30  1  0.48486400  0.81648500  0.14835600  1
  N  N31  1  0.51513600  0.18351500  0.85164400  1
  N  N32  1  0.98486400  0.18351500  0.35164400  1
  N  N33  1  0.01513600  0.81648500  0.64835600  1
  N  N34  1  0.26505300  0.84221500  0.36554200  1
  N  N35  1  0.73494700  0.15778500  0.63445800  1
  N  N36  1  0.76505300  0.15778500  0.13445800  1
  N  N37  1  0.23494700  0.84221500  0.86554200  1
  N  N38  1  0.78053400  0.69277100  0.50941200  1
  N  N39  1  0.21946600  0.30722900  0.49058800  1
  N  N40  1  0.28053400  0.30722900  0.99058800  1
  N  N41  1  0.71946600  0.69277100  0.00941200  1
  O  O42  1  0.97425200  0.75157600  0.06162700  1
  O  O43  1  0.02574800  0.24842400  0.93837300  1
  O  O44  1  0.47425200  0.24842400  0.43837300  1
  O  O45  1  0.52574800  0.75157600  0.56162700  1
  O  O46  1  0.27632300  0.95561000  0.03491700  1
  O  O47  1  0.72367700  0.04439000  0.96508300  1
  O  O48  1  0.77632300  0.04439000  0.46508300  1
  O  O49  1  0.22367700  0.95561000  0.53491700  1
  O  O50  1  0.65938700  0.65610700  0.31489700  1
  O  O51  1  0.34061300  0.34389300  0.68510300  1
  O  O52  1  0.15938700  0.34389300  0.18510300  1
  O  O53  1  0.84061300  0.65610700  0.81489700  1
  O  O54  1  0.86220500  0.42921300  0.44696300  1
  O  O55  1  0.13779500  0.57078700  0.55303700  1
  O  O56  1  0.36220500  0.57078700  0.05303700  1
  O  O57  1  0.63779500  0.42921300  0.94696300  1
  O  O58  1  0.99255500  0.72069400  0.32800200  1
  O  O59  1  0.00744500  0.27930600  0.67199800  1
  O  O60  1  0.49255500  0.27930600  0.17199800  1
  O  O61  1  0.50744500  0.72069400  0.82800200  1
  O  O62  1  0.94147700  0.96561500  0.13395200  1
  O  O63  1  0.05852300  0.03438500  0.86604800  1
  O  O64  1  0.44147700  0.03438500  0.36604800  1
  O  O65  1  0.55852300  0.96561500  0.63395200  1
  O  O66  1  0.92075000  0.52153800  0.27322800  1
  O  O67  1  0.07925000  0.47846200  0.72677200  1
  O  O68  1  0.42075000  0.47846200  0.22677200  1
  O  O69  1  0.57925000  0.52153800  0.77322800  1
