# generated using pymatgen
data_Be3B3P6N3O25
_symmetry_space_group_name_H-M   'P 1'
_cell_length_a   12.75333040
_cell_length_b   12.75333040
_cell_length_c   12.75333040
_cell_angle_alpha   90.00000000
_cell_angle_beta   90.00000000
_cell_angle_gamma   90.00000000
_symmetry_Int_Tables_number   1
_chemical_formula_structural   Be3B3P6N3O25
_chemical_formula_sum   'Be12 B12 P24 N12 O100'
_cell_volume   2074.29649374
_cell_formula_units_Z   4
loop_
 _symmetry_equiv_pos_site_id
 _symmetry_equiv_pos_as_xyz
  1  'x, y, z'
loop_
 _atom_site_type_symbol
 _atom_site_label
 _atom_site_symmetry_multiplicity
 _atom_site_fract_x
 _atom_site_fract_y
 _atom_site_fract_z
 _atom_site_occupancy
  Be  Be0  1  0.18210583  0.56815994  0.37482773  1
  Be  Be1  1  0.31789417  0.43184006  0.87482773  1
  Be  Be2  1  0.81789417  0.06815994  0.12517227  1
  Be  Be3  1  0.37482773  0.18210583  0.56815994  1
  Be  Be4  1  0.68210583  0.93184006  0.62517227  1
  Be  Be5  1  0.87482773  0.31789417  0.43184006  1
  Be  Be6  1  0.12517227  0.81789417  0.06815994  1
  Be  Be7  1  0.62517227  0.68210583  0.93184006  1
  Be  Be8  1  0.56815994  0.37482773  0.18210583  1
  Be  Be9  1  0.06815994  0.12517227  0.81789417  1
  Be  Be10  1  0.93184006  0.62517227  0.68210583  1
  Be  Be11  1  0.43184006  0.87482773  0.31789417  1
  B  B12  1  0.12488729  0.14003070  0.38980805  1
  B  B13  1  0.37511271  0.85996930  0.88980805  1
  B  B14  1  0.87511271  0.64003070  0.11019195  1
  B  B15  1  0.38980805  0.12488729  0.14003070  1
  B  B16  1  0.62488729  0.35996930  0.61019195  1
  B  B17  1  0.88980805  0.37511271  0.85996930  1
  B  B18  1  0.11019195  0.87511271  0.64003070  1
  B  B19  1  0.61019195  0.62488729  0.35996930  1
  B  B20  1  0.14003070  0.38980805  0.12488729  1
  B  B21  1  0.64003070  0.11019195  0.87511271  1
  B  B22  1  0.35996930  0.61019195  0.62488729  1
  B  B23  1  0.85996930  0.88980805  0.37511271  1
  P  P24  1  0.08968944  0.35572511  0.33749854  1
  P  P25  1  0.41031056  0.64427489  0.83749854  1
  P  P26  1  0.91031056  0.85572511  0.16250146  1
  P  P27  1  0.33749854  0.08968944  0.35572511  1
  P  P28  1  0.58968944  0.14427489  0.66250146  1
  P  P29  1  0.83749854  0.41031056  0.64427489  1
  P  P30  1  0.16250146  0.91031056  0.85572511  1
  P  P31  1  0.66250146  0.58968944  0.14427489  1
  P  P32  1  0.35572511  0.33749854  0.08968944  1
  P  P33  1  0.85572511  0.16250146  0.91031056  1
  P  P34  1  0.14427489  0.66250146  0.58968944  1
  P  P35  1  0.64427489  0.83749854  0.41031056  1
  P  P36  1  0.08770210  0.60574680  0.16003922  1
  P  P37  1  0.41229790  0.39425320  0.66003922  1
  P  P38  1  0.91229790  0.10574680  0.33996078  1
  P  P39  1  0.16003922  0.08770210  0.60574680  1
  P  P40  1  0.58770210  0.89425320  0.83996078  1
  P  P41  1  0.66003922  0.41229790  0.39425320  1
  P  P42  1  0.33996078  0.91229790  0.10574680  1
  P  P43  1  0.83996078  0.58770210  0.89425320  1
  P  P44  1  0.60574680  0.16003922  0.08770210  1
  P  P45  1  0.10574680  0.33996078  0.91229790  1
  P  P46  1  0.89425320  0.83996078  0.58770210  1
  P  P47  1  0.39425320  0.66003922  0.41229790  1
  N  N48  1  0.37523380  0.37523380  0.37523380  1
  N  N49  1  0.12476620  0.62476620  0.87523380  1
  N  N50  1  0.62476620  0.87523380  0.12476620  1
  N  N51  1  0.87523380  0.12476620  0.62476620  1
  N  N52  1  0.64998354  0.64998354  0.64998354  1
  N  N53  1  0.85001646  0.35001646  0.14998354  1
  N  N54  1  0.35001646  0.14998354  0.85001646  1
  N  N55  1  0.14998354  0.85001646  0.35001646  1
  N  N56  1  0.09959545  0.09959545  0.09959545  1
  N  N57  1  0.40040455  0.90040455  0.59959545  1
  N  N58  1  0.90040455  0.59959545  0.40040455  1
  N  N59  1  0.59959545  0.40040455  0.90040455  1
  O  O60  1  0.08662256  0.12342014  0.69274738  1
  O  O61  1  0.41337744  0.87657986  0.19274738  1
  O  O62  1  0.91337744  0.62342014  0.80725262  1
  O  O63  1  0.69274738  0.08662256  0.12342014  1
  O  O64  1  0.58662256  0.37657986  0.30725262  1
  O  O65  1  0.19274738  0.41337744  0.87657986  1
  O  O66  1  0.80725262  0.91337744  0.62342014  1
  O  O67  1  0.30725262  0.58662256  0.37657986  1
  O  O68  1  0.12342014  0.69274738  0.08662256  1
  O  O69  1  0.62342014  0.80725262  0.91337744  1
  O  O70  1  0.37657986  0.30725262  0.58662256  1
  O  O71  1  0.87657986  0.19274738  0.41337744  1
  O  O72  1  0.13190157  0.61838397  0.26975941  1
  O  O73  1  0.36809843  0.38161603  0.76975941  1
  O  O74  1  0.86809843  0.11838397  0.23024059  1
  O  O75  1  0.26975941  0.13190157  0.61838397  1
  O  O76  1  0.63190157  0.88161603  0.73024059  1
  O  O77  1  0.76975941  0.36809843  0.38161603  1
  O  O78  1  0.23024059  0.86809843  0.11838397  1
  O  O79  1  0.73024059  0.63190157  0.88161603  1
  O  O80  1  0.61838397  0.26975941  0.13190157  1
  O  O81  1  0.11838397  0.23024059  0.86809843  1
  O  O82  1  0.88161603  0.73024059  0.63190157  1
  O  O83  1  0.38161603  0.76975941  0.36809843  1
  O  O84  1  0.16198207  0.44338910  0.37327610  1
  O  O85  1  0.33801793  0.55661090  0.87327610  1
  O  O86  1  0.83801793  0.94338910  0.12672390  1
  O  O87  1  0.37327610  0.16198207  0.44338910  1
  O  O88  1  0.66198207  0.05661090  0.62672390  1
  O  O89  1  0.87327610  0.33801793  0.55661090  1
  O  O90  1  0.12672390  0.83801793  0.94338910  1
  O  O91  1  0.62672390  0.66198207  0.05661090  1
  O  O92  1  0.44338910  0.37327610  0.16198207  1
  O  O93  1  0.94338910  0.12672390  0.83801793  1
  O  O94  1  0.05661090  0.62672390  0.66198207  1
  O  O95  1  0.55661090  0.87327610  0.33801793  1
  O  O96  1  0.03441930  0.10194512  0.32977212  1
  O  O97  1  0.46558070  0.89805488  0.82977212  1
  O  O98  1  0.96558070  0.60194512  0.17022788  1
  O  O99  1  0.32977212  0.03441930  0.10194512  1
  O  O100  1  0.53441930  0.39805488  0.67022788  1
  O  O101  1  0.82977212  0.46558070  0.89805488  1
  O  O102  1  0.17022788  0.96558070  0.60194512  1
  O  O103  1  0.67022788  0.53441930  0.39805488  1
  O  O104  1  0.10194512  0.32977212  0.03441930  1
  O  O105  1  0.60194512  0.17022788  0.96558070  1
  O  O106  1  0.39805488  0.67022788  0.53441930  1
  O  O107  1  0.89805488  0.82977212  0.46558070  1
  O  O108  1  0.14386924  0.25269606  0.37374712  1
  O  O109  1  0.35613076  0.74730394  0.87374712  1
  O  O110  1  0.85613076  0.75269606  0.12625288  1
  O  O111  1  0.37374712  0.14386924  0.25269606  1
  O  O112  1  0.64386924  0.24730394  0.62625288  1
  O  O113  1  0.87374712  0.35613076  0.74730394  1
  O  O114  1  0.12625288  0.85613076  0.75269606  1
  O  O115  1  0.62625288  0.64386924  0.24730394  1
  O  O116  1  0.25269606  0.37374712  0.14386924  1
  O  O117  1  0.75269606  0.12625288  0.85613076  1
  O  O118  1  0.24730394  0.62625288  0.64386924  1
  O  O119  1  0.74730394  0.87374712  0.35613076  1
  O  O120  1  0.87359311  0.87359311  0.87359311  1
  O  O121  1  0.62640689  0.12640689  0.37359311  1
  O  O122  1  0.12640689  0.37359311  0.62640689  1
  O  O123  1  0.37359311  0.62640689  0.12640689  1
  O  O124  1  0.13230698  0.61944013  0.47950581  1
  O  O125  1  0.36769302  0.38055987  0.97950581  1
  O  O126  1  0.86769302  0.11944013  0.02049419  1
  O  O127  1  0.47950581  0.13230698  0.61944013  1
  O  O128  1  0.63230698  0.88055987  0.52049419  1
  O  O129  1  0.97950581  0.36769302  0.38055987  1
  O  O130  1  0.02049419  0.86769302  0.11944013  1
  O  O131  1  0.52049419  0.63230698  0.88055987  1
  O  O132  1  0.61944013  0.47950581  0.13230698  1
  O  O133  1  0.11944013  0.02049419  0.86769302  1
  O  O134  1  0.88055987  0.52049419  0.63230698  1
  O  O135  1  0.38055987  0.97950581  0.36769302  1
  O  O136  1  0.08050155  0.35072939  0.21543647  1
  O  O137  1  0.41949845  0.64927061  0.71543647  1
  O  O138  1  0.91949845  0.85072939  0.28456353  1
  O  O139  1  0.21543647  0.08050155  0.35072939  1
  O  O140  1  0.58050155  0.14927061  0.78456353  1
  O  O141  1  0.71543647  0.41949845  0.64927061  1
  O  O142  1  0.28456353  0.91949845  0.85072939  1
  O  O143  1  0.78456353  0.58050155  0.14927061  1
  O  O144  1  0.35072939  0.21543647  0.08050155  1
  O  O145  1  0.85072939  0.28456353  0.91949845  1
  O  O146  1  0.14927061  0.78456353  0.58050155  1
  O  O147  1  0.64927061  0.71543647  0.41949845  1
  O  O148  1  0.10613389  0.12257614  0.50215059  1
  O  O149  1  0.39386611  0.87742386  0.00215059  1
  O  O150  1  0.89386611  0.62257614  0.99784941  1
  O  O151  1  0.50215059  0.10613389  0.12257614  1
  O  O152  1  0.60613389  0.37742386  0.49784941  1
  O  O153  1  0.00215059  0.39386611  0.87742386  1
  O  O154  1  0.99784941  0.89386611  0.62257614  1
  O  O155  1  0.49784941  0.60613389  0.37742386  1
  O  O156  1  0.12257614  0.50215059  0.10613389  1
  O  O157  1  0.62257614  0.99784941  0.89386611  1
  O  O158  1  0.37742386  0.49784941  0.60613389  1
  O  O159  1  0.87742386  0.00215059  0.39386611  1
