# generated using pymatgen
data_As2Pd5
_symmetry_space_group_name_H-M   'P 1'
_cell_length_a   7.47109160
_cell_length_b   7.47109160
_cell_length_c   13.67579000
_cell_angle_alpha   90.00000000
_cell_angle_beta   90.00000000
_cell_angle_gamma   119.99999643
_symmetry_Int_Tables_number   1
_chemical_formula_structural   As2Pd5
_chemical_formula_sum   'As12 Pd30'
_cell_volume   661.07569848
_cell_formula_units_Z   6
loop_
 _symmetry_equiv_pos_site_id
 _symmetry_equiv_pos_as_xyz
  1  'x, y, z'
loop_
 _atom_site_type_symbol
 _atom_site_label
 _atom_site_symmetry_multiplicity
 _atom_site_fract_x
 _atom_site_fract_y
 _atom_site_fract_z
 _atom_site_occupancy
  As  As0  1  0.66666700  0.33333300  0.55107000  1
  As  As1  1  0.33333300  0.66666700  0.05107000  1
  As  As2  1  0.66666700  0.33333300  0.05107000  1
  As  As3  1  0.33333300  0.66666700  0.55107000  1
  As  As4  1  0.67078600  0.67078600  0.78302300  1
  As  As5  1  0.00000000  0.32921400  0.78302300  1
  As  As6  1  0.32921400  0.32921400  0.28302300  1
  As  As7  1  0.00000000  0.67078600  0.28302300  1
  As  As8  1  0.32921400  0.00000000  0.78302300  1
  As  As9  1  0.67078600  0.00000000  0.28302300  1
  As  As10  1  0.00000000  0.00000000  0.01111800  1
  As  As11  1  0.00000000  0.00000000  0.51111800  1
  Pd  Pd12  1  0.66666700  0.33333300  0.84680800  1
  Pd  Pd13  1  0.33333300  0.66666700  0.34680800  1
  Pd  Pd14  1  0.66666700  0.33333300  0.34680800  1
  Pd  Pd15  1  0.33333300  0.66666700  0.84680800  1
  Pd  Pd16  1  0.70131100  0.70131100  0.58707100  1
  Pd  Pd17  1  0.00000000  0.29868900  0.58707100  1
  Pd  Pd18  1  0.29868900  0.29868900  0.08707100  1
  Pd  Pd19  1  0.00000000  0.70131100  0.08707100  1
  Pd  Pd20  1  0.29868900  0.00000000  0.58707100  1
  Pd  Pd21  1  0.70131100  0.00000000  0.08707100  1
  Pd  Pd22  1  0.75399900  0.75399900  0.37948900  1
  Pd  Pd23  1  0.00000000  0.24600100  0.37948900  1
  Pd  Pd24  1  0.24600100  0.24600100  0.87948900  1
  Pd  Pd25  1  0.00000000  0.75399900  0.87948900  1
  Pd  Pd26  1  0.24600100  0.00000000  0.37948900  1
  Pd  Pd27  1  0.75399900  0.00000000  0.87948900  1
  Pd  Pd28  1  0.38511200  0.38511200  0.69241900  1
  Pd  Pd29  1  0.00000000  0.61488800  0.69241900  1
  Pd  Pd30  1  0.61488800  0.61488800  0.19241900  1
  Pd  Pd31  1  0.00000000  0.38511200  0.19241900  1
  Pd  Pd32  1  0.61488800  0.00000000  0.69241900  1
  Pd  Pd33  1  0.38511200  0.00000000  0.19241900  1
  Pd  Pd34  1  0.00000000  0.00000000  0.71430200  1
  Pd  Pd35  1  0.00000000  0.00000000  0.21430200  1
  Pd  Pd36  1  0.61556900  0.61556900  0.97860500  1
  Pd  Pd37  1  0.00000000  0.38443100  0.97860500  1
  Pd  Pd38  1  0.38443100  0.38443100  0.47860500  1
  Pd  Pd39  1  0.00000000  0.61556900  0.47860500  1
  Pd  Pd40  1  0.38443100  0.00000000  0.97860500  1
  Pd  Pd41  1  0.61556900  0.00000000  0.47860500  1
