# generated using pymatgen
data_BaTeH3(S2O3)2
_symmetry_space_group_name_H-M   'P 1'
_cell_length_a   5.36445200
_cell_length_b   11.03683900
_cell_length_c   21.54224607
_cell_angle_alpha   77.96757209
_cell_angle_beta   90.00000000
_cell_angle_gamma   90.00000000
_symmetry_Int_Tables_number   1
_chemical_formula_structural   BaTeH3(S2O3)2
_chemical_formula_sum   'Ba4 Te4 H12 S16 O24'
_cell_volume   1247.42122224
_cell_formula_units_Z   4
loop_
 _symmetry_equiv_pos_site_id
 _symmetry_equiv_pos_as_xyz
  1  'x, y, z'
loop_
 _atom_site_type_symbol
 _atom_site_label
 _atom_site_symmetry_multiplicity
 _atom_site_fract_x
 _atom_site_fract_y
 _atom_site_fract_z
 _atom_site_occupancy
  Ba  Ba0  1  0.66982000  0.14331300  0.08957100  1
  Ba  Ba1  1  0.33018000  0.85668700  0.91042900  1
  Ba  Ba2  1  0.16982000  0.85668700  0.41042900  1
  Ba  Ba3  1  0.83018000  0.14331300  0.58957100  1
  Te  Te4  1  0.98722300  0.59866500  0.18790800  1
  Te  Te5  1  0.01277700  0.40133500  0.81209200  1
  Te  Te6  1  0.48722300  0.40133500  0.31209200  1
  Te  Te7  1  0.51277700  0.59866500  0.68790800  1
  H  H8  1  0.70600300  0.41648500  0.02939900  1
  H  H9  1  0.29399700  0.58351500  0.97060100  1
  H  H10  1  0.20600300  0.58351500  0.47060100  1
  H  H11  1  0.79399700  0.41648500  0.52939900  1
  H  H12  1  0.35947800  0.91471200  0.14962900  1
  H  H13  1  0.64052200  0.08528800  0.85037100  1
  H  H14  1  0.85947800  0.08528800  0.35037100  1
  H  H15  1  0.14052200  0.91471200  0.64962900  1
  H  H16  1  0.89765200  0.98236600  0.21452200  1
  H  H17  1  0.10234800  0.01763400  0.78547800  1
  H  H18  1  0.39765200  0.01763400  0.28547800  1
  H  H19  1  0.60234800  0.98236600  0.71452200  1
  S  S20  1  0.59484700  0.71884300  0.31890800  1
  S  S21  1  0.40515300  0.28115700  0.68109200  1
  S  S22  1  0.09484700  0.28115700  0.18109200  1
  S  S23  1  0.90515300  0.71884300  0.81890800  1
  S  S24  1  0.70112100  0.66683500  0.10211700  1
  S  S25  1  0.29887900  0.33316500  0.89788300  1
  S  S26  1  0.20112100  0.33316500  0.39788300  1
  S  S27  1  0.79887900  0.66683500  0.60211700  1
  S  S28  1  0.73288700  0.53900500  0.36134700  1
  S  S29  1  0.26711300  0.46099500  0.63865300  1
  S  S30  1  0.23288700  0.46099500  0.13865300  1
  S  S31  1  0.76711300  0.53900500  0.86134700  1
  S  S32  1  0.87048400  0.82734100  0.04607400  1
  S  S33  1  0.12951600  0.17265900  0.95392600  1
  S  S34  1  0.37048400  0.17265900  0.45392600  1
  S  S35  1  0.62951600  0.82734100  0.54607400  1
  O  O36  1  0.82151600  0.28157400  0.17233000  1
  O  O37  1  0.17848400  0.71842600  0.82767000  1
  O  O38  1  0.32151600  0.71842600  0.32767000  1
  O  O39  1  0.67848400  0.28157400  0.67233000  1
  O  O40  1  0.37659600  0.79627700  0.52841800  1
  O  O41  1  0.62340400  0.20372300  0.47158200  1
  O  O42  1  0.87659600  0.20372300  0.97158200  1
  O  O43  1  0.12340400  0.79627700  0.02841800  1
  O  O44  1  0.86964300  0.92504700  0.08320000  1
  O  O45  1  0.13035700  0.07495300  0.91680000  1
  O  O46  1  0.36964300  0.07495300  0.41680000  1
  O  O47  1  0.63035700  0.92504700  0.58320000  1
  O  O48  1  0.71611800  0.79687900  0.35890300  1
  O  O49  1  0.28388200  0.20312100  0.64109700  1
  O  O50  1  0.21611800  0.20312100  0.14109700  1
  O  O51  1  0.78388200  0.79687900  0.85890300  1
  O  O52  1  0.79887200  0.85473700  0.49114000  1
  O  O53  1  0.20112800  0.14526300  0.50886000  1
  O  O54  1  0.29887200  0.14526300  0.00886000  1
  O  O55  1  0.70112800  0.85473700  0.99114000  1
  O  O56  1  0.67107400  0.74789200  0.25258100  1
  O  O57  1  0.32892600  0.25210800  0.74741900  1
  O  O58  1  0.17107400  0.25210800  0.24741900  1
  O  O59  1  0.82892600  0.74789200  0.75258100  1
