# generated using pymatgen
data_Ba2FeBrO3
_symmetry_space_group_name_H-M   'P 1'
_cell_length_a   4.13905500
_cell_length_b   4.13905500
_cell_length_c   15.97557800
_cell_angle_alpha   90.00000000
_cell_angle_beta   90.00000000
_cell_angle_gamma   90.00000000
_symmetry_Int_Tables_number   1
_chemical_formula_structural   Ba2FeBrO3
_chemical_formula_sum   'Ba4 Fe2 Br2 O6'
_cell_volume   273.69002845
_cell_formula_units_Z   2
loop_
 _symmetry_equiv_pos_site_id
 _symmetry_equiv_pos_as_xyz
  1  'x, y, z'
loop_
 _atom_site_type_symbol
 _atom_site_label
 _atom_site_symmetry_multiplicity
 _atom_site_fract_x
 _atom_site_fract_y
 _atom_site_fract_z
 _atom_site_occupancy
  Ba  Ba0  1  0.00000000  0.50000000  0.66684800  1
  Ba  Ba1  1  0.50000000  0.00000000  0.09395300  1
  Ba  Ba2  1  0.50000000  0.00000000  0.33315200  1
  Ba  Ba3  1  0.00000000  0.50000000  0.90604700  1
  Fe  Fe4  1  0.00000000  0.50000000  0.19859500  1
  Fe  Fe5  1  0.50000000  0.00000000  0.80140500  1
  Br  Br6  1  0.00000000  0.50000000  0.42141600  1
  Br  Br7  1  0.50000000  0.00000000  0.57858400  1
  O  O8  1  0.00000000  0.50000000  0.07878100  1
  O  O9  1  0.50000000  0.50000000  0.78013700  1
  O  O10  1  0.00000000  0.00000000  0.78013700  1
  O  O11  1  0.50000000  0.50000000  0.21986300  1
  O  O12  1  0.00000000  0.00000000  0.21986300  1
  O  O13  1  0.50000000  0.00000000  0.92121900  1
