# generated using pymatgen
data_AsC3S3NF10
_symmetry_space_group_name_H-M   'P 1'
_cell_length_a   8.16766000
_cell_length_b   10.75915500
_cell_length_c   13.14030386
_cell_angle_alpha   81.00167494
_cell_angle_beta   90.00000000
_cell_angle_gamma   90.00000000
_symmetry_Int_Tables_number   1
_chemical_formula_structural   AsC3S3NF10
_chemical_formula_sum   'As4 C12 S12 N4 F40'
_cell_volume   1140.52067053
_cell_formula_units_Z   4
loop_
 _symmetry_equiv_pos_site_id
 _symmetry_equiv_pos_as_xyz
  1  'x, y, z'
loop_
 _atom_site_type_symbol
 _atom_site_label
 _atom_site_symmetry_multiplicity
 _atom_site_fract_x
 _atom_site_fract_y
 _atom_site_fract_z
 _atom_site_occupancy
  As  As0  1  0.87538400  0.70448900  0.72718000  1
  As  As1  1  0.12461600  0.29551100  0.27282000  1
  As  As2  1  0.37538400  0.29551100  0.77282000  1
  As  As3  1  0.62461600  0.70448900  0.22718000  1
  C  C4  1  0.30772000  0.88109100  0.54002900  1
  C  C5  1  0.69228000  0.11890900  0.45997100  1
  C  C6  1  0.80772000  0.11890900  0.95997100  1
  C  C7  1  0.19228000  0.88109100  0.04002900  1
  C  C8  1  0.03712500  0.94093500  0.98009900  1
  C  C9  1  0.96287500  0.05906500  0.01990100  1
  C  C10  1  0.53712500  0.05906500  0.51990100  1
  C  C11  1  0.46287500  0.94093500  0.48009900  1
  C  C12  1  0.26017900  0.77023800  0.99239100  1
  C  C13  1  0.73982100  0.22976200  0.00760900  1
  C  C14  1  0.76017900  0.22976200  0.50760900  1
  C  C15  1  0.23982100  0.77023800  0.49239100  1
  S  S16  1  0.26861300  0.53984500  0.97199200  1
  S  S17  1  0.73138700  0.46015500  0.02800800  1
  S  S18  1  0.76861300  0.46015500  0.52800800  1
  S  S19  1  0.23138700  0.53984500  0.47199200  1
  S  S20  1  0.46014200  0.62408200  0.87566400  1
  S  S21  1  0.53985800  0.37591800  0.12433600  1
  S  S22  1  0.96014200  0.37591800  0.62433600  1
  S  S23  1  0.03985800  0.62408200  0.37566400  1
  S  S24  1  0.42445800  0.80204500  0.90715900  1
  S  S25  1  0.57554200  0.19795500  0.09284100  1
  S  S26  1  0.92445800  0.19795500  0.59284100  1
  S  S27  1  0.07554200  0.80204500  0.40715900  1
  N  N28  1  0.30118300  0.65915200  0.51685700  1
  N  N29  1  0.69881700  0.34084800  0.48314300  1
  N  N30  1  0.80118300  0.34084800  0.98314300  1
  N  N31  1  0.19881700  0.65915200  0.01685700  1
  F  F32  1  0.34792700  0.84017900  0.64006000  1
  F  F33  1  0.65207300  0.15982100  0.35994000  1
  F  F34  1  0.84792700  0.15982100  0.85994000  1
  F  F35  1  0.15207300  0.84017900  0.14006000  1
  F  F36  1  0.06424800  0.73421600  0.78460700  1
  F  F37  1  0.93575200  0.26578400  0.21539300  1
  F  F38  1  0.56424800  0.26578400  0.71539300  1
  F  F39  1  0.43575200  0.73421600  0.28460700  1
  F  F40  1  0.98163000  0.62120500  0.63693100  1
  F  F41  1  0.01837000  0.37879500  0.36306900  1
  F  F42  1  0.48163000  0.37879500  0.86306900  1
  F  F43  1  0.51837000  0.62120500  0.13693100  1
  F  F44  1  0.89672100  0.84488100  0.63920600  1
  F  F45  1  0.10327900  0.15511900  0.36079400  1
  F  F46  1  0.39672100  0.15511900  0.86079400  1
  F  F47  1  0.60327900  0.84488100  0.13920600  1
  F  F48  1  0.76487000  0.78340300  0.81428100  1
  F  F49  1  0.23513000  0.21659700  0.18571900  1
  F  F50  1  0.26487000  0.21659700  0.68571900  1
  F  F51  1  0.73513000  0.78340300  0.31428100  1
  F  F52  1  0.36146200  0.43896300  0.68596100  1
  F  F53  1  0.63853800  0.56103700  0.31403900  1
  F  F54  1  0.86146200  0.56103700  0.81403900  1
  F  F55  1  0.13853800  0.43896300  0.18596100  1
  F  F56  1  0.18951200  0.33056900  0.83177900  1
  F  F57  1  0.81048800  0.66943100  0.16822100  1
  F  F58  1  0.68951200  0.66943100  0.66822100  1
  F  F59  1  0.31048800  0.33056900  0.33177900  1
  F  F60  1  0.18682900  0.96979500  0.53558400  1
  F  F61  1  0.81317100  0.03020500  0.46441600  1
  F  F62  1  0.68682900  0.03020500  0.96441600  1
  F  F63  1  0.31317100  0.96979500  0.03558400  1
  F  F64  1  0.92128500  0.84949800  0.98675200  1
  F  F65  1  0.07871500  0.15050200  0.01324800  1
  F  F66  1  0.42128500  0.15050200  0.51324800  1
  F  F67  1  0.57871500  0.84949800  0.48675200  1
  F  F68  1  0.08340300  0.97537800  0.87961300  1
  F  F69  1  0.91659700  0.02462200  0.12038700  1
  F  F70  1  0.58340300  0.02462200  0.62038700  1
  F  F71  1  0.41659700  0.97537800  0.37961300  1
