# generated using pymatgen
data_Ba2ErReO6
_symmetry_space_group_name_H-M   'P 1'
_cell_length_a   5.95170300
_cell_length_b   5.96515300
_cell_length_c   10.34742152
_cell_angle_alpha   54.74879687
_cell_angle_beta   90.00000000
_cell_angle_gamma   90.00000000
_symmetry_Int_Tables_number   1
_chemical_formula_structural   Ba2ErReO6
_chemical_formula_sum   'Ba4 Er2 Re2 O12'
_cell_volume   299.99914012
_cell_formula_units_Z   2
loop_
 _symmetry_equiv_pos_site_id
 _symmetry_equiv_pos_as_xyz
  1  'x, y, z'
loop_
 _atom_site_type_symbol
 _atom_site_label
 _atom_site_symmetry_multiplicity
 _atom_site_fract_x
 _atom_site_fract_y
 _atom_site_fract_z
 _atom_site_occupancy
  Ba  Ba0  1  0.49579800  0.75064000  0.24976800  1
  Ba  Ba1  1  0.50420200  0.24936000  0.75023200  1
  Ba  Ba2  1  0.99579800  0.24936000  0.25023200  1
  Ba  Ba3  1  0.00420200  0.75064000  0.74976800  1
  Er  Er4  1  0.00000000  0.00000000  0.00000000  1
  Er  Er5  1  0.50000000  0.00000000  0.50000000  1
  Re  Re6  1  0.00000000  0.50000000  0.50000000  1
  Re  Re7  1  0.50000000  0.50000000  0.00000000  1
  O  O8  1  0.00026600  0.71636800  0.26366800  1
  O  O9  1  0.99973400  0.28363200  0.73633200  1
  O  O10  1  0.50026600  0.28363200  0.23633200  1
  O  O11  1  0.49973400  0.71636800  0.76366800  1
  O  O12  1  0.72598500  0.24436000  0.00998400  1
  O  O13  1  0.27401500  0.75564000  0.99001600  1
  O  O14  1  0.22598500  0.75564000  0.49001600  1
  O  O15  1  0.77401500  0.24436000  0.50998400  1
  O  O16  1  0.25343000  0.26357400  0.01017400  1
  O  O17  1  0.74657000  0.73642600  0.98982600  1
  O  O18  1  0.75343000  0.73642600  0.48982600  1
  O  O19  1  0.24657000  0.26357400  0.51017400  1
