# generated using pymatgen
data_Al6GeW
_symmetry_space_group_name_H-M   'P 1'
_cell_length_a   5.03502900
_cell_length_b   5.03502900
_cell_length_c   5.03502900
_cell_angle_alpha   90.00000000
_cell_angle_beta   90.00000000
_cell_angle_gamma   90.00000000
_symmetry_Int_Tables_number   1
_chemical_formula_structural   Al6GeW
_chemical_formula_sum   'Al6 Ge1 W1'
_cell_volume   127.64562344
_cell_formula_units_Z   1
loop_
 _symmetry_equiv_pos_site_id
 _symmetry_equiv_pos_as_xyz
  1  'x, y, z'
loop_
 _atom_site_type_symbol
 _atom_site_label
 _atom_site_symmetry_multiplicity
 _atom_site_fract_x
 _atom_site_fract_y
 _atom_site_fract_z
 _atom_site_occupancy
  Al  Al0  1  0.24545700  0.00000000  0.50000000  1
  Al  Al1  1  0.75454300  0.00000000  0.50000000  1
  Al  Al2  1  0.50000000  0.24545700  0.00000000  1
  Al  Al3  1  0.50000000  0.75454300  0.00000000  1
  Al  Al4  1  0.00000000  0.50000000  0.24545700  1
  Al  Al5  1  0.00000000  0.50000000  0.75454300  1
  Ge  Ge6  1  0.50000000  0.50000000  0.50000000  1
  W  W7  1  0.00000000  0.00000000  0.00000000  1
