# generated using pymatgen
data_Au3Br8N3
_symmetry_space_group_name_H-M   'P 1'
_cell_length_a   7.67160733
_cell_length_b   7.67160733
_cell_length_c   19.87896832
_cell_angle_alpha   82.68367484
_cell_angle_beta   82.68367484
_cell_angle_gamma   64.32134951
_symmetry_Int_Tables_number   1
_chemical_formula_structural   Au3Br8N3
_chemical_formula_sum   'Au6 Br16 N6'
_cell_volume   1042.40398575
_cell_formula_units_Z   2
loop_
 _symmetry_equiv_pos_site_id
 _symmetry_equiv_pos_as_xyz
  1  'x, y, z'
loop_
 _atom_site_type_symbol
 _atom_site_label
 _atom_site_symmetry_multiplicity
 _atom_site_fract_x
 _atom_site_fract_y
 _atom_site_fract_z
 _atom_site_occupancy
  Au  Au0  1  0.00000000  0.00000000  0.00000000  1
  Au  Au1  1  0.00000000  0.00000000  0.50000000  1
  Au  Au2  1  0.61013700  0.61993000  0.19194600  1
  Au  Au3  1  0.38986300  0.38007000  0.80805400  1
  Au  Au4  1  0.38007000  0.38986300  0.30805400  1
  Au  Au5  1  0.61993000  0.61013700  0.69194600  1
  Br  Br6  1  0.33775500  0.75119100  0.12576000  1
  Br  Br7  1  0.66224500  0.24880900  0.87424000  1
  Br  Br8  1  0.24880900  0.66224500  0.37424000  1
  Br  Br9  1  0.75119100  0.33775500  0.62576000  1
  Br  Br10  1  0.49579100  0.10742000  0.24705800  1
  Br  Br11  1  0.50420900  0.89258000  0.75294200  1
  Br  Br12  1  0.89258000  0.50420900  0.25294200  1
  Br  Br13  1  0.10742000  0.49579100  0.74705800  1
  Br  Br14  1  0.79435400  0.85295600  0.06317500  1
  Br  Br15  1  0.20564600  0.14704400  0.93682500  1
  Br  Br16  1  0.14704400  0.20564600  0.43682500  1
  Br  Br17  1  0.85295600  0.79435400  0.56317500  1
  Br  Br18  1  0.71696100  0.15872000  0.43090100  1
  Br  Br19  1  0.28303900  0.84128000  0.56909900  1
  Br  Br20  1  0.84128000  0.28303900  0.06909900  1
  Br  Br21  1  0.15872000  0.71696100  0.93090100  1
  N  N22  1  0.67583700  0.68837000  0.41438600  1
  N  N23  1  0.32416300  0.31163000  0.58561400  1
  N  N24  1  0.31163000  0.32416300  0.08561400  1
  N  N25  1  0.68837000  0.67583700  0.91438600  1
  N  N26  1  0.98578000  0.01422000  0.25000000  1
  N  N27  1  0.01422000  0.98578000  0.75000000  1
