# generated using pymatgen
data_Ba2Er2CuPtO8
_symmetry_space_group_name_H-M   'P 1'
_cell_length_a   5.71161900
_cell_length_b   10.39499500
_cell_length_c   13.32569100
_cell_angle_alpha   90.00000000
_cell_angle_beta   90.00000000
_cell_angle_gamma   90.00000000
_symmetry_Int_Tables_number   1
_chemical_formula_structural   Ba2Er2CuPtO8
_chemical_formula_sum   'Ba8 Er8 Cu4 Pt4 O32'
_cell_volume   791.17627009
_cell_formula_units_Z   4
loop_
 _symmetry_equiv_pos_site_id
 _symmetry_equiv_pos_as_xyz
  1  'x, y, z'
loop_
 _atom_site_type_symbol
 _atom_site_label
 _atom_site_symmetry_multiplicity
 _atom_site_fract_x
 _atom_site_fract_y
 _atom_site_fract_z
 _atom_site_occupancy
  Ba  Ba0  1  0.25000000  0.40743100  0.42267700  1
  Ba  Ba1  1  0.75000000  0.59256900  0.57732300  1
  Ba  Ba2  1  0.75000000  0.90743100  0.07732300  1
  Ba  Ba3  1  0.25000000  0.09256900  0.92267700  1
  Ba  Ba4  1  0.25000000  0.68502300  0.20738000  1
  Ba  Ba5  1  0.75000000  0.31497700  0.79262000  1
  Ba  Ba6  1  0.75000000  0.18502300  0.29262000  1
  Ba  Ba7  1  0.25000000  0.81497700  0.70738000  1
  Er  Er8  1  0.25000000  0.01275000  0.41709500  1
  Er  Er9  1  0.75000000  0.98725000  0.58290500  1
  Er  Er10  1  0.75000000  0.51275000  0.08290500  1
  Er  Er11  1  0.25000000  0.48725000  0.91709500  1
  Er  Er12  1  0.25000000  0.31202900  0.14133200  1
  Er  Er13  1  0.75000000  0.68797100  0.85866800  1
  Er  Er14  1  0.75000000  0.81202900  0.35866800  1
  Er  Er15  1  0.25000000  0.18797100  0.64133200  1
  Cu  Cu16  1  0.25000000  0.73329200  0.46117300  1
  Cu  Cu17  1  0.75000000  0.26670800  0.53882700  1
  Cu  Cu18  1  0.75000000  0.23329200  0.03882700  1
  Cu  Cu19  1  0.25000000  0.76670800  0.96117300  1
  Pt  Pt20  1  0.25000000  0.03193000  0.19427800  1
  Pt  Pt21  1  0.75000000  0.96807000  0.80572200  1
  Pt  Pt22  1  0.75000000  0.53193000  0.30572200  1
  Pt  Pt23  1  0.25000000  0.46807000  0.69427800  1
  O  O24  1  0.25000000  0.18547900  0.29627900  1
  O  O25  1  0.75000000  0.81452100  0.70372100  1
  O  O26  1  0.75000000  0.68547900  0.20372100  1
  O  O27  1  0.25000000  0.31452100  0.79627900  1
  O  O28  1  0.50917400  0.44307600  0.21504000  1
  O  O29  1  0.49082600  0.55692400  0.78496000  1
  O  O30  1  0.49082600  0.94307600  0.28496000  1
  O  O31  1  0.00917400  0.55692400  0.78496000  1
  O  O32  1  0.50917400  0.05692400  0.71504000  1
  O  O33  1  0.99082600  0.44307600  0.21504000  1
  O  O34  1  0.99082600  0.05692400  0.71504000  1
  O  O35  1  0.00917400  0.94307600  0.28496000  1
  O  O36  1  0.00917900  0.13972100  0.11393700  1
  O  O37  1  0.99082100  0.86027900  0.88606300  1
  O  O38  1  0.99082100  0.63972100  0.38606300  1
  O  O39  1  0.50917900  0.86027900  0.88606300  1
  O  O40  1  0.00917900  0.36027900  0.61393700  1
  O  O41  1  0.49082100  0.13972100  0.11393700  1
  O  O42  1  0.49082100  0.36027900  0.61393700  1
  O  O43  1  0.50917900  0.63972100  0.38606300  1
  O  O44  1  0.50449800  0.36517900  0.00830000  1
  O  O45  1  0.49550200  0.63482100  0.99170000  1
  O  O46  1  0.49550200  0.86517900  0.49170000  1
  O  O47  1  0.00449800  0.63482100  0.99170000  1
  O  O48  1  0.50449800  0.13482100  0.50830000  1
  O  O49  1  0.99550200  0.36517900  0.00830000  1
  O  O50  1  0.99550200  0.13482100  0.50830000  1
  O  O51  1  0.00449800  0.86517900  0.49170000  1
  O  O52  1  0.25000000  0.60987600  0.58870600  1
  O  O53  1  0.75000000  0.39012400  0.41129400  1
  O  O54  1  0.75000000  0.10987600  0.91129400  1
  O  O55  1  0.25000000  0.89012400  0.08870600  1
