# generated using pymatgen
data_Al3BC3
_symmetry_space_group_name_H-M   'P 1'
_cell_length_a   3.42745466
_cell_length_b   3.42745466
_cell_length_c   15.88766400
_cell_angle_alpha   90.00000000
_cell_angle_beta   90.00000000
_cell_angle_gamma   120.00001280
_symmetry_Int_Tables_number   1
_chemical_formula_structural   Al3BC3
_chemical_formula_sum   'Al6 B2 C6'
_cell_volume   161.63449845
_cell_formula_units_Z   2
loop_
 _symmetry_equiv_pos_site_id
 _symmetry_equiv_pos_as_xyz
  1  'x, y, z'
loop_
 _atom_site_type_symbol
 _atom_site_label
 _atom_site_symmetry_multiplicity
 _atom_site_fract_x
 _atom_site_fract_y
 _atom_site_fract_z
 _atom_site_occupancy
  Al  Al0  1  0.00000000  0.00000000  0.75000000  1
  Al  Al1  1  0.00000000  0.00000000  0.25000000  1
  Al  Al2  1  0.66666700  0.33333300  0.87787900  1
  Al  Al3  1  0.33333300  0.66666700  0.12212100  1
  Al  Al4  1  0.33333300  0.66666700  0.37787900  1
  Al  Al5  1  0.66666700  0.33333300  0.62212100  1
  B  B6  1  0.00000000  0.00000000  0.00000000  1
  B  B7  1  0.00000000  0.00000000  0.50000000  1
  C  C8  1  0.66666700  0.33333300  0.75000000  1
  C  C9  1  0.33333300  0.66666700  0.25000000  1
  C  C10  1  0.00000000  0.00000000  0.90924000  1
  C  C11  1  0.00000000  0.00000000  0.09076000  1
  C  C12  1  0.00000000  0.00000000  0.40924000  1
  C  C13  1  0.00000000  0.00000000  0.59076000  1
