# generated using pymatgen
data_Ba2ScV3O11
_symmetry_space_group_name_H-M   'P 1'
_cell_length_a   7.74533800
_cell_length_b   12.20601923
_cell_length_c   11.50065705
_cell_angle_alpha   103.45965532
_cell_angle_beta   90.00000000
_cell_angle_gamma   90.00000000
_symmetry_Int_Tables_number   1
_chemical_formula_structural   Ba2ScV3O11
_chemical_formula_sum   'Ba8 Sc4 V12 O44'
_cell_volume   1057.40630972
_cell_formula_units_Z   4
loop_
 _symmetry_equiv_pos_site_id
 _symmetry_equiv_pos_as_xyz
  1  'x, y, z'
loop_
 _atom_site_type_symbol
 _atom_site_label
 _atom_site_symmetry_multiplicity
 _atom_site_fract_x
 _atom_site_fract_y
 _atom_site_fract_z
 _atom_site_occupancy
  Ba  Ba0  1  0.26985600  0.77457600  0.94377200  1
  Ba  Ba1  1  0.73014400  0.22542400  0.05622800  1
  Ba  Ba2  1  0.76985600  0.22542400  0.55622800  1
  Ba  Ba3  1  0.23014400  0.77457600  0.44377200  1
  Ba  Ba4  1  0.74812500  0.55652000  0.89001100  1
  Ba  Ba5  1  0.25187500  0.44348000  0.10998900  1
  Ba  Ba6  1  0.24812500  0.44348000  0.60998900  1
  Ba  Ba7  1  0.75187500  0.55652000  0.39001100  1
  Sc  Sc8  1  0.49382800  0.99833000  0.75726500  1
  Sc  Sc9  1  0.50617200  0.00167000  0.24273500  1
  Sc  Sc10  1  0.99382800  0.00167000  0.74273500  1
  Sc  Sc11  1  0.00617200  0.99833000  0.25726500  1
  V  V12  1  0.75251000  0.90547500  0.97452000  1
  V  V13  1  0.24749000  0.09452500  0.02548000  1
  V  V14  1  0.25251000  0.09452500  0.52548000  1
  V  V15  1  0.74749000  0.90547500  0.47452000  1
  V  V16  1  0.51943700  0.68790200  0.67364400  1
  V  V17  1  0.48056300  0.31209800  0.32635600  1
  V  V18  1  0.01943700  0.31209800  0.82635600  1
  V  V19  1  0.98056300  0.68790200  0.17364400  1
  V  V20  1  0.98102200  0.69114700  0.67247100  1
  V  V21  1  0.01897800  0.30885300  0.32752900  1
  V  V22  1  0.48102200  0.30885300  0.82752900  1
  V  V23  1  0.51897800  0.69114700  0.17247100  1
  O  O24  1  0.44900400  0.82706600  0.71644200  1
  O  O25  1  0.55099600  0.17293400  0.28355800  1
  O  O26  1  0.94900400  0.17293400  0.78355800  1
  O  O27  1  0.05099600  0.82706600  0.21644200  1
  O  O28  1  0.54529200  0.16859200  0.80071700  1
  O  O29  1  0.45470800  0.83140800  0.19928300  1
  O  O30  1  0.04529200  0.83140800  0.69928300  1
  O  O31  1  0.95470800  0.16859200  0.30071700  1
  O  O32  1  0.75039000  0.66591500  0.66718200  1
  O  O33  1  0.24961000  0.33408500  0.33281800  1
  O  O34  1  0.25039000  0.33408500  0.83281800  1
  O  O35  1  0.74961000  0.66591500  0.16718200  1
  O  O36  1  0.94340100  0.37378200  0.96437700  1
  O  O37  1  0.05659900  0.62621800  0.03562300  1
  O  O38  1  0.44340100  0.62621800  0.53562300  1
  O  O39  1  0.55659900  0.37378200  0.46437700  1
  O  O40  1  0.93911000  0.38892000  0.73193100  1
  O  O41  1  0.06089000  0.61108000  0.26806900  1
  O  O42  1  0.43911000  0.61108000  0.76806900  1
  O  O43  1  0.56089000  0.38892000  0.23193100  1
  O  O44  1  0.79800500  0.98818100  0.62231000  1
  O  O45  1  0.20199500  0.01181900  0.37769000  1
  O  O46  1  0.29800500  0.01181900  0.87769000  1
  O  O47  1  0.70199500  0.98818100  0.12231000  1
  O  O48  1  0.96507400  0.87728200  0.97143500  1
  O  O49  1  0.03492600  0.12271800  0.02856500  1
  O  O50  1  0.46507400  0.12271800  0.52856500  1
  O  O51  1  0.53492600  0.87728200  0.47143500  1
  O  O52  1  0.63656500  0.78395600  0.94554100  1
  O  O53  1  0.36343500  0.21604400  0.05445900  1
  O  O54  1  0.13656500  0.21604400  0.55445900  1
  O  O55  1  0.86343500  0.78395600  0.44554100  1
  O  O56  1  0.70961300  0.98412000  0.86232700  1
  O  O57  1  0.29038700  0.01588000  0.13767300  1
  O  O58  1  0.20961300  0.01588000  0.63767300  1
  O  O59  1  0.79038700  0.98412000  0.36232700  1
  O  O60  1  0.56019500  0.36900600  0.71990800  1
  O  O61  1  0.43980500  0.63099400  0.28009200  1
  O  O62  1  0.06019500  0.63099400  0.78009200  1
  O  O63  1  0.93980500  0.36900600  0.21990800  1
  O  O64  1  0.56478900  0.38402400  0.95943500  1
  O  O65  1  0.43521100  0.61597600  0.04056500  1
  O  O66  1  0.06478900  0.61597600  0.54056500  1
  O  O67  1  0.93521100  0.38402400  0.45943500  1
