# generated using pymatgen
data_Al6B5O18
_symmetry_space_group_name_H-M   'P 1'
_cell_length_a   8.65464798
_cell_length_b   8.65464798
_cell_length_c   8.30951900
_cell_angle_alpha   90.00000000
_cell_angle_beta   90.00000000
_cell_angle_gamma   119.99999981
_symmetry_Int_Tables_number   1
_chemical_formula_structural   Al6B5O18
_chemical_formula_sum   'Al12 B10 O36'
_cell_volume   539.02056296
_cell_formula_units_Z   2
loop_
 _symmetry_equiv_pos_site_id
 _symmetry_equiv_pos_as_xyz
  1  'x, y, z'
loop_
 _atom_site_type_symbol
 _atom_site_label
 _atom_site_symmetry_multiplicity
 _atom_site_fract_x
 _atom_site_fract_y
 _atom_site_fract_z
 _atom_site_occupancy
  Al  Al0  1  0.35243300  0.01391200  0.07587500  1
  Al  Al1  1  0.64756700  0.98608800  0.92412500  1
  Al  Al2  1  0.98608800  0.33852100  0.07587500  1
  Al  Al3  1  0.64756700  0.98608800  0.57587500  1
  Al  Al4  1  0.01391200  0.66147900  0.92412500  1
  Al  Al5  1  0.35243300  0.01391200  0.42412500  1
  Al  Al6  1  0.66147900  0.64756700  0.07587500  1
  Al  Al7  1  0.01391200  0.66147900  0.57587500  1
  Al  Al8  1  0.33852100  0.35243300  0.92412500  1
  Al  Al9  1  0.98608800  0.33852100  0.42412500  1
  Al  Al10  1  0.33852100  0.35243300  0.57587500  1
  Al  Al11  1  0.66147900  0.64756700  0.42412500  1
  B  B12  1  0.33333300  0.66666700  0.05755900  1
  B  B13  1  0.66666700  0.33333300  0.94244100  1
  B  B14  1  0.66666700  0.33333300  0.55755900  1
  B  B15  1  0.33333300  0.66666700  0.44244100  1
  B  B16  1  0.23268500  0.23324300  0.25000000  1
  B  B17  1  0.76731500  0.76675700  0.75000000  1
  B  B18  1  0.76675700  0.99944200  0.25000000  1
  B  B19  1  0.23324300  0.00055800  0.75000000  1
  B  B20  1  0.00055800  0.76731500  0.25000000  1
  B  B21  1  0.99944200  0.23268500  0.75000000  1
  O  O22  1  0.28641500  0.19670700  0.10220200  1
  O  O23  1  0.71358500  0.80329300  0.89779800  1
  O  O24  1  0.80329300  0.08970800  0.10220200  1
  O  O25  1  0.71358500  0.80329300  0.60220200  1
  O  O26  1  0.19670700  0.91029200  0.89779800  1
  O  O27  1  0.28641500  0.19670700  0.39779800  1
  O  O28  1  0.91029200  0.71358500  0.10220200  1
  O  O29  1  0.19670700  0.91029200  0.60220200  1
  O  O30  1  0.08970800  0.28641500  0.89779800  1
  O  O31  1  0.80329300  0.08970800  0.39779800  1
  O  O32  1  0.08970800  0.28641500  0.60220200  1
  O  O33  1  0.91029200  0.71358500  0.39779800  1
  O  O34  1  0.11976700  0.30113900  0.25000000  1
  O  O35  1  0.88023300  0.69886100  0.75000000  1
  O  O36  1  0.69886100  0.81862700  0.25000000  1
  O  O37  1  0.30113900  0.18137300  0.75000000  1
  O  O38  1  0.18137300  0.88023300  0.25000000  1
  O  O39  1  0.81862700  0.11976700  0.75000000  1
  O  O40  1  0.50194500  0.11922900  0.25000000  1
  O  O41  1  0.49805500  0.88077100  0.75000000  1
  O  O42  1  0.88077100  0.38271600  0.25000000  1
  O  O43  1  0.11922900  0.61728400  0.75000000  1
  O  O44  1  0.61728400  0.49805500  0.25000000  1
  O  O45  1  0.38271600  0.50194500  0.75000000  1
  O  O46  1  0.15001400  0.58850000  0.05834000  1
  O  O47  1  0.84998600  0.41150000  0.94166000  1
  O  O48  1  0.41150000  0.56151400  0.05834000  1
  O  O49  1  0.84998600  0.41150000  0.55834000  1
  O  O50  1  0.58850000  0.43848600  0.94166000  1
  O  O51  1  0.15001400  0.58850000  0.44166000  1
  O  O52  1  0.43848600  0.84998600  0.05834000  1
  O  O53  1  0.58850000  0.43848600  0.55834000  1
  O  O54  1  0.56151400  0.15001400  0.94166000  1
  O  O55  1  0.41150000  0.56151400  0.44166000  1
  O  O56  1  0.56151400  0.15001400  0.55834000  1
  O  O57  1  0.43848600  0.84998600  0.44166000  1
