# generated using pymatgen
data_AlGaBr4
_symmetry_space_group_name_H-M   'P 1'
_cell_length_a   7.64017600
_cell_length_b   10.18719800
_cell_length_c   10.33489000
_cell_angle_alpha   90.00000000
_cell_angle_beta   90.00000000
_cell_angle_gamma   90.00000000
_symmetry_Int_Tables_number   1
_chemical_formula_structural   AlGaBr4
_chemical_formula_sum   'Al4 Ga4 Br16'
_cell_volume   804.38501035
_cell_formula_units_Z   4
loop_
 _symmetry_equiv_pos_site_id
 _symmetry_equiv_pos_as_xyz
  1  'x, y, z'
loop_
 _atom_site_type_symbol
 _atom_site_label
 _atom_site_symmetry_multiplicity
 _atom_site_fract_x
 _atom_site_fract_y
 _atom_site_fract_z
 _atom_site_occupancy
  Al  Al0  1  0.32315400  0.25000000  0.25000000  1
  Al  Al1  1  0.67684600  0.75000000  0.75000000  1
  Al  Al2  1  0.17684600  0.75000000  0.25000000  1
  Al  Al3  1  0.82315400  0.25000000  0.75000000  1
  Ga  Ga4  1  0.25000000  0.00000000  0.67844600  1
  Ga  Ga5  1  0.75000000  0.00000000  0.32155400  1
  Ga  Ga6  1  0.25000000  0.50000000  0.82155400  1
  Ga  Ga7  1  0.75000000  0.50000000  0.17844600  1
  Br  Br8  1  0.15727600  0.18124300  0.55165600  1
  Br  Br9  1  0.84272400  0.81875700  0.44834400  1
  Br  Br10  1  0.34272400  0.81875700  0.55165600  1
  Br  Br11  1  0.34272400  0.68124300  0.94834400  1
  Br  Br12  1  0.65727600  0.18124300  0.44834400  1
  Br  Br13  1  0.65727600  0.31875700  0.05165600  1
  Br  Br14  1  0.15727600  0.31875700  0.94834400  1
  Br  Br15  1  0.84272400  0.68124300  0.05165600  1
  Br  Br16  1  0.99648900  0.04404700  0.18570200  1
  Br  Br17  1  0.00351100  0.95595300  0.81429800  1
  Br  Br18  1  0.50351100  0.95595300  0.18570200  1
  Br  Br19  1  0.50351100  0.54404700  0.31429800  1
  Br  Br20  1  0.49648900  0.04404700  0.81429800  1
  Br  Br21  1  0.49648900  0.45595300  0.68570200  1
  Br  Br22  1  0.99648900  0.45595300  0.31429800  1
  Br  Br23  1  0.00351100  0.54404700  0.68570200  1
