# generated using pymatgen
data_Ba2SmV3O11
_symmetry_space_group_name_H-M   'P 1'
_cell_length_a   7.84405000
_cell_length_b   12.50708692
_cell_length_c   11.39895802
_cell_angle_alpha   103.13995419
_cell_angle_beta   90.00000000
_cell_angle_gamma   90.00000000
_symmetry_Int_Tables_number   1
_chemical_formula_structural   Ba2SmV3O11
_chemical_formula_sum   'Ba8 Sm4 V12 O44'
_cell_volume   1089.02871201
_cell_formula_units_Z   4
loop_
 _symmetry_equiv_pos_site_id
 _symmetry_equiv_pos_as_xyz
  1  'x, y, z'
loop_
 _atom_site_type_symbol
 _atom_site_label
 _atom_site_symmetry_multiplicity
 _atom_site_fract_x
 _atom_site_fract_y
 _atom_site_fract_z
 _atom_site_occupancy
  Ba  Ba0  1  0.27451500  0.76706700  0.94150700  1
  Ba  Ba1  1  0.72548500  0.23293300  0.05849300  1
  Ba  Ba2  1  0.77451500  0.23293300  0.55849300  1
  Ba  Ba3  1  0.22548500  0.76706700  0.44150700  1
  Ba  Ba4  1  0.74764500  0.55407500  0.88935500  1
  Ba  Ba5  1  0.25235500  0.44592500  0.11064500  1
  Ba  Ba6  1  0.24764500  0.44592500  0.61064500  1
  Ba  Ba7  1  0.75235500  0.55407500  0.38935500  1
  Sm  Sm8  1  0.50112300  0.99773700  0.71197000  1
  Sm  Sm9  1  0.49887700  0.00226300  0.28803000  1
  Sm  Sm10  1  0.00112300  0.00226300  0.78803000  1
  Sm  Sm11  1  0.99887700  0.99773700  0.21197000  1
  V  V12  1  0.75278400  0.90508300  0.97605300  1
  V  V13  1  0.24721600  0.09491700  0.02394700  1
  V  V14  1  0.25278400  0.09491700  0.52394700  1
  V  V15  1  0.74721600  0.90508300  0.47605300  1
  V  V16  1  0.51967000  0.68349000  0.67341800  1
  V  V17  1  0.48033000  0.31651000  0.32658200  1
  V  V18  1  0.01967000  0.31651000  0.82658200  1
  V  V19  1  0.98033000  0.68349000  0.17341800  1
  V  V20  1  0.98083200  0.68696400  0.67053900  1
  V  V21  1  0.01916800  0.31303600  0.32946000  1
  V  V22  1  0.48083200  0.31303600  0.82946100  1
  V  V23  1  0.51916800  0.68696400  0.17054000  1
  O  O24  1  0.44381500  0.81696100  0.71829600  1
  O  O25  1  0.55618500  0.18303900  0.28170400  1
  O  O26  1  0.94381500  0.18303900  0.78170400  1
  O  O27  1  0.05618500  0.81696100  0.21829600  1
  O  O28  1  0.55126600  0.17855500  0.80774800  1
  O  O29  1  0.44873400  0.82144500  0.19225200  1
  O  O30  1  0.05126600  0.82144500  0.69225200  1
  O  O31  1  0.94873400  0.17855500  0.30774800  1
  O  O32  1  0.75032700  0.66630900  0.66743700  1
  O  O33  1  0.24967300  0.33369100  0.33256300  1
  O  O34  1  0.25032700  0.33369100  0.83256300  1
  O  O35  1  0.74967300  0.66630900  0.16743700  1
  O  O36  1  0.94482700  0.37550000  0.96614000  1
  O  O37  1  0.05517300  0.62450000  0.03386000  1
  O  O38  1  0.44482700  0.62450000  0.53386000  1
  O  O39  1  0.55517300  0.37550000  0.46614000  1
  O  O40  1  0.94119100  0.39223100  0.73155800  1
  O  O41  1  0.05880900  0.60776900  0.26844200  1
  O  O42  1  0.44119100  0.60776900  0.76844200  1
  O  O43  1  0.55880900  0.39223100  0.23155800  1
  O  O44  1  0.78440800  0.98617400  0.62347400  1
  O  O45  1  0.21559200  0.01382600  0.37652600  1
  O  O46  1  0.28440800  0.01382600  0.87652600  1
  O  O47  1  0.71559200  0.98617400  0.12347400  1
  O  O48  1  0.97147100  0.88337000  0.97357300  1
  O  O49  1  0.02852900  0.11663000  0.02642700  1
  O  O50  1  0.47147100  0.11663000  0.52642700  1
  O  O51  1  0.52852900  0.88337000  0.47357300  1
  O  O52  1  0.63998200  0.78589700  0.94676700  1
  O  O53  1  0.36001800  0.21410300  0.05323300  1
  O  O54  1  0.13998200  0.21410300  0.55323300  1
  O  O55  1  0.86001800  0.78589700  0.44676700  1
  O  O56  1  0.71806800  0.98289800  0.86542900  1
  O  O57  1  0.28193200  0.01710200  0.13457100  1
  O  O58  1  0.21806800  0.01710200  0.63457100  1
  O  O59  1  0.78193200  0.98289800  0.36543000  1
  O  O60  1  0.55851600  0.37041300  0.71892400  1
  O  O61  1  0.44148400  0.62958700  0.28107600  1
  O  O62  1  0.05851600  0.62958700  0.78107600  1
  O  O63  1  0.94148400  0.37041300  0.21892400  1
  O  O64  1  0.56260800  0.38753300  0.96132100  1
  O  O65  1  0.43739200  0.61246700  0.03867900  1
  O  O66  1  0.06260800  0.61246700  0.53867900  1
  O  O67  1  0.93739200  0.38753300  0.46132100  1
