# generated using pymatgen
data_Ti4Zn3SnO12
_symmetry_space_group_name_H-M   'P 1'
_cell_length_a   6.70262959
_cell_length_b   6.70262959
_cell_length_c   6.70262959
_cell_angle_alpha   109.47122063
_cell_angle_beta   109.47122063
_cell_angle_gamma   109.47122063
_symmetry_Int_Tables_number   1
_chemical_formula_structural   Ti4Zn3SnO12
_chemical_formula_sum   'Ti4 Zn3 Sn1 O12'
_cell_volume   231.80017971
_cell_formula_units_Z   1
loop_
 _symmetry_equiv_pos_site_id
 _symmetry_equiv_pos_as_xyz
  1  'x, y, z'
loop_
 _atom_site_type_symbol
 _atom_site_label
 _atom_site_symmetry_multiplicity
 _atom_site_fract_x
 _atom_site_fract_y
 _atom_site_fract_z
 _atom_site_occupancy
  Ti  Ti0  1  0.50000000  0.00000000  0.00000000  1
  Ti  Ti1  1  0.00000000  0.00000000  0.50000000  1
  Ti  Ti2  1  0.50000000  0.50000000  0.50000000  1
  Ti  Ti3  1  0.00000000  0.50000000  0.00000000  1
  Zn  Zn4  1  0.50000000  0.50000000  0.00000000  1
  Zn  Zn5  1  0.00000000  0.50000000  0.50000000  1
  Zn  Zn6  1  0.50000000  0.00000000  0.50000000  1
  Sn  Sn7  1  0.00000000  0.00000000  0.00000000  1
  O  O8  1  0.74855700  0.25144300  0.00000000  1
  O  O9  1  0.49711300  0.74855700  0.74855700  1
  O  O10  1  0.74855700  0.00000000  0.25144300  1
  O  O11  1  0.74855700  0.74855700  0.49711300  1
  O  O12  1  0.00000000  0.25144300  0.74855700  1
  O  O13  1  0.25144300  0.00000000  0.74855700  1
  O  O14  1  0.25144300  0.25144300  0.50288700  1
  O  O15  1  0.50288700  0.25144300  0.25144300  1
  O  O16  1  0.25144300  0.50288700  0.25144300  1
  O  O17  1  0.25144300  0.74855700  0.00000000  1
  O  O18  1  0.00000000  0.74855700  0.25144300  1
  O  O19  1  0.74855700  0.49711300  0.74855700  1
