# generated using pymatgen
data_AsC18F17
_symmetry_space_group_name_H-M   'P 1'
_cell_length_a   9.01503700
_cell_length_b   11.32841800
_cell_length_c   18.52528100
_cell_angle_alpha   90.00000000
_cell_angle_beta   90.00000000
_cell_angle_gamma   90.00000000
_symmetry_Int_Tables_number   1
_chemical_formula_structural   AsC18F17
_chemical_formula_sum   'As4 C72 F68'
_cell_volume   1891.91483742
_cell_formula_units_Z   4
loop_
 _symmetry_equiv_pos_site_id
 _symmetry_equiv_pos_as_xyz
  1  'x, y, z'
loop_
 _atom_site_type_symbol
 _atom_site_label
 _atom_site_symmetry_multiplicity
 _atom_site_fract_x
 _atom_site_fract_y
 _atom_site_fract_z
 _atom_site_occupancy
  As  As0  1  0.00000000  0.13099500  0.25000000  1
  As  As1  1  0.00000000  0.86900500  0.75000000  1
  As  As2  1  0.50000000  0.36900500  0.75000000  1
  As  As3  1  0.50000000  0.63099500  0.25000000  1
  C  C4  1  0.02989400  0.36418400  0.31320700  1
  C  C5  1  0.97010600  0.63581600  0.68679300  1
  C  C6  1  0.47010600  0.13581600  0.81320700  1
  C  C7  1  0.97010600  0.36418400  0.18679300  1
  C  C8  1  0.52989400  0.86418400  0.18679300  1
  C  C9  1  0.02989400  0.63581600  0.81320700  1
  C  C10  1  0.52989400  0.13581600  0.68679300  1
  C  C11  1  0.47010600  0.86418400  0.31320700  1
  C  C12  1  0.02820600  0.12185800  0.58331600  1
  C  C13  1  0.97179400  0.87814200  0.41668400  1
  C  C14  1  0.47179400  0.37814200  0.08331600  1
  C  C15  1  0.97179400  0.12185800  0.91668400  1
  C  C16  1  0.52820600  0.62185800  0.91668400  1
  C  C17  1  0.02820600  0.87814200  0.08331600  1
  C  C18  1  0.52820600  0.37814200  0.41668400  1
  C  C19  1  0.47179400  0.62185800  0.58331600  1
  C  C20  1  0.51160000  0.43937400  0.14570000  1
  C  C21  1  0.48840000  0.56062600  0.85430000  1
  C  C22  1  0.98840000  0.06062600  0.64570000  1
  C  C23  1  0.48840000  0.43937400  0.35430000  1
  C  C24  1  0.01160000  0.93937400  0.35430000  1
  C  C25  1  0.51160000  0.56062600  0.64570000  1
  C  C26  1  0.01160000  0.06062600  0.85430000  1
  C  C27  1  0.98840000  0.93937400  0.14570000  1
  C  C28  1  0.21202000  0.02884100  0.05670000  1
  C  C29  1  0.78798000  0.97115900  0.94330000  1
  C  C30  1  0.28798000  0.47115900  0.55670000  1
  C  C31  1  0.78798000  0.02884100  0.44330000  1
  C  C32  1  0.71202000  0.52884100  0.44330000  1
  C  C33  1  0.21202000  0.97115900  0.55670000  1
  C  C34  1  0.71202000  0.47115900  0.94330000  1
  C  C35  1  0.28798000  0.52884100  0.05670000  1
  C  C36  1  0.00000000  0.54899600  0.25000000  1
  C  C37  1  0.00000000  0.45100400  0.75000000  1
  C  C38  1  0.50000000  0.95100400  0.75000000  1
  C  C39  1  0.50000000  0.04899600  0.25000000  1
  C  C40  1  0.17056600  0.08843800  0.11945400  1
  C  C41  1  0.82943400  0.91156200  0.88054600  1
  C  C42  1  0.32943400  0.41156200  0.61945400  1
  C  C43  1  0.82943400  0.08843800  0.38054600  1
  C  C44  1  0.67056600  0.58843800  0.38054600  1
  C  C45  1  0.17056600  0.91156200  0.61945400  1
  C  C46  1  0.67056600  0.41156200  0.88054600  1
  C  C47  1  0.32943400  0.58843800  0.11945400  1
  C  C48  1  0.35928000  0.42284900  0.03914100  1
  C  C49  1  0.64072000  0.57715100  0.96085900  1
  C  C50  1  0.14072000  0.07715100  0.53914100  1
  C  C51  1  0.64072000  0.42284900  0.46085900  1
  C  C52  1  0.85928000  0.92284900  0.46085900  1
  C  C53  1  0.35928000  0.57715100  0.53914100  1
  C  C54  1  0.85928000  0.07715100  0.96085900  1
  C  C55  1  0.14072000  0.92284900  0.03914100  1
  C  C56  1  0.05923000  0.04475400  0.16442300  1
  C  C57  1  0.94077000  0.95524600  0.83557700  1
  C  C58  1  0.44077000  0.45524600  0.66442300  1
  C  C59  1  0.94077000  0.04475400  0.33557700  1
  C  C60  1  0.55923000  0.54475400  0.33557700  1
  C  C61  1  0.05923000  0.95524600  0.66442300  1
  C  C62  1  0.55923000  0.45524600  0.83557700  1
  C  C63  1  0.44077000  0.54475400  0.16442300  1
  C  C64  1  0.00000000  0.30160000  0.25000000  1
  C  C65  1  0.00000000  0.69840000  0.75000000  1
  C  C66  1  0.50000000  0.19840000  0.75000000  1
  C  C67  1  0.50000000  0.80160000  0.25000000  1
  C  C68  1  0.02947300  0.48734900  0.31379800  1
  C  C69  1  0.97052700  0.51265100  0.68620200  1
  C  C70  1  0.47052700  0.01265100  0.81379800  1
  C  C71  1  0.97052700  0.48734900  0.18620200  1
  C  C72  1  0.52947300  0.98734900  0.18620200  1
  C  C73  1  0.02947300  0.51265100  0.81379800  1
  C  C74  1  0.52947300  0.01265100  0.68620200  1
  C  C75  1  0.47052700  0.98734900  0.31379800  1
  F  F76  1  0.23819800  0.19216700  0.13465200  1
  F  F77  1  0.76180200  0.80783300  0.86534800  1
  F  F78  1  0.26180200  0.30783300  0.63465200  1
  F  F79  1  0.76180200  0.19216700  0.36534800  1
  F  F80  1  0.73819800  0.69216700  0.36534800  1
  F  F81  1  0.23819800  0.80783300  0.63465200  1
  F  F82  1  0.73819800  0.30783300  0.86534800  1
  F  F83  1  0.26180200  0.69216700  0.13465200  1
  F  F84  1  0.00000000  0.66709200  0.25000000  1
  F  F85  1  0.00000000  0.33290800  0.75000000  1
  F  F86  1  0.50000000  0.83290800  0.75000000  1
  F  F87  1  0.50000000  0.16709200  0.25000000  1
  F  F88  1  0.54164000  0.27760600  0.06503600  1
  F  F89  1  0.45836000  0.72239400  0.93496400  1
  F  F90  1  0.95836000  0.22239400  0.56503600  1
  F  F91  1  0.45836000  0.27760600  0.43496400  1
  F  F92  1  0.04164000  0.77760600  0.43496400  1
  F  F93  1  0.54164000  0.72239400  0.56503600  1
  F  F94  1  0.04164000  0.22239400  0.93496400  1
  F  F95  1  0.95836000  0.77760600  0.06503600  1
  F  F96  1  0.17834000  0.13491000  0.47854600  1
  F  F97  1  0.82166000  0.86509000  0.52145400  1
  F  F98  1  0.32166000  0.36509000  0.97854600  1
  F  F99  1  0.82166000  0.13491000  0.02145400  1
  F  F100  1  0.67834000  0.63491000  0.02145400  1
  F  F101  1  0.17834000  0.86509000  0.97854600  1
  F  F102  1  0.67834000  0.36509000  0.52145400  1
  F  F103  1  0.32166000  0.63491000  0.47854600  1
  F  F104  1  0.05772000  0.30692900  0.37576500  1
  F  F105  1  0.94228000  0.69307100  0.62423500  1
  F  F106  1  0.44228000  0.19307100  0.87576500  1
  F  F107  1  0.94228000  0.30692900  0.12423500  1
  F  F108  1  0.55772000  0.80692900  0.12423500  1
  F  F109  1  0.05772000  0.69307100  0.87576500  1
  F  F110  1  0.55772000  0.19307100  0.62423500  1
  F  F111  1  0.44228000  0.80692900  0.37576500  1
  F  F112  1  0.19239900  0.13036400  0.28206800  1
  F  F113  1  0.80760100  0.86963600  0.71793200  1
  F  F114  1  0.30760100  0.36963600  0.78206800  1
  F  F115  1  0.80760100  0.13036400  0.21793200  1
  F  F116  1  0.69239900  0.63036400  0.21793200  1
  F  F117  1  0.19239900  0.86963600  0.78206800  1
  F  F118  1  0.69239900  0.36963600  0.71793200  1
  F  F119  1  0.30760100  0.63036400  0.28206800  1
  F  F120  1  0.38109600  0.39367600  0.31190100  1
  F  F121  1  0.61890400  0.60632400  0.68809900  1
  F  F122  1  0.11890400  0.10632400  0.81190100  1
  F  F123  1  0.61890400  0.39367600  0.18809900  1
  F  F124  1  0.88109600  0.89367600  0.18809900  1
  F  F125  1  0.38109600  0.60632400  0.81190100  1
  F  F126  1  0.88109600  0.10632400  0.68809900  1
  F  F127  1  0.11890400  0.89367600  0.31190100  1
  F  F128  1  0.44325900  0.04615400  0.37540400  1
  F  F129  1  0.55674100  0.95384600  0.62459600  1
  F  F130  1  0.05674100  0.45384600  0.87540400  1
  F  F131  1  0.55674100  0.04615400  0.12459600  1
  F  F132  1  0.94325900  0.54615400  0.12459600  1
  F  F133  1  0.44325900  0.95384600  0.87540400  1
  F  F134  1  0.94325900  0.45384600  0.62459600  1
  F  F135  1  0.05674100  0.54615400  0.37540400  1
  F  F136  1  0.31573000  0.07383200  0.01240400  1
  F  F137  1  0.68427000  0.92616800  0.98759600  1
  F  F138  1  0.18427000  0.42616800  0.51240400  1
  F  F139  1  0.68427000  0.07383200  0.48759600  1
  F  F140  1  0.81573000  0.57383200  0.48759600  1
  F  F141  1  0.31573000  0.92616800  0.51240400  1
  F  F142  1  0.81573000  0.42616800  0.98759600  1
  F  F143  1  0.18427000  0.57383200  0.01240400  1
