# generated using pymatgen
data_Ba2GdReO6
_symmetry_space_group_name_H-M   'P 1'
_cell_length_a   6.03846162
_cell_length_b   6.04984300
_cell_length_c   8.56006213
_cell_angle_alpha   90.00000000
_cell_angle_beta   89.94111973
_cell_angle_gamma   90.00000000
_symmetry_Int_Tables_number   1
_chemical_formula_structural   Ba2GdReO6
_chemical_formula_sum   'Ba4 Gd2 Re2 O12'
_cell_volume   312.71383995
_cell_formula_units_Z   2
loop_
 _symmetry_equiv_pos_site_id
 _symmetry_equiv_pos_as_xyz
  1  'x, y, z'
loop_
 _atom_site_type_symbol
 _atom_site_label
 _atom_site_symmetry_multiplicity
 _atom_site_fract_x
 _atom_site_fract_y
 _atom_site_fract_z
 _atom_site_occupancy
  Ba  Ba0  1  0.00168000  0.48818100  0.25018000  1
  Ba  Ba1  1  0.99832000  0.51181900  0.74982000  1
  Ba  Ba2  1  0.49832000  0.98818100  0.24982000  1
  Ba  Ba3  1  0.50168000  0.01181900  0.75018000  1
  Gd  Gd4  1  0.00000000  0.00000000  0.00000000  1
  Gd  Gd5  1  0.50000000  0.50000000  0.50000000  1
  Re  Re6  1  0.00000000  0.00000000  0.50000000  1
  Re  Re7  1  0.50000000  0.50000000  0.00000000  1
  O  O8  1  0.97056400  0.00093500  0.26748600  1
  O  O9  1  0.02943600  0.99906500  0.73251400  1
  O  O10  1  0.52943600  0.50093500  0.23251400  1
  O  O11  1  0.47056400  0.49906500  0.76748600  1
  O  O12  1  0.25070000  0.71683300  0.01518800  1
  O  O13  1  0.74930000  0.28316700  0.98481200  1
  O  O14  1  0.24930000  0.21683300  0.48481200  1
  O  O15  1  0.75070000  0.78316700  0.51518800  1
  O  O16  1  0.28287700  0.25182800  0.01652500  1
  O  O17  1  0.71712300  0.74817200  0.98347500  1
  O  O18  1  0.21712300  0.75182800  0.48347500  1
  O  O19  1  0.78287700  0.24817200  0.51652500  1
