# generated using pymatgen
data_Ba2NaCe2Ti2FeSi8HO27
_symmetry_space_group_name_H-M   'P 1'
_cell_length_a   7.20708437
_cell_length_b   7.20708437
_cell_length_c   11.87746851
_cell_angle_alpha   75.27674050
_cell_angle_beta   75.27674050
_cell_angle_gamma   85.67433260
_symmetry_Int_Tables_number   1
_chemical_formula_structural   Ba2NaCe2Ti2FeSi8HO27
_chemical_formula_sum   'Ba2 Na1 Ce2 Ti2 Fe1 Si8 H1 O27'
_cell_volume   577.05181585
_cell_formula_units_Z   1
loop_
 _symmetry_equiv_pos_site_id
 _symmetry_equiv_pos_as_xyz
  1  'x, y, z'
loop_
 _atom_site_type_symbol
 _atom_site_label
 _atom_site_symmetry_multiplicity
 _atom_site_fract_x
 _atom_site_fract_y
 _atom_site_fract_z
 _atom_site_occupancy
  Ba  Ba0  1  0.70010000  0.81216200  0.50450100  1
  Ba  Ba1  1  0.18783800  0.29990000  0.49549900  1
  Na  Na2  1  0.00056900  0.99943100  0.00000000  1
  Ce  Ce3  1  0.50877200  0.17433400  0.96219600  1
  Ce  Ce4  1  0.82566600  0.49122800  0.03780400  1
  Ti  Ti5  1  0.63524900  0.26416900  0.62824600  1
  Ti  Ti6  1  0.73583100  0.36475100  0.37175400  1
  Fe  Fe7  1  0.32758100  0.67241900  0.00000000  1
  Si  Si8  1  0.85893000  0.88968000  0.79415400  1
  Si  Si9  1  0.11032000  0.14107000  0.20584600  1
  Si  Si10  1  0.90527500  0.48080800  0.74232100  1
  Si  Si11  1  0.51919200  0.09472500  0.25767900  1
  Si  Si12  1  0.30272300  0.93855500  0.74681000  1
  Si  Si13  1  0.06144500  0.69727700  0.25319000  1
  Si  Si14  1  0.47698600  0.71613500  0.22374700  1
  Si  Si15  1  0.28386500  0.52301400  0.77625300  1
  H  H16  1  0.14329800  0.85670200  0.50000000  1
  O  O17  1  0.42638900  0.10078200  0.63549400  1
  O  O18  1  0.89921800  0.57361100  0.36450600  1
  O  O19  1  0.70828100  0.06171500  0.75984400  1
  O  O20  1  0.93828500  0.29171900  0.24015600  1
  O  O21  1  0.81613100  0.18386900  0.50000000  1
  O  O22  1  0.83472200  0.70843800  0.73602200  1
  O  O23  1  0.29156200  0.16527800  0.26397800  1
  O  O24  1  0.15416900  0.54568400  0.90518500  1
  O  O25  1  0.45431600  0.84583100  0.09481500  1
  O  O26  1  0.52976000  0.47024000  0.00000000  1
  O  O27  1  0.07828200  0.97919100  0.73060400  1
  O  O28  1  0.02080900  0.92171800  0.26939600  1
  O  O29  1  0.38563600  0.73543400  0.70479300  1
  O  O30  1  0.26456600  0.61436400  0.29520700  1
  O  O31  1  0.56485300  0.16868300  0.36633900  1
  O  O32  1  0.83131700  0.43514700  0.63366100  1
  O  O33  1  0.52465300  0.85566600  0.30557500  1
  O  O34  1  0.14433400  0.47534700  0.69442500  1
  O  O35  1  0.82207800  0.81120300  0.93822500  1
  O  O36  1  0.18879700  0.17792200  0.06177500  1
  O  O37  1  0.55384400  0.44615600  0.50000000  1
  O  O38  1  0.84341500  0.33472300  0.87458300  1
  O  O39  1  0.66527700  0.15658500  0.12541700  1
  O  O40  1  0.45598600  0.36155400  0.77621200  1
  O  O41  1  0.63844600  0.54401400  0.22378800  1
  O  O42  1  0.31648500  0.93925500  0.88016700  1
  O  O43  1  0.06074500  0.68351500  0.11983300  1
