# generated using pymatgen
data_Ba2YV3O11
_symmetry_space_group_name_H-M   'P 1'
_cell_length_a   7.78427400
_cell_length_b   12.45504435
_cell_length_c   11.37661732
_cell_angle_alpha   103.26143707
_cell_angle_beta   90.00000000
_cell_angle_gamma   90.00000000
_symmetry_Int_Tables_number   1
_chemical_formula_structural   Ba2YV3O11
_chemical_formula_sum   'Ba8 Y4 V12 O44'
_cell_volume   1073.58938299
_cell_formula_units_Z   4
loop_
 _symmetry_equiv_pos_site_id
 _symmetry_equiv_pos_as_xyz
  1  'x, y, z'
loop_
 _atom_site_type_symbol
 _atom_site_label
 _atom_site_symmetry_multiplicity
 _atom_site_fract_x
 _atom_site_fract_y
 _atom_site_fract_z
 _atom_site_occupancy
  Ba  Ba0  1  0.27563200  0.77087400  0.94249700  1
  Ba  Ba1  1  0.72436800  0.22912600  0.05750300  1
  Ba  Ba2  1  0.77563200  0.22912600  0.55750300  1
  Ba  Ba3  1  0.22436800  0.77087400  0.44249700  1
  Ba  Ba4  1  0.74743200  0.55403000  0.88928000  1
  Ba  Ba5  1  0.25256800  0.44597000  0.11072000  1
  Ba  Ba6  1  0.24743200  0.44597000  0.61072000  1
  Ba  Ba7  1  0.75256800  0.55403000  0.38928000  1
  Y  Y8  1  0.50129700  0.99731700  0.71621500  1
  Y  Y9  1  0.49870300  0.00268300  0.28378500  1
  Y  Y10  1  0.00129700  0.00268300  0.78378500  1
  Y  Y11  1  0.99870300  0.99731700  0.21621500  1
  V  V12  1  0.75571300  0.90682900  0.97680100  1
  V  V13  1  0.24428700  0.09317100  0.02319900  1
  V  V14  1  0.25571300  0.09317100  0.52319900  1
  V  V15  1  0.74428700  0.90682900  0.47680100  1
  V  V16  1  0.51948800  0.68486800  0.67273000  1
  V  V17  1  0.48051200  0.31513200  0.32727000  1
  V  V18  1  0.01948800  0.31513200  0.82727000  1
  V  V19  1  0.98051200  0.68486800  0.17273000  1
  V  V20  1  0.98099800  0.68855200  0.67201500  1
  V  V21  1  0.01900200  0.31144800  0.32798500  1
  V  V22  1  0.48099800  0.31144800  0.82798500  1
  V  V23  1  0.51900200  0.68855200  0.17201500  1
  O  O24  1  0.44735300  0.81995900  0.71651300  1
  O  O25  1  0.55264700  0.18004100  0.28348700  1
  O  O26  1  0.94735300  0.18004100  0.78348700  1
  O  O27  1  0.05264700  0.81995900  0.21651300  1
  O  O28  1  0.54839900  0.17551700  0.80401400  1
  O  O29  1  0.45160100  0.82448300  0.19598600  1
  O  O30  1  0.04839900  0.82448300  0.69598600  1
  O  O31  1  0.95160100  0.17551700  0.30401400  1
  O  O32  1  0.75046100  0.66462800  0.66685600  1
  O  O33  1  0.24953900  0.33537200  0.33314400  1
  O  O34  1  0.25046100  0.33537200  0.83314400  1
  O  O35  1  0.74953900  0.66462800  0.16685600  1
  O  O36  1  0.94468100  0.37529200  0.96690200  1
  O  O37  1  0.05531900  0.62470800  0.03309800  1
  O  O38  1  0.44468100  0.62470800  0.53309800  1
  O  O39  1  0.55531900  0.37529200  0.46690200  1
  O  O40  1  0.93986400  0.39009400  0.73106700  1
  O  O41  1  0.06013600  0.60990600  0.26893300  1
  O  O42  1  0.43986400  0.60990600  0.76893300  1
  O  O43  1  0.56013600  0.39009400  0.23106700  1
  O  O44  1  0.78299600  0.98763200  0.62559800  1
  O  O45  1  0.21700400  0.01236800  0.37440200  1
  O  O46  1  0.28299600  0.01236800  0.87440200  1
  O  O47  1  0.71700400  0.98763200  0.12559800  1
  O  O48  1  0.97453800  0.88466500  0.97555500  1
  O  O49  1  0.02546200  0.11533500  0.02444500  1
  O  O50  1  0.47453800  0.11533500  0.52444500  1
  O  O51  1  0.52546200  0.88466500  0.47555500  1
  O  O52  1  0.64366900  0.78659500  0.94698200  1
  O  O53  1  0.35633100  0.21340500  0.05301800  1
  O  O54  1  0.14366900  0.21340500  0.55301800  1
  O  O55  1  0.85633100  0.78659500  0.44698200  1
  O  O56  1  0.72106200  0.98437200  0.86462500  1
  O  O57  1  0.27893800  0.01562800  0.13537500  1
  O  O58  1  0.22106200  0.01562800  0.63537500  1
  O  O59  1  0.77893800  0.98437200  0.36462500  1
  O  O60  1  0.55825800  0.37001300  0.71809100  1
  O  O61  1  0.44174200  0.62998700  0.28190900  1
  O  O62  1  0.05825800  0.62998700  0.78190900  1
  O  O63  1  0.94174200  0.37001300  0.21809100  1
  O  O64  1  0.56363400  0.38561000  0.96097100  1
  O  O65  1  0.43636600  0.61439000  0.03902900  1
  O  O66  1  0.06363400  0.61439000  0.53902900  1
  O  O67  1  0.93636600  0.38561000  0.46097100  1
