# generated using pymatgen
data_Ag6Ge(S2Cl)2
_symmetry_space_group_name_H-M   'P 1'
_cell_length_a   6.48524600
_cell_length_b   7.71024300
_cell_length_c   23.24928900
_cell_angle_alpha   90.00000000
_cell_angle_beta   90.00000000
_cell_angle_gamma   90.00000000
_symmetry_Int_Tables_number   1
_chemical_formula_structural   Ag6Ge(S2Cl)2
_chemical_formula_sum   'Ag24 Ge4 S16 Cl8'
_cell_volume   1162.53007286
_cell_formula_units_Z   4
loop_
 _symmetry_equiv_pos_site_id
 _symmetry_equiv_pos_as_xyz
  1  'x, y, z'
loop_
 _atom_site_type_symbol
 _atom_site_label
 _atom_site_symmetry_multiplicity
 _atom_site_fract_x
 _atom_site_fract_y
 _atom_site_fract_z
 _atom_site_occupancy
  Ag  Ag0  1  0.44047400  0.25000000  0.64506200  1
  Ag  Ag1  1  0.55952600  0.75000000  0.35493800  1
  Ag  Ag2  1  0.05952600  0.75000000  0.14506200  1
  Ag  Ag3  1  0.94047400  0.25000000  0.85493800  1
  Ag  Ag4  1  0.09813400  0.03860000  0.28095300  1
  Ag  Ag5  1  0.90186600  0.96140000  0.71904700  1
  Ag  Ag6  1  0.40186600  0.96140000  0.78095300  1
  Ag  Ag7  1  0.90186600  0.53860000  0.71904700  1
  Ag  Ag8  1  0.59813400  0.03860000  0.21904700  1
  Ag  Ag9  1  0.09813400  0.46140000  0.28095300  1
  Ag  Ag10  1  0.59813400  0.46140000  0.21904700  1
  Ag  Ag11  1  0.40186600  0.53860000  0.78095300  1
  Ag  Ag12  1  0.00000000  0.00000000  0.00000000  1
  Ag  Ag13  1  0.50000000  0.00000000  0.50000000  1
  Ag  Ag14  1  0.00000000  0.50000000  0.00000000  1
  Ag  Ag15  1  0.50000000  0.50000000  0.50000000  1
  Ag  Ag16  1  0.00870200  0.05840900  0.42971400  1
  Ag  Ag17  1  0.99129800  0.94159100  0.57028600  1
  Ag  Ag18  1  0.49129800  0.94159100  0.92971400  1
  Ag  Ag19  1  0.99129800  0.55840900  0.57028600  1
  Ag  Ag20  1  0.50870200  0.05840900  0.07028600  1
  Ag  Ag21  1  0.00870200  0.44159100  0.42971400  1
  Ag  Ag22  1  0.50870200  0.44159100  0.07028600  1
  Ag  Ag23  1  0.49129800  0.55840900  0.92971400  1
  Ge  Ge24  1  0.01193700  0.25000000  0.13095500  1
  Ge  Ge25  1  0.98806300  0.75000000  0.86904500  1
  Ge  Ge26  1  0.48806300  0.75000000  0.63095500  1
  Ge  Ge27  1  0.51193700  0.25000000  0.36904500  1
  S  S28  1  0.32190300  0.00634100  0.37264900  1
  S  S29  1  0.67809700  0.99365900  0.62735100  1
  S  S30  1  0.17809700  0.99365900  0.87264900  1
  S  S31  1  0.67809700  0.50634100  0.62735100  1
  S  S32  1  0.82190300  0.00634100  0.12735100  1
  S  S33  1  0.32190300  0.49365900  0.37264900  1
  S  S34  1  0.82190300  0.49365900  0.12735100  1
  S  S35  1  0.17809700  0.50634100  0.87264900  1
  S  S36  1  0.22737100  0.25000000  0.20560600  1
  S  S37  1  0.77262900  0.75000000  0.79439400  1
  S  S38  1  0.27262900  0.75000000  0.70560600  1
  S  S39  1  0.72737100  0.25000000  0.29439400  1
  S  S40  1  0.19574800  0.25000000  0.04634200  1
  S  S41  1  0.80425200  0.75000000  0.95365800  1
  S  S42  1  0.30425200  0.75000000  0.54634200  1
  S  S43  1  0.69574800  0.25000000  0.45365800  1
  Cl  Cl44  1  0.16862400  0.25000000  0.54308900  1
  Cl  Cl45  1  0.83137600  0.75000000  0.45691100  1
  Cl  Cl46  1  0.33137600  0.75000000  0.04308900  1
  Cl  Cl47  1  0.66862400  0.25000000  0.95691100  1
  Cl  Cl48  1  0.12533400  0.25000000  0.71120100  1
  Cl  Cl49  1  0.87466600  0.75000000  0.28879900  1
  Cl  Cl50  1  0.37466600  0.75000000  0.21120100  1
  Cl  Cl51  1  0.62533400  0.25000000  0.78879900  1
