# generated using pymatgen
data_Ag3C2(NO3)2
_symmetry_space_group_name_H-M   'P 1'
_cell_length_a   12.57688400
_cell_length_b   5.20197800
_cell_length_c   7.46146941
_cell_angle_alpha   54.40090414
_cell_angle_beta   90.00000000
_cell_angle_gamma   90.00000000
_symmetry_Int_Tables_number   1
_chemical_formula_structural   Ag3C2(NO3)2
_chemical_formula_sum   'Ag6 C4 N4 O12'
_cell_volume   396.93116929
_cell_formula_units_Z   2
loop_
 _symmetry_equiv_pos_site_id
 _symmetry_equiv_pos_as_xyz
  1  'x, y, z'
loop_
 _atom_site_type_symbol
 _atom_site_label
 _atom_site_symmetry_multiplicity
 _atom_site_fract_x
 _atom_site_fract_y
 _atom_site_fract_z
 _atom_site_occupancy
  Ag  Ag0  1  0.00000000  0.00000000  0.00000000  1
  Ag  Ag1  1  0.50000000  0.00000000  0.50000000  1
  Ag  Ag2  1  0.39650300  0.60173000  0.16907700  1
  Ag  Ag3  1  0.60349700  0.39827000  0.83092300  1
  Ag  Ag4  1  0.89650300  0.39827000  0.33092300  1
  Ag  Ag5  1  0.10349700  0.60173000  0.66907700  1
  C  C6  1  0.98711600  0.57449900  0.04031100  1
  C  C7  1  0.01288400  0.42550100  0.95968900  1
  C  C8  1  0.48711600  0.42550100  0.45968900  1
  C  C9  1  0.51288400  0.57449900  0.54031100  1
  N  N10  1  0.67384000  0.69078600  0.06502700  1
  N  N11  1  0.32616000  0.30921400  0.93497300  1
  N  N12  1  0.17384000  0.30921400  0.43497300  1
  N  N13  1  0.82616000  0.69078600  0.56502700  1
  O  O14  1  0.90335700  0.86471400  0.43903900  1
  O  O15  1  0.09664300  0.13528600  0.56096100  1
  O  O16  1  0.40335700  0.13528600  0.06096100  1
  O  O17  1  0.59664300  0.86471400  0.93903900  1
  O  O18  1  0.68567200  0.41730200  0.10684400  1
  O  O19  1  0.31432800  0.58269800  0.89315600  1
  O  O20  1  0.18567200  0.58269800  0.39315600  1
  O  O21  1  0.81432800  0.41730200  0.60684400  1
  O  O22  1  0.73492000  0.78893500  0.14452300  1
  O  O23  1  0.26508000  0.21106500  0.85547700  1
  O  O24  1  0.23492000  0.21106500  0.35547700  1
  O  O25  1  0.76508000  0.78893500  0.64452300  1
