# generated using pymatgen
data_B6RhO6
_symmetry_space_group_name_H-M   'P 1'
_cell_length_a   8.80298337
_cell_length_b   5.60912621
_cell_length_c   12.58362981
_cell_angle_alpha   74.77664720
_cell_angle_beta   70.45013612
_cell_angle_gamma   38.30689627
_symmetry_Int_Tables_number   1
_chemical_formula_structural   B6RhO6
_chemical_formula_sum   'B6 Rh1 O6'
_cell_volume   362.94984069
_cell_formula_units_Z   1
loop_
 _symmetry_equiv_pos_site_id
 _symmetry_equiv_pos_as_xyz
  1  'x, y, z'
loop_
 _atom_site_type_symbol
 _atom_site_label
 _atom_site_symmetry_multiplicity
 _atom_site_fract_x
 _atom_site_fract_y
 _atom_site_fract_z
 _atom_site_occupancy
  B  B0  1  0.64091600  0.00000000  0.51379400  1
  B  B1  1  0.35908400  0.00000000  0.48620600  1
  B  B2  1  0.63864400  0.25300000  0.00000600  1
  B  B3  1  0.36135600  0.74700000  0.99999400  1
  B  B4  1  0.89164500  0.74700000  0.00000600  1
  B  B5  1  0.10835500  0.25300000  0.99999400  1
  Rh  Rh6  1  0.00000000  0.00000000  0.00000000  1
  O  O7  1  0.44282100  0.36324300  0.51522300  1
  O  O8  1  0.55717900  0.63675700  0.48477700  1
  O  O9  1  0.64512800  0.00000000  0.00007500  1
  O  O10  1  0.19393600  0.36324300  0.48477700  1
  O  O11  1  0.35487200  0.00000000  0.99992500  1
  O  O12  1  0.80606400  0.63675700  0.51522300  1
