# generated using pymatgen
data_Ba(SO2)4
_symmetry_space_group_name_H-M   'P 1'
_cell_length_a   8.59174900
_cell_length_b   10.95979900
_cell_length_c   11.25637300
_cell_angle_alpha   90.00000000
_cell_angle_beta   90.00000000
_cell_angle_gamma   90.00000000
_symmetry_Int_Tables_number   1
_chemical_formula_structural   Ba(SO2)4
_chemical_formula_sum   'Ba4 S16 O32'
_cell_volume   1059.94332977
_cell_formula_units_Z   4
loop_
 _symmetry_equiv_pos_site_id
 _symmetry_equiv_pos_as_xyz
  1  'x, y, z'
loop_
 _atom_site_type_symbol
 _atom_site_label
 _atom_site_symmetry_multiplicity
 _atom_site_fract_x
 _atom_site_fract_y
 _atom_site_fract_z
 _atom_site_occupancy
  Ba  Ba0  1  0.25000000  0.37930600  0.34713400  1
  Ba  Ba1  1  0.75000000  0.62069400  0.65286600  1
  Ba  Ba2  1  0.75000000  0.87930600  0.15286600  1
  Ba  Ba3  1  0.25000000  0.12069400  0.84713400  1
  S  S4  1  0.08564600  0.08111100  0.20550000  1
  S  S5  1  0.91435400  0.91888900  0.79450000  1
  S  S6  1  0.91435400  0.58111100  0.29450000  1
  S  S7  1  0.58564600  0.91888900  0.79450000  1
  S  S8  1  0.08564600  0.41888900  0.70550000  1
  S  S9  1  0.41435400  0.08111100  0.20550000  1
  S  S10  1  0.41435400  0.41888900  0.70550000  1
  S  S11  1  0.58564600  0.58111100  0.29450000  1
  S  S12  1  0.53294100  0.29752000  0.06025600  1
  S  S13  1  0.46705900  0.70248000  0.93974400  1
  S  S14  1  0.46705900  0.79752000  0.43974400  1
  S  S15  1  0.03294100  0.70248000  0.93974400  1
  S  S16  1  0.53294100  0.20248000  0.56025600  1
  S  S17  1  0.96705900  0.29752000  0.06025600  1
  S  S18  1  0.96705900  0.20248000  0.56025600  1
  S  S19  1  0.03294100  0.79752000  0.43974400  1
  O  O20  1  0.25000000  0.68499300  0.94838600  1
  O  O21  1  0.75000000  0.31500700  0.05161400  1
  O  O22  1  0.75000000  0.18499300  0.55161400  1
  O  O23  1  0.25000000  0.81500700  0.44838600  1
  O  O24  1  0.06553300  0.21039500  0.45262400  1
  O  O25  1  0.93446700  0.78960500  0.54737600  1
  O  O26  1  0.93446700  0.71039500  0.04737600  1
  O  O27  1  0.56553300  0.78960500  0.54737600  1
  O  O28  1  0.06553300  0.28960500  0.95262400  1
  O  O29  1  0.43446700  0.21039500  0.45262400  1
  O  O30  1  0.43446700  0.28960500  0.95262400  1
  O  O31  1  0.56553300  0.71039500  0.04737600  1
  O  O32  1  0.53594500  0.11707500  0.10724800  1
  O  O33  1  0.46405500  0.88292500  0.89275200  1
  O  O34  1  0.46405500  0.61707500  0.39275200  1
  O  O35  1  0.03594500  0.88292500  0.89275200  1
  O  O36  1  0.53594500  0.38292500  0.60724800  1
  O  O37  1  0.96405500  0.11707500  0.10724800  1
  O  O38  1  0.96405500  0.38292500  0.60724800  1
  O  O39  1  0.03594500  0.61707500  0.39275200  1
  O  O40  1  0.25000000  0.04012400  0.12760500  1
  O  O41  1  0.75000000  0.95987600  0.87239500  1
  O  O42  1  0.75000000  0.54012400  0.37239500  1
  O  O43  1  0.25000000  0.45987600  0.62760500  1
  O  O44  1  0.45023200  0.34602100  0.16491800  1
  O  O45  1  0.54976800  0.65397900  0.83508200  1
  O  O46  1  0.54976800  0.84602100  0.33508200  1
  O  O47  1  0.95023200  0.65397900  0.83508200  1
  O  O48  1  0.45023200  0.15397900  0.66491800  1
  O  O49  1  0.04976800  0.34602100  0.16491800  1
  O  O50  1  0.04976800  0.15397900  0.66491800  1
  O  O51  1  0.95023200  0.84602100  0.33508200  1
