# generated using pymatgen
data_Ag3P3HO9
_symmetry_space_group_name_H-M   'P 1'
_cell_length_a   7.78284597
_cell_length_b   7.78284597
_cell_length_c   9.30597879
_cell_angle_alpha   63.73339388
_cell_angle_beta   63.73339388
_cell_angle_gamma   85.95420453
_symmetry_Int_Tables_number   1
_chemical_formula_structural   Ag3P3HO9
_chemical_formula_sum   'Ag6 P6 H2 O18'
_cell_volume   447.75417662
_cell_formula_units_Z   2
loop_
 _symmetry_equiv_pos_site_id
 _symmetry_equiv_pos_as_xyz
  1  'x, y, z'
loop_
 _atom_site_type_symbol
 _atom_site_label
 _atom_site_symmetry_multiplicity
 _atom_site_fract_x
 _atom_site_fract_y
 _atom_site_fract_z
 _atom_site_occupancy
  Ag  Ag0  1  0.67605100  0.32394900  0.50000000  1
  Ag  Ag1  1  0.32394900  0.67605100  0.50000000  1
  Ag  Ag2  1  0.47603900  0.18326900  0.03624300  1
  Ag  Ag3  1  0.52396100  0.81673100  0.96375700  1
  Ag  Ag4  1  0.81673100  0.52396100  0.96375700  1
  Ag  Ag5  1  0.18326900  0.47603900  0.03624300  1
  P  P6  1  0.78402400  0.06250500  0.26341200  1
  P  P7  1  0.21597600  0.93749500  0.73658800  1
  P  P8  1  0.93749500  0.21597600  0.73658800  1
  P  P9  1  0.06250500  0.78402400  0.26341200  1
  P  P10  1  0.70907400  0.70907400  0.59022300  1
  P  P11  1  0.29092600  0.29092600  0.40977700  1
  H  H12  1  0.67885300  0.67885300  0.05261600  1
  H  H13  1  0.32114700  0.32114700  0.94738400  1
  O  O14  1  0.99455600  0.99455600  0.19286300  1
  O  O15  1  0.00544400  0.00544400  0.80713700  1
  O  O16  1  0.27132800  0.82271100  0.22440800  1
  O  O17  1  0.72867200  0.17728900  0.77559200  1
  O  O18  1  0.17728900  0.72867200  0.77559200  1
  O  O19  1  0.82271100  0.27132800  0.22440800  1
  O  O20  1  0.70087900  0.93767000  0.48233900  1
  O  O21  1  0.29912100  0.06233000  0.51766100  1
  O  O22  1  0.06233000  0.29912100  0.51766100  1
  O  O23  1  0.93767000  0.70087900  0.48233900  1
  O  O24  1  0.65721400  0.00966600  0.20198700  1
  O  O25  1  0.34278600  0.99033400  0.79801300  1
  O  O26  1  0.99033400  0.34278600  0.79801300  1
  O  O27  1  0.00966600  0.65721400  0.20198700  1
  O  O28  1  0.58748100  0.58748100  0.57187900  1
  O  O29  1  0.41251900  0.41251900  0.42812100  1
  O  O30  1  0.33235300  0.33235300  0.22254900  1
  O  O31  1  0.66764700  0.66764700  0.77745100  1
