# generated using pymatgen
data_AsSeS2(NF3)2
_symmetry_space_group_name_H-M   'P 1'
_cell_length_a   16.43551000
_cell_length_b   10.22507600
_cell_length_c   13.57136081
_cell_angle_alpha   49.26904606
_cell_angle_beta   90.00000000
_cell_angle_gamma   90.00000000
_symmetry_Int_Tables_number   1
_chemical_formula_structural   AsSeS2(NF3)2
_chemical_formula_sum   'As8 Se8 S16 N16 F48'
_cell_volume   1728.29300389
_cell_formula_units_Z   8
loop_
 _symmetry_equiv_pos_site_id
 _symmetry_equiv_pos_as_xyz
  1  'x, y, z'
loop_
 _atom_site_type_symbol
 _atom_site_label
 _atom_site_symmetry_multiplicity
 _atom_site_fract_x
 _atom_site_fract_y
 _atom_site_fract_z
 _atom_site_occupancy
  As  As0  1  0.84518000  0.60654400  0.13749000  1
  As  As1  1  0.15482000  0.39345600  0.86251000  1
  As  As2  1  0.34518000  0.39345600  0.36251000  1
  As  As3  1  0.65482000  0.60654400  0.63749000  1
  As  As4  1  0.94189300  0.92921300  0.30630200  1
  As  As5  1  0.05810700  0.07078700  0.69369800  1
  As  As6  1  0.44189300  0.07078700  0.19369800  1
  As  As7  1  0.55810700  0.92921300  0.80630200  1
  Se  Se8  1  0.38362100  0.78120800  0.59337600  1
  Se  Se9  1  0.61637900  0.21879200  0.40662400  1
  Se  Se10  1  0.88362100  0.21879200  0.90662400  1
  Se  Se11  1  0.11637900  0.78120800  0.09337600  1
  Se  Se12  1  0.70770800  0.32819000  0.03093500  1
  Se  Se13  1  0.29229200  0.67181000  0.96906500  1
  Se  Se14  1  0.20770800  0.67181000  0.46906500  1
  Se  Se15  1  0.79229200  0.32819000  0.53093500  1
  S  S16  1  0.61445900  0.38977100  0.46367100  1
  S  S17  1  0.38554100  0.61022900  0.53632900  1
  S  S18  1  0.11445900  0.61022900  0.03632900  1
  S  S19  1  0.88554100  0.38977100  0.96367100  1
  S  S20  1  0.69027600  0.95800600  0.24138200  1
  S  S21  1  0.30972400  0.04199400  0.75861800  1
  S  S22  1  0.19027600  0.04199400  0.25861800  1
  S  S23  1  0.80972400  0.95800600  0.74138200  1
  S  S24  1  0.29790300  0.84367100  0.02663900  1
  S  S25  1  0.70209700  0.15632900  0.97336100  1
  S  S26  1  0.79790300  0.15632900  0.47336100  1
  S  S27  1  0.20209700  0.84367100  0.52663900  1
  S  S28  1  0.60136600  0.58886900  0.19569700  1
  S  S29  1  0.39863400  0.41113100  0.80430300  1
  S  S30  1  0.10136600  0.41113100  0.30430300  1
  S  S31  1  0.89863400  0.58886900  0.69569700  1
  N  N32  1  0.60755600  0.40517300  0.23831000  1
  N  N33  1  0.39244400  0.59482700  0.76169000  1
  N  N34  1  0.10755600  0.59482700  0.26169000  1
  N  N35  1  0.89244400  0.40517300  0.73831000  1
  N  N36  1  0.19788000  0.85853000  0.30112800  1
  N  N37  1  0.80212000  0.14147000  0.69887200  1
  N  N38  1  0.69788000  0.14147000  0.19887200  1
  N  N39  1  0.30212000  0.85853000  0.80112800  1
  N  N40  1  0.69000100  0.97540100  0.11703400  1
  N  N41  1  0.30999900  0.02459900  0.88296600  1
  N  N42  1  0.19000100  0.02459900  0.38296600  1
  N  N43  1  0.80999900  0.97540100  0.61703400  1
  N  N44  1  0.60334900  0.57194200  0.31975000  1
  N  N45  1  0.39665100  0.42805800  0.68025000  1
  N  N46  1  0.10334900  0.42805800  0.18025000  1
  N  N47  1  0.89665100  0.57194200  0.81975000  1
  F  F48  1  0.37101500  0.95428300  0.33110000  1
  F  F49  1  0.62898500  0.04571700  0.66890000  1
  F  F50  1  0.87101500  0.04571700  0.16890000  1
  F  F51  1  0.12898500  0.95428300  0.83110000  1
  F  F52  1  0.49195400  0.90670600  0.71529100  1
  F  F53  1  0.50804600  0.09329400  0.28470900  1
  F  F54  1  0.99195400  0.09329400  0.78470900  1
  F  F55  1  0.00804600  0.90670600  0.21529100  1
  F  F56  1  0.51138600  0.18185000  0.06172900  1
  F  F57  1  0.48861400  0.81815000  0.93827100  1
  F  F58  1  0.01138600  0.81815000  0.43827100  1
  F  F59  1  0.98861400  0.18185000  0.56172900  1
  F  F60  1  0.75823600  0.68541900  0.03608200  1
  F  F61  1  0.24176400  0.31458100  0.96391800  1
  F  F62  1  0.25823600  0.31458100  0.46391800  1
  F  F63  1  0.74176400  0.68541900  0.53608200  1
  F  F64  1  0.86117500  0.81324600  0.08677900  1
  F  F65  1  0.13882500  0.18675400  0.91322100  1
  F  F66  1  0.36117500  0.18675400  0.41322100  1
  F  F67  1  0.63882500  0.81324600  0.58677900  1
  F  F68  1  0.92923800  0.52350400  0.24407700  1
  F  F69  1  0.07076200  0.47649600  0.75592300  1
  F  F70  1  0.42923800  0.47649600  0.25592300  1
  F  F71  1  0.57076200  0.52350400  0.74407700  1
  F  F72  1  0.78040300  0.54971900  0.26893000  1
  F  F73  1  0.21959700  0.45028100  0.73107000  1
  F  F74  1  0.28040300  0.45028100  0.23107000  1
  F  F75  1  0.71959700  0.54971900  0.76893000  1
  F  F76  1  0.48797300  0.87132100  0.26244500  1
  F  F77  1  0.51202700  0.12867900  0.73755500  1
  F  F78  1  0.98797300  0.12867900  0.23755500  1
  F  F79  1  0.01202700  0.87132100  0.76244500  1
  F  F80  1  0.87296600  0.95747900  0.39135300  1
  F  F81  1  0.12703400  0.04252100  0.60864700  1
  F  F82  1  0.37296600  0.04252100  0.10864700  1
  F  F83  1  0.62703400  0.95747900  0.89135300  1
  F  F84  1  0.90758600  0.65403900  0.01175200  1
  F  F85  1  0.09241400  0.34596100  0.98824800  1
  F  F86  1  0.40758600  0.34596100  0.48824800  1
  F  F87  1  0.59241400  0.65403900  0.51175200  1
  F  F88  1  0.89279500  0.73445000  0.37080800  1
  F  F89  1  0.10720500  0.26555000  0.62919200  1
  F  F90  1  0.39279500  0.26555000  0.12919200  1
  F  F91  1  0.60720500  0.73445000  0.87080800  1
  F  F92  1  0.82484500  0.39828000  0.19055400  1
  F  F93  1  0.17515500  0.60172000  0.80944600  1
  F  F94  1  0.32484500  0.60172000  0.30944600  1
  F  F95  1  0.67515500  0.39828000  0.69055400  1
