# generated using pymatgen
data_Ba(CO3)2
_symmetry_space_group_name_H-M   'P 1'
_cell_length_a   10.72399700
_cell_length_b   7.09651600
_cell_length_c   7.98718387
_cell_angle_alpha   80.61801361
_cell_angle_beta   90.00000000
_cell_angle_gamma   90.00000000
_symmetry_Int_Tables_number   1
_chemical_formula_structural   Ba(CO3)2
_chemical_formula_sum   'Ba4 C8 O24'
_cell_volume   599.71787173
_cell_formula_units_Z   4
loop_
 _symmetry_equiv_pos_site_id
 _symmetry_equiv_pos_as_xyz
  1  'x, y, z'
loop_
 _atom_site_type_symbol
 _atom_site_label
 _atom_site_symmetry_multiplicity
 _atom_site_fract_x
 _atom_site_fract_y
 _atom_site_fract_z
 _atom_site_occupancy
  Ba  Ba0  1  0.51367200  0.73142000  0.68245200  1
  Ba  Ba1  1  0.48632800  0.26858000  0.31754800  1
  Ba  Ba2  1  0.01367200  0.76858000  0.31754800  1
  Ba  Ba3  1  0.98632800  0.23142000  0.68245200  1
  C  C4  1  0.74875600  0.98499100  0.44635500  1
  C  C5  1  0.25124400  0.01500900  0.55364500  1
  C  C6  1  0.24875600  0.51500900  0.55364500  1
  C  C7  1  0.75124400  0.48499100  0.44635500  1
  C  C8  1  0.70165000  0.91630000  0.27978400  1
  C  C9  1  0.29835000  0.08370000  0.72021600  1
  C  C10  1  0.20165000  0.58370000  0.72021600  1
  C  C11  1  0.79835000  0.41630000  0.27978400  1
  O  O12  1  0.86564400  0.99768600  0.46939000  1
  O  O13  1  0.13435600  0.00231400  0.53061000  1
  O  O14  1  0.36564400  0.50231400  0.53061000  1
  O  O15  1  0.63435600  0.49768600  0.46939000  1
  O  O16  1  0.78142500  0.83903500  0.19626600  1
  O  O17  1  0.21857500  0.16096500  0.80373400  1
  O  O18  1  0.28142500  0.66096500  0.80373400  1
  O  O19  1  0.71857500  0.33903500  0.19626600  1
  O  O20  1  0.83438100  0.52464500  0.54898600  1
  O  O21  1  0.16561900  0.47535500  0.45101400  1
  O  O22  1  0.33438100  0.97535500  0.45101400  1
  O  O23  1  0.66561900  0.02464500  0.54898600  1
  O  O24  1  0.42673800  0.71025700  0.09806100  1
  O  O25  1  0.57326200  0.28974300  0.90193900  1
  O  O26  1  0.92673800  0.78974300  0.90193900  1
  O  O27  1  0.07326200  0.21025700  0.09806100  1
  O  O28  1  0.58691400  0.94242800  0.24651200  1
  O  O29  1  0.41308600  0.05757200  0.75348800  1
  O  O30  1  0.08691400  0.55757200  0.75348800  1
  O  O31  1  0.91308600  0.44242800  0.24651200  1
  O  O32  1  0.32333800  0.76601600  0.13805000  1
  O  O33  1  0.67666200  0.23398400  0.86195000  1
  O  O34  1  0.82333800  0.73398400  0.86195000  1
  O  O35  1  0.17666200  0.26601600  0.13805000  1
