# generated using pymatgen
data_Ba4La(RuO4)3
_symmetry_space_group_name_H-M   'P 1'
_cell_length_a   5.99698359
_cell_length_b   5.99698359
_cell_length_c   30.32924987
_cell_angle_alpha   88.81595844
_cell_angle_beta   88.81595844
_cell_angle_gamma   60.05976352
_symmetry_Int_Tables_number   1
_chemical_formula_structural   Ba4La(RuO4)3
_chemical_formula_sum   'Ba12 La3 Ru9 O36'
_cell_volume   944.92101432
_cell_formula_units_Z   3
loop_
 _symmetry_equiv_pos_site_id
 _symmetry_equiv_pos_as_xyz
  1  'x, y, z'
loop_
 _atom_site_type_symbol
 _atom_site_label
 _atom_site_symmetry_multiplicity
 _atom_site_fract_x
 _atom_site_fract_y
 _atom_site_fract_z
 _atom_site_occupancy
  Ba  Ba0  1  0.99874900  0.99874900  0.86902900  1
  Ba  Ba1  1  0.00125100  0.00125100  0.13097100  1
  Ba  Ba2  1  0.33412800  0.33412800  0.46417200  1
  Ba  Ba3  1  0.66587200  0.66587200  0.53582800  1
  Ba  Ba4  1  0.66901400  0.66901400  0.94593300  1
  Ba  Ba5  1  0.33098600  0.33098600  0.05406700  1
  Ba  Ba6  1  0.00294400  0.00294400  0.27878900  1
  Ba  Ba7  1  0.99705600  0.99705600  0.72121100  1
  Ba  Ba8  1  0.33781800  0.33781800  0.61305000  1
  Ba  Ba9  1  0.66218200  0.66218200  0.38695000  1
  Ba  Ba10  1  0.66586500  0.66586500  0.79763400  1
  Ba  Ba11  1  0.33413500  0.33413500  0.20236600  1
  La  La12  1  0.66768600  0.66768600  0.66692100  1
  La  La13  1  0.33231400  0.33231400  0.33307900  1
  La  La14  1  0.00000000  0.00000000  0.00000000  1
  Ru  Ru15  1  0.33275300  0.33275300  0.83334000  1
  Ru  Ru16  1  0.66724700  0.66724700  0.16666000  1
  Ru  Ru17  1  0.33915800  0.33915800  0.91764300  1
  Ru  Ru18  1  0.66084200  0.66084200  0.08235700  1
  Ru  Ru19  1  0.32703200  0.32703200  0.74885900  1
  Ru  Ru20  1  0.67296800  0.67296800  0.25114100  1
  Ru  Ru21  1  0.00790100  0.00790100  0.58462900  1
  Ru  Ru22  1  0.99209900  0.99209900  0.41537100  1
  Ru  Ru23  1  0.00000000  0.00000000  0.50000000  1
  O  O24  1  0.19005700  0.19005700  0.95714200  1
  O  O25  1  0.80994300  0.80994300  0.04285800  1
  O  O26  1  0.32713500  0.85906700  0.61671700  1
  O  O27  1  0.67286500  0.14093300  0.38328300  1
  O  O28  1  0.14093300  0.67286500  0.38328300  1
  O  O29  1  0.85906700  0.32713500  0.61671700  1
  O  O30  1  0.17571000  0.17571000  0.79472400  1
  O  O31  1  0.82429000  0.82429000  0.20527600  1
  O  O32  1  0.15681400  0.15681400  0.53751200  1
  O  O33  1  0.84318600  0.84318600  0.46248800  1
  O  O34  1  0.65572800  0.18809000  0.95099400  1
  O  O35  1  0.34427200  0.81191000  0.04900600  1
  O  O36  1  0.81191000  0.34427200  0.04900600  1
  O  O37  1  0.18809000  0.65572800  0.95099400  1
  O  O38  1  0.30635500  0.84051900  0.45709900  1
  O  O39  1  0.69364500  0.15948100  0.54290100  1
  O  O40  1  0.15948100  0.69364500  0.54290100  1
  O  O41  1  0.84051900  0.30635500  0.45709900  1
  O  O42  1  0.63966000  0.17690900  0.79081000  1
  O  O43  1  0.36034000  0.82309100  0.20919000  1
  O  O44  1  0.82309100  0.36034000  0.20919000  1
  O  O45  1  0.17690900  0.63966000  0.79081000  1
  O  O46  1  0.47789900  0.01041900  0.71563400  1
  O  O47  1  0.52210100  0.98958100  0.28436600  1
  O  O48  1  0.98958100  0.52210100  0.28436600  1
  O  O49  1  0.01041900  0.47789900  0.71563400  1
  O  O50  1  0.13828300  0.13828300  0.37514800  1
  O  O51  1  0.86171700  0.86171700  0.62485200  1
  O  O52  1  0.49034500  0.49034500  0.87177000  1
  O  O53  1  0.50965500  0.50965500  0.12823000  1
  O  O54  1  0.47615500  0.47615500  0.70899500  1
  O  O55  1  0.52384500  0.52384500  0.29100500  1
  O  O56  1  0.48885100  0.02600900  0.87578200  1
  O  O57  1  0.51114900  0.97399100  0.12421800  1
  O  O58  1  0.97399100  0.51114900  0.12421800  1
  O  O59  1  0.02600900  0.48885100  0.87578200  1
