# generated using pymatgen
data_Ba3V2O7F5
_symmetry_space_group_name_H-M   'P 1'
_cell_length_a   9.39090200
_cell_length_b   10.03505800
_cell_length_c   10.82886200
_cell_angle_alpha   90.00000000
_cell_angle_beta   90.00000000
_cell_angle_gamma   90.00000000
_symmetry_Int_Tables_number   1
_chemical_formula_structural   Ba3V2O7F5
_chemical_formula_sum   'Ba12 V8 O28 F20'
_cell_volume   1020.49296368
_cell_formula_units_Z   4
loop_
 _symmetry_equiv_pos_site_id
 _symmetry_equiv_pos_as_xyz
  1  'x, y, z'
loop_
 _atom_site_type_symbol
 _atom_site_label
 _atom_site_symmetry_multiplicity
 _atom_site_fract_x
 _atom_site_fract_y
 _atom_site_fract_z
 _atom_site_occupancy
  Ba  Ba0  1  0.00000000  0.34249300  0.35268900  1
  Ba  Ba1  1  0.00000000  0.65750700  0.64731100  1
  Ba  Ba2  1  0.50000000  0.15750700  0.85268900  1
  Ba  Ba3  1  0.50000000  0.84249300  0.14731100  1
  Ba  Ba4  1  0.00000000  0.21692000  0.77073100  1
  Ba  Ba5  1  0.00000000  0.78308000  0.22926900  1
  Ba  Ba6  1  0.50000000  0.28308000  0.27073100  1
  Ba  Ba7  1  0.50000000  0.71692000  0.72926900  1
  Ba  Ba8  1  0.25517100  0.00000000  0.50000000  1
  Ba  Ba9  1  0.74482900  0.00000000  0.50000000  1
  Ba  Ba10  1  0.24482900  0.50000000  0.00000000  1
  Ba  Ba11  1  0.75517100  0.50000000  0.00000000  1
  V  V12  1  0.18592200  0.15466200  0.10673700  1
  V  V13  1  0.81407800  0.84533800  0.89326300  1
  V  V14  1  0.18592200  0.84533800  0.89326300  1
  V  V15  1  0.31407800  0.34533800  0.60673700  1
  V  V16  1  0.81407800  0.15466200  0.10673700  1
  V  V17  1  0.68592200  0.65466200  0.39326300  1
  V  V18  1  0.31407800  0.65466200  0.39326300  1
  V  V19  1  0.68592200  0.34533800  0.60673700  1
  O  O20  1  0.22457600  0.30049000  0.18217400  1
  O  O21  1  0.77542400  0.69951000  0.81782600  1
  O  O22  1  0.22457600  0.69951000  0.81782600  1
  O  O23  1  0.27542400  0.19951000  0.68217400  1
  O  O24  1  0.77542400  0.30049000  0.18217400  1
  O  O25  1  0.72457600  0.80049000  0.31782600  1
  O  O26  1  0.27542400  0.80049000  0.31782600  1
  O  O27  1  0.72457600  0.19951000  0.68217400  1
  O  O28  1  0.33647300  0.06772800  0.12286900  1
  O  O29  1  0.66352700  0.93227200  0.87713100  1
  O  O30  1  0.33647300  0.93227200  0.87713100  1
  O  O31  1  0.16352700  0.43227200  0.62286900  1
  O  O32  1  0.66352700  0.06772800  0.12286900  1
  O  O33  1  0.83647300  0.56772800  0.37713100  1
  O  O34  1  0.16352700  0.56772800  0.37713100  1
  O  O35  1  0.83647300  0.43227200  0.62286900  1
  O  O36  1  0.07755600  0.07437300  0.24359000  1
  O  O37  1  0.92244400  0.92562700  0.75641000  1
  O  O38  1  0.07755600  0.92562700  0.75641000  1
  O  O39  1  0.42244400  0.42562700  0.74359000  1
  O  O40  1  0.92244400  0.07437300  0.24359000  1
  O  O41  1  0.57755600  0.57437300  0.25641000  1
  O  O42  1  0.42244400  0.57437300  0.25641000  1
  O  O43  1  0.57755600  0.42562700  0.74359000  1
  O  O44  1  0.07801700  0.00000000  0.00000000  1
  O  O45  1  0.92198300  0.00000000  0.00000000  1
  O  O46  1  0.42198300  0.50000000  0.50000000  1
  O  O47  1  0.57801700  0.50000000  0.50000000  1
  F  F48  1  0.00000000  0.24233400  0.05737600  1
  F  F49  1  0.00000000  0.75766600  0.94262400  1
  F  F50  1  0.50000000  0.25766600  0.55737600  1
  F  F51  1  0.50000000  0.74233400  0.44262400  1
  F  F52  1  0.00000000  0.54120600  0.13639400  1
  F  F53  1  0.00000000  0.45879400  0.86360600  1
  F  F54  1  0.50000000  0.95879400  0.63639400  1
  F  F55  1  0.50000000  0.04120600  0.36360600  1
  F  F56  1  0.00000000  0.14713400  0.52930600  1
  F  F57  1  0.00000000  0.85286600  0.47069400  1
  F  F58  1  0.50000000  0.35286600  0.02930600  1
  F  F59  1  0.50000000  0.64713400  0.97069400  1
  F  F60  1  0.26782900  0.27162700  0.44352900  1
  F  F61  1  0.73217100  0.72837300  0.55647100  1
  F  F62  1  0.26782900  0.72837300  0.55647100  1
  F  F63  1  0.23217100  0.22837300  0.94352900  1
  F  F64  1  0.73217100  0.27162700  0.44352900  1
  F  F65  1  0.76782900  0.77162700  0.05647100  1
  F  F66  1  0.23217100  0.77162700  0.05647100  1
  F  F67  1  0.76782900  0.22837300  0.94352900  1
