# generated using pymatgen
data_CaAl2Si2(WO4)2
_symmetry_space_group_name_H-M   'P 1'
_cell_length_a   9.48092758
_cell_length_b   14.25724592
_cell_length_c   14.57909929
_cell_angle_alpha   90.00000000
_cell_angle_beta   90.00000000
_cell_angle_gamma   90.00000000
_symmetry_Int_Tables_number   1
_chemical_formula_structural   CaAl2Si2(WO4)2
_chemical_formula_sum   'Ca8 Al16 Si16 W16 O64'
_cell_volume   1970.68478543
_cell_formula_units_Z   8
loop_
 _symmetry_equiv_pos_site_id
 _symmetry_equiv_pos_as_xyz
  1  'x, y, z'
loop_
 _atom_site_type_symbol
 _atom_site_label
 _atom_site_symmetry_multiplicity
 _atom_site_fract_x
 _atom_site_fract_y
 _atom_site_fract_z
 _atom_site_occupancy
  Ca  Ca0  1  0.36575341  0.13839728  0.59652467  1
  Ca  Ca1  1  0.13424659  0.86160272  0.09652467  1
  Ca  Ca2  1  0.63424659  0.63839728  0.90347533  1
  Ca  Ca3  1  0.86575341  0.36160272  0.40347533  1
  Ca  Ca4  1  0.60962220  0.33572190  0.11904727  1
  Ca  Ca5  1  0.89037780  0.66427810  0.61904727  1
  Ca  Ca6  1  0.39037780  0.83572190  0.38095273  1
  Ca  Ca7  1  0.10962220  0.16427810  0.88095273  1
  Al  Al8  1  0.07369346  0.03244593  0.64377814  1
  Al  Al9  1  0.42630654  0.96755407  0.14377814  1
  Al  Al10  1  0.92630654  0.53244593  0.85622186  1
  Al  Al11  1  0.57369346  0.46755407  0.35622186  1
  Al  Al12  1  0.24054912  0.24800102  0.07432832  1
  Al  Al13  1  0.25945088  0.75199898  0.57432832  1
  Al  Al14  1  0.75945088  0.74800102  0.42567168  1
  Al  Al15  1  0.74054912  0.25199898  0.92567168  1
  Al  Al16  1  0.08089594  0.51855643  0.14885869  1
  Al  Al17  1  0.41910406  0.48144357  0.64885869  1
  Al  Al18  1  0.91910406  0.01855643  0.35114131  1
  Al  Al19  1  0.58089594  0.98144357  0.85114131  1
  Al  Al20  1  0.24206194  0.24990789  0.37164294  1
  Al  Al21  1  0.25793806  0.75009211  0.87164294  1
  Al  Al22  1  0.75793806  0.74990789  0.12835706  1
  Al  Al23  1  0.74206194  0.25009211  0.62835706  1
  Si  Si24  1  0.17263526  0.09423001  0.22393651  1
  Si  Si25  1  0.32736474  0.90576999  0.72393651  1
  Si  Si26  1  0.82736474  0.59423001  0.27606349  1
  Si  Si27  1  0.67263526  0.40576999  0.77606349  1
  Si  Si28  1  0.99530277  0.17790303  0.49645245  1
  Si  Si29  1  0.50469723  0.82209697  0.99645245  1
  Si  Si30  1  0.00469723  0.67790303  0.00354755  1
  Si  Si31  1  0.49530277  0.32209697  0.50354755  1
  Si  Si32  1  0.33165297  0.39957883  0.22095179  1
  Si  Si33  1  0.16834703  0.60042117  0.72095179  1
  Si  Si34  1  0.66834703  0.89957883  0.27904821  1
  Si  Si35  1  0.83165297  0.10042117  0.77904821  1
  Si  Si36  1  0.49732186  0.12901861  0.00238956  1
  Si  Si37  1  0.00267814  0.87098139  0.50238956  1
  Si  Si38  1  0.50267814  0.62901861  0.49761044  1
  Si  Si39  1  0.99732186  0.37098139  0.99761044  1
  W  W40  1  0.67901475  0.17235545  0.27326287  1
  W  W41  1  0.82098525  0.82764455  0.77326287  1
  W  W42  1  0.32098525  0.67235545  0.22673713  1
  W  W43  1  0.17901475  0.32764455  0.72673713  1
  W  W44  1  0.43155743  0.06220680  0.39178931  1
  W  W45  1  0.06844257  0.93779320  0.89178931  1
  W  W46  1  0.56844257  0.56220680  0.10821069  1
  W  W47  1  0.93155743  0.43779320  0.60821069  1
  W  W48  1  0.12127200  0.52390656  0.45878229  1
  W  W49  1  0.37872800  0.47609344  0.95878229  1
  W  W50  1  0.87872800  0.02390656  0.04121771  1
  W  W51  1  0.62127200  0.97609344  0.54121771  1
  W  W52  1  0.07536586  0.79230641  0.30577227  1
  W  W53  1  0.42463414  0.20769359  0.80577227  1
  W  W54  1  0.92463414  0.29230641  0.19422773  1
  W  W55  1  0.57536586  0.70769359  0.69422773  1
  O  O56  1  0.01758886  0.40928688  0.10416924  1
  O  O57  1  0.48241114  0.59071312  0.60416924  1
  O  O58  1  0.98241114  0.90928688  0.39583076  1
  O  O59  1  0.51758886  0.09071312  0.89583076  1
  O  O60  1  0.24389573  0.34690338  0.30036917  1
  O  O61  1  0.25610427  0.65309662  0.80036917  1
  O  O62  1  0.75610427  0.84690338  0.19963083  1
  O  O63  1  0.74389573  0.15309662  0.69963083  1
  O  O64  1  0.08911492  0.59793663  0.05889703  1
  O  O65  1  0.41088508  0.40206337  0.55889703  1
  O  O66  1  0.91088508  0.09793663  0.44110297  1
  O  O67  1  0.58911492  0.90206337  0.94110297  1
  O  O68  1  0.61558129  0.21409938  0.01029728  1
  O  O69  1  0.88441871  0.78590062  0.51029728  1
  O  O70  1  0.38441871  0.71409938  0.48970272  1
  O  O71  1  0.11558129  0.28590062  0.98970272  1
  O  O72  1  0.52031075  0.05372197  0.08363865  1
  O  O73  1  0.97968925  0.94627803  0.58363865  1
  O  O74  1  0.47968925  0.55372197  0.41636135  1
  O  O75  1  0.02031075  0.44627803  0.91636135  1
  O  O76  1  0.25538490  0.00698087  0.17257548  1
  O  O77  1  0.24461510  0.99301913  0.67257548  1
  O  O78  1  0.74461510  0.50698087  0.32742452  1
  O  O79  1  0.75538490  0.49301913  0.82742452  1
  O  O80  1  0.25210059  0.49555969  0.18969983  1
  O  O81  1  0.24789941  0.50444031  0.68969983  1
  O  O82  1  0.74789941  0.99555969  0.31030017  1
  O  O83  1  0.75210059  0.00444031  0.81030017  1
  O  O84  1  0.10938391  0.13066175  0.56976246  1
  O  O85  1  0.39061609  0.86933825  0.06976246  1
  O  O86  1  0.89061609  0.63066175  0.93023754  1
  O  O87  1  0.60938391  0.36933825  0.43023754  1
  O  O88  1  0.14279843  0.18327101  0.15483673  1
  O  O89  1  0.35720157  0.81672899  0.65483673  1
  O  O90  1  0.85720157  0.68327101  0.34516327  1
  O  O91  1  0.64279843  0.31672899  0.84516327  1
  O  O92  1  0.37692062  0.25174865  0.45588618  1
  O  O93  1  0.12307938  0.74825135  0.95588618  1
  O  O94  1  0.62307938  0.75174865  0.04411382  1
  O  O95  1  0.87692062  0.24825135  0.54411382  1
  O  O96  1  0.97407986  0.55399025  0.23856076  1
  O  O97  1  0.52592014  0.44600975  0.73856076  1
  O  O98  1  0.02592014  0.05399025  0.26143924  1
  O  O99  1  0.47407986  0.94600975  0.76143924  1
  O  O100  1  0.35603266  0.32795897  0.13098863  1
  O  O101  1  0.14396734  0.67204103  0.63098863  1
  O  O102  1  0.64396734  0.82795897  0.36901137  1
  O  O103  1  0.85603266  0.17204103  0.86901137  1
  O  O104  1  0.83833791  0.32601578  0.99809577  1
  O  O105  1  0.66166209  0.67398422  0.49809577  1
  O  O106  1  0.16166209  0.82601578  0.50190423  1
  O  O107  1  0.33833791  0.17398422  0.00190423  1
  O  O108  1  0.49387929  0.42484027  0.25412882  1
  O  O109  1  0.00612071  0.57515973  0.75412882  1
  O  O110  1  0.50612071  0.92484027  0.24587118  1
  O  O111  1  0.99387929  0.07515973  0.74587118  1
  O  O112  1  0.27023542  0.14001236  0.31002340  1
  O  O113  1  0.22976458  0.85998764  0.81002340  1
  O  O114  1  0.72976458  0.64001236  0.18997660  1
  O  O115  1  0.77023542  0.35998764  0.68997660  1
  O  O116  1  0.07528040  0.24987318  0.42514837  1
  O  O117  1  0.42471960  0.75012682  0.92514837  1
  O  O118  1  0.92471960  0.74987318  0.07485163  1
  O  O119  1  0.57528040  0.25012682  0.57485163  1
