# generated using pymatgen
data_Ba2ErV3O11
_symmetry_space_group_name_H-M   'P 1'
_cell_length_a   7.75131900
_cell_length_b   12.47171977
_cell_length_c   11.30769869
_cell_angle_alpha   103.72197672
_cell_angle_beta   89.99833551
_cell_angle_gamma   90.00185545
_symmetry_Int_Tables_number   1
_chemical_formula_structural   Ba2ErV3O11
_chemical_formula_sum   'Ba8 Er4 V12 O44'
_cell_volume   1061.94079008
_cell_formula_units_Z   4
loop_
 _symmetry_equiv_pos_site_id
 _symmetry_equiv_pos_as_xyz
  1  'x, y, z'
loop_
 _atom_site_type_symbol
 _atom_site_label
 _atom_site_symmetry_multiplicity
 _atom_site_fract_x
 _atom_site_fract_y
 _atom_site_fract_z
 _atom_site_occupancy
  Ba  Ba0  1  0.27666500  0.77360600  0.94364500  1
  Ba  Ba1  1  0.72333500  0.22639400  0.05635500  1
  Ba  Ba2  1  0.77667400  0.22638800  0.55635600  1
  Ba  Ba3  1  0.22332600  0.77361200  0.44364400  1
  Ba  Ba4  1  0.74642000  0.55348100  0.88877000  1
  Ba  Ba5  1  0.25358000  0.44651900  0.11123000  1
  Ba  Ba6  1  0.24641500  0.44652700  0.61122100  1
  Ba  Ba7  1  0.75358500  0.55347300  0.38877900  1
  Er  Er8  1  0.50236700  0.99567400  0.71661100  1
  Er  Er9  1  0.49763300  0.00432600  0.28338900  1
  Er  Er10  1  0.00236800  0.00434800  0.78338200  1
  Er  Er11  1  0.99763200  0.99565200  0.21661800  1
  V  V12  1  0.75683700  0.90854200  0.97811800  1
  V  V13  1  0.24316300  0.09145800  0.02188200  1
  V  V14  1  0.25686600  0.09148500  0.52190400  1
  V  V15  1  0.74313400  0.90851500  0.47809600  1
  V  V16  1  0.51906100  0.68536800  0.67211500  1
  V  V17  1  0.48093900  0.31463200  0.32788500  1
  V  V18  1  0.01910100  0.31467800  0.82780200  1
  V  V19  1  0.98089900  0.68532200  0.17219800  1
  V  V20  1  0.98101800  0.68988700  0.67298100  1
  V  V21  1  0.01898200  0.31011300  0.32701900  1
  V  V22  1  0.48105600  0.31012000  0.82702300  1
  V  V23  1  0.51894400  0.68988000  0.17297700  1
  O  O24  1  0.44954000  0.82131600  0.71664200  1
  O  O25  1  0.55046000  0.17868400  0.28335800  1
  O  O26  1  0.94956800  0.17870900  0.78333800  1
  O  O27  1  0.05043200  0.82129100  0.21666200  1
  O  O28  1  0.54519500  0.17315400  0.80056800  1
  O  O29  1  0.45480500  0.82684600  0.19943200  1
  O  O30  1  0.04518200  0.82685400  0.69942400  1
  O  O31  1  0.95481800  0.17314700  0.30057600  1
  O  O32  1  0.75041700  0.66232900  0.66524400  1
  O  O33  1  0.24958300  0.33767100  0.33475600  1
  O  O34  1  0.25044300  0.33769400  0.83473000  1
  O  O35  1  0.74955700  0.66230600  0.16527000  1
  O  O36  1  0.94345300  0.37516600  0.96840000  1
  O  O37  1  0.05654700  0.62483400  0.03160000  1
  O  O38  1  0.44342700  0.62484400  0.53155400  1
  O  O39  1  0.55657300  0.37515600  0.46844600  1
  O  O40  1  0.93894000  0.38882300  0.73089100  1
  O  O41  1  0.06106000  0.61117700  0.26910900  1
  O  O42  1  0.43891600  0.61120600  0.76908200  1
  O  O43  1  0.56108400  0.38879400  0.23091800  1
  O  O44  1  0.78576100  0.98917700  0.62789100  1
  O  O45  1  0.21423900  0.01082300  0.37210900  1
  O  O46  1  0.28577500  0.01080900  0.87211300  1
  O  O47  1  0.71422500  0.98919100  0.12788700  1
  O  O48  1  0.97624500  0.88739600  0.98234300  1
  O  O49  1  0.02375500  0.11260400  0.01765700  1
  O  O50  1  0.47625900  0.11260600  0.51762200  1
  O  O51  1  0.52374100  0.88739400  0.48237800  1
  O  O52  1  0.64661100  0.78738300  0.94685600  1
  O  O53  1  0.35338900  0.21261700  0.05314400  1
  O  O54  1  0.14661300  0.21264400  0.55312500  1
  O  O55  1  0.85338700  0.78735600  0.44687500  1
  O  O56  1  0.72272600  0.98510300  0.86418100  1
  O  O57  1  0.27727400  0.01489700  0.13581900  1
  O  O58  1  0.22272200  0.01491000  0.63579100  1
  O  O59  1  0.77727800  0.98509000  0.36420900  1
  O  O60  1  0.55823500  0.36910700  0.71715700  1
  O  O61  1  0.44176500  0.63089300  0.28284300  1
  O  O62  1  0.05819200  0.63089600  0.78283800  1
  O  O63  1  0.94180800  0.36910400  0.21716200  1
  O  O64  1  0.56476800  0.38400400  0.96122600  1
  O  O65  1  0.43523200  0.61599600  0.03877400  1
  O  O66  1  0.06477700  0.61599400  0.53875900  1
  O  O67  1  0.93522300  0.38400600  0.46124100  1
