# generated using pymatgen
data_CaU2Si2(HO3)4
_symmetry_space_group_name_H-M   'P 1'
_cell_length_a   12.91811500
_cell_length_b   7.03964300
_cell_length_c   14.13225685
_cell_angle_alpha   89.67180217
_cell_angle_beta   90.00000000
_cell_angle_gamma   90.00000000
_symmetry_Int_Tables_number   1
_chemical_formula_structural   CaU2Si2(HO3)4
_chemical_formula_sum   'Ca4 U8 Si8 H16 O48'
_cell_volume   1285.15106029
_cell_formula_units_Z   4
loop_
 _symmetry_equiv_pos_site_id
 _symmetry_equiv_pos_as_xyz
  1  'x, y, z'
loop_
 _atom_site_type_symbol
 _atom_site_label
 _atom_site_symmetry_multiplicity
 _atom_site_fract_x
 _atom_site_fract_y
 _atom_site_fract_z
 _atom_site_occupancy
  Ca  Ca0  1  0.02500200  0.24518600  0.19545600  1
  Ca  Ca1  1  0.97499800  0.75481400  0.80454400  1
  Ca  Ca2  1  0.52500200  0.75481400  0.30454400  1
  Ca  Ca3  1  0.47499800  0.24518600  0.69545600  1
  U  U4  1  0.24599900  0.25483000  0.02456000  1
  U  U5  1  0.75400100  0.74517000  0.97544000  1
  U  U6  1  0.74599900  0.74517000  0.47544000  1
  U  U7  1  0.25400100  0.25483000  0.52456000  1
  U  U8  1  0.25710000  0.49777100  0.27787700  1
  U  U9  1  0.74290000  0.50222900  0.72212300  1
  U  U10  1  0.75710000  0.50222900  0.22212300  1
  U  U11  1  0.24290000  0.49777100  0.77787700  1
  Si  Si12  1  0.27921500  0.69999900  0.02590500  1
  Si  Si13  1  0.72078500  0.30000100  0.97409500  1
  Si  Si14  1  0.77921500  0.30000100  0.47409500  1
  Si  Si15  1  0.22078500  0.69999900  0.52590500  1
  Si  Si16  1  0.30671200  0.05697600  0.27386100  1
  Si  Si17  1  0.69328800  0.94302400  0.72613900  1
  Si  Si18  1  0.80671200  0.94302400  0.22613900  1
  Si  Si19  1  0.19328800  0.05697600  0.77386100  1
  H  H20  1  0.95786200  0.24366400  0.48603300  1
  H  H21  1  0.04213800  0.75633600  0.51396700  1
  H  H22  1  0.45786200  0.75633600  0.01396700  1
  H  H23  1  0.54213800  0.24366400  0.98603300  1
  H  H24  1  0.65759500  0.12658800  0.23854600  1
  H  H25  1  0.34240500  0.87341200  0.76145400  1
  H  H26  1  0.15759500  0.87341200  0.26145400  1
  H  H27  1  0.84240500  0.12658800  0.73854600  1
  H  H28  1  0.62834600  0.12784000  0.48244800  1
  H  H29  1  0.37165400  0.87216000  0.51755200  1
  H  H30  1  0.12834600  0.87216000  0.01755200  1
  H  H31  1  0.87165400  0.12784000  0.98244800  1
  H  H32  1  0.51664500  0.32698500  0.38612500  1
  H  H33  1  0.48335500  0.67301500  0.61387500  1
  H  H34  1  0.01664500  0.67301500  0.11387500  1
  H  H35  1  0.98335500  0.32698500  0.88612500  1
  O  O36  1  0.70225500  0.10560500  0.47456400  1
  O  O37  1  0.29774500  0.89439500  0.52543600  1
  O  O38  1  0.20225500  0.89439500  0.02543600  1
  O  O39  1  0.79774500  0.10560500  0.97456400  1
  O  O40  1  0.25493100  0.55809800  0.11500000  1
  O  O41  1  0.74506900  0.44190200  0.88500000  1
  O  O42  1  0.75493100  0.44190200  0.38500000  1
  O  O43  1  0.24506900  0.55809800  0.61500000  1
  O  O44  1  0.24968800  0.56234400  0.43722600  1
  O  O45  1  0.75031200  0.43765600  0.56277400  1
  O  O46  1  0.74968800  0.43765600  0.06277400  1
  O  O47  1  0.25031200  0.56234400  0.93722600  1
  O  O48  1  0.25869500  0.18979300  0.18711100  1
  O  O49  1  0.74130500  0.81020700  0.81288900  1
  O  O50  1  0.75869500  0.81020700  0.31288900  1
  O  O51  1  0.24130500  0.18979300  0.68711100  1
  O  O52  1  0.38913200  0.80964500  0.02622500  1
  O  O53  1  0.61086800  0.19035500  0.97377500  1
  O  O54  1  0.88913200  0.19035500  0.47377500  1
  O  O55  1  0.11086800  0.80964500  0.52622500  1
  O  O56  1  0.39912700  0.53931800  0.28188700  1
  O  O57  1  0.60087300  0.46068200  0.71811300  1
  O  O58  1  0.89912700  0.46068200  0.21811300  1
  O  O59  1  0.10087300  0.53931800  0.78188700  1
  O  O60  1  0.27631900  0.19626300  0.36361600  1
  O  O61  1  0.72368100  0.80373700  0.63638400  1
  O  O62  1  0.77631900  0.80373700  0.13638400  1
  O  O63  1  0.22368100  0.19626300  0.86361600  1
  O  O64  1  0.10137100  0.25109200  0.04642100  1
  O  O65  1  0.89862900  0.74890800  0.95357900  1
  O  O66  1  0.60137100  0.74890800  0.45357900  1
  O  O67  1  0.39862900  0.25109200  0.54642100  1
  O  O68  1  0.73085100  0.14509300  0.22503300  1
  O  O69  1  0.26914900  0.85490700  0.77496700  1
  O  O70  1  0.23085100  0.85490700  0.27496700  1
  O  O71  1  0.76914900  0.14509300  0.72503300  1
  O  O72  1  0.42345000  0.98799900  0.27217000  1
  O  O73  1  0.57655000  0.01200100  0.72783000  1
  O  O74  1  0.92345000  0.01200100  0.22783000  1
  O  O75  1  0.07655000  0.98799900  0.77217000  1
  O  O76  1  0.11364600  0.25744300  0.50939600  1
  O  O77  1  0.88635400  0.74255700  0.49060400  1
  O  O78  1  0.61364600  0.74255700  0.99060400  1
  O  O79  1  0.38635400  0.25744300  0.00939600  1
  O  O80  1  0.11418700  0.46815100  0.27691700  1
  O  O81  1  0.88581300  0.53184900  0.72308300  1
  O  O82  1  0.61418700  0.53184900  0.22308300  1
  O  O83  1  0.38581300  0.46815100  0.77691700  1
