# generated using pymatgen
data_B4N2O11
_symmetry_space_group_name_H-M   'P 1'
_cell_length_a   8.86980600
_cell_length_b   5.86840200
_cell_length_c   8.49358467
_cell_angle_alpha   74.55036695
_cell_angle_beta   90.00000000
_cell_angle_gamma   90.00000000
_symmetry_Int_Tables_number   1
_chemical_formula_structural   B4N2O11
_chemical_formula_sum   'B8 N4 O22'
_cell_volume   426.12911590
_cell_formula_units_Z   2
loop_
 _symmetry_equiv_pos_site_id
 _symmetry_equiv_pos_as_xyz
  1  'x, y, z'
loop_
 _atom_site_type_symbol
 _atom_site_label
 _atom_site_symmetry_multiplicity
 _atom_site_fract_x
 _atom_site_fract_y
 _atom_site_fract_z
 _atom_site_occupancy
  B  B0  1  0.48791900  0.98078700  0.39216200  1
  B  B1  1  0.98791900  0.01921300  0.60783800  1
  B  B2  1  0.46174900  0.06113300  0.08728300  1
  B  B3  1  0.96174900  0.93886700  0.91271700  1
  B  B4  1  0.42746500  0.54076600  0.41443500  1
  B  B5  1  0.92746500  0.45923400  0.58556500  1
  B  B6  1  0.28291900  0.69626300  0.16922500  1
  B  B7  1  0.78291900  0.30373700  0.83077500  1
  N  N8  1  0.24982400  0.70321500  0.82548300  1
  N  N9  1  0.74982400  0.29678500  0.17451700  1
  N  N10  1  0.21944000  0.22430400  0.15565100  1
  N  N11  1  0.71944000  0.77569600  0.84434900  1
  O  O12  1  0.47496200  0.73866900  0.45647400  1
  O  O13  1  0.97496200  0.26133100  0.54352600  1
  O  O14  1  0.06798200  0.90304500  0.05016500  1
  O  O15  1  0.56798200  0.09695500  0.94983500  1
  O  O16  1  0.30228400  0.53687800  0.31893000  1
  O  O17  1  0.80228400  0.46312200  0.68107000  1
  O  O18  1  0.83967700  0.74939900  0.95039300  1
  O  O19  1  0.33967700  0.25060100  0.04960700  1
  O  O20  1  0.02022000  0.65663100  0.52206600  1
  O  O21  1  0.52022000  0.34336900  0.47793400  1
  O  O22  1  0.53991300  0.08294200  0.23713400  1
  O  O23  1  0.03991300  0.91705800  0.76286600  1
  O  O24  1  0.39477500  0.83696100  0.09241600  1
  O  O25  1  0.89477500  0.16303900  0.90758400  1
  O  O26  1  0.95223900  0.89247100  0.49365700  1
  O  O27  1  0.45223900  0.10752900  0.50634300  1
  O  O28  1  0.22910100  0.06225600  0.27842700  1
  O  O29  1  0.72910100  0.93774400  0.72157300  1
  O  O30  1  0.73877600  0.45727700  0.22233000  1
  O  O31  1  0.23877600  0.54272300  0.77767000  1
  O  O32  1  0.14155600  0.67503100  0.08302500  1
  O  O33  1  0.64155600  0.32496900  0.91697500  1
