# generated using pymatgen
data_Ag3Se3NO3
_symmetry_space_group_name_H-M   'P 1'
_cell_length_a   7.69646330
_cell_length_b   6.23943115
_cell_length_c   12.33285258
_cell_angle_alpha   108.49362653
_cell_angle_beta   59.04938809
_cell_angle_gamma   128.07992272
_symmetry_Int_Tables_number   1
_chemical_formula_structural   Ag3Se3NO3
_chemical_formula_sum   'Ag6 Se6 N2 O6'
_cell_volume   399.80498832
_cell_formula_units_Z   2
loop_
 _symmetry_equiv_pos_site_id
 _symmetry_equiv_pos_as_xyz
  1  'x, y, z'
loop_
 _atom_site_type_symbol
 _atom_site_label
 _atom_site_symmetry_multiplicity
 _atom_site_fract_x
 _atom_site_fract_y
 _atom_site_fract_z
 _atom_site_occupancy
  Ag  Ag0  1  0.97122800  0.36952500  0.88736000  1
  Ag  Ag1  1  0.02789700  0.95819500  0.63482200  1
  Ag  Ag2  1  0.10170300  0.63047500  0.38736000  1
  Ag  Ag3  1  0.61714100  0.65924100  0.91091300  1
  Ag  Ag4  1  0.56970200  0.04180500  0.13482200  1
  Ag  Ag5  1  0.45790000  0.34075900  0.41091300  1
  Se  Se6  1  0.08758300  0.85083100  0.83827300  1
  Se  Se7  1  0.72696100  0.74532000  0.10086400  1
  Se  Se8  1  0.73675200  0.14916900  0.33827300  1
  Se  Se9  1  0.13122400  0.36605400  0.02355100  1
  Se  Se10  1  0.48164100  0.25468000  0.60086400  1
  Se  Se11  1  0.26517000  0.63394600  0.52355100  1
  N  N12  1  0.06792800  0.00576100  0.00465200  1
  N  N13  1  0.56216700  0.99423900  0.50465200  1
  O  O14  1  0.79738000  0.22257400  0.75444200  1
  O  O15  1  0.62159500  0.75552300  0.74018900  1
  O  O16  1  0.07480600  0.77742600  0.25444200  1
  O  O17  1  0.57959300  0.97043500  0.78173400  1
  O  O18  1  0.36607200  0.24447700  0.24018900  1
  O  O19  1  0.10915700  0.02956500  0.28173400  1
