# generated using pymatgen
data_CoSn3F6
_symmetry_space_group_name_H-M   'P 1'
_cell_length_a   12.62150300
_cell_length_b   12.99716664
_cell_length_c   22.02707150
_cell_angle_alpha   89.54331375
_cell_angle_beta   97.34543760
_cell_angle_gamma   118.72893823
_symmetry_Int_Tables_number   1
_chemical_formula_structural   CoSn3F6
_chemical_formula_sum   'Co1 Sn3 F6'
_cell_volume   3136.65521649
_cell_formula_units_Z   1
loop_
 _symmetry_equiv_pos_site_id
 _symmetry_equiv_pos_as_xyz
  1  'x, y, z'
loop_
 _atom_site_type_symbol
 _atom_site_label
 _atom_site_symmetry_multiplicity
 _atom_site_fract_x
 _atom_site_fract_y
 _atom_site_fract_z
 _atom_site_occupancy
  Co  Co0  1  0.00000000  0.00000000  0.00000000  1
  Sn  Sn1  1  0.00000000  0.00000000  0.50000000  1
  Sn  Sn2  1  0.50000000  0.00000000  0.00000000  1
  Sn  Sn3  1  0.00000000  0.50000000  0.00000000  1
  F  F4  1  0.00506300  0.59941400  0.07374000  1
  F  F5  1  0.99493700  0.40058600  0.92626000  1
  F  F6  1  0.92956900  0.00490000  0.41073400  1
  F  F7  1  0.07043100  0.99510000  0.58926600  1
  F  F8  1  0.60647000  0.92034900  0.99581600  1
  F  F9  1  0.39353000  0.07965100  0.00418400  1
