# generated using pymatgen
data_Ba2C4O9
_symmetry_space_group_name_H-M   'P 1'
_cell_length_a   6.50431324
_cell_length_b   9.34365286
_cell_length_c   9.18123635
_cell_angle_alpha   66.91657233
_cell_angle_beta   88.18308426
_cell_angle_gamma   81.04642817
_symmetry_Int_Tables_number   1
_chemical_formula_structural   Ba2C4O9
_chemical_formula_sum   'Ba4 C8 O18'
_cell_volume   506.78746673
_cell_formula_units_Z   2
loop_
 _symmetry_equiv_pos_site_id
 _symmetry_equiv_pos_as_xyz
  1  'x, y, z'
loop_
 _atom_site_type_symbol
 _atom_site_label
 _atom_site_symmetry_multiplicity
 _atom_site_fract_x
 _atom_site_fract_y
 _atom_site_fract_z
 _atom_site_occupancy
  Ba  Ba0  1  0.25886200  0.16587700  0.55551100  1
  Ba  Ba1  1  0.74113800  0.83412300  0.44448900  1
  Ba  Ba2  1  0.65423500  0.51246500  0.18712300  1
  Ba  Ba3  1  0.34576500  0.48753500  0.81287700  1
  C  C4  1  0.28548700  0.66943000  0.39787900  1
  C  C5  1  0.71451300  0.33057000  0.60212100  1
  C  C6  1  0.55823800  0.15245800  0.18048700  1
  C  C7  1  0.44176200  0.84754200  0.81951300  1
  C  C8  1  0.15405200  0.58256000  0.32936300  1
  C  C9  1  0.84594800  0.41744000  0.67063700  1
  C  C10  1  0.01510600  0.17695000  0.16770100  1
  C  C11  1  0.98489400  0.82305000  0.83229900  1
  O  O12  1  0.02255900  0.08710700  0.30063700  1
  O  O13  1  0.97744100  0.91289300  0.69936300  1
  O  O14  1  0.25446600  0.47028100  0.29777600  1
  O  O15  1  0.74553400  0.52971900  0.70222400  1
  O  O16  1  0.01507900  0.27544700  0.03942800  1
  O  O17  1  0.98492100  0.72455300  0.96057200  1
  O  O18  1  0.04124800  0.37493300  0.68479000  1
  O  O19  1  0.95875200  0.62506700  0.31521000  1
  O  O20  1  0.52778500  0.32286800  0.64728600  1
  O  O21  1  0.47221500  0.67713200  0.35271400  1
  O  O22  1  0.52394100  0.30318100  0.08501300  1
  O  O23  1  0.47605900  0.69681900  0.91498700  1
  O  O24  1  0.68650500  0.05331900  0.14449800  1
  O  O25  1  0.31349500  0.94668100  0.85550200  1
  O  O26  1  0.46632300  0.10681300  0.31654200  1
  O  O27  1  0.53367700  0.89318700  0.68345800  1
  O  O28  1  0.20175000  0.71972500  0.49892800  1
  O  O29  1  0.79825000  0.28027500  0.50107200  1
