# generated using pymatgen
data_Cd3Fe2(GeO4)3
_symmetry_space_group_name_H-M   'P 1'
_cell_length_a   10.82746009
_cell_length_b   10.82746009
_cell_length_c   10.82746009
_cell_angle_alpha   109.47122063
_cell_angle_beta   109.47122063
_cell_angle_gamma   109.47122063
_symmetry_Int_Tables_number   1
_chemical_formula_structural   Cd3Fe2(GeO4)3
_chemical_formula_sum   'Cd12 Fe8 Ge12 O48'
_cell_volume   977.14245852
_cell_formula_units_Z   4
loop_
 _symmetry_equiv_pos_site_id
 _symmetry_equiv_pos_as_xyz
  1  'x, y, z'
loop_
 _atom_site_type_symbol
 _atom_site_label
 _atom_site_symmetry_multiplicity
 _atom_site_fract_x
 _atom_site_fract_y
 _atom_site_fract_z
 _atom_site_occupancy
  Cd  Cd0  1  0.25000000  0.37500000  0.12500000  1
  Cd  Cd1  1  0.75000000  0.62500000  0.87500000  1
  Cd  Cd2  1  0.75000000  0.12500000  0.37500000  1
  Cd  Cd3  1  0.12500000  0.25000000  0.37500000  1
  Cd  Cd4  1  0.37500000  0.75000000  0.12500000  1
  Cd  Cd5  1  0.25000000  0.87500000  0.62500000  1
  Cd  Cd6  1  0.87500000  0.75000000  0.62500000  1
  Cd  Cd7  1  0.62500000  0.25000000  0.87500000  1
  Cd  Cd8  1  0.37500000  0.12500000  0.25000000  1
  Cd  Cd9  1  0.62500000  0.87500000  0.75000000  1
  Cd  Cd10  1  0.12500000  0.37500000  0.75000000  1
  Cd  Cd11  1  0.87500000  0.62500000  0.25000000  1
  Fe  Fe12  1  0.00000000  0.00000000  0.00000000  1
  Fe  Fe13  1  0.50000000  0.00000000  0.50000000  1
  Fe  Fe14  1  0.00000000  0.50000000  0.50000000  1
  Fe  Fe15  1  0.50000000  0.00000000  0.00000000  1
  Fe  Fe16  1  0.50000000  0.50000000  0.00000000  1
  Fe  Fe17  1  0.50000000  0.50000000  0.50000000  1
  Fe  Fe18  1  0.00000000  0.00000000  0.50000000  1
  Fe  Fe19  1  0.00000000  0.50000000  0.00000000  1
  Ge  Ge20  1  0.25000000  0.62500000  0.37500000  1
  Ge  Ge21  1  0.75000000  0.37500000  0.62500000  1
  Ge  Ge22  1  0.75000000  0.87500000  0.12500000  1
  Ge  Ge23  1  0.37500000  0.25000000  0.62500000  1
  Ge  Ge24  1  0.62500000  0.75000000  0.37500000  1
  Ge  Ge25  1  0.25000000  0.12500000  0.87500000  1
  Ge  Ge26  1  0.12500000  0.75000000  0.87500000  1
  Ge  Ge27  1  0.87500000  0.25000000  0.12500000  1
  Ge  Ge28  1  0.62500000  0.37500000  0.25000000  1
  Ge  Ge29  1  0.37500000  0.62500000  0.75000000  1
  Ge  Ge30  1  0.87500000  0.12500000  0.75000000  1
  Ge  Ge31  1  0.12500000  0.87500000  0.25000000  1
  O  O32  1  0.48415900  0.37982400  0.29960600  1
  O  O33  1  0.51584100  0.62017600  0.70039400  1
  O  O34  1  0.58021800  0.18455300  0.20039400  1
  O  O35  1  0.91978200  0.12017600  0.60433500  1
  O  O36  1  0.29960600  0.48415900  0.37982400  1
  O  O37  1  0.31544700  0.91978200  0.29960600  1
  O  O38  1  0.41978200  0.81544700  0.79960600  1
  O  O39  1  0.08021800  0.87982400  0.39566500  1
  O  O40  1  0.70039400  0.51584100  0.62017600  1
  O  O41  1  0.68455300  0.08021800  0.70039400  1
  O  O42  1  0.01584100  0.31544700  0.89566500  1
  O  O43  1  0.20039400  0.58021800  0.18455300  1
  O  O44  1  0.12017600  0.01584100  0.20039400  1
  O  O45  1  0.98415900  0.68455300  0.10433500  1
  O  O46  1  0.79960600  0.41978200  0.81544700  1
  O  O47  1  0.87982400  0.98415900  0.79960600  1
  O  O48  1  0.60433500  0.91978200  0.12017600  1
  O  O49  1  0.18455300  0.48415900  0.60433500  1
  O  O50  1  0.39566500  0.08021800  0.87982400  1
  O  O51  1  0.81544700  0.51584100  0.39566500  1
  O  O52  1  0.89566500  0.01584100  0.31544700  1
  O  O53  1  0.37982400  0.58021800  0.89566500  1
  O  O54  1  0.10433500  0.98415900  0.68455300  1
  O  O55  1  0.62017600  0.41978200  0.10433500  1
  O  O56  1  0.37982400  0.29960600  0.48415900  1
  O  O57  1  0.58021800  0.89566500  0.37982400  1
  O  O58  1  0.62017600  0.70039400  0.51584100  1
  O  O59  1  0.41978200  0.10433500  0.62017600  1
  O  O60  1  0.12017600  0.60433500  0.91978200  1
  O  O61  1  0.01584100  0.20039400  0.12017600  1
  O  O62  1  0.87982400  0.39566500  0.08021800  1
  O  O63  1  0.98415900  0.79960600  0.87982400  1
  O  O64  1  0.31544700  0.89566500  0.01584100  1
  O  O65  1  0.91978200  0.29960600  0.31544700  1
  O  O66  1  0.68455300  0.10433500  0.98415900  1
  O  O67  1  0.08021800  0.70039400  0.68455300  1
  O  O68  1  0.18455300  0.20039400  0.58021800  1
  O  O69  1  0.48415900  0.60433500  0.18455300  1
  O  O70  1  0.81544700  0.79960600  0.41978200  1
  O  O71  1  0.51584100  0.39566500  0.81544700  1
  O  O72  1  0.29960600  0.31544700  0.91978200  1
  O  O73  1  0.70039400  0.68455300  0.08021800  1
  O  O74  1  0.20039400  0.12017600  0.01584100  1
  O  O75  1  0.79960600  0.87982400  0.98415900  1
  O  O76  1  0.89566500  0.37982400  0.58021800  1
  O  O77  1  0.10433500  0.62017600  0.41978200  1
  O  O78  1  0.60433500  0.18455300  0.48415900  1
  O  O79  1  0.39566500  0.81544700  0.51584100  1
