# generated using pymatgen
data_Al3P8NO36
_symmetry_space_group_name_H-M   'P 1'
_cell_length_a   9.93060581
_cell_length_b   9.93060581
_cell_length_c   17.67134193
_cell_angle_alpha   88.68964887
_cell_angle_beta   88.68964887
_cell_angle_gamma   58.85519061
_symmetry_Int_Tables_number   1
_chemical_formula_structural   Al3P8NO36
_chemical_formula_sum   'Al6 P16 N2 O72'
_cell_volume   1490.99247976
_cell_formula_units_Z   2
loop_
 _symmetry_equiv_pos_site_id
 _symmetry_equiv_pos_as_xyz
  1  'x, y, z'
loop_
 _atom_site_type_symbol
 _atom_site_label
 _atom_site_symmetry_multiplicity
 _atom_site_fract_x
 _atom_site_fract_y
 _atom_site_fract_z
 _atom_site_occupancy
  Al  Al0  1  0.23310500  0.19282800  0.26622800  1
  Al  Al1  1  0.76689500  0.80717200  0.73377200  1
  Al  Al2  1  0.80717200  0.76689500  0.23377200  1
  Al  Al3  1  0.19282800  0.23310500  0.76622800  1
  Al  Al4  1  0.67298200  0.32701800  0.25000000  1
  Al  Al5  1  0.32701800  0.67298200  0.75000000  1
  P  P6  1  0.86565500  0.01377300  0.14059800  1
  P  P7  1  0.13434500  0.98622700  0.85940200  1
  P  P8  1  0.98622700  0.13434500  0.35940200  1
  P  P9  1  0.01377300  0.86565500  0.64059800  1
  P  P10  1  0.58540200  0.65220300  0.33252700  1
  P  P11  1  0.41459800  0.34779700  0.66747300  1
  P  P12  1  0.34779700  0.41459800  0.16747300  1
  P  P13  1  0.65220300  0.58540200  0.83252700  1
  P  P14  1  0.46002700  0.91023900  0.15092100  1
  P  P15  1  0.53997300  0.08976100  0.84907900  1
  P  P16  1  0.08976100  0.53997300  0.34907900  1
  P  P17  1  0.91023900  0.46002700  0.65092100  1
  P  P18  1  0.57412100  0.09431400  0.31824500  1
  P  P19  1  0.42587900  0.90568600  0.68175500  1
  P  P20  1  0.90568600  0.42587900  0.18175500  1
  P  P21  1  0.09431400  0.57412100  0.81824500  1
  N  N22  1  0.23248200  0.76751800  0.25000000  1
  N  N23  1  0.76751800  0.23248200  0.75000000  1
  O  O24  1  0.29589400  0.09864800  0.51984400  1
  O  O25  1  0.70410600  0.90135200  0.48015600  1
  O  O26  1  0.90135200  0.70410600  0.98015600  1
  O  O27  1  0.09864800  0.29589400  0.01984400  1
  O  O28  1  0.33654100  0.28246100  0.20380700  1
  O  O29  1  0.66345900  0.71753900  0.79619300  1
  O  O30  1  0.71753900  0.66345900  0.29619300  1
  O  O31  1  0.28246100  0.33654100  0.70380700  1
  O  O32  1  0.57912700  0.24188200  0.31957300  1
  O  O33  1  0.42087300  0.75811800  0.68042700  1
  O  O34  1  0.75811800  0.42087300  0.18042700  1
  O  O35  1  0.24188200  0.57912700  0.81957300  1
  O  O36  1  0.51993100  0.25847500  0.03299300  1
  O  O37  1  0.48006900  0.74152500  0.96700700  1
  O  O38  1  0.74152500  0.48006900  0.46700700  1
  O  O39  1  0.25847500  0.51993100  0.53299300  1
  O  O40  1  0.14341100  0.10695400  0.32954100  1
  O  O41  1  0.85658900  0.89304600  0.67045900  1
  O  O42  1  0.89304600  0.85658900  0.17045900  1
  O  O43  1  0.10695400  0.14341100  0.82954100  1
  O  O44  1  0.62062900  0.86935700  0.18061000  1
  O  O45  1  0.37937100  0.13064300  0.81939000  1
  O  O46  1  0.13064300  0.37937100  0.31939000  1
  O  O47  1  0.86935700  0.62062900  0.68061000  1
  O  O48  1  0.80337500  0.03503100  0.05597000  1
  O  O49  1  0.19662500  0.96496900  0.94403000  1
  O  O50  1  0.96496900  0.19662500  0.44403000  1
  O  O51  1  0.03503100  0.80337500  0.55597000  1
  O  O52  1  0.42511100  0.98991800  0.07140200  1
  O  O53  1  0.57488900  0.01008200  0.92859800  1
  O  O54  1  0.01008200  0.57488900  0.42859800  1
  O  O55  1  0.98991800  0.42511100  0.57140200  1
  O  O56  1  0.62762100  0.03908300  0.45815100  1
  O  O57  1  0.37237900  0.96091700  0.54184900  1
  O  O58  1  0.96091700  0.37237900  0.04184900  1
  O  O59  1  0.03908300  0.62762100  0.95815100  1
  O  O60  1  0.42093600  0.10263100  0.32881100  1
  O  O61  1  0.57906400  0.89736900  0.67118900  1
  O  O62  1  0.89736900  0.57906400  0.17118900  1
  O  O63  1  0.10263100  0.42093600  0.82881100  1
  O  O64  1  0.48639200  0.42536000  0.19057400  1
  O  O65  1  0.51360800  0.57464000  0.80942600  1
  O  O66  1  0.57464000  0.51360800  0.30942600  1
  O  O67  1  0.42536000  0.48639200  0.69057400  1
  O  O68  1  0.64881500  0.24342600  0.03227800  1
  O  O69  1  0.35118500  0.75657400  0.96772200  1
  O  O70  1  0.75657400  0.35118500  0.46772100  1
  O  O71  1  0.24342600  0.64881500  0.53227800  1
  O  O72  1  0.32918000  0.01520200  0.20706300  1
  O  O73  1  0.67082000  0.98479800  0.79293700  1
  O  O74  1  0.98479800  0.67082000  0.29293700  1
  O  O75  1  0.01520200  0.32918000  0.70706300  1
  O  O76  1  0.72072000  0.94177500  0.30333800  1
  O  O77  1  0.27928000  0.05822500  0.69666200  1
  O  O78  1  0.05822500  0.27928000  0.19666200  1
  O  O79  1  0.94177500  0.72072000  0.80333800  1
  O  O80  1  0.45781800  0.76073700  0.13084800  1
  O  O81  1  0.54218200  0.23926300  0.86915200  1
  O  O82  1  0.23926300  0.54218200  0.36915200  1
  O  O83  1  0.76073700  0.45781800  0.63084800  1
  O  O84  1  0.47923000  0.76264700  0.39015200  1
  O  O85  1  0.52077000  0.23735300  0.60984800  1
  O  O86  1  0.23735300  0.52076900  0.10984800  1
  O  O87  1  0.76264700  0.47923100  0.89015200  1
  O  O88  1  0.01997300  0.00993300  0.12055200  1
  O  O89  1  0.98002700  0.99006700  0.87944800  1
  O  O90  1  0.99006700  0.98002700  0.37944800  1
  O  O91  1  0.00993300  0.01997300  0.62055200  1
  O  O92  1  0.74981900  0.15043700  0.18992900  1
  O  O93  1  0.25018100  0.84956300  0.81007100  1
  O  O94  1  0.84956300  0.25018100  0.31007100  1
  O  O95  1  0.15043700  0.74981900  0.68992900  1
