# generated using pymatgen
data_Al4Re12B
_symmetry_space_group_name_H-M   'P 1'
_cell_length_a   19.24861190
_cell_length_b   19.24861190
_cell_length_c   19.24861190
_cell_angle_alpha   60.00000000
_cell_angle_beta   60.00000000
_cell_angle_gamma   60.00000000
_symmetry_Int_Tables_number   1
_chemical_formula_structural   Al4Re12B
_chemical_formula_sum   'Al8 Re24 B2'
_cell_volume   5042.93360495
_cell_formula_units_Z   2
loop_
 _symmetry_equiv_pos_site_id
 _symmetry_equiv_pos_as_xyz
  1  'x, y, z'
loop_
 _atom_site_type_symbol
 _atom_site_label
 _atom_site_symmetry_multiplicity
 _atom_site_fract_x
 _atom_site_fract_y
 _atom_site_fract_z
 _atom_site_occupancy
  Al  Al0  1  0.20567300  0.20567300  0.20567300  1
  Al  Al1  1  0.20567300  0.20567300  0.38298200  1
  Al  Al2  1  0.20567300  0.38298200  0.20567300  1
  Al  Al3  1  0.04432700  0.04432700  0.86701800  1
  Al  Al4  1  0.04432700  0.04432700  0.04432700  1
  Al  Al5  1  0.38298200  0.20567300  0.20567300  1
  Al  Al6  1  0.04432700  0.86701800  0.04432700  1
  Al  Al7  1  0.86701800  0.04432700  0.04432700  1
  Re  Re8  1  0.80518800  0.43773500  0.43773500  1
  Re  Re9  1  0.43773500  0.80518800  0.31934200  1
  Re  Re10  1  0.43773500  0.31934200  0.80518800  1
  Re  Re11  1  0.43773500  0.80518800  0.43773500  1
  Re  Re12  1  0.44481200  0.81226500  0.93065800  1
  Re  Re13  1  0.44481200  0.81226500  0.81226500  1
  Re  Re14  1  0.31934200  0.43773500  0.43773500  1
  Re  Re15  1  0.31934200  0.43773500  0.80518800  1
  Re  Re16  1  0.81226500  0.44481200  0.81226500  1
  Re  Re17  1  0.81226500  0.44481200  0.93065800  1
  Re  Re18  1  0.80518800  0.43773500  0.31934200  1
  Re  Re19  1  0.81226500  0.93065800  0.81226500  1
  Re  Re20  1  0.81226500  0.93065800  0.44481200  1
  Re  Re21  1  0.43773500  0.31934200  0.43773500  1
  Re  Re22  1  0.93065800  0.81226500  0.44481200  1
  Re  Re23  1  0.93065800  0.81226500  0.81226500  1
  Re  Re24  1  0.43773500  0.43773500  0.80518800  1
  Re  Re25  1  0.31934200  0.80518800  0.43773500  1
  Re  Re26  1  0.43773500  0.43773500  0.31934200  1
  Re  Re27  1  0.80518800  0.31934200  0.43773500  1
  Re  Re28  1  0.93065800  0.44481200  0.81226500  1
  Re  Re29  1  0.81226500  0.81226500  0.44481200  1
  Re  Re30  1  0.44481200  0.93065800  0.81226500  1
  Re  Re31  1  0.81226500  0.81226500  0.93065800  1
  B  B32  1  0.00000000  0.00000000  0.00000000  1
  B  B33  1  0.25000000  0.25000000  0.25000000  1
