# generated using pymatgen
data_Ca3(Fe3O5)5
_symmetry_space_group_name_H-M   'P 1'
_cell_length_a   6.07594828
_cell_length_b   6.07522337
_cell_length_c   32.12581705
_cell_angle_alpha   84.54475002
_cell_angle_beta   84.57372328
_cell_angle_gamma   59.99605277
_symmetry_Int_Tables_number   1
_chemical_formula_structural   Ca3(Fe3O5)5
_chemical_formula_sum   'Ca6 Fe30 O50'
_cell_volume   1020.76378729
_cell_formula_units_Z   2
loop_
 _symmetry_equiv_pos_site_id
 _symmetry_equiv_pos_as_xyz
  1  'x, y, z'
loop_
 _atom_site_type_symbol
 _atom_site_label
 _atom_site_symmetry_multiplicity
 _atom_site_fract_x
 _atom_site_fract_y
 _atom_site_fract_z
 _atom_site_occupancy
  Ca  Ca0  1  0.92508742  0.97089442  0.08674908  1
  Ca  Ca1  1  0.98273093  0.02910558  0.91325092  1
  Ca  Ca2  1  0.81831923  0.86455340  0.40687760  1
  Ca  Ca3  1  0.08975023  0.13544660  0.59312240  1
  Ca  Ca4  1  0.25533006  0.29970315  0.09936619  1
  Ca  Ca5  1  0.65439940  0.70029685  0.90063381  1
  Fe  Fe6  1  0.74221268  0.26946325  0.17223900  1
  Fe  Fe7  1  0.18391493  0.73053675  0.82776100  1
  Fe  Fe8  1  0.21477753  0.25662523  0.22787494  1
  Fe  Fe9  1  0.69927770  0.74337477  0.77212506  1
  Fe  Fe10  1  0.61269622  -0.00000000  0.00000000  1
  Fe  Fe11  1  0.33303771  0.89600486  0.32885856  1
  Fe  Fe12  1  0.55790114  0.10399514  0.67114144  1
  Fe  Fe13  1  0.53824105  0.58292557  0.24982908  1
  Fe  Fe14  1  0.37099571  0.41707443  0.75017092  1
  Fe  Fe15  1  0.34970746  0.37836277  0.32894668  1
  Fe  Fe16  1  0.05701690  0.62163723  0.67105332  1
  Fe  Fe17  1  0.86304923  0.90919418  0.27191903  1
  Fe  Fe18  1  0.04416243  0.09080582  0.72808097  1
  Fe  Fe19  1  0.22717035  0.77173967  0.17214657  1
  Fe  Fe20  1  0.17105659  0.22826033  0.82785343  1
  Fe  Fe21  1  0.45295883  0.15880618  0.50003409  1
  Fe  Fe22  1  0.11179910  0.84119382  0.49996591  1
  Fe  Fe23  1  0.80281409  0.50000000  0.50000000  1
  Fe  Fe24  1  0.95066454  0.33845165  0.99990026  1
  Fe  Fe25  1  0.28901645  0.66154835  0.00009974  1
  Fe  Fe26  1  0.68627902  0.21531539  0.82753728  1
  Fe  Fe27  1  0.72913169  0.78468461  0.17246272  1
  Fe  Fe28  1  0.75547628  0.80212416  0.59328020  1
  Fe  Fe29  1  0.15088064  0.19787584  0.40671980  1
  Fe  Fe30  1  0.59491679  0.64135128  0.07591101  1
  Fe  Fe31  1  0.31217908  0.35864872  0.92408899  1
  Fe  Fe32  1  0.47951196  0.52327141  0.42616434  1
  Fe  Fe33  1  0.42894771  0.47672859  0.57383566  1
  Fe  Fe34  1  0.57463886  0.60514854  0.67118639  1
  Fe  Fe35  1  0.85097379  0.39485146  0.32881361  1
  O  O36  1  0.70525500  0.54757943  0.56287330  1
  O  O37  1  0.81570772  0.45242057  0.43712670  1
  O  O38  1  0.88553047  0.92840543  0.21257293  1
  O  O39  1  0.02650882  0.07159457  0.78742707  1
  O  O40  1  0.19033484  0.23607446  0.29158430  1
  O  O41  1  0.71799360  0.76392554  0.70841570  1
  O  O42  1  0.50191675  0.13835399  0.56275738  1
  O  O43  1  0.20302811  0.86164601  0.43724262  1
  O  O44  1  0.07224985  0.09885480  0.14166126  1
  O  O45  1  0.31276591  0.90114520  0.85833874  1
  O  O46  1  0.79148264  0.85950007  0.48787773  1
  O  O47  1  0.13886044  0.14049993  0.51212227  1
  O  O48  1  0.40628306  0.24613510  0.43712530  1
  O  O49  1  0.08954345  0.75386490  0.56287470  1
  O  O50  1  0.21203156  0.72376818  0.29090996  1
  O  O51  1  0.22670969  0.27623182  0.70909004  1
  O  O52  1  0.30111754  0.63680313  0.06156121  1
  O  O53  1  -0.00051812  0.36319687  0.93843879  1
  O  O54  1  0.46583793  0.04914227  0.36355166  1
  O  O55  1  0.87853186  0.95085773  0.63644834  1
  O  O56  1  0.39932179  0.89911102  0.21213987  1
  O  O57  1  0.51057268  0.10088898  0.78786013  1
  O  O58  1  0.59909320  0.11549386  0.14179700  1
  O  O59  1  0.85638406  0.88450614  0.85820300  1
  O  O60  1  0.57702817  0.61969934  0.13917788  1
  O  O61  1  0.33590540  0.38030066  0.86082212  1
  O  O62  1  0.44161254  0.92607774  0.63646198  1
  O  O63  1  0.00415226  0.07392226  0.36353802  1
  O  O64  1  0.60550493  0.04693933  0.93840257  1
  O  O65  1  0.59084683  0.95306067  0.06159743  1
  O  O66  1  0.90639688  0.34781292  0.06142036  1
  O  O67  1  0.31563016  0.65218708  0.93857964  1
  O  O68  1  0.67805697  0.72651463  0.29097858  1
  O  O69  1  0.69555018  0.27348537  0.70902142  1
  O  O70  1  0.95023887  0.00000000  0.00000000  1
  O  O71  1  0.51126821  0.55621788  0.78764309  1
  O  O72  1  0.85512919  0.44378212  0.21235691  1
  O  O73  1  0.90361666  0.48866161  0.63648226  1
  O  O74  1  0.02876052  0.51133839  0.36351774  1
  O  O75  1  0.40089795  0.44281892  0.21215965  1
  O  O76  1  0.05587652  0.55718108  0.78784035  1
  O  O77  1  0.28417878  0.33203889  0.00223468  1
  O  O78  1  0.61845236  0.66796111  0.99776532  1
  O  O79  1  0.50006987  0.54507816  0.36220171  1
  O  O80  1  0.40734975  0.45492184  0.63779829  1
  O  O81  1  0.68122942  0.25737378  0.29101438  1
  O  O82  1  0.22961759  0.74262622  0.70898562  1
  O  O83  1  0.43451488  0.50000000  0.50000000  1
  O  O84  1  0.05587063  0.64199280  0.14191449  1
  O  O85  1  0.83977791  0.35800720  0.85808551  1
