# generated using pymatgen
data_ZrTaCo4
_symmetry_space_group_name_H-M   'P 1'
_cell_length_a   4.83010076
_cell_length_b   4.83010076
_cell_length_c   4.83010076
_cell_angle_alpha   60.00000000
_cell_angle_beta   60.00000000
_cell_angle_gamma   60.00000000
_symmetry_Int_Tables_number   1
_chemical_formula_structural   ZrTaCo4
_chemical_formula_sum   'Zr1 Ta1 Co4'
_cell_volume   79.68077940
_cell_formula_units_Z   1
loop_
 _symmetry_equiv_pos_site_id
 _symmetry_equiv_pos_as_xyz
  1  'x, y, z'
loop_
 _atom_site_type_symbol
 _atom_site_label
 _atom_site_symmetry_multiplicity
 _atom_site_fract_x
 _atom_site_fract_y
 _atom_site_fract_z
 _atom_site_occupancy
  Zr  Zr0  1  0.00000000  0.00000000  0.00000000  1
  Ta  Ta1  1  0.25000000  0.25000000  0.25000000  1
  Co  Co2  1  0.62489900  0.62489900  0.12530300  1
  Co  Co3  1  0.62489900  0.12530300  0.62489900  1
  Co  Co4  1  0.12530300  0.62489900  0.62489900  1
  Co  Co5  1  0.62489900  0.62489900  0.62489900  1
