# generated using pymatgen
data_ZrNb2VC4
_symmetry_space_group_name_H-M   'P 1'
_cell_length_a   10.47576035
_cell_length_b   10.47576035
_cell_length_c   10.47575991
_cell_angle_alpha   17.41568615
_cell_angle_beta   17.41568615
_cell_angle_gamma   17.41569069
_symmetry_Int_Tables_number   1
_chemical_formula_structural   ZrNb2VC4
_chemical_formula_sum   'Zr1 Nb2 V1 C4'
_cell_volume   89.87463297
_cell_formula_units_Z   1
loop_
 _symmetry_equiv_pos_site_id
 _symmetry_equiv_pos_as_xyz
  1  'x, y, z'
loop_
 _atom_site_type_symbol
 _atom_site_label
 _atom_site_symmetry_multiplicity
 _atom_site_fract_x
 _atom_site_fract_y
 _atom_site_fract_z
 _atom_site_occupancy
  Zr  Zr0  1  0.12197900  0.12197900  0.12197900  1
  Nb  Nb1  1  0.87680600  0.87680600  0.87680600  1
  Nb  Nb2  1  0.62804500  0.62804500  0.62804500  1
  V  V3  1  0.37287600  0.37287600  0.37287600  1
  C  C4  1  0.50154900  0.50154900  0.50154900  1
  C  C5  1  0.25224300  0.25224300  0.25224300  1
  C  C6  1  0.00325200  0.00325200  0.00325200  1
  C  C7  1  0.74324900  0.74324900  0.74324900  1
