# generated using pymatgen
data_ZrScMnNi3
_symmetry_space_group_name_H-M   'P 1'
_cell_length_a   4.93594301
_cell_length_b   4.93594301
_cell_length_c   4.93594390
_cell_angle_alpha   60.13753208
_cell_angle_beta   60.13753208
_cell_angle_gamma   60.13752835
_symmetry_Int_Tables_number   1
_chemical_formula_structural   ZrScMnNi3
_chemical_formula_sum   'Zr1 Sc1 Mn1 Ni3'
_cell_volume   85.29948564
_cell_formula_units_Z   1
loop_
 _symmetry_equiv_pos_site_id
 _symmetry_equiv_pos_as_xyz
  1  'x, y, z'
loop_
 _atom_site_type_symbol
 _atom_site_label
 _atom_site_symmetry_multiplicity
 _atom_site_fract_x
 _atom_site_fract_y
 _atom_site_fract_z
 _atom_site_occupancy
  Zr  Zr0  1  0.99966300  0.99966300  0.99966300  1
  Sc  Sc1  1  0.25018200  0.25018200  0.25018200  1
  Mn  Mn2  1  0.62487500  0.62487500  0.62487500  1
  Ni  Ni3  1  0.62496800  0.12534500  0.62496800  1
  Ni  Ni4  1  0.12534500  0.62496800  0.62496800  1
  Ni  Ni5  1  0.62496800  0.62496800  0.12534500  1
