# generated using pymatgen
data_ZrMo2
_symmetry_space_group_name_H-M   'P 1'
_cell_length_a   7.26905666
_cell_length_b   7.05171879
_cell_length_c   2.89611771
_cell_angle_alpha   82.57967698
_cell_angle_beta   74.14931641
_cell_angle_gamma   23.27100662
_symmetry_Int_Tables_number   1
_chemical_formula_structural   ZrMo2
_chemical_formula_sum   'Zr1 Mo2'
_cell_volume   53.44682536
_cell_formula_units_Z   1
loop_
 _symmetry_equiv_pos_site_id
 _symmetry_equiv_pos_as_xyz
  1  'x, y, z'
loop_
 _atom_site_type_symbol
 _atom_site_label
 _atom_site_symmetry_multiplicity
 _atom_site_fract_x
 _atom_site_fract_y
 _atom_site_fract_z
 _atom_site_occupancy
  Zr  Zr0  1  0.00000000  0.00000000  0.00000000  1
  Mo  Mo1  1  0.32439500  0.32439500  0.67560500  1
  Mo  Mo2  1  0.67560500  0.67560500  0.32439500  1
