# generated using pymatgen
data_ZrTi2Al
_symmetry_space_group_name_H-M   'P 1'
_cell_length_a   5.93029690
_cell_length_b   5.93029690
_cell_length_c   4.79499600
_cell_angle_alpha   90.00000000
_cell_angle_beta   90.00000000
_cell_angle_gamma   119.94040478
_symmetry_Int_Tables_number   1
_chemical_formula_structural   ZrTi2Al
_chemical_formula_sum   'Zr2 Ti4 Al2'
_cell_volume   146.12759767
_cell_formula_units_Z   2
loop_
 _symmetry_equiv_pos_site_id
 _symmetry_equiv_pos_as_xyz
  1  'x, y, z'
loop_
 _atom_site_type_symbol
 _atom_site_label
 _atom_site_symmetry_multiplicity
 _atom_site_fract_x
 _atom_site_fract_y
 _atom_site_fract_z
 _atom_site_occupancy
  Zr  Zr0  1  0.33574400  0.16638500  0.50000000  1
  Zr  Zr1  1  0.83361500  0.66425600  0.50000000  1
  Ti  Ti2  1  0.83099600  0.16900400  0.50000000  1
  Ti  Ti3  1  0.65568300  0.83530300  0.00000000  1
  Ti  Ti4  1  0.16469700  0.34431700  0.00000000  1
  Ti  Ti5  1  0.17407600  0.82592400  0.00000000  1
  Al  Al6  1  0.33372400  0.66627600  0.50000000  1
  Al  Al7  1  0.67125900  0.32874100  0.00000000  1
