# generated using pymatgen
data_ZrMoWO8
_symmetry_space_group_name_H-M   'P 1'
_cell_length_a   5.96163174
_cell_length_b   5.96161458
_cell_length_c   6.47292900
_cell_angle_alpha   90.00003756
_cell_angle_beta   90.00029476
_cell_angle_gamma   119.99995743
_symmetry_Int_Tables_number   1
_chemical_formula_structural   ZrMoWO8
_chemical_formula_sum   'Zr1 Mo1 W1 O8'
_cell_volume   199.23273768
_cell_formula_units_Z   1
loop_
 _symmetry_equiv_pos_site_id
 _symmetry_equiv_pos_as_xyz
  1  'x, y, z'
loop_
 _atom_site_type_symbol
 _atom_site_label
 _atom_site_symmetry_multiplicity
 _atom_site_fract_x
 _atom_site_fract_y
 _atom_site_fract_z
 _atom_site_occupancy
  Zr  Zr0  1  0.00000000  0.00000000  0.00224600  1
  Mo  Mo1  1  0.33333700  0.66666800  0.28159200  1
  W  W2  1  0.66666200  0.33333100  0.71817100  1
  O  O3  1  0.33333900  0.66667000  0.54872100  1
  O  O4  1  0.66666100  0.33333000  0.44709900  1
  O  O5  1  0.66472800  0.83236400  0.18648400  1
  O  O6  1  0.16763900  0.83236300  0.18648500  1
  O  O7  1  0.16763900  0.33527600  0.18648500  1
  O  O8  1  0.33239800  0.16619900  0.81424000  1
  O  O9  1  0.83379800  0.16619900  0.81423900  1
  O  O10  1  0.83379800  0.66759900  0.81424000  1
