# generated using pymatgen
data_ZrCrMo
_symmetry_space_group_name_H-M   'P 1'
_cell_length_a   5.23113779
_cell_length_b   5.23113779
_cell_length_c   5.23113779
_cell_angle_alpha   120.56175399
_cell_angle_beta   118.95057318
_cell_angle_gamma   90.42848012
_symmetry_Int_Tables_number   1
_chemical_formula_structural   ZrCrMo
_chemical_formula_sum   'Zr2 Cr2 Mo2'
_cell_volume   101.56677491
_cell_formula_units_Z   2
loop_
 _symmetry_equiv_pos_site_id
 _symmetry_equiv_pos_as_xyz
  1  'x, y, z'
loop_
 _atom_site_type_symbol
 _atom_site_label
 _atom_site_symmetry_multiplicity
 _atom_site_fract_x
 _atom_site_fract_y
 _atom_site_fract_z
 _atom_site_occupancy
  Zr  Zr0  1  0.37301000  0.12301000  0.25000000  1
  Zr  Zr1  1  0.62699000  0.87699000  0.75000000  1
  Cr  Cr2  1  0.00000000  0.50000000  0.00000000  1
  Cr  Cr3  1  0.00000000  0.00000000  0.50000000  1
  Mo  Mo4  1  0.50000000  0.50000000  0.00000000  1
  Mo  Mo5  1  0.00000000  0.50000000  0.50000000  1
