# generated using pymatgen
data_ZrCrW
_symmetry_space_group_name_H-M   'P 1'
_cell_length_a   5.23980480
_cell_length_b   5.23980480
_cell_length_c   5.23980480
_cell_angle_alpha   120.48064397
_cell_angle_beta   118.83304375
_cell_angle_gamma   90.60125963
_symmetry_Int_Tables_number   1
_chemical_formula_structural   ZrCrW
_chemical_formula_sum   'Zr2 Cr2 W2'
_cell_volume   102.22106585
_cell_formula_units_Z   2
loop_
 _symmetry_equiv_pos_site_id
 _symmetry_equiv_pos_as_xyz
  1  'x, y, z'
loop_
 _atom_site_type_symbol
 _atom_site_label
 _atom_site_symmetry_multiplicity
 _atom_site_fract_x
 _atom_site_fract_y
 _atom_site_fract_z
 _atom_site_occupancy
  Zr  Zr0  1  0.37314200  0.12314200  0.25000000  1
  Zr  Zr1  1  0.62685800  0.87685800  0.75000000  1
  Cr  Cr2  1  0.00000000  0.50000000  0.00000000  1
  Cr  Cr3  1  0.00000000  0.00000000  0.50000000  1
  W  W4  1  0.50000000  0.50000000  0.00000000  1
  W  W5  1  0.00000000  0.50000000  0.50000000  1
