# generated using pymatgen
data_ZrTiFe4
_symmetry_space_group_name_H-M   'P 1'
_cell_length_a   4.91135462
_cell_length_b   4.91135462
_cell_length_c   7.93666648
_cell_angle_alpha   89.96367840
_cell_angle_beta   90.03632160
_cell_angle_gamma   119.98392368
_symmetry_Int_Tables_number   1
_chemical_formula_structural   ZrTiFe4
_chemical_formula_sum   'Zr2 Ti2 Fe8'
_cell_volume   165.82177637
_cell_formula_units_Z   2
loop_
 _symmetry_equiv_pos_site_id
 _symmetry_equiv_pos_as_xyz
  1  'x, y, z'
loop_
 _atom_site_type_symbol
 _atom_site_label
 _atom_site_symmetry_multiplicity
 _atom_site_fract_x
 _atom_site_fract_y
 _atom_site_fract_z
 _atom_site_occupancy
  Zr  Zr0  1  0.33334300  0.66665700  0.07048600  1
  Zr  Zr1  1  0.66665700  0.33334300  0.92951400  1
  Ti  Ti2  1  0.66662200  0.33337800  0.55176600  1
  Ti  Ti3  1  0.33337800  0.66662200  0.44823400  1
  Fe  Fe4  1  0.00000000  0.00000000  0.50000000  1
  Fe  Fe5  1  0.00000000  0.00000000  0.00000000  1
  Fe  Fe6  1  0.16865000  0.33734100  0.74309000  1
  Fe  Fe7  1  0.16867500  0.83132500  0.74292700  1
  Fe  Fe8  1  0.66265900  0.83135000  0.74309000  1
  Fe  Fe9  1  0.83135000  0.66265900  0.25691000  1
  Fe  Fe10  1  0.83132500  0.16867500  0.25707300  1
  Fe  Fe11  1  0.33734100  0.16865000  0.25691000  1
