# generated using pymatgen
data_ZrMn(CuS2)2
_symmetry_space_group_name_H-M   'P 1'
_cell_length_a   4.73491536
_cell_length_b   6.52175776
_cell_length_c   6.21481386
_cell_angle_alpha   64.95204901
_cell_angle_beta   90.05401962
_cell_angle_gamma   68.71975347
_symmetry_Int_Tables_number   1
_chemical_formula_structural   ZrMn(CuS2)2
_chemical_formula_sum   'Zr1 Mn1 Cu2 S4'
_cell_volume   159.26991440
_cell_formula_units_Z   1
loop_
 _symmetry_equiv_pos_site_id
 _symmetry_equiv_pos_as_xyz
  1  'x, y, z'
loop_
 _atom_site_type_symbol
 _atom_site_label
 _atom_site_symmetry_multiplicity
 _atom_site_fract_x
 _atom_site_fract_y
 _atom_site_fract_z
 _atom_site_occupancy
  Zr  Zr0  1  0.47798700  0.04381700  0.81748800  1
  Mn  Mn1  1  0.25877400  0.48261900  0.23181500  1
  Cu  Cu2  1  0.08570600  0.82806400  0.70573800  1
  Cu  Cu3  1  0.67484400  0.65503700  0.40969700  1
  S  S4  1  0.72024700  0.55884700  0.10114500  1
  S  S5  1  0.24356700  0.51030600  0.61276700  1
  S  S6  1  0.49095400  0.01715600  0.44421700  1
  S  S7  1  0.00112100  0.99765400  0.96373300  1
