# generated using pymatgen
data_Zr2Ga(PO4)3
_symmetry_space_group_name_H-M   'P 1'
_cell_length_a   9.54692962
_cell_length_b   9.54692962
_cell_length_c   9.54692994
_cell_angle_alpha   55.40799456
_cell_angle_beta   55.40799456
_cell_angle_gamma   55.40799459
_symmetry_Int_Tables_number   1
_chemical_formula_structural   Zr2Ga(PO4)3
_chemical_formula_sum   'Zr4 Ga2 P6 O24'
_cell_volume   549.65842145
_cell_formula_units_Z   2
loop_
 _symmetry_equiv_pos_site_id
 _symmetry_equiv_pos_as_xyz
  1  'x, y, z'
loop_
 _atom_site_type_symbol
 _atom_site_label
 _atom_site_symmetry_multiplicity
 _atom_site_fract_x
 _atom_site_fract_y
 _atom_site_fract_z
 _atom_site_occupancy
  Zr  Zr0  1  0.35068900  0.35068900  0.35068900  1
  Zr  Zr1  1  0.85068900  0.85068900  0.85068900  1
  Zr  Zr2  1  0.64931100  0.64931100  0.64931100  1
  Zr  Zr3  1  0.14931100  0.14931100  0.14931100  1
  Ga  Ga4  1  0.50000000  0.50000000  0.50000000  1
  Ga  Ga5  1  0.00000000  0.00000000  0.00000000  1
  P  P6  1  0.96250400  0.53749600  0.25000000  1
  P  P7  1  0.25000000  0.96250400  0.53749600  1
  P  P8  1  0.53749600  0.25000000  0.96250400  1
  P  P9  1  0.75000000  0.03749600  0.46250400  1
  P  P10  1  0.46250400  0.75000000  0.03749600  1
  P  P11  1  0.03749600  0.46250400  0.75000000  1
  O  O12  1  0.13180800  0.51093800  0.26095300  1
  O  O13  1  0.26095300  0.13180800  0.51093800  1
  O  O14  1  0.51093800  0.26095300  0.13180800  1
  O  O15  1  0.76095300  0.01093800  0.63180800  1
  O  O16  1  0.63180800  0.76095300  0.01093800  1
  O  O17  1  0.01093800  0.63180800  0.76095300  1
  O  O18  1  0.86819200  0.48906200  0.73904700  1
  O  O19  1  0.73904700  0.86819200  0.48906200  1
  O  O20  1  0.48906200  0.73904700  0.86819200  1
  O  O21  1  0.23904700  0.98906200  0.36819200  1
  O  O22  1  0.36819200  0.23904700  0.98906200  1
  O  O23  1  0.98906200  0.36819200  0.23904700  1
  O  O24  1  0.20620000  0.43022300  0.57804200  1
  O  O25  1  0.57804200  0.20620000  0.43022300  1
  O  O26  1  0.43022300  0.57804200  0.20620000  1
  O  O27  1  0.07804200  0.93022300  0.70620000  1
  O  O28  1  0.70620000  0.07804200  0.93022300  1
  O  O29  1  0.93022300  0.70620000  0.07804200  1
  O  O30  1  0.79380000  0.56977700  0.42195800  1
  O  O31  1  0.42195800  0.79380000  0.56977700  1
  O  O32  1  0.56977700  0.42195800  0.79380000  1
  O  O33  1  0.92195800  0.06977700  0.29380000  1
  O  O34  1  0.29380000  0.92195800  0.06977700  1
  O  O35  1  0.06977700  0.29380000  0.92195800  1
