# generated using pymatgen
data_Zr6P2O
_symmetry_space_group_name_H-M   'P 1'
_cell_length_a   5.70745844
_cell_length_b   5.70745844
_cell_length_c   8.43286557
_cell_angle_alpha   88.20694991
_cell_angle_beta   88.20694991
_cell_angle_gamma   36.09626437
_symmetry_Int_Tables_number   1
_chemical_formula_structural   Zr6P2O
_chemical_formula_sum   'Zr6 P2 O1'
_cell_volume   161.75086735
_cell_formula_units_Z   1
loop_
 _symmetry_equiv_pos_site_id
 _symmetry_equiv_pos_as_xyz
  1  'x, y, z'
loop_
 _atom_site_type_symbol
 _atom_site_label
 _atom_site_symmetry_multiplicity
 _atom_site_fract_x
 _atom_site_fract_y
 _atom_site_fract_z
 _atom_site_occupancy
  Zr  Zr0  1  0.86167100  0.86167100  0.54979000  1
  Zr  Zr1  1  0.13832900  0.13832900  0.45021000  1
  Zr  Zr2  1  0.85979500  0.85979500  0.94144600  1
  Zr  Zr3  1  0.14020500  0.14020500  0.05855400  1
  Zr  Zr4  1  0.56267600  0.56267600  0.75442000  1
  Zr  Zr5  1  0.43732400  0.43732400  0.24558000  1
  P  P6  1  0.25351000  0.25351000  0.75130400  1
  P  P7  1  0.74649000  0.74649000  0.24869600  1
  O  O8  1  0.50000000  0.50000000  0.50000000  1
