# generated using pymatgen
data_ZrCu(PO6)2
_symmetry_space_group_name_H-M   'P 1'
_cell_length_a   5.38142900
_cell_length_b   5.40249752
_cell_length_c   9.43593988
_cell_angle_alpha   99.24467948
_cell_angle_beta   85.53507829
_cell_angle_gamma   119.45086842
_symmetry_Int_Tables_number   1
_chemical_formula_structural   ZrCu(PO6)2
_chemical_formula_sum   'Zr1 Cu1 P2 O12'
_cell_volume   235.77967208
_cell_formula_units_Z   1
loop_
 _symmetry_equiv_pos_site_id
 _symmetry_equiv_pos_as_xyz
  1  'x, y, z'
loop_
 _atom_site_type_symbol
 _atom_site_label
 _atom_site_symmetry_multiplicity
 _atom_site_fract_x
 _atom_site_fract_y
 _atom_site_fract_z
 _atom_site_occupancy
  Zr  Zr0  1  0.00000000  0.00000000  0.00000000  1
  Cu  Cu1  1  0.50000000  0.50000000  0.50000000  1
  P  P2  1  0.33663800  0.60606600  0.81978900  1
  P  P3  1  0.66336200  0.39393400  0.18021100  1
  O  O4  1  0.24203900  0.31243000  0.86659100  1
  O  O5  1  0.75796100  0.68757000  0.13340900  1
  O  O6  1  0.08383400  0.14431500  0.42961000  1
  O  O7  1  0.91616600  0.85568500  0.57039000  1
  O  O8  1  0.28645300  0.57315900  0.65418400  1
  O  O9  1  0.71354700  0.42684100  0.34581600  1
  O  O10  1  0.14701300  0.73060000  0.88981400  1
  O  O11  1  0.85298700  0.26940000  0.11018600  1
  O  O12  1  0.55679800  0.82202800  0.43377100  1
  O  O13  1  0.44320200  0.17797200  0.56622900  1
  O  O14  1  0.65258800  0.81255700  0.85709000  1
  O  O15  1  0.34741200  0.18744300  0.14291000  1
