# generated using pymatgen
data_Zr4FeCo
_symmetry_space_group_name_H-M   'P 1'
_cell_length_a   5.27101135
_cell_length_b   5.27101135
_cell_length_c   5.27101135
_cell_angle_alpha   106.75675012
_cell_angle_beta   106.75675012
_cell_angle_gamma   115.04828214
_symmetry_Int_Tables_number   1
_chemical_formula_structural   Zr4FeCo
_chemical_formula_sum   'Zr4 Fe1 Co1'
_cell_volume   111.92637416
_cell_formula_units_Z   1
loop_
 _symmetry_equiv_pos_site_id
 _symmetry_equiv_pos_as_xyz
  1  'x, y, z'
loop_
 _atom_site_type_symbol
 _atom_site_label
 _atom_site_symmetry_multiplicity
 _atom_site_fract_x
 _atom_site_fract_y
 _atom_site_fract_z
 _atom_site_occupancy
  Zr  Zr0  1  0.92764000  0.42764000  0.85527900  1
  Zr  Zr1  1  0.57236000  0.07236000  0.14472100  1
  Zr  Zr2  1  0.07236000  0.92764000  0.50000000  1
  Zr  Zr3  1  0.42764000  0.57236000  0.50000000  1
  Fe  Fe4  1  0.50000000  0.50000000  0.00000000  1
  Co  Co5  1  0.00000000  0.00000000  0.00000000  1
