# generated using pymatgen
data_Zr4CoNi
_symmetry_space_group_name_H-M   'P 1'
_cell_length_a   5.30408692
_cell_length_b   5.30408692
_cell_length_c   5.30408692
_cell_angle_alpha   104.90889663
_cell_angle_beta   104.90889663
_cell_angle_gamma   119.04093118
_symmetry_Int_Tables_number   1
_chemical_formula_structural   Zr4CoNi
_chemical_formula_sum   'Zr4 Co1 Ni1'
_cell_volume   112.43221426
_cell_formula_units_Z   1
loop_
 _symmetry_equiv_pos_site_id
 _symmetry_equiv_pos_as_xyz
  1  'x, y, z'
loop_
 _atom_site_type_symbol
 _atom_site_label
 _atom_site_symmetry_multiplicity
 _atom_site_fract_x
 _atom_site_fract_y
 _atom_site_fract_z
 _atom_site_occupancy
  Zr  Zr0  1  0.91598000  0.41598000  0.83195900  1
  Zr  Zr1  1  0.58402000  0.08402000  0.16804100  1
  Zr  Zr2  1  0.08402000  0.91598000  0.50000000  1
  Zr  Zr3  1  0.41598000  0.58402000  0.50000000  1
  Co  Co4  1  0.00000000  0.00000000  0.00000000  1
  Ni  Ni5  1  0.50000000  0.50000000  0.00000000  1
