# generated using pymatgen
data_ZrH8C2S(OF2)2
_symmetry_space_group_name_H-M   'P 1'
_cell_length_a   7.93587756
_cell_length_b   7.93587756
_cell_length_c   15.74445100
_cell_angle_alpha   90.00000000
_cell_angle_beta   90.00000000
_cell_angle_gamma   119.00655761
_symmetry_Int_Tables_number   1
_chemical_formula_structural   ZrH8C2S(OF2)2
_chemical_formula_sum   'Zr4 H32 C8 S4 O8 F16'
_cell_volume   867.17977710
_cell_formula_units_Z   4
loop_
 _symmetry_equiv_pos_site_id
 _symmetry_equiv_pos_as_xyz
  1  'x, y, z'
loop_
 _atom_site_type_symbol
 _atom_site_label
 _atom_site_symmetry_multiplicity
 _atom_site_fract_x
 _atom_site_fract_y
 _atom_site_fract_z
 _atom_site_occupancy
  Zr  Zr0  1  0.52635700  0.46803700  0.88624700  1
  Zr  Zr1  1  0.46803700  0.52635700  0.11375300  1
  Zr  Zr2  1  0.96803700  0.02635700  0.38624700  1
  Zr  Zr3  1  0.02635700  0.96803700  0.61375300  1
  H  H4  1  0.80841000  0.20804700  0.06585200  1
  H  H5  1  0.20804700  0.80841000  0.93414800  1
  H  H6  1  0.70804700  0.30841000  0.56585200  1
  H  H7  1  0.30841000  0.70804700  0.43414800  1
  H  H8  1  0.76982300  0.01245300  0.99552100  1
  H  H9  1  0.01245300  0.76982300  0.00447900  1
  H  H10  1  0.51245300  0.26982300  0.49552100  1
  H  H11  1  0.26982300  0.51245300  0.50447900  1
  H  H12  1  0.20123500  0.01182700  0.97932000  1
  H  H13  1  0.01182700  0.20123500  0.02068000  1
  H  H14  1  0.51182700  0.70123500  0.47932000  1
  H  H15  1  0.70123500  0.51182700  0.52068000  1
  H  H16  1  0.80501500  0.21484900  0.78023100  1
  H  H17  1  0.21484900  0.80501500  0.21976900  1
  H  H18  1  0.71484900  0.30501500  0.28023100  1
  H  H19  1  0.30501500  0.71484900  0.71976900  1
  H  H20  1  0.76843400  0.01754600  0.84877200  1
  H  H21  1  0.01754600  0.76843400  0.15122800  1
  H  H22  1  0.51754600  0.26843400  0.34877200  1
  H  H23  1  0.26843400  0.51754600  0.65122800  1
  H  H24  1  0.20647500  0.00940100  0.17677400  1
  H  H25  1  0.00940100  0.20647500  0.82322600  1
  H  H26  1  0.50940100  0.70647500  0.67677400  1
  H  H27  1  0.70647500  0.50940100  0.32322600  1
  H  H28  1  0.45886500  0.33706200  0.71173200  1
  H  H29  1  0.33706200  0.45886500  0.28826800  1
  H  H30  1  0.83706200  0.95886500  0.21173200  1
  H  H31  1  0.95886500  0.83706200  0.78826800  1
  H  H32  1  0.53897500  0.66223200  0.28749200  1
  H  H33  1  0.66223200  0.53897500  0.71250800  1
  H  H34  1  0.16223200  0.03897500  0.78749200  1
  H  H35  1  0.03897500  0.16223200  0.21250800  1
  C  C36  1  0.85945600  0.17109800  0.83520000  1
  C  C37  1  0.17109800  0.85945600  0.16480000  1
  C  C38  1  0.67109800  0.35945600  0.33520000  1
  C  C39  1  0.35945600  0.67109800  0.66480000  1
  C  C40  1  0.86109400  0.16560200  0.00990200  1
  C  C41  1  0.16560200  0.86109400  0.99009800  1
  C  C42  1  0.66560200  0.36109400  0.50990200  1
  C  C43  1  0.36109400  0.66560200  0.49009800  1
  S  S44  1  0.86121200  0.31385600  0.92380100  1
  S  S45  1  0.31385600  0.86121200  0.07619900  1
  S  S46  1  0.81385600  0.36121200  0.42380100  1
  S  S47  1  0.36121200  0.81385600  0.57619900  1
  O  O48  1  0.65531600  0.29048700  0.92424500  1
  O  O49  1  0.29048700  0.65531600  0.07575500  1
  O  O50  1  0.79048700  0.15531600  0.42424500  1
  O  O51  1  0.15531600  0.79048700  0.57575500  1
  O  O52  1  0.56683100  0.43073500  0.74792200  1
  O  O53  1  0.43073500  0.56683100  0.25207800  1
  O  O54  1  0.93073500  0.06683100  0.24792200  1
  O  O55  1  0.06683100  0.93073500  0.75207800  1
  F  F56  1  0.64528700  0.64528700  0.00000000  1
  F  F57  1  0.14528700  0.14528700  0.50000000  1
  F  F58  1  0.34914500  0.34914500  0.00000000  1
  F  F59  1  0.84914500  0.84914500  0.50000000  1
  F  F60  1  0.29614700  0.21172900  0.84822600  1
  F  F61  1  0.21172900  0.29614700  0.15177400  1
  F  F62  1  0.71172900  0.79614700  0.34822600  1
  F  F63  1  0.79614700  0.71172900  0.65177400  1
  F  F64  1  0.68747300  0.79116700  0.14898100  1
  F  F65  1  0.79116700  0.68747300  0.85101900  1
  F  F66  1  0.29116700  0.18747300  0.64898100  1
  F  F67  1  0.18747300  0.29116700  0.35101900  1
  F  F68  1  0.38970700  0.61481500  0.86127500  1
  F  F69  1  0.61481500  0.38970700  0.13872500  1
  F  F70  1  0.11481500  0.88970700  0.36127500  1
  F  F71  1  0.88970700  0.11481500  0.63872500  1
