# generated using pymatgen
data_ZrMn(CuSe2)2
_symmetry_space_group_name_H-M   'P 1'
_cell_length_a   6.84452694
_cell_length_b   6.84452694
_cell_length_c   6.61393734
_cell_angle_alpha   66.13758077
_cell_angle_beta   66.13758077
_cell_angle_gamma   39.92236357
_symmetry_Int_Tables_number   1
_chemical_formula_structural   ZrMn(CuSe2)2
_chemical_formula_sum   'Zr1 Mn1 Cu2 Se4'
_cell_volume   179.48422118
_cell_formula_units_Z   1
loop_
 _symmetry_equiv_pos_site_id
 _symmetry_equiv_pos_as_xyz
  1  'x, y, z'
loop_
 _atom_site_type_symbol
 _atom_site_label
 _atom_site_symmetry_multiplicity
 _atom_site_fract_x
 _atom_site_fract_y
 _atom_site_fract_z
 _atom_site_occupancy
  Zr  Zr0  1  0.46994300  0.46994300  0.20228400  1
  Mn  Mn1  1  0.27260700  0.27260700  0.75545100  1
  Cu  Cu2  1  0.10570600  0.10570600  0.22816900  1
  Cu  Cu3  1  0.68104000  0.68104000  0.60189000  1
  Se  Se4  1  0.71254400  0.71254400  0.93736000  1
  Se  Se5  1  0.23988300  0.23988300  0.39853000  1
  Se  Se6  1  0.49346600  0.49346600  0.56137400  1
  Se  Se7  1  0.99273800  0.99273800  0.01244200  1
