# generated using pymatgen
data_NaTi3F7
_symmetry_space_group_name_H-M   'P 1'
_cell_length_a   7.27291809
_cell_length_b   7.27291809
_cell_length_c   7.68833963
_cell_angle_alpha   58.79453314
_cell_angle_beta   58.79453314
_cell_angle_gamma   60.09178783
_symmetry_Int_Tables_number   1
_chemical_formula_structural   NaTi3F7
_chemical_formula_sum   'Na2 Ti6 F14'
_cell_volume   282.40053650
_cell_formula_units_Z   2
loop_
 _symmetry_equiv_pos_site_id
 _symmetry_equiv_pos_as_xyz
  1  'x, y, z'
loop_
 _atom_site_type_symbol
 _atom_site_label
 _atom_site_symmetry_multiplicity
 _atom_site_fract_x
 _atom_site_fract_y
 _atom_site_fract_z
 _atom_site_occupancy
  Na  Na0  1  0.50000000  0.50000000  0.00000000  1
  Na  Na1  1  0.50000000  0.50000000  0.50000000  1
  Ti  Ti2  1  0.50000000  0.00000000  0.00000000  1
  Ti  Ti3  1  0.00000000  0.50000000  0.50000000  1
  Ti  Ti4  1  0.00000000  0.00000000  0.50000000  1
  Ti  Ti5  1  0.00000000  0.00000000  0.00000000  1
  Ti  Ti6  1  0.00000000  0.50000000  0.00000000  1
  Ti  Ti7  1  0.50000000  0.00000000  0.50000000  1
  F  F8  1  0.86318300  0.13681700  0.25000000  1
  F  F9  1  0.13681700  0.86318300  0.75000000  1
  F  F10  1  0.35737600  0.33933000  0.42469700  1
  F  F11  1  0.66067000  0.64262400  0.07530300  1
  F  F12  1  0.64262400  0.66067000  0.57530300  1
  F  F13  1  0.33933000  0.35737600  0.92469700  1
  F  F14  1  0.37306900  0.95709000  0.82874800  1
  F  F15  1  0.04291000  0.62693100  0.67125200  1
  F  F16  1  0.14482900  0.68852200  0.17943100  1
  F  F17  1  0.31147800  0.85517100  0.32056900  1
  F  F18  1  0.85517100  0.31147800  0.82056900  1
  F  F19  1  0.68852200  0.14482900  0.67943100  1
  F  F20  1  0.95709000  0.37306900  0.32874800  1
  F  F21  1  0.62693100  0.04291000  0.17125200  1
