# generated using pymatgen
data_Zr3NbC4
_symmetry_space_group_name_H-M   'P 1'
_cell_length_a   10.95149497
_cell_length_b   10.95149497
_cell_length_c   10.95149466
_cell_angle_alpha   17.32491472
_cell_angle_beta   17.32491472
_cell_angle_gamma   17.32491010
_symmetry_Int_Tables_number   1
_chemical_formula_structural   Zr3NbC4
_chemical_formula_sum   'Zr3 Nb1 C4'
_cell_volume   101.64055167
_cell_formula_units_Z   1
loop_
 _symmetry_equiv_pos_site_id
 _symmetry_equiv_pos_as_xyz
  1  'x, y, z'
loop_
 _atom_site_type_symbol
 _atom_site_label
 _atom_site_symmetry_multiplicity
 _atom_site_fract_x
 _atom_site_fract_y
 _atom_site_fract_z
 _atom_site_occupancy
  Zr  Zr0  1  0.25121700  0.25121700  0.25121700  1
  Zr  Zr1  1  0.50000000  0.50000000  0.50000000  1
  Zr  Zr2  1  0.74878300  0.74878300  0.74878300  1
  Nb  Nb3  1  0.00000000  0.00000000  0.00000000  1
  C  C4  1  0.37225500  0.37225500  0.37225500  1
  C  C5  1  0.12407900  0.12407900  0.12407900  1
  C  C6  1  0.62774500  0.62774500  0.62774500  1
  C  C7  1  0.87592100  0.87592100  0.87592100  1
