# generated using pymatgen
data_Zn2TeSe
_symmetry_space_group_name_H-M   'P 1'
_cell_length_a   7.30093560
_cell_length_b   7.30093560
_cell_length_c   7.30093641
_cell_angle_alpha   33.64087018
_cell_angle_beta   33.64087018
_cell_angle_gamma   33.64086668
_symmetry_Int_Tables_number   1
_chemical_formula_structural   Zn2TeSe
_chemical_formula_sum   'Zn2 Te1 Se1'
_cell_volume   106.39840584
_cell_formula_units_Z   1
loop_
 _symmetry_equiv_pos_site_id
 _symmetry_equiv_pos_as_xyz
  1  'x, y, z'
loop_
 _atom_site_type_symbol
 _atom_site_label
 _atom_site_symmetry_multiplicity
 _atom_site_fract_x
 _atom_site_fract_y
 _atom_site_fract_z
 _atom_site_occupancy
  Zn  Zn0  1  0.99505200  0.99505200  0.99505200  1
  Zn  Zn1  1  0.50478100  0.50478100  0.50478100  1
  Te  Te2  1  0.37530600  0.37530600  0.37530600  1
  Se  Se3  1  0.87486100  0.87486100  0.87486100  1
