# generated using pymatgen
data_YbMn2BiSb
_symmetry_space_group_name_H-M   'P 1'
_cell_length_a   4.48371740
_cell_length_b   4.48371740
_cell_length_c   7.72401000
_cell_angle_alpha   90.00000000
_cell_angle_beta   90.00000000
_cell_angle_gamma   119.99999116
_symmetry_Int_Tables_number   1
_chemical_formula_structural   YbMn2BiSb
_chemical_formula_sum   'Yb1 Mn2 Bi1 Sb1'
_cell_volume   134.47760382
_cell_formula_units_Z   1
loop_
 _symmetry_equiv_pos_site_id
 _symmetry_equiv_pos_as_xyz
  1  'x, y, z'
loop_
 _atom_site_type_symbol
 _atom_site_label
 _atom_site_symmetry_multiplicity
 _atom_site_fract_x
 _atom_site_fract_y
 _atom_site_fract_z
 _atom_site_occupancy
  Yb  Yb0  1  0.66666700  0.33333300  0.01172900  1
  Mn  Mn1  1  0.00000000  0.00000000  0.60835100  1
  Mn  Mn2  1  0.33333300  0.66666700  0.37686300  1
  Bi  Bi3  1  0.33333300  0.66666700  0.75032000  1
  Sb  Sb4  1  0.00000000  0.00000000  0.25273700  1
