# generated using pymatgen
data_Zr2NbMoC4
_symmetry_space_group_name_H-M   'P 1'
_cell_length_a   10.67270385
_cell_length_b   10.67270385
_cell_length_c   10.67270386
_cell_angle_alpha   17.47829537
_cell_angle_beta   17.47829537
_cell_angle_gamma   17.47829705
_symmetry_Int_Tables_number   1
_chemical_formula_structural   Zr2NbMoC4
_chemical_formula_sum   'Zr2 Nb1 Mo1 C4'
_cell_volume   95.70788759
_cell_formula_units_Z   1
loop_
 _symmetry_equiv_pos_site_id
 _symmetry_equiv_pos_as_xyz
  1  'x, y, z'
loop_
 _atom_site_type_symbol
 _atom_site_label
 _atom_site_symmetry_multiplicity
 _atom_site_fract_x
 _atom_site_fract_y
 _atom_site_fract_z
 _atom_site_occupancy
  Zr  Zr0  1  0.87358100  0.87358100  0.87358100  1
  Zr  Zr1  1  0.62793300  0.62793300  0.62793300  1
  Nb  Nb2  1  0.12127600  0.12127600  0.12127600  1
  Mo  Mo3  1  0.37712300  0.37712300  0.37712300  1
  C  C4  1  0.25070700  0.25070700  0.25070700  1
  C  C5  1  0.49568700  0.49568700  0.49568700  1
  C  C6  1  0.00541000  0.00541000  0.00541000  1
  C  C7  1  0.74828300  0.74828300  0.74828300  1
