# generated using pymatgen
data_Yb4Y
_symmetry_space_group_name_H-M   'P 1'
_cell_length_a   15.75319328
_cell_length_b   15.75319328
_cell_length_c   15.75319346
_cell_angle_alpha   13.67887682
_cell_angle_beta   13.67887682
_cell_angle_gamma   13.67887480
_symmetry_Int_Tables_number   1
_chemical_formula_structural   Yb4Y
_chemical_formula_sum   'Yb4 Y1'
_cell_volume   190.23168305
_cell_formula_units_Z   1
loop_
 _symmetry_equiv_pos_site_id
 _symmetry_equiv_pos_as_xyz
  1  'x, y, z'
loop_
 _atom_site_type_symbol
 _atom_site_label
 _atom_site_symmetry_multiplicity
 _atom_site_fract_x
 _atom_site_fract_y
 _atom_site_fract_z
 _atom_site_occupancy
  Yb  Yb0  1  0.60258300  0.60258300  0.60258300  1
  Yb  Yb1  1  0.20049600  0.20049600  0.20049600  1
  Yb  Yb2  1  0.79950400  0.79950400  0.79950400  1
  Yb  Yb3  1  0.39741700  0.39741700  0.39741700  1
  Y  Y4  1  0.00000000  0.00000000  0.00000000  1
