# generated using pymatgen
data_Zr2CoS4
_symmetry_space_group_name_H-M   'P 1'
_cell_length_a   6.92225377
_cell_length_b   6.92225377
_cell_length_c   6.30467647
_cell_angle_alpha   63.18648064
_cell_angle_beta   63.18648064
_cell_angle_gamma   30.58834324
_symmetry_Int_Tables_number   1
_chemical_formula_structural   Zr2CoS4
_chemical_formula_sum   'Zr2 Co1 S4'
_cell_volume   135.88493564
_cell_formula_units_Z   1
loop_
 _symmetry_equiv_pos_site_id
 _symmetry_equiv_pos_as_xyz
  1  'x, y, z'
loop_
 _atom_site_type_symbol
 _atom_site_label
 _atom_site_symmetry_multiplicity
 _atom_site_fract_x
 _atom_site_fract_y
 _atom_site_fract_z
 _atom_site_occupancy
  Zr  Zr0  1  0.50023600  0.50023600  0.49562300  1
  Zr  Zr1  1  0.00263400  0.00263400  0.00547700  1
  Co  Co2  1  0.67660600  0.67660600  0.99142100  1
  S  S3  1  0.37337700  0.37337700  0.29375800  1
  S  S4  1  0.87254100  0.87254100  0.79013200  1
  S  S5  1  0.62813000  0.62813000  0.69917000  1
  S  S6  1  0.13596700  0.13596700  0.20106700  1
