# generated using pymatgen
data_YbLuB24
_symmetry_space_group_name_H-M   'P 1'
_cell_length_a   5.28576416
_cell_length_b   5.28576417
_cell_length_c   9.15295059
_cell_angle_alpha   73.21707175
_cell_angle_beta   90.00000000
_cell_angle_gamma   120.00000004
_symmetry_Int_Tables_number   1
_chemical_formula_structural   YbLuB24
_chemical_formula_sum   'Yb1 Lu1 B24'
_cell_volume   208.79381109
_cell_formula_units_Z   1
loop_
 _symmetry_equiv_pos_site_id
 _symmetry_equiv_pos_as_xyz
  1  'x, y, z'
loop_
 _atom_site_type_symbol
 _atom_site_label
 _atom_site_symmetry_multiplicity
 _atom_site_fract_x
 _atom_site_fract_y
 _atom_site_fract_z
 _atom_site_occupancy
  Yb  Yb0  1  0.50000000  -0.00000000  0.50000000  1
  Lu  Lu1  1  0.00000000  -0.00000000  0.00000000  1
  B  B2  1  0.91264403  0.49983015  0.24976781  1
  B  B3  1  0.41281387  0.50016985  0.75023219  1
  B  B4  1  0.08138775  0.50024998  0.41836228  1
  B  B5  1  0.58134763  0.49973654  0.91891583  1
  B  B6  1  0.25040204  0.83758817  0.24976781  1
  B  B7  1  0.74959796  0.83695394  0.75023219  1
  B  B8  1  0.08138775  0.16277549  0.41836228  1
  B  B9  1  0.58134763  0.16269526  0.91891583  1
  B  B10  1  0.91264403  0.16304606  0.24976781  1
  B  B11  1  0.41281387  0.16241183  0.75023219  1
  B  B12  1  0.25040204  0.16304606  0.24976781  1
  B  B13  1  0.74959796  0.16241183  0.75023219  1
  B  B14  1  0.41865237  0.83730474  0.08108417  1
  B  B15  1  0.91861225  0.83722451  0.58163772  1
  B  B16  1  0.41865237  0.50026346  0.08108417  1
  B  B17  1  0.91861225  0.49975002  0.58163772  1
  B  B18  1  0.08161109  0.50026346  0.08108417  1
  B  B19  1  0.58113777  0.49975002  0.58163772  1
  B  B20  1  0.58718613  0.49983015  0.24976781  1
  B  B21  1  0.08735597  0.50016985  0.75023219  1
  B  B22  1  0.58718613  0.83758817  0.24976781  1
  B  B23  1  0.08735597  0.83695394  0.75023219  1
  B  B24  1  0.41886223  0.50024998  0.41836228  1
  B  B25  1  0.91838891  0.49973654  0.91891583  1
