# generated using pymatgen
data_ZnCd(GaS2)4
_symmetry_space_group_name_H-M   'P 1'
_cell_length_a   5.51050700
_cell_length_b   5.51050700
_cell_length_c   10.41210000
_cell_angle_alpha   90.00000000
_cell_angle_beta   90.00000000
_cell_angle_gamma   90.00000000
_symmetry_Int_Tables_number   1
_chemical_formula_structural   ZnCd(GaS2)4
_chemical_formula_sum   'Zn1 Cd1 Ga4 S8'
_cell_volume   316.17057375
_cell_formula_units_Z   1
loop_
 _symmetry_equiv_pos_site_id
 _symmetry_equiv_pos_as_xyz
  1  'x, y, z'
loop_
 _atom_site_type_symbol
 _atom_site_label
 _atom_site_symmetry_multiplicity
 _atom_site_fract_x
 _atom_site_fract_y
 _atom_site_fract_z
 _atom_site_occupancy
  Zn  Zn0  1  0.50000000  0.50000000  0.50000000  1
  Cd  Cd1  1  0.00000000  0.00000000  0.00000000  1
  Ga  Ga2  1  0.50000000  0.50000000  0.00000000  1
  Ga  Ga3  1  0.00000000  0.00000000  0.50000000  1
  Ga  Ga4  1  0.00000000  0.50000000  0.25358400  1
  Ga  Ga5  1  0.50000000  0.00000000  0.74641600  1
  S  S6  1  0.24373500  0.75509500  0.37254900  1
  S  S7  1  0.73293400  0.26882300  0.86241600  1
  S  S8  1  0.75626500  0.24490500  0.37254900  1
  S  S9  1  0.26706600  0.73117700  0.86241600  1
  S  S10  1  0.73117700  0.73293400  0.13758400  1
  S  S11  1  0.24490500  0.24373500  0.62745100  1
  S  S12  1  0.26882300  0.26706600  0.13758400  1
  S  S13  1  0.75509500  0.75626500  0.62745100  1
