# generated using pymatgen
data_Zr3Fe(CuS4)2
_symmetry_space_group_name_H-M   'P 1'
_cell_length_a   7.18947403
_cell_length_b   7.18947403
_cell_length_c   7.18947513
_cell_angle_alpha   61.15071440
_cell_angle_beta   61.15071440
_cell_angle_gamma   61.15071197
_symmetry_Int_Tables_number   1
_chemical_formula_structural   Zr3Fe(CuS4)2
_chemical_formula_sum   'Zr3 Fe1 Cu2 S8'
_cell_volume   269.57433364
_cell_formula_units_Z   1
loop_
 _symmetry_equiv_pos_site_id
 _symmetry_equiv_pos_as_xyz
  1  'x, y, z'
loop_
 _atom_site_type_symbol
 _atom_site_label
 _atom_site_symmetry_multiplicity
 _atom_site_fract_x
 _atom_site_fract_y
 _atom_site_fract_z
 _atom_site_occupancy
  Zr  Zr0  1  0.00000000  0.50000000  0.50000000  1
  Zr  Zr1  1  0.50000000  0.50000000  0.00000000  1
  Zr  Zr2  1  0.50000000  0.00000000  0.50000000  1
  Fe  Fe3  1  0.50000000  0.50000000  0.50000000  1
  Cu  Cu4  1  0.12128400  0.12128400  0.12128400  1
  Cu  Cu5  1  0.87871600  0.87871600  0.87871600  1
  S  S6  1  0.74905800  0.74905800  0.74905800  1
  S  S7  1  0.26315500  0.73477100  0.73477100  1
  S  S8  1  0.73477100  0.73477100  0.26315500  1
  S  S9  1  0.73477100  0.26315500  0.73477100  1
  S  S10  1  0.25094200  0.25094200  0.25094200  1
  S  S11  1  0.73684500  0.26522900  0.26522900  1
  S  S12  1  0.26522900  0.26522900  0.73684500  1
  S  S13  1  0.26522900  0.73684500  0.26522900  1
