# generated using pymatgen
data_Zr2FeS4
_symmetry_space_group_name_H-M   'P 1'
_cell_length_a   3.68200059
_cell_length_b   7.02882416
_cell_length_c   6.32207788
_cell_angle_alpha   63.19616463
_cell_angle_beta   90.00476613
_cell_angle_gamma   105.18998468
_symmetry_Int_Tables_number   1
_chemical_formula_structural   Zr2FeS4
_chemical_formula_sum   'Zr2 Fe1 S4'
_cell_volume   139.60409922
_cell_formula_units_Z   1
loop_
 _symmetry_equiv_pos_site_id
 _symmetry_equiv_pos_as_xyz
  1  'x, y, z'
loop_
 _atom_site_type_symbol
 _atom_site_label
 _atom_site_symmetry_multiplicity
 _atom_site_fract_x
 _atom_site_fract_y
 _atom_site_fract_z
 _atom_site_occupancy
  Zr  Zr0  1  0.49882200  0.99766000  0.49378000  1
  Zr  Zr1  1  0.99445900  0.98879200  0.01745000  1
  Fe  Fe2  1  0.31734000  0.63481500  0.34789000  1
  S  S3  1  0.62261000  0.24502500  0.04454500  1
  S  S4  1  0.12303100  0.24620200  0.54036000  1
  S  S5  1  0.37355300  0.74693900  0.95255100  1
  S  S6  1  0.86523500  0.73056700  0.47507400  1
