# generated using pymatgen
data_ZnOF
_symmetry_space_group_name_H-M   'P 1'
_cell_length_a   3.15301500
_cell_length_b   4.49662200
_cell_length_c   10.31837900
_cell_angle_alpha   90.00000000
_cell_angle_beta   90.00000000
_cell_angle_gamma   90.00000000
_symmetry_Int_Tables_number   1
_chemical_formula_structural   ZnOF
_chemical_formula_sum   'Zn4 O4 F4'
_cell_volume   146.29311707
_cell_formula_units_Z   4
loop_
 _symmetry_equiv_pos_site_id
 _symmetry_equiv_pos_as_xyz
  1  'x, y, z'
loop_
 _atom_site_type_symbol
 _atom_site_label
 _atom_site_symmetry_multiplicity
 _atom_site_fract_x
 _atom_site_fract_y
 _atom_site_fract_z
 _atom_site_occupancy
  Zn  Zn0  1  0.25000000  0.05820900  0.13869700  1
  Zn  Zn1  1  0.75000000  0.94179100  0.86130300  1
  Zn  Zn2  1  0.75000000  0.55820900  0.36130300  1
  Zn  Zn3  1  0.25000000  0.44179100  0.63869700  1
  O  O4  1  0.25000000  0.79966700  0.29808900  1
  O  O5  1  0.75000000  0.20033300  0.70191100  1
  O  O6  1  0.75000000  0.29966700  0.20191100  1
  O  O7  1  0.25000000  0.70033300  0.79808900  1
  F  F8  1  0.25000000  0.19889300  0.94404200  1
  F  F9  1  0.75000000  0.80110700  0.05595800  1
  F  F10  1  0.75000000  0.69889300  0.55595800  1
  F  F11  1  0.25000000  0.30110700  0.44404200  1
