# generated using pymatgen
data_Na2V2F7
_symmetry_space_group_name_H-M   'P 1'
_cell_length_a   7.49885208
_cell_length_b   7.49885208
_cell_length_c   25.07972586
_cell_angle_alpha   81.75733579
_cell_angle_beta   81.75733579
_cell_angle_gamma   60.38337752
_symmetry_Int_Tables_number   1
_chemical_formula_structural   Na2V2F7
_chemical_formula_sum   'Na16 V16 F56'
_cell_volume   1209.06609516
_cell_formula_units_Z   8
loop_
 _symmetry_equiv_pos_site_id
 _symmetry_equiv_pos_as_xyz
  1  'x, y, z'
loop_
 _atom_site_type_symbol
 _atom_site_label
 _atom_site_symmetry_multiplicity
 _atom_site_fract_x
 _atom_site_fract_y
 _atom_site_fract_z
 _atom_site_occupancy
  Na  Na0  1  0.00000000  0.00000000  0.50000000  1
  Na  Na1  1  0.00000000  0.00000000  0.00000000  1
  Na  Na2  1  0.50000000  0.50000000  0.50000000  1
  Na  Na3  1  0.50000000  0.50000000  0.00000000  1
  Na  Na4  1  0.50000000  0.00000000  0.00000000  1
  Na  Na5  1  0.00000000  0.50000000  0.50000000  1
  Na  Na6  1  0.21395100  0.78604900  0.75000000  1
  Na  Na7  1  0.78604900  0.21395100  0.25000000  1
  Na  Na8  1  0.70458000  0.78985900  0.75280500  1
  Na  Na9  1  0.29542000  0.21014100  0.24719500  1
  Na  Na10  1  0.21014100  0.29542000  0.74719500  1
  Na  Na11  1  0.78985900  0.70458000  0.25280500  1
  Na  Na12  1  0.11780400  0.13459500  0.62171600  1
  Na  Na13  1  0.88219600  0.86540500  0.37828400  1
  Na  Na14  1  0.86540500  0.88219600  0.87828400  1
  Na  Na15  1  0.13459500  0.11780400  0.12171600  1
  V  V16  1  0.50000000  0.00000000  0.50000000  1
  V  V17  1  0.00000000  0.50000000  0.00000000  1
  V  V18  1  0.75336900  0.24663100  0.75000000  1
  V  V19  1  0.24663100  0.75336900  0.25000000  1
  V  V20  1  0.11164700  0.63552400  0.62568800  1
  V  V21  1  0.88835300  0.36447600  0.37431200  1
  V  V22  1  0.36447600  0.88835300  0.87431200  1
  V  V23  1  0.63552400  0.11164700  0.12568800  1
  V  V24  1  0.61462900  0.63100000  0.62782600  1
  V  V25  1  0.38537100  0.36900000  0.37217400  1
  V  V26  1  0.36900000  0.38537100  0.87217400  1
  V  V27  1  0.63100000  0.61462900  0.12782600  1
  V  V28  1  0.61289300  0.13369600  0.62601100  1
  V  V29  1  0.38710700  0.86630400  0.37398900  1
  V  V30  1  0.86630400  0.38710700  0.87398900  1
  V  V31  1  0.13369600  0.61289300  0.12601100  1
  F  F32  1  0.58397700  0.73971900  0.54683000  1
  F  F33  1  0.41602300  0.26028100  0.45317000  1
  F  F34  1  0.26028100  0.41602300  0.95317000  1
  F  F35  1  0.73971900  0.58397700  0.04683000  1
  F  F36  1  0.63393200  0.52644100  0.70964000  1
  F  F37  1  0.36606800  0.47355900  0.29036000  1
  F  F38  1  0.47355900  0.36606800  0.79036000  1
  F  F39  1  0.52644100  0.63393200  0.20964000  1
  F  F40  1  0.30024300  0.72827200  0.64325700  1
  F  F41  1  0.69975700  0.27172800  0.35674300  1
  F  F42  1  0.27172800  0.69975700  0.85674300  1
  F  F43  1  0.72827200  0.30024300  0.14325700  1
  F  F44  1  0.92698400  0.53586200  0.60936100  1
  F  F45  1  0.07301600  0.46413800  0.39063900  1
  F  F46  1  0.46413800  0.07301600  0.89063900  1
  F  F47  1  0.53586200  0.92698400  0.10936100  1
  F  F48  1  0.58034400  0.13975900  0.54516800  1
  F  F49  1  0.41965600  0.86024100  0.45483200  1
  F  F50  1  0.86024100  0.41965600  0.95483200  1
  F  F51  1  0.13975900  0.58034400  0.04516800  1
  F  F52  1  0.63738900  0.13613200  0.70703000  1
  F  F53  1  0.36261100  0.86386800  0.29297000  1
  F  F54  1  0.86386800  0.36261100  0.79297000  1
  F  F55  1  0.13613200  0.63738900  0.20703000  1
  F  F56  1  0.92441500  0.93357800  0.60777200  1
  F  F57  1  0.07558500  0.06642200  0.39222800  1
  F  F58  1  0.06642200  0.07558500  0.89222800  1
  F  F59  1  0.93357800  0.92441500  0.10777200  1
  F  F60  1  0.30040400  0.33725500  0.64307300  1
  F  F61  1  0.69959600  0.66274500  0.35692700  1
  F  F62  1  0.66274500  0.69959600  0.85692700  1
  F  F63  1  0.33725500  0.30040400  0.14307300  1
  F  F64  1  0.52964400  0.91060200  0.65610800  1
  F  F65  1  0.47035600  0.08939800  0.34389200  1
  F  F66  1  0.08939800  0.47035600  0.84389200  1
  F  F67  1  0.91060200  0.52964400  0.15610800  1
  F  F68  1  0.69945800  0.35451400  0.59761300  1
  F  F69  1  0.30054200  0.64548600  0.40238700  1
  F  F70  1  0.64548600  0.30054200  0.90238700  1
  F  F71  1  0.35451400  0.69945800  0.09761300  1
  F  F72  1  0.20727300  0.12997000  0.53193700  1
  F  F73  1  0.79272700  0.87003000  0.46806300  1
  F  F74  1  0.87003000  0.79272700  0.96806300  1
  F  F75  1  0.12997000  0.20727300  0.03193700  1
  F  F76  1  0.86515400  0.97258400  0.79120900  1
  F  F77  1  0.13484600  0.02741600  0.20879100  1
  F  F78  1  0.02741600  0.13484600  0.70879100  1
  F  F79  1  0.97258400  0.86515400  0.29120900  1
  F  F80  1  0.02616700  0.64006500  0.70511600  1
  F  F81  1  0.97383300  0.35993500  0.29488400  1
  F  F82  1  0.35993500  0.97383300  0.79488400  1
  F  F83  1  0.64006500  0.02616700  0.20511600  1
  F  F84  1  0.18928900  0.63472500  0.54564700  1
  F  F85  1  0.81071100  0.36527500  0.45435300  1
  F  F86  1  0.36527500  0.81071100  0.95435300  1
  F  F87  1  0.63472500  0.18928900  0.04564700  1
