# generated using pymatgen
data_ZnFe4CoO8
_symmetry_space_group_name_H-M   'P 1'
_cell_length_a   6.05297683
_cell_length_b   6.05297683
_cell_length_c   6.05297701
_cell_angle_alpha   60.00817500
_cell_angle_beta   60.00817500
_cell_angle_gamma   60.00816675
_symmetry_Int_Tables_number   1
_chemical_formula_structural   ZnFe4CoO8
_chemical_formula_sum   'Zn1 Fe4 Co1 O8'
_cell_volume   156.84566017
_cell_formula_units_Z   1
loop_
 _symmetry_equiv_pos_site_id
 _symmetry_equiv_pos_as_xyz
  1  'x, y, z'
loop_
 _atom_site_type_symbol
 _atom_site_label
 _atom_site_symmetry_multiplicity
 _atom_site_fract_x
 _atom_site_fract_y
 _atom_site_fract_z
 _atom_site_occupancy
  Zn  Zn0  1  0.00115600  0.00115600  0.00115600  1
  Fe  Fe1  1  0.62286700  0.62286700  0.62286700  1
  Fe  Fe2  1  0.49433700  0.00161800  0.00161800  1
  Fe  Fe3  1  0.00161800  0.00161800  0.49433700  1
  Fe  Fe4  1  0.00161800  0.49433700  0.00161800  1
  Co  Co5  1  0.37690600  0.37690600  0.37690600  1
  O  O6  1  0.23093600  0.75139600  0.75139600  1
  O  O7  1  0.75139600  0.75139600  0.23093600  1
  O  O8  1  0.75139600  0.23093600  0.75139600  1
  O  O9  1  0.75635700  0.75635700  0.75635700  1
  O  O10  1  0.77853200  0.24609700  0.24609700  1
  O  O11  1  0.24609700  0.24609700  0.77853200  1
  O  O12  1  0.24609700  0.77853200  0.24609700  1
  O  O13  1  0.24068700  0.24068700  0.24068700  1
