# generated using pymatgen
data_Na2TiF5
_symmetry_space_group_name_H-M   'P 1'
_cell_length_a   5.42957900
_cell_length_b   7.56017700
_cell_length_c   11.27849953
_cell_angle_alpha   72.68908340
_cell_angle_beta   90.00000000
_cell_angle_gamma   90.00000000
_symmetry_Int_Tables_number   1
_chemical_formula_structural   Na2TiF5
_chemical_formula_sum   'Na8 Ti4 F20'
_cell_volume   441.99590290
_cell_formula_units_Z   4
loop_
 _symmetry_equiv_pos_site_id
 _symmetry_equiv_pos_as_xyz
  1  'x, y, z'
loop_
 _atom_site_type_symbol
 _atom_site_label
 _atom_site_symmetry_multiplicity
 _atom_site_fract_x
 _atom_site_fract_y
 _atom_site_fract_z
 _atom_site_occupancy
  Na  Na0  1  0.94428800  0.34815700  0.31626300  1
  Na  Na1  1  0.44428800  0.65184300  0.18373700  1
  Na  Na2  1  0.05571200  0.65184300  0.68373700  1
  Na  Na3  1  0.55571200  0.34815700  0.81626300  1
  Na  Na4  1  0.48907200  0.14696300  0.13746000  1
  Na  Na5  1  0.98907200  0.85303700  0.36254000  1
  Na  Na6  1  0.51092800  0.85303700  0.86254000  1
  Na  Na7  1  0.01092800  0.14696300  0.63746000  1
  Ti  Ti8  1  0.50000000  0.50000000  0.50000000  1
  Ti  Ti9  1  0.00000000  0.50000000  0.00000000  1
  Ti  Ti10  1  0.50000000  0.00000000  0.50000000  1
  Ti  Ti11  1  0.00000000  0.00000000  0.00000000  1
  F  F12  1  0.74158000  0.48706500  0.62896100  1
  F  F13  1  0.24158000  0.51293500  0.87103900  1
  F  F14  1  0.25842000  0.51293500  0.37103900  1
  F  F15  1  0.75842000  0.48706500  0.12896100  1
  F  F16  1  0.72337700  0.61844100  0.35986500  1
  F  F17  1  0.22337700  0.38155900  0.14013500  1
  F  F18  1  0.27662300  0.38155900  0.64013500  1
  F  F19  1  0.77662300  0.61844100  0.85986500  1
  F  F20  1  0.65506000  0.25150000  0.49583100  1
  F  F21  1  0.15506000  0.74850000  0.00416900  1
  F  F22  1  0.34494000  0.74850000  0.50416900  1
  F  F23  1  0.84494000  0.25150000  0.99583100  1
  F  F24  1  0.84377600  0.05326800  0.83032900  1
  F  F25  1  0.34377600  0.94673200  0.66967100  1
  F  F26  1  0.15622400  0.94673200  0.16967100  1
  F  F27  1  0.65622400  0.05326800  0.33032900  1
  F  F28  1  0.69489300  0.89277300  0.07186900  1
  F  F29  1  0.19489300  0.10722700  0.42813100  1
  F  F30  1  0.30510700  0.10722700  0.92813100  1
  F  F31  1  0.80510700  0.89277300  0.57186900  1
