# generated using pymatgen
data_YUSb2
_symmetry_space_group_name_H-M   'P 1'
_cell_length_a   7.75507562
_cell_length_b   7.75507562
_cell_length_c   7.75507585
_cell_angle_alpha   32.51167813
_cell_angle_beta   32.51167813
_cell_angle_gamma   32.51167956
_symmetry_Int_Tables_number   1
_chemical_formula_structural   YUSb2
_chemical_formula_sum   'Y1 U1 Sb2'
_cell_volume   119.80524560
_cell_formula_units_Z   1
loop_
 _symmetry_equiv_pos_site_id
 _symmetry_equiv_pos_as_xyz
  1  'x, y, z'
loop_
 _atom_site_type_symbol
 _atom_site_label
 _atom_site_symmetry_multiplicity
 _atom_site_fract_x
 _atom_site_fract_y
 _atom_site_fract_z
 _atom_site_occupancy
  Y  Y0  1  0.50000000  0.50000000  0.50000000  1
  U  U1  1  0.00000000  0.00000000  0.00000000  1
  Sb  Sb2  1  0.24951600  0.24951600  0.24951600  1
  Sb  Sb3  1  0.75048400  0.75048400  0.75048400  1
