# generated using pymatgen
data_Zn11SbRu3
_symmetry_space_group_name_H-M   'P 1'
_cell_length_a   5.26270736
_cell_length_b   5.26270736
_cell_length_c   16.96519600
_cell_angle_alpha   90.00000000
_cell_angle_beta   90.00000000
_cell_angle_gamma   98.01242496
_symmetry_Int_Tables_number   1
_chemical_formula_structural   Zn11SbRu3
_chemical_formula_sum   'Zn22 Sb2 Ru6'
_cell_volume   465.28264307
_cell_formula_units_Z   2
loop_
 _symmetry_equiv_pos_site_id
 _symmetry_equiv_pos_as_xyz
  1  'x, y, z'
loop_
 _atom_site_type_symbol
 _atom_site_label
 _atom_site_symmetry_multiplicity
 _atom_site_fract_x
 _atom_site_fract_y
 _atom_site_fract_z
 _atom_site_occupancy
  Zn  Zn0  1  0.88081400  0.87234500  0.83520900  1
  Zn  Zn1  1  0.12765500  0.11918600  0.16479100  1
  Zn  Zn2  1  0.88081400  0.87234500  0.66479100  1
  Zn  Zn3  1  0.12765500  0.11918600  0.33520900  1
  Zn  Zn4  1  0.50295200  0.49704800  0.00000000  1
  Zn  Zn5  1  0.50295200  0.49704800  0.50000000  1
  Zn  Zn6  1  0.32867900  0.72576900  0.87699800  1
  Zn  Zn7  1  0.27423100  0.67132100  0.12300200  1
  Zn  Zn8  1  0.32867900  0.72576900  0.62300200  1
  Zn  Zn9  1  0.27423100  0.67132100  0.37699800  1
  Zn  Zn10  1  0.65798700  0.24752800  0.12658100  1
  Zn  Zn11  1  0.75247200  0.34201300  0.87341900  1
  Zn  Zn12  1  0.65798700  0.24752800  0.37341900  1
  Zn  Zn13  1  0.75247200  0.34201300  0.62658100  1
  Zn  Zn14  1  0.00041400  0.99958600  0.00000000  1
  Zn  Zn15  1  0.00041400  0.99958600  0.50000000  1
  Zn  Zn16  1  0.50190000  0.00161500  0.99889700  1
  Zn  Zn17  1  0.99838500  0.49810000  0.00110300  1
  Zn  Zn18  1  0.50190000  0.00161500  0.50110300  1
  Zn  Zn19  1  0.99838500  0.49810000  0.49889700  1
  Zn  Zn20  1  0.56815900  0.95490600  0.25000000  1
  Zn  Zn21  1  0.04509400  0.43184100  0.75000000  1
  Sb  Sb22  1  0.41071000  0.06975800  0.75000000  1
  Sb  Sb23  1  0.93024200  0.58929000  0.25000000  1
  Ru  Ru24  1  0.23667400  0.23052200  0.88863300  1
  Ru  Ru25  1  0.76947800  0.76332600  0.11136700  1
  Ru  Ru26  1  0.23667400  0.23052200  0.61136700  1
  Ru  Ru27  1  0.76947800  0.76332600  0.38863300  1
  Ru  Ru28  1  0.56195100  0.57943700  0.75000000  1
  Ru  Ru29  1  0.42056300  0.43804900  0.25000000  1
