# generated using pymatgen
data_YV2BiO8
_symmetry_space_group_name_H-M   'P 1'
_cell_length_a   6.09269797
_cell_length_b   6.09269797
_cell_length_c   6.09269797
_cell_angle_alpha   106.20952708
_cell_angle_beta   106.20952708
_cell_angle_gamma   116.21229874
_symmetry_Int_Tables_number   1
_chemical_formula_structural   YV2BiO8
_chemical_formula_sum   'Y1 V2 Bi1 O8'
_cell_volume   172.27521477
_cell_formula_units_Z   1
loop_
 _symmetry_equiv_pos_site_id
 _symmetry_equiv_pos_as_xyz
  1  'x, y, z'
loop_
 _atom_site_type_symbol
 _atom_site_label
 _atom_site_symmetry_multiplicity
 _atom_site_fract_x
 _atom_site_fract_y
 _atom_site_fract_z
 _atom_site_occupancy
  Y  Y0  1  0.25000000  0.75000000  0.50000000  1
  V  V1  1  0.75000000  0.25000000  0.50000000  1
  V  V2  1  0.50000000  0.50000000  0.00000000  1
  Bi  Bi3  1  0.00000000  0.00000000  0.00000000  1
  O  O4  1  0.92685800  0.60712000  0.68026200  1
  O  O5  1  0.48391300  0.67005300  0.81386000  1
  O  O6  1  0.85619300  0.67005300  0.18614000  1
  O  O7  1  0.92685800  0.24659600  0.31973800  1
  O  O8  1  0.32994700  0.14380700  0.81386000  1
  O  O9  1  0.75340400  0.07314200  0.68026200  1
  O  O10  1  0.39288000  0.07314200  0.31973800  1
  O  O11  1  0.32994700  0.51608700  0.18614000  1
