# generated using pymatgen
data_Zr2(CuSb)3
_symmetry_space_group_name_H-M   'P 1'
_cell_length_a   4.26966000
_cell_length_b   4.26966000
_cell_length_c   8.57875100
_cell_angle_alpha   90.00000000
_cell_angle_beta   90.00000000
_cell_angle_gamma   90.00000000
_symmetry_Int_Tables_number   1
_chemical_formula_structural   Zr2(CuSb)3
_chemical_formula_sum   'Zr2 Cu3 Sb3'
_cell_volume   156.39060084
_cell_formula_units_Z   1
loop_
 _symmetry_equiv_pos_site_id
 _symmetry_equiv_pos_as_xyz
  1  'x, y, z'
loop_
 _atom_site_type_symbol
 _atom_site_label
 _atom_site_symmetry_multiplicity
 _atom_site_fract_x
 _atom_site_fract_y
 _atom_site_fract_z
 _atom_site_occupancy
  Zr  Zr0  1  0.50000000  0.50000000  0.74064800  1
  Zr  Zr1  1  0.00000000  0.00000000  0.27039200  1
  Cu  Cu2  1  0.50000000  0.00000000  0.47990400  1
  Cu  Cu3  1  0.00000000  0.50000000  0.47990400  1
  Cu  Cu4  1  0.50000000  0.50000000  0.33170700  1
  Sb  Sb5  1  0.50000000  0.00000000  0.01782700  1
  Sb  Sb6  1  0.00000000  0.50000000  0.01782700  1
  Sb  Sb7  1  0.00000000  0.00000000  0.66179100  1
