# generated using pymatgen
data_Zr3BiF15
_symmetry_space_group_name_H-M   'P 1'
_cell_length_a   8.30888117
_cell_length_b   8.30888117
_cell_length_c   8.28076395
_cell_angle_alpha   79.79245837
_cell_angle_beta   79.79245837
_cell_angle_gamma   99.96234721
_symmetry_Int_Tables_number   1
_chemical_formula_structural   Zr3BiF15
_chemical_formula_sum   'Zr6 Bi2 F30'
_cell_volume   541.25901503
_cell_formula_units_Z   2
loop_
 _symmetry_equiv_pos_site_id
 _symmetry_equiv_pos_as_xyz
  1  'x, y, z'
loop_
 _atom_site_type_symbol
 _atom_site_label
 _atom_site_symmetry_multiplicity
 _atom_site_fract_x
 _atom_site_fract_y
 _atom_site_fract_z
 _atom_site_occupancy
  Zr  Zr0  1  0.75228700  0.24771300  0.25000000  1
  Zr  Zr1  1  0.24771300  0.75228700  0.75000000  1
  Zr  Zr2  1  0.74384200  0.67675900  0.67694800  1
  Zr  Zr3  1  0.32324100  0.25615800  0.82305200  1
  Zr  Zr4  1  0.25615800  0.32324100  0.32305200  1
  Zr  Zr5  1  0.67675900  0.74384200  0.17694800  1
  Bi  Bi6  1  0.17733300  0.82266700  0.25000000  1
  Bi  Bi7  1  0.82266700  0.17733300  0.75000000  1
  F  F8  1  0.46629900  0.53370100  0.25000000  1
  F  F9  1  0.74513500  0.94923500  0.97635500  1
  F  F10  1  0.05076500  0.25486500  0.52364500  1
  F  F11  1  0.25486500  0.05076500  0.02364500  1
  F  F12  1  0.94923500  0.74513500  0.47635500  1
  F  F13  1  0.53370100  0.46629900  0.75000000  1
  F  F14  1  0.22796600  0.49533400  0.77485400  1
  F  F15  1  0.22868200  0.71482100  0.00158600  1
  F  F16  1  0.99531000  0.72586400  0.77932600  1
  F  F17  1  0.72586400  0.99531000  0.27932600  1
  F  F18  1  0.71482100  0.22868200  0.50158600  1
  F  F19  1  0.49533400  0.22796600  0.27485400  1
  F  F20  1  0.77203500  0.50466600  0.22514600  1
  F  F21  1  0.77131800  0.28517900  0.99841400  1
  F  F22  1  0.00469000  0.27413600  0.22067400  1
  F  F23  1  0.27413600  0.00469000  0.72067400  1
  F  F24  1  0.28517900  0.77131800  0.49841400  1
  F  F25  1  0.50466600  0.77203400  0.72514600  1
  F  F26  1  0.53282900  0.15479700  0.81524600  1
  F  F27  1  0.18943500  0.06843600  0.35226700  1
  F  F28  1  0.65027300  0.68574500  0.44674700  1
  F  F29  1  0.68574500  0.65027300  0.94674700  1
  F  F30  1  0.06843600  0.18943500  0.85226700  1
  F  F31  1  0.15479700  0.53282900  0.31524600  1
  F  F32  1  0.46717100  0.84520300  0.18475400  1
  F  F33  1  0.81056500  0.93156400  0.64773300  1
  F  F34  1  0.34972700  0.31425500  0.55325300  1
  F  F35  1  0.31425500  0.34972700  0.05325300  1
  F  F36  1  0.93156400  0.81056500  0.14773300  1
  F  F37  1  0.84520300  0.46717100  0.68475400  1
