# generated using pymatgen
data_YbTi2O5F
_symmetry_space_group_name_H-M   'P 1'
_cell_length_a   5.23690300
_cell_length_b   5.52791900
_cell_length_c   14.59390200
_cell_angle_alpha   90.00000000
_cell_angle_beta   90.00000000
_cell_angle_gamma   90.00000000
_symmetry_Int_Tables_number   1
_chemical_formula_structural   YbTi2O5F
_chemical_formula_sum   'Yb4 Ti8 O20 F4'
_cell_volume   422.48143161
_cell_formula_units_Z   4
loop_
 _symmetry_equiv_pos_site_id
 _symmetry_equiv_pos_as_xyz
  1  'x, y, z'
loop_
 _atom_site_type_symbol
 _atom_site_label
 _atom_site_symmetry_multiplicity
 _atom_site_fract_x
 _atom_site_fract_y
 _atom_site_fract_z
 _atom_site_occupancy
  Yb  Yb0  1  0.00000000  0.51210700  0.00000000  1
  Yb  Yb1  1  0.50000000  0.48789300  0.50000000  1
  Yb  Yb2  1  0.50000000  0.98431300  0.00000000  1
  Yb  Yb3  1  0.00000000  0.01568700  0.50000000  1
  Ti  Ti4  1  0.42639900  0.41360500  0.83523600  1
  Ti  Ti5  1  0.92639900  0.58639500  0.66476400  1
  Ti  Ti6  1  0.07360100  0.58639500  0.33523600  1
  Ti  Ti7  1  0.57360100  0.41360500  0.16476400  1
  Ti  Ti8  1  0.05736200  0.09969600  0.17366600  1
  Ti  Ti9  1  0.55736200  0.90030400  0.32633400  1
  Ti  Ti10  1  0.44263800  0.90030400  0.67366600  1
  Ti  Ti11  1  0.94263800  0.09969600  0.82633400  1
  O  O12  1  0.70722200  0.31075900  0.90454000  1
  O  O13  1  0.20722200  0.68924100  0.59546000  1
  O  O14  1  0.79277800  0.68924100  0.40454000  1
  O  O15  1  0.29277800  0.31075900  0.09546000  1
  O  O16  1  0.79241900  0.18302400  0.09420600  1
  O  O17  1  0.29241900  0.81697600  0.40579400  1
  O  O18  1  0.70758100  0.81697600  0.59420600  1
  O  O19  1  0.20758100  0.18302400  0.90579400  1
  O  O20  1  0.58314000  0.61925100  0.74058800  1
  O  O21  1  0.08314000  0.38074900  0.75941200  1
  O  O22  1  0.91686000  0.38074900  0.24058800  1
  O  O23  1  0.41686000  0.61925100  0.25941200  1
  O  O24  1  0.90332300  0.88699300  0.25653900  1
  O  O25  1  0.40332300  0.11300700  0.24346100  1
  O  O26  1  0.59667700  0.11300700  0.75653900  1
  O  O27  1  0.09667700  0.88699300  0.74346100  1
  O  O28  1  0.33990600  0.65389200  0.91145500  1
  O  O29  1  0.83990600  0.34610800  0.58854500  1
  O  O30  1  0.16009400  0.34610800  0.41145500  1
  O  O31  1  0.66009400  0.65389200  0.08854500  1
  F  F32  1  0.16388800  0.84156300  0.08596600  1
  F  F33  1  0.66388800  0.15843700  0.41403400  1
  F  F34  1  0.33611200  0.15843700  0.58596600  1
  F  F35  1  0.83611200  0.84156300  0.91403400  1
