# generated using pymatgen
data_Zr3Ti2(PbO3)5
_symmetry_space_group_name_H-M   'P 1'
_cell_length_a   14.91403700
_cell_length_b   14.91403700
_cell_length_c   4.26645250
_cell_angle_alpha   88.72172605
_cell_angle_beta   88.72172605
_cell_angle_gamma   22.43061625
_symmetry_Int_Tables_number   1
_chemical_formula_structural   Zr3Ti2(PbO3)5
_chemical_formula_sum   'Zr3 Ti2 Pb5 O15'
_cell_volume   362.00352858
_cell_formula_units_Z   1
loop_
 _symmetry_equiv_pos_site_id
 _symmetry_equiv_pos_as_xyz
  1  'x, y, z'
loop_
 _atom_site_type_symbol
 _atom_site_label
 _atom_site_symmetry_multiplicity
 _atom_site_fract_x
 _atom_site_fract_y
 _atom_site_fract_z
 _atom_site_occupancy
  Zr  Zr0  1  0.10924100  0.10924100  0.53725600  1
  Zr  Zr1  1  0.90224700  0.90224700  0.54024500  1
  Zr  Zr2  1  0.50589300  0.50589300  0.53752900  1
  Ti  Ti3  1  0.70649700  0.70649700  0.51806600  1
  Ti  Ti4  1  0.30278800  0.30278800  0.52121200  1
  Pb  Pb5  1  0.99588100  0.99588100  0.98639200  1
  Pb  Pb6  1  0.59994000  0.59994000  0.98455100  1
  Pb  Pb7  1  0.20412300  0.20412300  0.97271800  1
  Pb  Pb8  1  0.79636300  0.79636300  0.97627000  1
  Pb  Pb9  1  0.39298700  0.39298700  0.98610600  1
  O  O10  1  0.11681600  0.11681600  0.05980300  1
  O  O11  1  0.71331300  0.71331300  0.09663600  1
  O  O12  1  0.30828700  0.30828700  0.10153000  1
  O  O13  1  0.91015400  0.91015400  0.06464500  1
  O  O14  1  0.51362700  0.51362700  0.06125000  1
  O  O15  1  0.80363500  0.32060200  0.58885900  1
  O  O16  1  0.42035500  0.90957800  0.58877500  1
  O  O17  1  0.00867400  0.51197400  0.59882800  1
  O  O18  1  0.58779500  0.12354400  0.59929200  1
  O  O19  1  0.19744600  0.72003800  0.59214200  1
  O  O20  1  0.32060200  0.80363500  0.58885900  1
  O  O21  1  0.90957800  0.42035500  0.58877500  1
  O  O22  1  0.51197400  0.00867400  0.59882800  1
  O  O23  1  0.12354400  0.58779500  0.59929200  1
  O  O24  1  0.72003800  0.19744600  0.59214200  1
