# generated using pymatgen
data_ZnCd4(GaS2)10
_symmetry_space_group_name_H-M   'P 1'
_cell_length_a   5.56034300
_cell_length_b   6.51975807
_cell_length_c   24.55360372
_cell_angle_alpha   92.76618132
_cell_angle_beta   89.99794419
_cell_angle_gamma   115.24053676
_symmetry_Int_Tables_number   1
_chemical_formula_structural   ZnCd4(GaS2)10
_chemical_formula_sum   'Zn1 Cd4 Ga10 S20'
_cell_volume   803.98977870
_cell_formula_units_Z   1
loop_
 _symmetry_equiv_pos_site_id
 _symmetry_equiv_pos_as_xyz
  1  'x, y, z'
loop_
 _atom_site_type_symbol
 _atom_site_label
 _atom_site_symmetry_multiplicity
 _atom_site_fract_x
 _atom_site_fract_y
 _atom_site_fract_z
 _atom_site_occupancy
  Zn  Zn0  1  0.20028500  0.39993600  0.80002400  1
  Cd  Cd1  1  0.00013000  0.00029400  0.99984500  1
  Cd  Cd2  1  0.79998700  0.59997500  0.20000000  1
  Cd  Cd3  1  0.59998300  0.20001000  0.40000100  1
  Cd  Cd4  1  0.39969700  0.79974800  0.60013600  1
  Ga  Ga5  1  0.59989200  0.20238800  0.89870300  1
  Ga  Ga6  1  0.20000000  0.40001000  0.30000000  1
  Ga  Ga7  1  0.39997900  0.79990300  0.09987700  1
  Ga  Ga8  1  0.80003000  0.59782100  0.70136900  1
  Ga  Ga9  1  0.00005900  0.99995000  0.50004700  1
  Ga  Ga10  1  0.29923000  0.59901100  0.94907500  1
  Ga  Ga11  1  0.09995600  0.19999500  0.14999500  1
  Ga  Ga12  1  0.90000200  0.80000700  0.35000500  1
  Ga  Ga13  1  0.70009300  0.40007300  0.55003600  1
  Ga  Ga14  1  0.50058300  0.00081700  0.75091000  1
  S  S15  1  0.47698900  0.48922600  0.11871100  1
  S  S16  1  0.07715800  0.68918400  0.51868600  1
  S  S17  1  0.27700300  0.08923300  0.31871700  1
  S  S18  1  0.67645000  0.89046800  0.91840100  1
  S  S19  1  0.89088100  0.29388400  0.72353200  1
  S  S20  1  0.10389900  0.67285400  0.02615200  1
  S  S21  1  0.70437700  0.87348500  0.42663200  1
  S  S22  1  0.90435800  0.27345900  0.22662000  1
  S  S23  1  0.30137300  0.09247900  0.82513400  1
  S  S24  1  0.50612200  0.47277800  0.62699000  1
  S  S25  1  0.99753900  0.50361500  0.87695600  1
  S  S26  1  0.58608500  0.71159800  0.28086100  1
  S  S27  1  0.78622600  0.11170000  0.08086000  1
  S  S28  1  0.18565600  0.91191300  0.68117700  1
  S  S29  1  0.38601500  0.31162000  0.48086000  1
  S  S30  1  0.43534600  0.32673200  0.97358800  1
  S  S31  1  0.03256900  0.52569300  0.37380900  1
  S  S32  1  0.23256100  0.92557600  0.17375300  1
  S  S33  1  0.60695900  0.70883500  0.77462800  1
  S  S34  1  0.83252700  0.12572900  0.57391300  1
