# generated using pymatgen
data_H12PbC2(I3N)2
_symmetry_space_group_name_H-M   'P 1'
_cell_length_a   8.69829000
_cell_length_b   8.72118913
_cell_length_c   13.05541898
_cell_angle_alpha   88.84323764
_cell_angle_beta   89.97402353
_cell_angle_gamma   89.99008629
_symmetry_Int_Tables_number   1
_chemical_formula_structural   H12PbC2(I3N)2
_chemical_formula_sum   'H24 Pb2 C4 I12 N4'
_cell_volume   990.17471987
_cell_formula_units_Z   2
loop_
 _symmetry_equiv_pos_site_id
 _symmetry_equiv_pos_as_xyz
  1  'x, y, z'
loop_
 _atom_site_type_symbol
 _atom_site_label
 _atom_site_symmetry_multiplicity
 _atom_site_fract_x
 _atom_site_fract_y
 _atom_site_fract_z
 _atom_site_occupancy
  H  H0  1  0.65101500  0.97979700  0.77121900  1
  H  H1  1  0.51676000  0.96643900  0.66734900  1
  H  H2  1  0.50112300  0.83869700  0.77646500  1
  H  H3  1  0.45326300  0.17940900  0.77951000  1
  H  H4  1  0.43879300  0.05891400  0.88030900  1
  H  H5  1  0.31320100  0.04637200  0.78467700  1
  H  H6  1  0.93526200  0.40294400  0.88326000  1
  H  H7  1  0.95177500  0.27918700  0.78825000  1
  H  H8  1  0.81076600  0.41155700  0.78553000  1
  H  H9  1  0.14837300  0.47916000  0.77271200  1
  H  H10  1  0.99784700  0.61965800  0.77007100  1
  H  H11  1  0.01611900  0.48742900  0.66707700  1
  H  H12  1  0.95443600  0.68729300  0.28114200  1
  H  H13  1  0.94429500  0.56453300  0.38095500  1
  H  H14  1  0.82135400  0.54716200  0.28425100  1
  H  H15  1  0.16256300  0.49922700  0.27299200  1
  H  H16  1  0.03118100  0.47993400  0.16796400  1
  H  H17  1  0.02099900  0.34979200  0.27606000  1
  H  H18  1  0.72121800  0.04721900  0.28767100  1
  H  H19  1  0.59263600  0.06590500  0.38249600  1
  H  H20  1  0.58910200  0.18855000  0.28351500  1
  H  H21  1  0.52049400  0.85170300  0.27481600  1
  H  H22  1  0.51611200  0.98317900  0.16732800  1
  H  H23  1  0.38023400  0.00243900  0.26976200  1
  Pb  Pb24  1  0.51997900  0.48334900  0.50821200  1
  Pb  Pb25  1  0.01463600  0.97171500  0.00700100  1
  C  C26  1  0.02954700  0.50269000  0.74954100  1
  C  C27  1  0.53184500  0.95483200  0.75030600  1
  C  C28  1  0.04541900  0.46787800  0.25096700  1
  C  C29  1  0.49815300  0.97031600  0.24997700  1
  I  I30  1  0.72364400  0.16239000  0.00654600  1
  I  I31  1  0.30493200  0.79143100  0.00580400  1
  I  I32  1  0.20171600  0.26283500  0.00599600  1
  I  I33  1  0.83099200  0.68173000  0.01011700  1
  I  I34  1  0.34283000  0.18843200  0.51004200  1
  I  I35  1  0.71319800  0.76947000  0.50494600  1
  I  I36  1  0.81544500  0.29956100  0.50856000  1
  I  I37  1  0.23498400  0.67098000  0.50525500  1
  I  I38  1  0.52345200  0.47207900  0.74437600  1
  I  I39  1  0.53068400  0.47869800  0.27096800  1
  I  I40  1  0.00721500  0.97495700  0.24337800  1
  I  I41  1  0.01885000  0.99058200  0.77025200  1
  N  N42  1  0.92563800  0.39273700  0.80480900  1
  N  N43  1  0.42846700  0.06665800  0.80154000  1
  N  N44  1  0.93514800  0.57287100  0.30219800  1
  N  N45  1  0.60706200  0.07368300  0.30396900  1
