# generated using pymatgen
data_Zn4CdS5
_symmetry_space_group_name_H-M   'P 1'
_cell_length_a   3.92791683
_cell_length_b   3.92791683
_cell_length_c   32.33541100
_cell_angle_alpha   90.00000000
_cell_angle_beta   90.00000000
_cell_angle_gamma   120.00001400
_symmetry_Int_Tables_number   1
_chemical_formula_structural   Zn4CdS5
_chemical_formula_sum   'Zn8 Cd2 S10'
_cell_volume   432.04951606
_cell_formula_units_Z   2
loop_
 _symmetry_equiv_pos_site_id
 _symmetry_equiv_pos_as_xyz
  1  'x, y, z'
loop_
 _atom_site_type_symbol
 _atom_site_label
 _atom_site_symmetry_multiplicity
 _atom_site_fract_x
 _atom_site_fract_y
 _atom_site_fract_z
 _atom_site_occupancy
  Zn  Zn0  1  0.33333300  0.66666700  0.50152600  1
  Zn  Zn1  1  0.33333300  0.66666700  0.69968500  1
  Zn  Zn2  1  0.33333300  0.66666700  0.89804100  1
  Zn  Zn3  1  0.66666700  0.33333300  0.99507200  1
  Zn  Zn4  1  0.66666700  0.33333300  0.20043800  1
  Zn  Zn5  1  0.66666700  0.33333300  0.40495000  1
  Zn  Zn6  1  0.66666700  0.33333300  0.60006900  1
  Zn  Zn7  1  0.66666700  0.33333300  0.79934400  1
  Cd  Cd8  1  0.33333300  0.66666700  0.09636500  1
  Cd  Cd9  1  0.33333300  0.66666700  0.29994900  1
  S  S10  1  0.33333300  0.66666700  0.01831300  1
  S  S11  1  0.33333300  0.66666700  0.22228200  1
  S  S12  1  0.33333300  0.66666700  0.42823800  1
  S  S13  1  0.33333300  0.66666700  0.62524200  1
  S  S14  1  0.33333300  0.66666700  0.82421600  1
  S  S15  1  0.66666700  0.33333300  0.12859300  1
  S  S16  1  0.66666700  0.33333300  0.33258000  1
  S  S17  1  0.66666700  0.33333300  0.52608100  1
  S  S18  1  0.66666700  0.33333300  0.72497300  1
  S  S19  1  0.66666700  0.33333300  0.92204400  1
