# generated using pymatgen
data_ZnFeBO4
_symmetry_space_group_name_H-M   'P 1'
_cell_length_a   3.13535300
_cell_length_b   9.37016300
_cell_length_c   9.38903200
_cell_angle_alpha   90.00000000
_cell_angle_beta   90.00000000
_cell_angle_gamma   90.00000000
_symmetry_Int_Tables_number   1
_chemical_formula_structural   ZnFeBO4
_chemical_formula_sum   'Zn4 Fe4 B4 O16'
_cell_volume   275.83819919
_cell_formula_units_Z   4
loop_
 _symmetry_equiv_pos_site_id
 _symmetry_equiv_pos_as_xyz
  1  'x, y, z'
loop_
 _atom_site_type_symbol
 _atom_site_label
 _atom_site_symmetry_multiplicity
 _atom_site_fract_x
 _atom_site_fract_y
 _atom_site_fract_z
 _atom_site_occupancy
  Zn  Zn0  1  0.50000000  0.11603900  0.81241900  1
  Zn  Zn1  1  0.50000000  0.61603900  0.18758100  1
  Zn  Zn2  1  0.50000000  0.10053300  0.44836100  1
  Zn  Zn3  1  0.50000000  0.60053300  0.55163900  1
  Fe  Fe4  1  0.00000000  0.87540100  0.68316400  1
  Fe  Fe5  1  0.00000000  0.37540100  0.31683600  1
  Fe  Fe6  1  0.00000000  0.89716000  0.05694400  1
  Fe  Fe7  1  0.00000000  0.39716000  0.94305600  1
  B  B8  1  0.50000000  0.17012600  0.12752300  1
  B  B9  1  0.50000000  0.67012600  0.87247700  1
  B  B10  1  0.00000000  0.84278100  0.37305400  1
  B  B11  1  0.00000000  0.34278100  0.62694600  1
  O  O12  1  0.50000000  0.02267400  0.11709600  1
  O  O13  1  0.50000000  0.52267400  0.88290400  1
  O  O14  1  0.00000000  0.98741300  0.37131400  1
  O  O15  1  0.00000000  0.48741300  0.62868600  1
  O  O16  1  0.50000000  0.99335200  0.63522700  1
  O  O17  1  0.50000000  0.49335200  0.36477300  1
  O  O18  1  0.00000000  0.97283800  0.86624000  1
  O  O19  1  0.00000000  0.47283800  0.13376000  1
  O  O20  1  0.50000000  0.23803200  0.25841500  1
  O  O21  1  0.50000000  0.73803200  0.74158500  1
  O  O22  1  0.00000000  0.77020800  0.24121700  1
  O  O23  1  0.00000000  0.27020800  0.75878300  1
  O  O24  1  0.50000000  0.24833100  0.99993300  1
  O  O25  1  0.50000000  0.74833100  0.00006700  1
  O  O26  1  0.00000000  0.76511000  0.50083100  1
  O  O27  1  0.00000000  0.26511000  0.49916900  1
