# generated using pymatgen
data_Ti2ZnSn2O7
_symmetry_space_group_name_H-M   'P 1'
_cell_length_a   6.89701268
_cell_length_b   6.89701268
_cell_length_c   9.26656297
_cell_angle_alpha   76.46268647
_cell_angle_beta   76.46268647
_cell_angle_gamma   98.60674882
_symmetry_Int_Tables_number   1
_chemical_formula_structural   Ti2ZnSn2O7
_chemical_formula_sum   'Ti4 Zn2 Sn4 O14'
_cell_volume   406.78359460
_cell_formula_units_Z   2
loop_
 _symmetry_equiv_pos_site_id
 _symmetry_equiv_pos_as_xyz
  1  'x, y, z'
loop_
 _atom_site_type_symbol
 _atom_site_label
 _atom_site_symmetry_multiplicity
 _atom_site_fract_x
 _atom_site_fract_y
 _atom_site_fract_z
 _atom_site_occupancy
  Ti  Ti0  1  0.17437800  0.59786500  0.62689000  1
  Ti  Ti1  1  0.40213500  0.82562200  0.87311000  1
  Ti  Ti2  1  0.82562200  0.40213500  0.37311000  1
  Ti  Ti3  1  0.59786500  0.17437800  0.12689000  1
  Zn  Zn4  1  0.73392600  0.26607400  0.75000000  1
  Zn  Zn5  1  0.26607400  0.73392600  0.25000000  1
  Sn  Sn6  1  0.78388500  0.77627800  0.98368300  1
  Sn  Sn7  1  0.22372200  0.21611500  0.51631700  1
  Sn  Sn8  1  0.21611500  0.22372200  0.01631700  1
  Sn  Sn9  1  0.77627800  0.78388500  0.48368300  1
  O  O10  1  0.00354500  0.76842600  0.59948200  1
  O  O11  1  0.23157400  0.99645500  0.90051800  1
  O  O12  1  0.99645500  0.23157400  0.40051800  1
  O  O13  1  0.76842600  0.00354500  0.09948200  1
  O  O14  1  0.03884200  0.32732800  0.70632600  1
  O  O15  1  0.67267200  0.96115800  0.79367400  1
  O  O16  1  0.96115800  0.67267200  0.29367400  1
  O  O17  1  0.32732800  0.03884200  0.20632600  1
  O  O18  1  0.68254300  0.42605800  0.56037600  1
  O  O19  1  0.57394200  0.31745700  0.93962400  1
  O  O20  1  0.31745700  0.57394200  0.43962400  1
  O  O21  1  0.42605800  0.68254300  0.06037600  1
  O  O22  1  0.33531400  0.66468600  0.75000000  1
  O  O23  1  0.66468600  0.33531400  0.25000000  1
