# generated using pymatgen
data_Yb7Mg3Si8
_symmetry_space_group_name_H-M   'P 1'
_cell_length_a   7.10389800
_cell_length_b   7.74619100
_cell_length_c   15.07811639
_cell_angle_alpha   89.47275994
_cell_angle_beta   90.00000000
_cell_angle_gamma   90.00000000
_symmetry_Int_Tables_number   1
_chemical_formula_structural   Yb7Mg3Si8
_chemical_formula_sum   'Yb14 Mg6 Si16'
_cell_volume   829.68573235
_cell_formula_units_Z   2
loop_
 _symmetry_equiv_pos_site_id
 _symmetry_equiv_pos_as_xyz
  1  'x, y, z'
loop_
 _atom_site_type_symbol
 _atom_site_label
 _atom_site_symmetry_multiplicity
 _atom_site_fract_x
 _atom_site_fract_y
 _atom_site_fract_z
 _atom_site_occupancy
  Yb  Yb0  1  0.51373800  0.56891300  0.34216200  1
  Yb  Yb1  1  0.01373800  0.43108700  0.65783800  1
  Yb  Yb2  1  0.48519900  0.92979900  0.84847400  1
  Yb  Yb3  1  0.98519900  0.07020100  0.15152600  1
  Yb  Yb4  1  0.48622800  0.92099900  0.15106100  1
  Yb  Yb5  1  0.98622800  0.07900100  0.84893900  1
  Yb  Yb6  1  0.51708900  0.56745600  0.65274000  1
  Yb  Yb7  1  0.01708900  0.43254400  0.34726000  1
  Yb  Yb8  1  0.17554700  0.93517200  0.37622200  1
  Yb  Yb9  1  0.67554700  0.06482800  0.62377800  1
  Yb  Yb10  1  0.17474800  0.93034800  0.62620700  1
  Yb  Yb11  1  0.67474800  0.06965200  0.37379300  1
  Yb  Yb12  1  0.82990000  0.56227700  0.12266200  1
  Yb  Yb13  1  0.32990000  0.43772300  0.87733800  1
  Mg  Mg14  1  0.65173400  0.23043600  0.00032000  1
  Mg  Mg15  1  0.15173400  0.76956400  0.99968000  1
  Mg  Mg16  1  0.34757400  0.27927700  0.50345800  1
  Mg  Mg17  1  0.84757400  0.72072300  0.49654200  1
  Mg  Mg18  1  0.82149600  0.56191100  0.87799600  1
  Mg  Mg19  1  0.32149600  0.43808900  0.12200400  1
  Si  Si20  1  0.53373200  0.65883900  0.99635700  1
  Si  Si21  1  0.03373200  0.34116100  0.00364300  1
  Si  Si22  1  0.47670700  0.83160800  0.49864100  1
  Si  Si23  1  0.97670700  0.16839200  0.50135900  1
  Si  Si24  1  0.65902100  0.28081900  0.78589300  1
  Si  Si25  1  0.15902100  0.71918100  0.21410700  1
  Si  Si26  1  0.33927300  0.22672500  0.27232500  1
  Si  Si27  1  0.83927300  0.77327500  0.72767500  1
  Si  Si28  1  0.35710200  0.22189000  0.72057600  1
  Si  Si29  1  0.85710200  0.77811000  0.27942400  1
  Si  Si30  1  0.63164400  0.27326500  0.20580000  1
  Si  Si31  1  0.13164400  0.72673500  0.79420000  1
  Si  Si32  1  0.76992700  0.87343200  0.00134500  1
  Si  Si33  1  0.26992700  0.12656800  0.99865500  1
  Si  Si34  1  0.22934400  0.62250700  0.50102400  1
  Si  Si35  1  0.72934400  0.37749300  0.49897600  1
