# generated using pymatgen
data_ZrW2ClO10
_symmetry_space_group_name_H-M   'P 1'
_cell_length_a   10.42674296
_cell_length_b   10.42674296
_cell_length_c   10.42674352
_cell_angle_alpha   111.33903035
_cell_angle_beta   110.69162909
_cell_angle_gamma   106.42595324
_symmetry_Int_Tables_number   1
_chemical_formula_structural   ZrW2ClO10
_chemical_formula_sum   'Zr4 W8 Cl4 O40'
_cell_volume   870.75222008
_cell_formula_units_Z   4
loop_
 _symmetry_equiv_pos_site_id
 _symmetry_equiv_pos_as_xyz
  1  'x, y, z'
loop_
 _atom_site_type_symbol
 _atom_site_label
 _atom_site_symmetry_multiplicity
 _atom_site_fract_x
 _atom_site_fract_y
 _atom_site_fract_z
 _atom_site_occupancy
  Zr  Zr0  1  0.24212800  0.74212800  0.50000000  1
  Zr  Zr1  1  0.74212800  0.24212800  0.50000000  1
  Zr  Zr2  1  0.49478500  0.49478500  0.00000000  1
  Zr  Zr3  1  0.99478500  0.99478500  0.00000000  1
  W  W4  1  0.17456000  0.52117200  0.68228900  1
  W  W5  1  0.67456000  0.99227100  0.65338800  1
  W  W6  1  0.29689100  0.43379300  0.20067900  1
  W  W7  1  0.73311400  0.93379300  0.13690200  1
  W  W8  1  0.83888300  0.49227100  0.31771100  1
  W  W9  1  0.33888300  0.02117200  0.34661200  1
  W  W10  1  0.23311400  0.09621200  0.79932100  1
  W  W11  1  0.79689100  0.59621200  0.86309800  1
  Cl  Cl12  1  0.04258000  0.40978800  0.94071900  1
  Cl  Cl13  1  0.96906900  0.90978800  0.36720800  1
  Cl  Cl14  1  0.46906900  0.10186100  0.05928100  1
  Cl  Cl15  1  0.54258000  0.60186100  0.63279200  1
  O  O16  1  0.06331100  0.56331100  0.50000000  1
  O  O17  1  0.56331100  0.06331100  0.50000000  1
  O  O18  1  0.31683200  0.31683200  0.00000000  1
  O  O19  1  0.81683200  0.81683200  0.00000000  1
  O  O20  1  0.21017200  0.39236600  0.49430400  1
  O  O21  1  0.71017200  0.21586700  0.81780600  1
  O  O22  1  0.46532400  0.45254700  0.34870300  1
  O  O23  1  0.60384400  0.95254700  0.98722200  1
  O  O24  1  0.89806100  0.71586700  0.50569600  1
  O  O25  1  0.39806100  0.89236600  0.18219400  1
  O  O26  1  0.10384400  0.11662100  0.65129700  1
  O  O27  1  0.96532400  0.61662100  0.01277800  1
  O  O28  1  0.48334000  0.88300900  0.62464000  1
  O  O29  1  0.98334000  0.35870000  0.60033100  1
  O  O30  1  0.61791100  0.73914900  0.10179500  1
  O  O31  1  0.13735400  0.23914900  0.12123800  1
  O  O32  1  0.25837000  0.85870000  0.37536000  1
  O  O33  1  0.75837000  0.38300900  0.39966900  1
  O  O34  1  0.63735400  0.51611600  0.89820500  1
  O  O35  1  0.11791100  0.01611600  0.87876200  1
  O  O36  1  0.23783100  0.91984400  0.67645400  1
  O  O37  1  0.73783100  0.06137700  0.31798700  1
  O  O38  1  0.30994900  0.47620300  0.80924100  1
  O  O39  1  0.16696200  0.97620300  0.16625400  1
  O  O40  1  0.24339000  0.56137700  0.32354600  1
  O  O41  1  0.74339000  0.41984400  0.68201300  1
  O  O42  1  0.66696200  0.50070800  0.19075900  1
  O  O43  1  0.80994900  0.00070800  0.83374600  1
  O  O44  1  0.34468100  0.65404000  0.65898300  1
  O  O45  1  0.84468100  0.18569900  0.69064100  1
  O  O46  1  0.38423700  0.57733100  0.13912800  1
  O  O47  1  0.93820400  0.07733100  0.19309500  1
  O  O48  1  0.99505700  0.68569900  0.34101700  1
  O  O49  1  0.49505700  0.15404000  0.30935900  1
  O  O50  1  0.43820400  0.24510900  0.86087200  1
  O  O51  1  0.88423700  0.74510900  0.80690500  1
  O  O52  1  0.18456000  0.68605900  0.82985800  1
  O  O53  1  0.68456000  0.85470100  0.49850000  1
  O  O54  1  0.85620100  0.35470100  0.17014200  1
  O  O55  1  0.35620100  0.18605900  0.50150000  1
