# generated using pymatgen
data_Yb5ErCl13
_symmetry_space_group_name_H-M   'P 1'
_cell_length_a   6.47934400
_cell_length_b   6.92239026
_cell_length_c   20.78905448
_cell_angle_alpha   98.29167366
_cell_angle_beta   98.89595602
_cell_angle_gamma   89.94437937
_symmetry_Int_Tables_number   1
_chemical_formula_structural   Yb5ErCl13
_chemical_formula_sum   'Yb10 Er2 Cl26'
_cell_volume   911.37871798
_cell_formula_units_Z   2
loop_
 _symmetry_equiv_pos_site_id
 _symmetry_equiv_pos_as_xyz
  1  'x, y, z'
loop_
 _atom_site_type_symbol
 _atom_site_label
 _atom_site_symmetry_multiplicity
 _atom_site_fract_x
 _atom_site_fract_y
 _atom_site_fract_z
 _atom_site_occupancy
  Yb  Yb0  1  0.34584100  0.65205000  0.24005000  1
  Yb  Yb1  1  0.10717600  0.84716000  0.75533500  1
  Yb  Yb2  1  0.64978900  0.34307000  0.75522300  1
  Yb  Yb3  1  0.89281400  0.15226600  0.23940200  1
  Yb  Yb4  1  0.01991300  0.37865100  0.59316400  1
  Yb  Yb5  1  0.57342100  0.87457100  0.59364900  1
  Yb  Yb6  1  0.97779700  0.62310100  0.40967500  1
  Yb  Yb7  1  0.27409700  0.99055600  0.08197200  1
  Yb  Yb8  1  0.72894100  0.01204100  0.92047400  1
  Yb  Yb9  1  0.80938400  0.48905600  0.08225600  1
  Er  Er10  1  0.42960900  0.12125700  0.40947000  1
  Er  Er11  1  0.19096000  0.51593300  0.92090800  1
  Cl  Cl12  1  0.21817700  0.39387800  0.32518500  1
  Cl  Cl13  1  0.89304800  0.10101500  0.67569200  1
  Cl  Cl14  1  0.78420300  0.60140800  0.67726200  1
  Cl  Cl15  1  0.11317700  0.90847500  0.32576000  1
  Cl  Cl16  1  0.26487400  0.88966100  0.48394700  1
  Cl  Cl17  1  0.77941300  0.61364100  0.51442900  1
  Cl  Cl18  1  0.73077300  0.11409700  0.51120900  1
  Cl  Cl19  1  0.23223700  0.38009600  0.48364500  1
  Cl  Cl20  1  0.14096300  0.32050800  0.16032500  1
  Cl  Cl21  1  0.98515500  0.18912600  0.84131600  1
  Cl  Cl22  1  0.86519400  0.67684300  0.84137500  1
  Cl  Cl23  1  0.01922000  0.82028200  0.16076800  1
  Cl  Cl24  1  0.06340700  0.25774300  0.99800800  1
  Cl  Cl25  1  0.94210600  0.74424300  0.99878700  1
  Cl  Cl26  1  0.50664600  0.98399900  0.20978200  1
  Cl  Cl27  1  0.29559300  0.51500000  0.79406400  1
  Cl  Cl28  1  0.49783300  0.01339100  0.79156600  1
  Cl  Cl29  1  0.70384900  0.48651900  0.21115300  1
  Cl  Cl30  1  0.60694400  0.79096200  0.36043600  1
  Cl  Cl31  1  0.25214200  0.71400900  0.64016700  1
  Cl  Cl32  1  0.38787400  0.21559800  0.64017700  1
  Cl  Cl33  1  0.73794400  0.28021300  0.36094200  1
  Cl  Cl34  1  0.41291200  0.62112800  0.06447500  1
  Cl  Cl35  1  0.34570800  0.86936600  0.93135200  1
  Cl  Cl36  1  0.56802300  0.37764400  0.93112900  1
  Cl  Cl37  1  0.65284600  0.12144200  0.06546700  1
