# generated using pymatgen
data_Yb2CdPd3
_symmetry_space_group_name_H-M   'P 1'
_cell_length_a   4.81174800
_cell_length_b   4.81174800
_cell_length_c   11.68290800
_cell_angle_alpha   90.00000000
_cell_angle_beta   90.00000000
_cell_angle_gamma   119.99999995
_symmetry_Int_Tables_number   1
_chemical_formula_structural   Yb2CdPd3
_chemical_formula_sum   'Yb4 Cd2 Pd6'
_cell_volume   234.25417341
_cell_formula_units_Z   2
loop_
 _symmetry_equiv_pos_site_id
 _symmetry_equiv_pos_as_xyz
  1  'x, y, z'
loop_
 _atom_site_type_symbol
 _atom_site_label
 _atom_site_symmetry_multiplicity
 _atom_site_fract_x
 _atom_site_fract_y
 _atom_site_fract_z
 _atom_site_occupancy
  Yb  Yb0  1  0.00000000  0.00000000  0.50000000  1
  Yb  Yb1  1  0.33333300  0.66666700  0.17826700  1
  Yb  Yb2  1  0.66666700  0.33333300  0.82173300  1
  Yb  Yb3  1  0.00000000  0.00000000  0.00000000  1
  Cd  Cd4  1  0.33333300  0.66666700  0.66555200  1
  Cd  Cd5  1  0.66666700  0.33333300  0.33444800  1
  Pd  Pd6  1  0.33333300  0.66666700  0.42089400  1
  Pd  Pd7  1  0.66666700  0.33333300  0.08632900  1
  Pd  Pd8  1  0.00000000  0.00000000  0.74763100  1
  Pd  Pd9  1  0.00000000  0.00000000  0.25236900  1
  Pd  Pd10  1  0.33333300  0.66666700  0.91367100  1
  Pd  Pd11  1  0.66666700  0.33333300  0.57910600  1
