# generated using pymatgen
data_Yb2USe3O2
_symmetry_space_group_name_H-M   'P 1'
_cell_length_a   11.20024136
_cell_length_b   11.20024136
_cell_length_c   11.20024136
_cell_angle_alpha   160.08444154
_cell_angle_beta   160.08444154
_cell_angle_gamma   28.31039495
_symmetry_Int_Tables_number   1
_chemical_formula_structural   Yb2USe3O2
_chemical_formula_sum   'Yb2 U1 Se3 O2'
_cell_volume   162.94984028
_cell_formula_units_Z   1
loop_
 _symmetry_equiv_pos_site_id
 _symmetry_equiv_pos_as_xyz
  1  'x, y, z'
loop_
 _atom_site_type_symbol
 _atom_site_label
 _atom_site_symmetry_multiplicity
 _atom_site_fract_x
 _atom_site_fract_y
 _atom_site_fract_z
 _atom_site_occupancy
  Yb  Yb0  1  0.99267800  0.99267800  0.00000000  1
  Yb  Yb1  1  0.30789200  0.30789200  0.00000000  1
  U  U2  1  0.69584300  0.69584300  0.00000000  1
  Se  Se3  1  0.86185600  0.86185600  0.00000000  1
  Se  Se4  1  0.12804500  0.12804500  0.00000000  1
  Se  Se5  1  0.53373200  0.53373200  0.00000000  1
  O  O6  1  0.73997700  0.23997700  0.50000000  1
  O  O7  1  0.23997700  0.73997700  0.50000000  1
