# generated using pymatgen
data_Yb2Ge3Pd
_symmetry_space_group_name_H-M   'P 1'
_cell_length_a   4.04202100
_cell_length_b   4.33524060
_cell_length_c   7.40967849
_cell_angle_alpha   89.73381170
_cell_angle_beta   90.00000000
_cell_angle_gamma   90.00000000
_symmetry_Int_Tables_number   1
_chemical_formula_structural   Yb2Ge3Pd
_chemical_formula_sum   'Yb2 Ge3 Pd1'
_cell_volume   129.83938450
_cell_formula_units_Z   1
loop_
 _symmetry_equiv_pos_site_id
 _symmetry_equiv_pos_as_xyz
  1  'x, y, z'
loop_
 _atom_site_type_symbol
 _atom_site_label
 _atom_site_symmetry_multiplicity
 _atom_site_fract_x
 _atom_site_fract_y
 _atom_site_fract_z
 _atom_site_occupancy
  Yb  Yb0  1  0.00000000  0.00036200  0.00767600  1
  Yb  Yb1  1  0.00000000  0.49970000  0.49341700  1
  Ge  Ge2  1  0.50000000  0.50208100  0.83536800  1
  Ge  Ge3  1  0.50000000  0.49976200  0.16789100  1
  Ge  Ge4  1  0.50000000  0.99772800  0.66516900  1
  Pd  Pd5  1  0.50000000  0.00016700  0.33048000  1
