# generated using pymatgen
data_Zn2Mo(WO4)2
_symmetry_space_group_name_H-M   'P 1'
_cell_length_a   6.30344500
_cell_length_b   6.33827068
_cell_length_c   9.48810683
_cell_angle_alpha   89.62006825
_cell_angle_beta   89.72611396
_cell_angle_gamma   60.41295574
_symmetry_Int_Tables_number   1
_chemical_formula_structural   Zn2Mo(WO4)2
_chemical_formula_sum   'Zn4 Mo2 W4 O16'
_cell_volume   329.64078688
_cell_formula_units_Z   2
loop_
 _symmetry_equiv_pos_site_id
 _symmetry_equiv_pos_as_xyz
  1  'x, y, z'
loop_
 _atom_site_type_symbol
 _atom_site_label
 _atom_site_symmetry_multiplicity
 _atom_site_fract_x
 _atom_site_fract_y
 _atom_site_fract_z
 _atom_site_occupancy
  Zn  Zn0  1  0.33205300  0.33731700  0.03667100  1
  Zn  Zn1  1  0.65903300  0.67215900  0.53969400  1
  Zn  Zn2  1  0.33166100  0.33427600  0.41582000  1
  Zn  Zn3  1  0.67395600  0.66327500  0.91532800  1
  Mo  Mo4  1  0.16581800  0.67101200  0.74171500  1
  Mo  Mo5  1  0.16721900  0.16580100  0.74521900  1
  W  W6  1  0.67630400  0.16254400  0.74305600  1
  W  W7  1  0.83570000  0.32887800  0.24312300  1
  W  W8  1  0.83519900  0.83681100  0.24330000  1
  W  W9  1  0.32808900  0.83670900  0.24307000  1
  O  O10  1  0.98886100  0.99899600  0.85410800  1
  O  O11  1  0.99923200  0.00093200  0.35496800  1
  O  O12  1  0.50460600  0.02965400  0.86560900  1
  O  O13  1  0.48780600  0.47727800  0.86739300  1
  O  O14  1  0.03210300  0.49083100  0.86843600  1
  O  O15  1  0.51540000  0.96772900  0.36719600  1
  O  O16  1  0.51538500  0.51632000  0.36452000  1
  O  O17  1  0.96296100  0.51829600  0.36940400  1
  O  O18  1  0.34860500  0.32965300  0.62787000  1
  O  O19  1  0.66643600  0.66747500  0.12632900  1
  O  O20  1  0.16490100  0.67026000  0.14323700  1
  O  O21  1  0.16629600  0.16615400  0.14250500  1
  O  O22  1  0.67096900  0.16474200  0.14235300  1
  O  O23  1  0.80959700  0.33178600  0.64128400  1
  O  O24  1  0.83193400  0.83772800  0.64388500  1
  O  O25  1  0.32987600  0.82338500  0.64090500  1
