# generated using pymatgen
data_NaCr2BiO6
_symmetry_space_group_name_H-M   'P 1'
_cell_length_a   5.48289511
_cell_length_b   5.48289511
_cell_length_c   5.48289543
_cell_angle_alpha   59.64308963
_cell_angle_beta   59.64308963
_cell_angle_gamma   59.64308967
_symmetry_Int_Tables_number   1
_chemical_formula_structural   NaCr2BiO6
_chemical_formula_sum   'Na1 Cr2 Bi1 O6'
_cell_volume   115.60545966
_cell_formula_units_Z   1
loop_
 _symmetry_equiv_pos_site_id
 _symmetry_equiv_pos_as_xyz
  1  'x, y, z'
loop_
 _atom_site_type_symbol
 _atom_site_label
 _atom_site_symmetry_multiplicity
 _atom_site_fract_x
 _atom_site_fract_y
 _atom_site_fract_z
 _atom_site_occupancy
  Na  Na0  1  0.72939700  0.72939700  0.72939700  1
  Cr  Cr1  1  0.98915200  0.98915200  0.98915200  1
  Cr  Cr2  1  0.49140300  0.49140300  0.49140300  1
  Bi  Bi3  1  0.21271600  0.21271600  0.21271600  1
  O  O4  1  0.67261700  0.24587300  0.83027300  1
  O  O5  1  0.24587300  0.83027300  0.67261700  1
  O  O6  1  0.83027300  0.67261700  0.24587300  1
  O  O7  1  0.16814400  0.32018400  0.77444100  1
  O  O8  1  0.77444100  0.16814400  0.32018400  1
  O  O9  1  0.32018400  0.77444100  0.16814400  1
