# generated using pymatgen
data_YCo4Ge
_symmetry_space_group_name_H-M   'P 1'
_cell_length_a   4.93286975
_cell_length_b   4.93286975
_cell_length_c   3.99851000
_cell_angle_alpha   90.00000000
_cell_angle_beta   90.00000000
_cell_angle_gamma   119.63713900
_symmetry_Int_Tables_number   1
_chemical_formula_structural   YCo4Ge
_chemical_formula_sum   'Y1 Co4 Ge1'
_cell_volume   84.56769569
_cell_formula_units_Z   1
loop_
 _symmetry_equiv_pos_site_id
 _symmetry_equiv_pos_as_xyz
  1  'x, y, z'
loop_
 _atom_site_type_symbol
 _atom_site_label
 _atom_site_symmetry_multiplicity
 _atom_site_fract_x
 _atom_site_fract_y
 _atom_site_fract_z
 _atom_site_occupancy
  Y  Y0  1  0.00000000  0.00000000  0.00000000  1
  Co  Co1  1  0.66756400  0.33243600  0.00000000  1
  Co  Co2  1  0.33243600  0.66756400  0.00000000  1
  Co  Co3  1  0.50000000  0.00000000  0.50000000  1
  Co  Co4  1  0.00000000  0.50000000  0.50000000  1
  Ge  Ge5  1  0.50000000  0.50000000  0.50000000  1
