# generated using pymatgen
data_YLuCr2O8
_symmetry_space_group_name_H-M   'P 1'
_cell_length_a   5.94934225
_cell_length_b   5.94934225
_cell_length_c   5.94934225
_cell_angle_alpha   106.06499624
_cell_angle_beta   106.06499624
_cell_angle_gamma   116.52221296
_symmetry_Int_Tables_number   1
_chemical_formula_structural   YLuCr2O8
_chemical_formula_sum   'Y1 Lu1 Cr2 O8'
_cell_volume   160.23780676
_cell_formula_units_Z   1
loop_
 _symmetry_equiv_pos_site_id
 _symmetry_equiv_pos_as_xyz
  1  'x, y, z'
loop_
 _atom_site_type_symbol
 _atom_site_label
 _atom_site_symmetry_multiplicity
 _atom_site_fract_x
 _atom_site_fract_y
 _atom_site_fract_z
 _atom_site_occupancy
  Y  Y0  1  0.00000000  0.00000000  0.00000000  1
  Lu  Lu1  1  0.75000000  0.25000000  0.50000000  1
  Cr  Cr2  1  0.25000000  0.75000000  0.50000000  1
  Cr  Cr3  1  0.50000000  0.50000000  0.00000000  1
  O  O4  1  0.07121100  0.75405200  0.68284000  1
  O  O5  1  0.07121100  0.38837100  0.31716000  1
  O  O6  1  0.67395100  0.86126200  0.18731200  1
  O  O7  1  0.67395100  0.48663900  0.81268800  1
  O  O8  1  0.61162900  0.92878900  0.68284000  1
  O  O9  1  0.24594800  0.92878900  0.31716000  1
  O  O10  1  0.51336100  0.32604900  0.18731200  1
  O  O11  1  0.13873800  0.32604900  0.81268800  1
