# generated using pymatgen
data_Yb3Fe3S8
_symmetry_space_group_name_H-M   'P 1'
_cell_length_a   7.61503245
_cell_length_b   7.61503245
_cell_length_c   7.61503209
_cell_angle_alpha   58.29457115
_cell_angle_beta   58.29457115
_cell_angle_gamma   58.29457544
_symmetry_Int_Tables_number   1
_chemical_formula_structural   Yb3Fe3S8
_chemical_formula_sum   'Yb3 Fe3 S8'
_cell_volume   300.05270337
_cell_formula_units_Z   1
loop_
 _symmetry_equiv_pos_site_id
 _symmetry_equiv_pos_as_xyz
  1  'x, y, z'
loop_
 _atom_site_type_symbol
 _atom_site_label
 _atom_site_symmetry_multiplicity
 _atom_site_fract_x
 _atom_site_fract_y
 _atom_site_fract_z
 _atom_site_occupancy
  Yb  Yb0  1  0.00000000  0.50000000  0.50000000  1
  Yb  Yb1  1  0.50000000  0.50000000  0.00000000  1
  Yb  Yb2  1  0.50000000  0.00000000  0.50000000  1
  Fe  Fe3  1  0.12944100  0.12944100  0.12944100  1
  Fe  Fe4  1  0.87055900  0.87055900  0.87055900  1
  Fe  Fe5  1  0.50000000  0.50000000  0.50000000  1
  S  S6  1  0.24486300  0.24486300  0.24486300  1
  S  S7  1  0.74777600  0.27023100  0.27023100  1
  S  S8  1  0.27023100  0.27023100  0.74777600  1
  S  S9  1  0.27023100  0.74777600  0.27023100  1
  S  S10  1  0.75513700  0.75513700  0.75513700  1
  S  S11  1  0.25222400  0.72976900  0.72976900  1
  S  S12  1  0.72976900  0.72976900  0.25222400  1
  S  S13  1  0.72976900  0.25222400  0.72976900  1
