# generated using pymatgen
data_YTiFe11N
_symmetry_space_group_name_H-M   'P 1'
_cell_length_a   4.80849000
_cell_length_b   6.52723379
_cell_length_c   6.52723379
_cell_angle_alpha   97.52739398
_cell_angle_beta   111.61331215
_cell_angle_gamma   68.38668785
_symmetry_Int_Tables_number   1
_chemical_formula_structural   YTiFe11N
_chemical_formula_sum   'Y1 Ti1 Fe11 N1'
_cell_volume   177.06710650
_cell_formula_units_Z   1
loop_
 _symmetry_equiv_pos_site_id
 _symmetry_equiv_pos_as_xyz
  1  'x, y, z'
loop_
 _atom_site_type_symbol
 _atom_site_label
 _atom_site_symmetry_multiplicity
 _atom_site_fract_x
 _atom_site_fract_y
 _atom_site_fract_z
 _atom_site_occupancy
  Y  Y0  1  0.00654800  0.99345200  0.00654800  1
  Ti  Ti1  1  0.63493500  0.36506500  0.63493500  1
  Fe  Fe2  1  0.72598800  0.77401200  0.22598800  1
  Fe  Fe3  1  0.27719300  0.22280700  0.77719300  1
  Fe  Fe4  1  0.49728300  0.77999700  0.77456300  1
  Fe  Fe5  1  0.49728300  0.22543700  0.22000300  1
  Fe  Fe6  1  0.49997100  0.99735500  0.49844400  1
  Fe  Fe7  1  0.00111800  0.99735500  0.49844400  1
  Fe  Fe8  1  0.49997100  0.50155600  0.00264500  1
  Fe  Fe9  1  0.00111800  0.50155600  0.00264500  1
  Fe  Fe10  1  0.35758000  0.64242000  0.35758000  1
  Fe  Fe11  1  0.99988000  0.35935700  0.35911600  1
  Fe  Fe12  1  0.99988000  0.64088400  0.64064300  1
  N  N13  1  0.50125200  0.99874800  0.00125200  1
