# generated using pymatgen
data_Yb4CrSe7
_symmetry_space_group_name_H-M   'P 1'
_cell_length_a   7.41027879
_cell_length_b   7.41027879
_cell_length_c   11.52214876
_cell_angle_alpha   72.65569917
_cell_angle_beta   72.65569917
_cell_angle_gamma   30.89719847
_symmetry_Int_Tables_number   1
_chemical_formula_structural   Yb4CrSe7
_chemical_formula_sum   'Yb4 Cr1 Se7'
_cell_volume   308.96449558
_cell_formula_units_Z   1
loop_
 _symmetry_equiv_pos_site_id
 _symmetry_equiv_pos_as_xyz
  1  'x, y, z'
loop_
 _atom_site_type_symbol
 _atom_site_label
 _atom_site_symmetry_multiplicity
 _atom_site_fract_x
 _atom_site_fract_y
 _atom_site_fract_z
 _atom_site_occupancy
  Yb  Yb0  1  0.69162500  0.69162500  0.17205200  1
  Yb  Yb1  1  0.29866800  0.29866800  0.76716000  1
  Yb  Yb2  1  0.01618700  0.01618700  0.00241500  1
  Yb  Yb3  1  0.09716800  0.09716800  0.56049700  1
  Cr  Cr4  1  0.89093100  0.89093100  0.42875200  1
  Se  Se5  1  0.73305600  0.73305600  0.60480800  1
  Se  Se6  1  0.30655800  0.30655800  0.34499300  1
  Se  Se7  1  0.35150500  0.35150500  0.12137000  1
  Se  Se8  1  0.66864900  0.66864900  0.93720000  1
  Se  Se9  1  0.03808100  0.03808100  0.24866900  1
  Se  Se10  1  0.94840000  0.94840000  0.79373100  1
  Se  Se11  1  0.45917200  0.45917200  0.51835400  1
