# generated using pymatgen
data_Yb2Fe4Si9
_symmetry_space_group_name_H-M   'P 1'
_cell_length_a   3.92724977
_cell_length_b   3.92724977
_cell_length_c   16.73566600
_cell_angle_alpha   90.00000000
_cell_angle_beta   90.00000000
_cell_angle_gamma   119.99999610
_symmetry_Int_Tables_number   1
_chemical_formula_structural   Yb2Fe4Si9
_chemical_formula_sum   'Yb2 Fe4 Si9'
_cell_volume   223.53765682
_cell_formula_units_Z   1
loop_
 _symmetry_equiv_pos_site_id
 _symmetry_equiv_pos_as_xyz
  1  'x, y, z'
loop_
 _atom_site_type_symbol
 _atom_site_label
 _atom_site_symmetry_multiplicity
 _atom_site_fract_x
 _atom_site_fract_y
 _atom_site_fract_z
 _atom_site_occupancy
  Yb  Yb0  1  0.33333300  0.66666700  0.24050500  1
  Yb  Yb1  1  0.66666700  0.33333300  0.75949500  1
  Fe  Fe2  1  0.33333300  0.66666700  0.57805500  1
  Fe  Fe3  1  0.66666700  0.33333300  0.42194500  1
  Fe  Fe4  1  0.66666700  0.33333300  0.09686900  1
  Fe  Fe5  1  0.33333300  0.66666700  0.90313100  1
  Si  Si6  1  0.00000000  0.00000000  0.64601800  1
  Si  Si7  1  0.00000000  0.00000000  0.35398200  1
  Si  Si8  1  0.00000000  0.00000000  0.12247400  1
  Si  Si9  1  0.00000000  0.00000000  0.87752600  1
  Si  Si10  1  0.33333300  0.66666700  0.42815000  1
  Si  Si11  1  0.66666700  0.33333300  0.57185000  1
  Si  Si12  1  0.66666700  0.33333300  0.95838600  1
  Si  Si13  1  0.33333300  0.66666700  0.04161400  1
  Si  Si14  1  0.00000000  0.00000000  0.50000000  1
