# generated using pymatgen
data_Yb4FeS7
_symmetry_space_group_name_H-M   'P 1'
_cell_length_a   6.88405877
_cell_length_b   6.88405877
_cell_length_c   10.71452701
_cell_angle_alpha   73.92899942
_cell_angle_beta   73.92899942
_cell_angle_gamma   32.25512699
_symmetry_Int_Tables_number   1
_chemical_formula_structural   Yb4FeS7
_chemical_formula_sum   'Yb4 Fe1 S7'
_cell_volume   259.49334743
_cell_formula_units_Z   1
loop_
 _symmetry_equiv_pos_site_id
 _symmetry_equiv_pos_as_xyz
  1  'x, y, z'
loop_
 _atom_site_type_symbol
 _atom_site_label
 _atom_site_symmetry_multiplicity
 _atom_site_fract_x
 _atom_site_fract_y
 _atom_site_fract_z
 _atom_site_occupancy
  Yb  Yb0  1  0.68742300  0.68742300  0.18331400  1
  Yb  Yb1  1  0.30558200  0.30558200  0.77061500  1
  Yb  Yb2  1  0.01774400  0.01774400  0.99742400  1
  Yb  Yb3  1  0.09375200  0.09375200  0.55305000  1
  Fe  Fe4  1  0.88969400  0.88969400  0.42793900  1
  S  S5  1  0.73554500  0.73554500  0.59391900  1
  S  S6  1  0.31294600  0.31294600  0.33823500  1
  S  S7  1  0.35115700  0.35115700  0.13520400  1
  S  S8  1  0.67022700  0.67022700  0.94234100  1
  S  S9  1  0.03448700  0.03448700  0.25666700  1
  S  S10  1  0.95134600  0.95134600  0.78657300  1
  S  S11  1  0.45009800  0.45009800  0.51471800  1
