# generated using pymatgen
data_YCo4B
_symmetry_space_group_name_H-M   'P 1'
_cell_length_a   4.99161218
_cell_length_b   4.99308264
_cell_length_c   3.50456100
_cell_angle_alpha   90.00000000
_cell_angle_beta   90.00000000
_cell_angle_gamma   119.99023949
_symmetry_Int_Tables_number   1
_chemical_formula_structural   YCo4B
_chemical_formula_sum   'Y1 Co4 B1'
_cell_volume   75.65132701
_cell_formula_units_Z   1
loop_
 _symmetry_equiv_pos_site_id
 _symmetry_equiv_pos_as_xyz
  1  'x, y, z'
loop_
 _atom_site_type_symbol
 _atom_site_label
 _atom_site_symmetry_multiplicity
 _atom_site_fract_x
 _atom_site_fract_y
 _atom_site_fract_z
 _atom_site_occupancy
  Y  Y0  1  0.00002000  0.00004100  0.00000000  1
  Co  Co1  1  0.49107700  0.98211300  0.50000000  1
  Co  Co2  1  0.49121200  0.50903100  0.50000000  1
  Co  Co3  1  0.01779700  0.50900000  0.50000000  1
  Co  Co4  1  0.66647800  0.33303300  0.00000000  1
  B  B5  1  0.33331700  0.66678200  0.00000000  1
