# generated using pymatgen
data_YEr3V4O16
_symmetry_space_group_name_H-M   'P 1'
_cell_length_a   5.98130662
_cell_length_b   5.98130662
_cell_length_c   10.15116500
_cell_angle_alpha   90.00000000
_cell_angle_beta   90.00000000
_cell_angle_gamma   116.06641924
_symmetry_Int_Tables_number   1
_chemical_formula_structural   YEr3V4O16
_chemical_formula_sum   'Y1 Er3 V4 O16'
_cell_volume   326.22879845
_cell_formula_units_Z   1
loop_
 _symmetry_equiv_pos_site_id
 _symmetry_equiv_pos_as_xyz
  1  'x, y, z'
loop_
 _atom_site_type_symbol
 _atom_site_label
 _atom_site_symmetry_multiplicity
 _atom_site_fract_x
 _atom_site_fract_y
 _atom_site_fract_z
 _atom_site_occupancy
  Y  Y0  1  0.00000000  0.00000000  0.50000000  1
  Er  Er1  1  0.50000000  0.50000000  0.00000000  1
  Er  Er2  1  0.00000000  0.50000000  0.75089500  1
  Er  Er3  1  0.50000000  0.00000000  0.24910500  1
  V  V4  1  0.50000000  0.50000000  0.50000000  1
  V  V5  1  0.00000000  0.00000000  0.00000000  1
  V  V6  1  0.50000000  0.00000000  0.75155700  1
  V  V7  1  0.00000000  0.50000000  0.24844300  1
  O  O8  1  0.76833400  0.58144300  0.59342600  1
  O  O9  1  0.26919000  0.08318600  0.09301900  1
  O  O10  1  0.58144300  0.76833400  0.40657400  1
  O  O11  1  0.08318600  0.26919000  0.90698100  1
  O  O12  1  0.91467600  0.23064600  0.34134500  1
  O  O13  1  0.41713500  0.73048500  0.84398700  1
  O  O14  1  0.23064600  0.91467600  0.65865500  1
  O  O15  1  0.73048500  0.41713500  0.15601300  1
  O  O16  1  0.41855700  0.23166600  0.40657400  1
  O  O17  1  0.91681400  0.73081000  0.90698100  1
  O  O18  1  0.23166600  0.41855700  0.59342600  1
  O  O19  1  0.73081000  0.91681400  0.09301900  1
  O  O20  1  0.76935400  0.08532400  0.65865500  1
  O  O21  1  0.26951500  0.58286500  0.15601300  1
  O  O22  1  0.08532400  0.76935400  0.34134500  1
  O  O23  1  0.58286500  0.26951500  0.84398700  1
