# generated using pymatgen
data_Y2Ge3
_symmetry_space_group_name_H-M   'P 1'
_cell_length_a   4.39242643
_cell_length_b   4.39242643
_cell_length_c   7.10729500
_cell_angle_alpha   90.00000000
_cell_angle_beta   90.00000000
_cell_angle_gamma   120.00000652
_symmetry_Int_Tables_number   1
_chemical_formula_structural   Y2Ge3
_chemical_formula_sum   'Y2 Ge3'
_cell_volume   118.75282173
_cell_formula_units_Z   1
loop_
 _symmetry_equiv_pos_site_id
 _symmetry_equiv_pos_as_xyz
  1  'x, y, z'
loop_
 _atom_site_type_symbol
 _atom_site_label
 _atom_site_symmetry_multiplicity
 _atom_site_fract_x
 _atom_site_fract_y
 _atom_site_fract_z
 _atom_site_occupancy
  Y  Y0  1  0.00000000  0.00000000  0.72992900  1
  Y  Y1  1  0.00000000  0.00000000  0.27007100  1
  Ge  Ge2  1  0.33333300  0.66666700  0.00000000  1
  Ge  Ge3  1  0.66666700  0.33333300  0.50000000  1
  Ge  Ge4  1  0.66666700  0.33333300  0.00000000  1
