# generated using pymatgen
data_Y6Mg(GeS7)2
_symmetry_space_group_name_H-M   'P 1'
_cell_length_a   9.96558408
_cell_length_b   9.96558408
_cell_length_c   5.69399300
_cell_angle_alpha   90.00000000
_cell_angle_beta   90.00000000
_cell_angle_gamma   120.00000053
_symmetry_Int_Tables_number   1
_chemical_formula_structural   Y6Mg(GeS7)2
_chemical_formula_sum   'Y6 Mg1 Ge2 S14'
_cell_volume   489.72590062
_cell_formula_units_Z   1
loop_
 _symmetry_equiv_pos_site_id
 _symmetry_equiv_pos_as_xyz
  1  'x, y, z'
loop_
 _atom_site_type_symbol
 _atom_site_label
 _atom_site_symmetry_multiplicity
 _atom_site_fract_x
 _atom_site_fract_y
 _atom_site_fract_z
 _atom_site_occupancy
  Y  Y0  1  0.64343100  0.76931000  0.75169500  1
  Y  Y1  1  0.12587900  0.35656900  0.75169500  1
  Y  Y2  1  0.23069000  0.87412100  0.75169500  1
  Y  Y3  1  0.35579600  0.23048400  0.24926200  1
  Y  Y4  1  0.87468800  0.64420400  0.24926200  1
  Y  Y5  1  0.76951600  0.12531200  0.24926200  1
  Mg  Mg6  1  0.00000000  0.00000000  0.51758100  1
  Ge  Ge7  1  0.33333300  0.66666700  0.17075900  1
  Ge  Ge8  1  0.66666700  0.33333300  0.66688800  1
  S  S9  1  0.48405600  0.89963600  0.00664500  1
  S  S10  1  0.41557900  0.51594400  0.00664500  1
  S  S11  1  0.10036400  0.58442100  0.00664500  1
  S  S12  1  0.51596300  0.10043100  0.50360800  1
  S  S13  1  0.58446700  0.48403700  0.50360800  1
  S  S14  1  0.89956900  0.41553300  0.50360800  1
  S  S15  1  0.33333300  0.66666700  0.55482300  1
  S  S16  1  0.66666700  0.33333300  0.05164200  1
  S  S17  1  0.74826000  0.83995000  0.28075100  1
  S  S18  1  0.09169000  0.25174000  0.28075100  1
  S  S19  1  0.16005000  0.90831000  0.28075100  1
  S  S20  1  0.25106000  0.16224100  0.76148800  1
  S  S21  1  0.91118100  0.74894000  0.76148800  1
  S  S22  1  0.83775900  0.08881900  0.76148800  1
