# generated using pymatgen
data_Y2TiSnO7
_symmetry_space_group_name_H-M   'P 1'
_cell_length_a   7.32205240
_cell_length_b   7.32205240
_cell_length_c   7.32205240
_cell_angle_alpha   120.14257110
_cell_angle_beta   119.93999789
_cell_angle_gamma   89.92859766
_symmetry_Int_Tables_number   1
_chemical_formula_structural   Y2TiSnO7
_chemical_formula_sum   'Y4 Ti2 Sn2 O14'
_cell_volume   277.40248370
_cell_formula_units_Z   2
loop_
 _symmetry_equiv_pos_site_id
 _symmetry_equiv_pos_as_xyz
  1  'x, y, z'
loop_
 _atom_site_type_symbol
 _atom_site_label
 _atom_site_symmetry_multiplicity
 _atom_site_fract_x
 _atom_site_fract_y
 _atom_site_fract_z
 _atom_site_occupancy
  Y  Y0  1  0.00000000  0.50000000  0.50000000  1
  Y  Y1  1  0.50000000  0.50000000  0.00000000  1
  Y  Y2  1  0.50000000  0.00000000  0.00000000  1
  Y  Y3  1  0.50000000  0.50000000  0.50000000  1
  Ti  Ti4  1  0.50000000  0.00000000  0.50000000  1
  Ti  Ti5  1  0.00000000  0.00000000  0.00000000  1
  Sn  Sn6  1  0.00000000  0.50000000  0.00000000  1
  Sn  Sn7  1  0.00000000  0.00000000  0.50000000  1
  O  O8  1  0.62340800  0.37340800  0.25000000  1
  O  O9  1  0.37659200  0.62659200  0.75000000  1
  O  O10  1  0.34087600  0.07949200  0.66906700  1
  O  O11  1  0.34087600  0.67180900  0.26138400  1
  O  O12  1  0.31945400  0.06945400  0.25000000  1
  O  O13  1  0.91042400  0.67180900  0.83093300  1
  O  O14  1  0.91042400  0.07949200  0.23861600  1
  O  O15  1  0.90479700  0.65479700  0.25000000  1
  O  O16  1  0.65912400  0.92050800  0.33093300  1
  O  O17  1  0.65912400  0.32819100  0.73861600  1
  O  O18  1  0.68054600  0.93054600  0.75000000  1
  O  O19  1  0.08957600  0.32819100  0.16906700  1
  O  O20  1  0.08957600  0.92050800  0.76138400  1
  O  O21  1  0.09520300  0.34520300  0.75000000  1
