# generated using pymatgen
data_Y2ZrWO8
_symmetry_space_group_name_H-M   'P 1'
_cell_length_a   6.67296266
_cell_length_b   6.67296266
_cell_length_c   6.67296266
_cell_angle_alpha   133.24890806
_cell_angle_beta   133.24890806
_cell_angle_gamma   68.26352244
_symmetry_Int_Tables_number   1
_chemical_formula_structural   Y2ZrWO8
_chemical_formula_sum   'Y2 Zr1 W1 O8'
_cell_volume   154.86821969
_cell_formula_units_Z   1
loop_
 _symmetry_equiv_pos_site_id
 _symmetry_equiv_pos_as_xyz
  1  'x, y, z'
loop_
 _atom_site_type_symbol
 _atom_site_label
 _atom_site_symmetry_multiplicity
 _atom_site_fract_x
 _atom_site_fract_y
 _atom_site_fract_z
 _atom_site_occupancy
  Y  Y0  1  0.25000000  0.75000000  0.50000000  1
  Y  Y1  1  0.00000000  0.00000000  0.00000000  1
  Zr  Zr2  1  0.75000000  0.25000000  0.50000000  1
  W  W3  1  0.50000000  0.50000000  0.00000000  1
  O  O4  1  0.59398200  0.18184700  0.95663300  1
  O  O5  1  0.22521300  0.63734800  0.04336700  1
  O  O6  1  0.92071200  0.34501900  0.95807400  1
  O  O7  1  0.38694500  0.96263800  0.04192600  1
  O  O8  1  0.65498100  0.61305500  0.57569300  1
  O  O9  1  0.03736200  0.07928800  0.42430700  1
  O  O10  1  0.36265200  0.40601800  0.58786500  1
  O  O11  1  0.81815300  0.77478700  0.41213500  1
