# generated using pymatgen
data_YAlNi
_symmetry_space_group_name_H-M   'P 1'
_cell_length_a   5.36916116
_cell_length_b   5.37014490
_cell_length_c   8.55166200
_cell_angle_alpha   90.00000000
_cell_angle_beta   90.00000000
_cell_angle_gamma   60.64222052
_symmetry_Int_Tables_number   1
_chemical_formula_structural   YAlNi
_chemical_formula_sum   'Y4 Al4 Ni4'
_cell_volume   214.90567957
_cell_formula_units_Z   4
loop_
 _symmetry_equiv_pos_site_id
 _symmetry_equiv_pos_as_xyz
  1  'x, y, z'
loop_
 _atom_site_type_symbol
 _atom_site_label
 _atom_site_symmetry_multiplicity
 _atom_site_fract_x
 _atom_site_fract_y
 _atom_site_fract_z
 _atom_site_occupancy
  Y  Y0  1  0.33278200  0.33272800  0.54378800  1
  Y  Y1  1  0.66942700  0.66945700  0.42724300  1
  Y  Y2  1  0.66942700  0.66945700  0.07275700  1
  Y  Y3  1  0.33278200  0.33272800  0.95621200  1
  Al  Al4  1  0.99594100  0.99601700  0.48845000  1
  Al  Al5  1  0.99594100  0.99601700  0.01155000  1
  Al  Al6  1  0.83265900  0.34032700  0.75000000  1
  Al  Al7  1  0.34031600  0.83265300  0.75000000  1
  Ni  Ni8  1  0.83256000  0.83255700  0.75000000  1
  Ni  Ni9  1  0.16839400  0.66381600  0.25000000  1
  Ni  Ni10  1  0.66391000  0.16838800  0.25000000  1
  Ni  Ni11  1  0.16586000  0.16585600  0.25000000  1
