# generated using pymatgen
data_Sr8Al7
_symmetry_space_group_name_H-M   'P 1'
_cell_length_a   12.76189500
_cell_length_b   12.76189500
_cell_length_c   12.76189500
_cell_angle_alpha   90.00000000
_cell_angle_beta   90.00000000
_cell_angle_gamma   90.00000000
_symmetry_Int_Tables_number   1
_chemical_formula_structural   Sr8Al7
_chemical_formula_sum   'Sr32 Al28'
_cell_volume   2078.47833153
_cell_formula_units_Z   4
loop_
 _symmetry_equiv_pos_site_id
 _symmetry_equiv_pos_as_xyz
  1  'x, y, z'
loop_
 _atom_site_type_symbol
 _atom_site_label
 _atom_site_symmetry_multiplicity
 _atom_site_fract_x
 _atom_site_fract_y
 _atom_site_fract_z
 _atom_site_occupancy
  Sr  Sr0  1  0.81312500  0.81312500  0.81312500  1
  Sr  Sr1  1  0.68687500  0.18687500  0.31312500  1
  Sr  Sr2  1  0.31312500  0.68687500  0.18687500  1
  Sr  Sr3  1  0.18687500  0.31312500  0.68687500  1
  Sr  Sr4  1  0.18462400  0.18462400  0.18462400  1
  Sr  Sr5  1  0.31537600  0.81537600  0.68462400  1
  Sr  Sr6  1  0.68462400  0.31537600  0.81537600  1
  Sr  Sr7  1  0.81537600  0.68462400  0.31537600  1
  Sr  Sr8  1  0.80348600  0.55966100  0.00591500  1
  Sr  Sr9  1  0.00591500  0.80348600  0.55966100  1
  Sr  Sr10  1  0.55966100  0.00591500  0.80348600  1
  Sr  Sr11  1  0.94033900  0.99408500  0.30348600  1
  Sr  Sr12  1  0.50591500  0.69651400  0.44033900  1
  Sr  Sr13  1  0.44033900  0.50591500  0.69651400  1
  Sr  Sr14  1  0.49408500  0.19651400  0.05966100  1
  Sr  Sr15  1  0.99408500  0.30348600  0.94033900  1
  Sr  Sr16  1  0.05966100  0.49408500  0.19651400  1
  Sr  Sr17  1  0.30348600  0.94033900  0.99408500  1
  Sr  Sr18  1  0.19651400  0.05966100  0.49408500  1
  Sr  Sr19  1  0.69651400  0.44033900  0.50591500  1
  Sr  Sr20  1  0.52273300  0.70501800  0.93597600  1
  Sr  Sr21  1  0.93597600  0.52273300  0.70501800  1
  Sr  Sr22  1  0.70501800  0.93597600  0.52273300  1
  Sr  Sr23  1  0.79498200  0.06402400  0.02273300  1
  Sr  Sr24  1  0.43597600  0.97726700  0.29498200  1
  Sr  Sr25  1  0.29498200  0.43597600  0.97726700  1
  Sr  Sr26  1  0.56402400  0.47726700  0.20501800  1
  Sr  Sr27  1  0.06402400  0.02273300  0.79498200  1
  Sr  Sr28  1  0.20501800  0.56402400  0.47726700  1
  Sr  Sr29  1  0.02273300  0.79498200  0.06402400  1
  Sr  Sr30  1  0.47726700  0.20501800  0.56402400  1
  Sr  Sr31  1  0.97726700  0.29498200  0.43597600  1
  Al  Al32  1  0.43081600  0.43081600  0.43081600  1
  Al  Al33  1  0.06918400  0.56918400  0.93081600  1
  Al  Al34  1  0.93081600  0.06918400  0.56918400  1
  Al  Al35  1  0.56918400  0.93081600  0.06918400  1
  Al  Al36  1  0.75311300  0.19041800  0.57645100  1
  Al  Al37  1  0.57645100  0.75311300  0.19041800  1
  Al  Al38  1  0.19041800  0.57645100  0.75311300  1
  Al  Al39  1  0.30958200  0.42354900  0.25311300  1
  Al  Al40  1  0.07645100  0.74688700  0.80958200  1
  Al  Al41  1  0.80958200  0.07645100  0.74688700  1
  Al  Al42  1  0.92354900  0.24688700  0.69041800  1
  Al  Al43  1  0.42354900  0.25311300  0.30958200  1
  Al  Al44  1  0.69041800  0.92354900  0.24688700  1
  Al  Al45  1  0.25311300  0.30958200  0.42354900  1
  Al  Al46  1  0.24688700  0.69041800  0.92354900  1
  Al  Al47  1  0.74688700  0.80958200  0.07645100  1
  Al  Al48  1  0.75232000  0.68492900  0.58068800  1
  Al  Al49  1  0.58068800  0.75232000  0.68492900  1
  Al  Al50  1  0.68492900  0.58068800  0.75232000  1
  Al  Al51  1  0.81507100  0.41931200  0.25232000  1
  Al  Al52  1  0.08068800  0.74768000  0.31507100  1
  Al  Al53  1  0.31507100  0.08068800  0.74768000  1
  Al  Al54  1  0.91931200  0.24768000  0.18492900  1
  Al  Al55  1  0.41931200  0.25232000  0.81507100  1
  Al  Al56  1  0.18492900  0.91931200  0.24768000  1
  Al  Al57  1  0.25232000  0.81507100  0.41931200  1
  Al  Al58  1  0.24768000  0.18492900  0.91931200  1
  Al  Al59  1  0.74768000  0.31507100  0.08068800  1
