# generated using pymatgen
data_Y6Zn(GeS7)2
_symmetry_space_group_name_H-M   'P 1'
_cell_length_a   9.93144641
_cell_length_b   9.93144641
_cell_length_c   5.71179800
_cell_angle_alpha   90.00000000
_cell_angle_beta   90.00000000
_cell_angle_gamma   120.00000270
_symmetry_Int_Tables_number   1
_chemical_formula_structural   Y6Zn(GeS7)2
_chemical_formula_sum   'Y6 Zn1 Ge2 S14'
_cell_volume   487.89735812
_cell_formula_units_Z   1
loop_
 _symmetry_equiv_pos_site_id
 _symmetry_equiv_pos_as_xyz
  1  'x, y, z'
loop_
 _atom_site_type_symbol
 _atom_site_label
 _atom_site_symmetry_multiplicity
 _atom_site_fract_x
 _atom_site_fract_y
 _atom_site_fract_z
 _atom_site_occupancy
  Y  Y0  1  0.31182100  0.10384100  0.74881900  1
  Y  Y1  1  0.79202000  0.68817900  0.74881900  1
  Y  Y2  1  0.89615900  0.20798000  0.74881900  1
  Y  Y3  1  0.02185900  0.56313900  0.25121400  1
  Y  Y4  1  0.54127900  0.97814100  0.25121400  1
  Y  Y5  1  0.43686100  0.45872100  0.25121400  1
  Zn  Zn6  1  0.66666700  0.33333300  0.51103900  1
  Ge  Ge7  1  0.00000000  0.00000000  0.17117400  1
  Ge  Ge8  1  0.33333300  0.66666700  0.66858800  1
  S  S9  1  0.15071500  0.23356500  0.00727400  1
  S  S10  1  0.08285000  0.84928500  0.00727400  1
  S  S11  1  0.76643500  0.91715000  0.00727400  1
  S  S12  1  0.18296000  0.43328400  0.50474900  1
  S  S13  1  0.25032500  0.81704000  0.50474900  1
  S  S14  1  0.56671600  0.74967500  0.50474900  1
  S  S15  1  0.00000000  0.00000000  0.55422500  1
  S  S16  1  0.33333300  0.66666700  0.05211300  1
  S  S17  1  0.41716300  0.17459200  0.28185900  1
  S  S18  1  0.75742900  0.58283700  0.28185900  1
  S  S19  1  0.82540800  0.24257100  0.28185900  1
  S  S20  1  0.91675700  0.49505100  0.76105400  1
  S  S21  1  0.57829400  0.08324300  0.76105400  1
  S  S22  1  0.50494900  0.42170600  0.76105400  1
