# generated using pymatgen
data_Y4ScSi10
_symmetry_space_group_name_H-M   'P 1'
_cell_length_a   4.05746495
_cell_length_b   4.05746495
_cell_length_c   19.85682300
_cell_angle_alpha   90.00000000
_cell_angle_beta   90.00000000
_cell_angle_gamma   120.00001555
_symmetry_Int_Tables_number   1
_chemical_formula_structural   Y4ScSi10
_chemical_formula_sum   'Y4 Sc1 Si10'
_cell_volume   283.10652747
_cell_formula_units_Z   1
loop_
 _symmetry_equiv_pos_site_id
 _symmetry_equiv_pos_as_xyz
  1  'x, y, z'
loop_
 _atom_site_type_symbol
 _atom_site_label
 _atom_site_symmetry_multiplicity
 _atom_site_fract_x
 _atom_site_fract_y
 _atom_site_fract_z
 _atom_site_occupancy
  Y  Y0  1  0.00000000  0.00000000  0.80581600  1
  Y  Y1  1  0.00000000  0.00000000  0.60130100  1
  Y  Y2  1  0.00000000  0.00000000  0.39869900  1
  Y  Y3  1  0.00000000  0.00000000  0.19418400  1
  Sc  Sc4  1  0.00000000  0.00000000  0.00000000  1
  Si  Si5  1  0.66666700  0.33333300  0.90810200  1
  Si  Si6  1  0.66666700  0.33333300  0.70319800  1
  Si  Si7  1  0.66666700  0.33333300  0.50000000  1
  Si  Si8  1  0.66666700  0.33333300  0.29680200  1
  Si  Si9  1  0.66666700  0.33333300  0.09189800  1
  Si  Si10  1  0.33333300  0.66666700  0.90810200  1
  Si  Si11  1  0.33333300  0.66666700  0.70319800  1
  Si  Si12  1  0.33333300  0.66666700  0.50000000  1
  Si  Si13  1  0.33333300  0.66666700  0.29680200  1
  Si  Si14  1  0.33333300  0.66666700  0.09189800  1
