# generated using pymatgen
data_Y5O4F7
_symmetry_space_group_name_H-M   'P 1'
_cell_length_a   14.28898016
_cell_length_b   14.28898016
_cell_length_c   5.48179902
_cell_angle_alpha   89.86002201
_cell_angle_beta   89.86002201
_cell_angle_gamma   22.67577057
_symmetry_Int_Tables_number   1
_chemical_formula_structural   Y5O4F7
_chemical_formula_sum   'Y10 O8 F14'
_cell_volume   431.48579327
_cell_formula_units_Z   2
loop_
 _symmetry_equiv_pos_site_id
 _symmetry_equiv_pos_as_xyz
  1  'x, y, z'
loop_
 _atom_site_type_symbol
 _atom_site_label
 _atom_site_symmetry_multiplicity
 _atom_site_fract_x
 _atom_site_fract_y
 _atom_site_fract_z
 _atom_site_occupancy
  Y  Y0  1  0.63375900  0.07180200  0.28761700  1
  Y  Y1  1  0.92819800  0.36624100  0.71238300  1
  Y  Y2  1  0.15929300  0.54566200  0.70755400  1
  Y  Y3  1  0.45433800  0.84070700  0.29244600  1
  Y  Y4  1  0.48148100  0.01697100  0.72347200  1
  Y  Y5  1  0.98302900  0.51851900  0.27652800  1
  Y  Y6  1  0.70066200  0.20122400  0.70693400  1
  Y  Y7  1  0.79877600  0.29933800  0.29306600  1
  Y  Y8  1  0.19652600  0.70431600  0.29464900  1
  Y  Y9  1  0.29568400  0.80347400  0.70535100  1
  O  O10  1  0.43034500  0.36954400  0.47281800  1
  O  O11  1  0.63045600  0.56965500  0.52718200  1
  O  O12  1  0.92775400  0.86686100  0.52595300  1
  O  O13  1  0.13313900  0.07224600  0.47404700  1
  O  O14  1  0.48502500  0.51497500  0.50000000  1
  O  O15  1  0.98649400  0.01350600  0.50000000  1
  O  O16  1  0.30916700  0.28595100  0.46260400  1
  O  O17  1  0.71404900  0.69083300  0.53739600  1
  F  F18  1  0.82372100  0.00442900  0.04833400  1
  F  F19  1  0.99557100  0.17627900  0.95166600  1
  F  F20  1  0.32947900  0.49607900  0.95568000  1
  F  F21  1  0.50392100  0.67052100  0.04432000  1
  F  F22  1  0.61376400  0.88943300  0.10922000  1
  F  F23  1  0.11056700  0.38623600  0.89078000  1
  F  F24  1  0.60147300  0.39852700  0.00000000  1
  F  F25  1  0.10068600  0.89931400  0.00000000  1
  F  F26  1  0.81171200  0.78857800  0.54846200  1
  F  F27  1  0.21142200  0.18828800  0.45153800  1
  F  F28  1  0.49096600  0.16528400  0.90680700  1
  F  F29  1  0.83471600  0.50903400  0.09319300  1
  F  F30  1  0.97856700  0.67513800  0.09091300  1
  F  F31  1  0.32486200  0.02143300  0.90908700  1
