# generated using pymatgen
data_Yb29Se32
_symmetry_space_group_name_H-M   'P 1'
_cell_length_a   14.46323795
_cell_length_b   14.46323795
_cell_length_c   14.46323795
_cell_angle_alpha   131.84886629
_cell_angle_beta   131.84886629
_cell_angle_gamma   70.46783113
_symmetry_Int_Tables_number   1
_chemical_formula_structural   Yb29Se32
_chemical_formula_sum   'Yb29 Se32'
_cell_volume   1645.01264728
_cell_formula_units_Z   1
loop_
 _symmetry_equiv_pos_site_id
 _symmetry_equiv_pos_as_xyz
  1  'x, y, z'
loop_
 _atom_site_type_symbol
 _atom_site_label
 _atom_site_symmetry_multiplicity
 _atom_site_fract_x
 _atom_site_fract_y
 _atom_site_fract_z
 _atom_site_occupancy
  Yb  Yb0  1  0.12617100  0.87365800  0.74748600  1
  Yb  Yb1  1  0.37491400  0.62449600  0.24958100  1
  Yb  Yb2  1  0.62508600  0.37550400  0.75041900  1
  Yb  Yb3  1  0.87382900  0.12634200  0.25251400  1
  Yb  Yb4  1  0.74752300  0.74752300  0.49504500  1
  Yb  Yb5  1  0.00000000  0.50000000  0.00000000  1
  Yb  Yb6  1  0.25247700  0.25247700  0.50495500  1
  Yb  Yb7  1  0.50000000  0.00000000  0.00000000  1
  Yb  Yb8  1  0.87365800  0.12617100  0.74748600  1
  Yb  Yb9  1  0.12634200  0.87382900  0.25251400  1
  Yb  Yb10  1  0.37550400  0.62508600  0.75041900  1
  Yb  Yb11  1  0.62449600  0.37491400  0.24958100  1
  Yb  Yb12  1  0.62508600  0.87466700  0.24958100  1
  Yb  Yb13  1  0.87382900  0.62131500  0.74748600  1
  Yb  Yb14  1  0.12617100  0.37868500  0.25251400  1
  Yb  Yb15  1  0.37491400  0.12533300  0.75041900  1
  Yb  Yb16  1  0.00000000  0.00000000  0.50000000  1
  Yb  Yb17  1  0.25247700  0.74752300  0.00000000  1
  Yb  Yb18  1  0.50000000  0.50000000  0.50000000  1
  Yb  Yb19  1  0.74752300  0.25247700  0.00000000  1
  Yb  Yb20  1  0.12533300  0.37491400  0.75041900  1
  Yb  Yb21  1  0.37868500  0.12617100  0.25251400  1
  Yb  Yb22  1  0.62131500  0.87382900  0.74748600  1
  Yb  Yb23  1  0.87466700  0.62508600  0.24958100  1
  Yb  Yb24  1  0.50000000  0.00000000  0.50000000  1
  Yb  Yb25  1  0.75069800  0.75069800  0.00000000  1
  Yb  Yb26  1  0.00000000  0.50000000  0.50000000  1
  Yb  Yb27  1  0.24930200  0.24930200  0.00000000  1
  Yb  Yb28  1  0.00000000  0.00000000  0.00000000  1
  Se  Se29  1  0.87519200  0.87519200  0.50049600  1
  Se  Se30  1  0.12480800  0.62530400  0.00000000  1
  Se  Se31  1  0.37469600  0.37469600  0.49950400  1
  Se  Se32  1  0.62530400  0.12480800  0.00000000  1
  Se  Se33  1  0.12480800  0.12480800  0.49950400  1
  Se  Se34  1  0.37469600  0.87519200  0.00000000  1
  Se  Se35  1  0.62530400  0.62530400  0.50049600  1
  Se  Se36  1  0.87519200  0.37469600  0.00000000  1
  Se  Se37  1  0.75132700  0.00000000  0.75132700  1
  Se  Se38  1  0.99552000  0.74984100  0.24567900  1
  Se  Se39  1  0.24505600  0.50000000  0.74505600  1
  Se  Se40  1  0.49583800  0.25015900  0.24567900  1
  Se  Se41  1  0.37731600  0.87731600  0.50000000  1
  Se  Se42  1  0.62693800  0.62693800  0.00000000  1
  Se  Se43  1  0.87731600  0.37731600  0.50000000  1
  Se  Se44  1  0.12424900  0.12424900  0.00000000  1
  Se  Se45  1  0.50000000  0.24505600  0.74505600  1
  Se  Se46  1  0.74984100  0.99552000  0.24567900  1
  Se  Se47  1  0.00000000  0.75132700  0.75132700  1
  Se  Se48  1  0.25015900  0.49583800  0.24567900  1
  Se  Se49  1  0.24867300  0.00000000  0.24867300  1
  Se  Se50  1  0.50416200  0.74984100  0.75432100  1
  Se  Se51  1  0.75494400  0.50000000  0.25494400  1
  Se  Se52  1  0.00448000  0.25015900  0.75432100  1
  Se  Se53  1  0.62268400  0.12268400  0.50000000  1
  Se  Se54  1  0.87575100  0.87575100  0.00000000  1
  Se  Se55  1  0.12268400  0.62268400  0.50000000  1
  Se  Se56  1  0.37306200  0.37306200  0.00000000  1
  Se  Se57  1  0.50000000  0.75494400  0.25494400  1
  Se  Se58  1  0.74984100  0.50416200  0.75432100  1
  Se  Se59  1  0.00000000  0.24867300  0.24867300  1
  Se  Se60  1  0.25015900  0.00448000  0.75432100  1
