# generated using pymatgen
data_Y(CuSe)3
_symmetry_space_group_name_H-M   'P 1'
_cell_length_a   7.77748845
_cell_length_b   7.77748845
_cell_length_c   7.77748941
_cell_angle_alpha   53.76491288
_cell_angle_beta   53.76491288
_cell_angle_gamma   53.76491582
_symmetry_Int_Tables_number   1
_chemical_formula_structural   Y(CuSe)3
_chemical_formula_sum   'Y2 Cu6 Se6'
_cell_volume   284.17299908
_cell_formula_units_Z   2
loop_
 _symmetry_equiv_pos_site_id
 _symmetry_equiv_pos_as_xyz
  1  'x, y, z'
loop_
 _atom_site_type_symbol
 _atom_site_label
 _atom_site_symmetry_multiplicity
 _atom_site_fract_x
 _atom_site_fract_y
 _atom_site_fract_z
 _atom_site_occupancy
  Y  Y0  1  0.83363200  0.83363200  0.83363200  1
  Y  Y1  1  0.16636800  0.16636800  0.16636800  1
  Cu  Cu2  1  0.27889000  0.96884500  0.62602600  1
  Cu  Cu3  1  0.62602600  0.27889000  0.96884500  1
  Cu  Cu4  1  0.96884500  0.62602600  0.27889000  1
  Cu  Cu5  1  0.03115500  0.37397400  0.72111000  1
  Cu  Cu6  1  0.37397400  0.72111000  0.03115500  1
  Cu  Cu7  1  0.72111000  0.03115500  0.37397400  1
  Se  Se8  1  0.08932400  0.74442600  0.41873000  1
  Se  Se9  1  0.74442600  0.41873000  0.08932400  1
  Se  Se10  1  0.41873000  0.08932400  0.74442600  1
  Se  Se11  1  0.58127000  0.91067600  0.25557400  1
  Se  Se12  1  0.25557400  0.58127000  0.91067600  1
  Se  Se13  1  0.91067600  0.25557400  0.58127000  1
