# generated using pymatgen
data_Y(CuTe)3
_symmetry_space_group_name_H-M   'P 1'
_cell_length_a   8.19113367
_cell_length_b   8.19113367
_cell_length_c   8.19113318
_cell_angle_alpha   54.21358160
_cell_angle_beta   54.21358160
_cell_angle_gamma   54.21357459
_symmetry_Int_Tables_number   1
_chemical_formula_structural   Y(CuTe)3
_chemical_formula_sum   'Y2 Cu6 Te6'
_cell_volume   336.13089301
_cell_formula_units_Z   2
loop_
 _symmetry_equiv_pos_site_id
 _symmetry_equiv_pos_as_xyz
  1  'x, y, z'
loop_
 _atom_site_type_symbol
 _atom_site_label
 _atom_site_symmetry_multiplicity
 _atom_site_fract_x
 _atom_site_fract_y
 _atom_site_fract_z
 _atom_site_occupancy
  Y  Y0  1  0.83441900  0.83441900  0.83441900  1
  Y  Y1  1  0.16558100  0.16558100  0.16558100  1
  Cu  Cu2  1  0.63141800  0.25797600  0.98134100  1
  Cu  Cu3  1  0.98134100  0.63141800  0.25797600  1
  Cu  Cu4  1  0.25797600  0.98134100  0.63141800  1
  Cu  Cu5  1  0.74202400  0.01865900  0.36858200  1
  Cu  Cu6  1  0.01865900  0.36858200  0.74202400  1
  Cu  Cu7  1  0.36858200  0.74202400  0.01865900  1
  Te  Te8  1  0.42065900  0.10349100  0.72957800  1
  Te  Te9  1  0.10349100  0.72957800  0.42065900  1
  Te  Te10  1  0.72957800  0.42065900  0.10349100  1
  Te  Te11  1  0.27042200  0.57934100  0.89650900  1
  Te  Te12  1  0.89650900  0.27042200  0.57934100  1
  Te  Te13  1  0.57934100  0.89650900  0.27042200  1
