# generated using pymatgen
data_Y4Ti6Bi2O21
_symmetry_space_group_name_H-M   'P 1'
_cell_length_a   16.21891203
_cell_length_b   16.21891203
_cell_length_c   7.23303392
_cell_angle_alpha   77.36739002
_cell_angle_beta   77.36739002
_cell_angle_gamma   25.93784440
_symmetry_Int_Tables_number   1
_chemical_formula_structural   Y4Ti6Bi2O21
_chemical_formula_sum   'Y8 Ti12 Bi4 O42'
_cell_volume   810.99239112
_cell_formula_units_Z   2
loop_
 _symmetry_equiv_pos_site_id
 _symmetry_equiv_pos_as_xyz
  1  'x, y, z'
loop_
 _atom_site_type_symbol
 _atom_site_label
 _atom_site_symmetry_multiplicity
 _atom_site_fract_x
 _atom_site_fract_y
 _atom_site_fract_z
 _atom_site_occupancy
  Y  Y0  1  0.16683700  0.16683700  0.33308800  1
  Y  Y1  1  0.83316300  0.83316300  0.66691200  1
  Y  Y2  1  0.16501100  0.66786900  0.33342800  1
  Y  Y3  1  0.83498900  0.33213100  0.66657200  1
  Y  Y4  1  0.50000000  0.00000000  0.00000000  1
  Y  Y5  1  0.00000000  0.50000000  0.00000000  1
  Y  Y6  1  0.66786900  0.16501100  0.33342800  1
  Y  Y7  1  0.33213100  0.83498900  0.66657200  1
  Ti  Ti8  1  0.33319100  0.33319100  0.66641600  1
  Ti  Ti9  1  0.00000000  0.00000000  0.00000000  1
  Ti  Ti10  1  0.66680900  0.66680900  0.33358400  1
  Ti  Ti11  1  0.33340700  0.33340700  0.16669200  1
  Ti  Ti12  1  0.00000000  0.00000000  0.50000000  1
  Ti  Ti13  1  0.66659300  0.66659300  0.83330800  1
  Ti  Ti14  1  0.66701900  0.16558100  0.83197000  1
  Ti  Ti15  1  0.33298100  0.83441900  0.16803000  1
  Ti  Ti16  1  0.00000000  0.50000000  0.50000000  1
  Ti  Ti17  1  0.16558100  0.66701900  0.83197000  1
  Ti  Ti18  1  0.83441900  0.33298100  0.16803000  1
  Ti  Ti19  1  0.50000000  0.00000000  0.50000000  1
  Bi  Bi20  1  0.50000000  0.50000000  0.50000000  1
  Bi  Bi21  1  0.16678200  0.16678200  0.83324100  1
  Bi  Bi22  1  0.83321800  0.83321800  0.16675900  1
  Bi  Bi23  1  0.50000000  0.50000000  0.00000000  1
  O  O24  1  0.79020200  0.79020200  0.95130600  1
  O  O25  1  0.45518500  0.45518500  0.29495500  1
  O  O26  1  0.12383300  0.12383300  0.61714200  1
  O  O27  1  0.54481500  0.54481500  0.70504500  1
  O  O28  1  0.20979800  0.20979800  0.04869400  1
  O  O29  1  0.87616700  0.87616700  0.38285800  1
  O  O30  1  0.02636800  0.02636800  0.72362300  1
  O  O31  1  0.69300300  0.69300300  0.05734200  1
  O  O32  1  0.35937100  0.35937100  0.39099400  1
  O  O33  1  0.89058100  0.89058100  0.85638000  1
  O  O34  1  0.55838500  0.55838500  0.19194000  1
  O  O35  1  0.22409400  0.22409400  0.52312500  1
  O  O36  1  0.75722600  0.15838500  0.99587200  1
  O  O37  1  0.42108500  0.82927200  0.32918000  1
  O  O38  1  0.08790900  0.49553600  0.66235800  1
  O  O39  1  0.15870300  0.75704800  0.58835800  1
  O  O40  1  0.82595300  0.42330000  0.92110700  1
  O  O41  1  0.49256800  0.08979000  0.25468600  1
  O  O42  1  0.75704800  0.15870300  0.58835800  1
  O  O43  1  0.42330000  0.82595300  0.92110700  1
  O  O44  1  0.08979000  0.49256800  0.25468600  1
  O  O45  1  0.15838500  0.75722600  0.99587200  1
  O  O46  1  0.82927200  0.42108500  0.32918000  1
  O  O47  1  0.49553600  0.08790900  0.66235800  1
  O  O48  1  0.30699700  0.30699700  0.94265800  1
  O  O49  1  0.97363200  0.97363200  0.27637700  1
  O  O50  1  0.64062900  0.64062900  0.60900600  1
  O  O51  1  0.44161500  0.44161500  0.80806000  1
  O  O52  1  0.10941900  0.10941900  0.14362000  1
  O  O53  1  0.77590600  0.77590600  0.47687500  1
  O  O54  1  0.57891500  0.17072800  0.67082000  1
  O  O55  1  0.24277400  0.84161500  0.00412800  1
  O  O56  1  0.91209100  0.50446400  0.33764200  1
  O  O57  1  0.17404700  0.57670000  0.07889300  1
  O  O58  1  0.84129700  0.24295200  0.41164200  1
  O  O59  1  0.50743200  0.91021000  0.74531400  1
  O  O60  1  0.57670000  0.17404700  0.07889300  1
  O  O61  1  0.24295200  0.84129700  0.41164200  1
  O  O62  1  0.91021000  0.50743200  0.74531400  1
  O  O63  1  0.17072800  0.57891500  0.67082000  1
  O  O64  1  0.84161500  0.24277400  0.00412800  1
  O  O65  1  0.50446400  0.91209100  0.33764200  1
