# generated using pymatgen
data_Y8MgCu7O20
_symmetry_space_group_name_H-M   'P 1'
_cell_length_a   3.53157310
_cell_length_b   10.90305891
_cell_length_c   12.64660968
_cell_angle_alpha   90.43689634
_cell_angle_beta   89.84473807
_cell_angle_gamma   89.74490066
_symmetry_Int_Tables_number   1
_chemical_formula_structural   Y8MgCu7O20
_chemical_formula_sum   'Y8 Mg1 Cu7 O20'
_cell_volume   486.93625166
_cell_formula_units_Z   1
loop_
 _symmetry_equiv_pos_site_id
 _symmetry_equiv_pos_as_xyz
  1  'x, y, z'
loop_
 _atom_site_type_symbol
 _atom_site_label
 _atom_site_symmetry_multiplicity
 _atom_site_fract_x
 _atom_site_fract_y
 _atom_site_fract_z
 _atom_site_occupancy
  Y  Y0  1  0.22409900  0.29298600  0.33572200  1
  Y  Y1  1  0.77843600  0.70850000  0.83668200  1
  Y  Y2  1  0.72005900  0.20948200  0.83475200  1
  Y  Y3  1  0.26805900  0.79153500  0.34061100  1
  Y  Y4  1  0.22296500  0.46031300  0.01107300  1
  Y  Y5  1  0.77965300  0.54071800  0.50912700  1
  Y  Y6  1  0.71903400  0.04152300  0.50883300  1
  Y  Y7  1  0.27254800  0.96031500  0.00637600  1
  Mg  Mg8  1  0.76208700  0.75070100  0.12510200  1
  Cu  Cu9  1  0.84263000  0.00985400  0.22355500  1
  Cu  Cu10  1  0.15869300  0.98653300  0.72422700  1
  Cu  Cu11  1  0.34048500  0.48683700  0.72560900  1
  Cu  Cu12  1  0.66242600  0.51568200  0.22639300  1
  Cu  Cu13  1  0.66184800  0.24030200  0.12040100  1
  Cu  Cu14  1  0.34230300  0.75886000  0.62083800  1
  Cu  Cu15  1  0.15672700  0.26024400  0.61922000  1
  O  O16  1  0.78259300  0.07121000  0.07889000  1
  O  O17  1  0.22364100  0.92480000  0.57239900  1
  O  O18  1  0.27786600  0.42525200  0.57469200  1
  O  O19  1  0.72725300  0.57578000  0.07635800  1
  O  O20  1  0.22925300  0.07734900  0.86230500  1
  O  O21  1  0.77271800  0.92876500  0.35981300  1
  O  O22  1  0.72942600  0.42385500  0.36354200  1
  O  O23  1  0.27281400  0.57628700  0.86489100  1
  O  O24  1  0.72695400  0.32517200  0.98175500  1
  O  O25  1  0.27531400  0.67173100  0.48407100  1
  O  O26  1  0.22168600  0.17310700  0.48011600  1
  O  O27  1  0.76944300  0.83133200  0.97868700  1
  O  O28  1  0.72567300  0.17821100  0.26861000  1
  O  O29  1  0.28038200  0.82167400  0.76885600  1
  O  O30  1  0.21681200  0.32190600  0.76907200  1
  O  O31  1  0.76878800  0.68070400  0.27765000  1
  O  O32  1  0.35217100  0.37828000  0.17354900  1
  O  O33  1  0.65205500  0.62160800  0.67382800  1
  O  O34  1  0.85257100  0.12278800  0.67182400  1
  O  O35  1  0.23053900  0.85580000  0.16576800  1
