# generated using pymatgen
data_ZnFe(Mo3S4)4
_symmetry_space_group_name_H-M   'P 1'
_cell_length_a   8.93354490
_cell_length_b   8.93354490
_cell_length_c   8.93354455
_cell_angle_alpha   64.02842945
_cell_angle_beta   64.02842945
_cell_angle_gamma   64.02842990
_symmetry_Int_Tables_number   1
_chemical_formula_structural   ZnFe(Mo3S4)4
_chemical_formula_sum   'Zn1 Fe1 Mo12 S16'
_cell_volume   548.86395944
_cell_formula_units_Z   1
loop_
 _symmetry_equiv_pos_site_id
 _symmetry_equiv_pos_as_xyz
  1  'x, y, z'
loop_
 _atom_site_type_symbol
 _atom_site_label
 _atom_site_symmetry_multiplicity
 _atom_site_fract_x
 _atom_site_fract_y
 _atom_site_fract_z
 _atom_site_occupancy
  Zn  Zn0  1  0.50000000  0.50000000  0.50000000  1
  Fe  Fe1  1  0.00000000  0.00000000  0.00000000  1
  Mo  Mo2  1  0.13043600  0.46082600  0.32161700  1
  Mo  Mo3  1  0.63011900  0.95969800  0.82195700  1
  Mo  Mo4  1  0.32161700  0.13043600  0.46082600  1
  Mo  Mo5  1  0.82195700  0.63011900  0.95969800  1
  Mo  Mo6  1  0.46082600  0.32161700  0.13043600  1
  Mo  Mo7  1  0.95969800  0.82195700  0.63011900  1
  Mo  Mo8  1  0.36988100  0.04030200  0.17804300  1
  Mo  Mo9  1  0.86956400  0.53917400  0.67838300  1
  Mo  Mo10  1  0.17804300  0.36988100  0.04030200  1
  Mo  Mo11  1  0.67838300  0.86956400  0.53917400  1
  Mo  Mo12  1  0.04030200  0.17804300  0.36988100  1
  Mo  Mo13  1  0.53917400  0.67838300  0.86956400  1
  S  S14  1  0.39233500  0.39233500  0.39233500  1
  S  S15  1  0.89319000  0.89319000  0.89319000  1
  S  S16  1  0.10681000  0.10681000  0.10681000  1
  S  S17  1  0.60766500  0.60766500  0.60766500  1
  S  S18  1  0.25340000  0.61299100  0.01537900  1
  S  S19  1  0.75591600  0.11047000  0.51397500  1
  S  S20  1  0.01537900  0.25340000  0.61299100  1
  S  S21  1  0.51397500  0.75591600  0.11047000  1
  S  S22  1  0.61299100  0.01537900  0.25340000  1
  S  S23  1  0.11047000  0.51397500  0.75591600  1
  S  S24  1  0.24408400  0.88953000  0.48602500  1
  S  S25  1  0.74660000  0.38700900  0.98462100  1
  S  S26  1  0.48602500  0.24408400  0.88953000  1
  S  S27  1  0.98462100  0.74660000  0.38700900  1
  S  S28  1  0.88953000  0.48602500  0.24408400  1
  S  S29  1  0.38700900  0.98462100  0.74660000  1
