# generated using pymatgen
data_Zr20Sn13
_symmetry_space_group_name_H-M   'P 1'
_cell_length_a   5.91153506
_cell_length_b   8.60717963
_cell_length_c   14.93995203
_cell_angle_alpha   89.99999815
_cell_angle_beta   90.00000414
_cell_angle_gamma   90.01648498
_symmetry_Int_Tables_number   1
_chemical_formula_structural   Zr20Sn13
_chemical_formula_sum   'Zr20 Sn13'
_cell_volume   760.16929122
_cell_formula_units_Z   1
loop_
 _symmetry_equiv_pos_site_id
 _symmetry_equiv_pos_as_xyz
  1  'x, y, z'
loop_
 _atom_site_type_symbol
 _atom_site_label
 _atom_site_symmetry_multiplicity
 _atom_site_fract_x
 _atom_site_fract_y
 _atom_site_fract_z
 _atom_site_occupancy
  Zr  Zr0  1  0.50000000  0.99999800  0.33402600  1
  Zr  Zr1  1  0.50000600  0.49999800  0.83330800  1
  Zr  Zr2  1  0.50000600  0.49999800  0.16669200  1
  Zr  Zr3  1  0.50000000  0.99999800  0.66597400  1
  Zr  Zr4  1  0.99999700  0.49999900  0.16653500  1
  Zr  Zr5  1  0.99999800  0.99999600  0.66582800  1
  Zr  Zr6  1  0.99999800  0.99999600  0.33417200  1
  Zr  Zr7  1  0.99999700  0.49999900  0.83346500  1
  Zr  Zr8  1  0.76996600  0.26906600  0.00000000  1
  Zr  Zr9  1  0.75278100  0.74964900  0.50000000  1
  Zr  Zr10  1  0.75075500  0.37414000  0.37789300  1
  Zr  Zr11  1  0.76942000  0.86520600  0.86292200  1
  Zr  Zr12  1  0.76942000  0.86520600  0.13707800  1
  Zr  Zr13  1  0.75075500  0.37414000  0.62210700  1
  Zr  Zr14  1  0.23004600  0.73095300  0.00000000  1
  Zr  Zr15  1  0.24720100  0.25035000  0.50000000  1
  Zr  Zr16  1  0.23061000  0.13478500  0.13706800  1
  Zr  Zr17  1  0.24924700  0.62585500  0.62210800  1
  Zr  Zr18  1  0.24924700  0.62585500  0.37789200  1
  Zr  Zr19  1  0.23061000  0.13478500  0.86293200  1
  Sn  Sn20  1  0.74168400  0.61503100  0.00000000  1
  Sn  Sn21  1  0.74803600  0.10764900  0.50000000  1
  Sn  Sn22  1  0.74128100  0.19650800  0.19783600  1
  Sn  Sn23  1  0.75037200  0.69079400  0.69157900  1
  Sn  Sn24  1  0.75037200  0.69079400  0.30842100  1
  Sn  Sn25  1  0.74128100  0.19650800  0.80216400  1
  Sn  Sn26  1  0.25832900  0.38497700  0.00000000  1
  Sn  Sn27  1  0.25189100  0.89235800  0.50000000  1
  Sn  Sn28  1  0.24963400  0.30920600  0.30841700  1
  Sn  Sn29  1  0.25871700  0.80349700  0.80217100  1
  Sn  Sn30  1  0.25871700  0.80349700  0.19782900  1
  Sn  Sn31  1  0.24963400  0.30920600  0.69158300  1
  Sn  Sn32  1  0.49998900  0.99999800  0.00000000  1
