# generated using pymatgen
data_Mg2Au
_symmetry_space_group_name_H-M   'P 1'
_cell_length_a   8.53811200
_cell_length_b   13.20547300
_cell_length_c   18.92033100
_cell_angle_alpha   90.00000000
_cell_angle_beta   90.00000000
_cell_angle_gamma   90.00000000
_symmetry_Int_Tables_number   1
_chemical_formula_structural   Mg2Au
_chemical_formula_sum   'Mg72 Au36'
_cell_volume   2133.26367784
_cell_formula_units_Z   36
loop_
 _symmetry_equiv_pos_site_id
 _symmetry_equiv_pos_as_xyz
  1  'x, y, z'
loop_
 _atom_site_type_symbol
 _atom_site_label
 _atom_site_symmetry_multiplicity
 _atom_site_fract_x
 _atom_site_fract_y
 _atom_site_fract_z
 _atom_site_occupancy
  Mg  Mg0  1  0.06068400  0.75000000  0.06284900  1
  Mg  Mg1  1  0.43931600  0.75000000  0.56284900  1
  Mg  Mg2  1  0.93931600  0.25000000  0.93715100  1
  Mg  Mg3  1  0.56068400  0.25000000  0.43715100  1
  Mg  Mg4  1  0.05890200  0.75000000  0.38013500  1
  Mg  Mg5  1  0.44109800  0.75000000  0.88013500  1
  Mg  Mg6  1  0.94109800  0.25000000  0.61986500  1
  Mg  Mg7  1  0.55890200  0.25000000  0.11986500  1
  Mg  Mg8  1  0.05905600  0.75000000  0.72748300  1
  Mg  Mg9  1  0.44094400  0.75000000  0.22748300  1
  Mg  Mg10  1  0.94094400  0.25000000  0.27251700  1
  Mg  Mg11  1  0.55905600  0.25000000  0.77251700  1
  Mg  Mg12  1  0.78907500  0.75000000  0.17614000  1
  Mg  Mg13  1  0.71092500  0.75000000  0.67614000  1
  Mg  Mg14  1  0.21092500  0.25000000  0.82386000  1
  Mg  Mg15  1  0.28907500  0.25000000  0.32386000  1
  Mg  Mg16  1  0.81088500  0.75000000  0.51052700  1
  Mg  Mg17  1  0.68911500  0.75000000  0.01052700  1
  Mg  Mg18  1  0.18911500  0.25000000  0.48947300  1
  Mg  Mg19  1  0.31088500  0.25000000  0.98947300  1
  Mg  Mg20  1  0.80430800  0.75000000  0.84642800  1
  Mg  Mg21  1  0.69569200  0.75000000  0.34642800  1
  Mg  Mg22  1  0.19569200  0.25000000  0.15357200  1
  Mg  Mg23  1  0.30430800  0.25000000  0.65357200  1
  Mg  Mg24  1  0.05808100  0.08424900  0.05356100  1
  Mg  Mg25  1  0.44191900  0.41575100  0.55356100  1
  Mg  Mg26  1  0.94191900  0.58424900  0.94643900  1
  Mg  Mg27  1  0.55808100  0.91575100  0.44643900  1
  Mg  Mg28  1  0.94191900  0.91575100  0.94643900  1
  Mg  Mg29  1  0.55808100  0.58424900  0.44643900  1
  Mg  Mg30  1  0.05808100  0.41575100  0.05356100  1
  Mg  Mg31  1  0.44191900  0.08424900  0.55356100  1
  Mg  Mg32  1  0.05979300  0.08049800  0.38766400  1
  Mg  Mg33  1  0.44020700  0.41950200  0.88766400  1
  Mg  Mg34  1  0.94020700  0.58049800  0.61233600  1
  Mg  Mg35  1  0.55979300  0.91950200  0.11233600  1
  Mg  Mg36  1  0.94020700  0.91950200  0.61233600  1
  Mg  Mg37  1  0.55979300  0.58049800  0.11233600  1
  Mg  Mg38  1  0.05979300  0.41950200  0.38766400  1
  Mg  Mg39  1  0.44020700  0.08049800  0.88766400  1
  Mg  Mg40  1  0.05705200  0.08448500  0.72901900  1
  Mg  Mg41  1  0.44294800  0.41551500  0.22901900  1
  Mg  Mg42  1  0.94294800  0.58448500  0.27098100  1
  Mg  Mg43  1  0.55705200  0.91551500  0.77098100  1
  Mg  Mg44  1  0.94294800  0.91551500  0.27098100  1
  Mg  Mg45  1  0.55705200  0.58448500  0.77098100  1
  Mg  Mg46  1  0.05705200  0.41551500  0.72901900  1
  Mg  Mg47  1  0.44294800  0.08448500  0.22901900  1
  Mg  Mg48  1  0.80284500  0.08511000  0.17659100  1
  Mg  Mg49  1  0.69715500  0.41489000  0.67659100  1
  Mg  Mg50  1  0.19715500  0.58511000  0.82340900  1
  Mg  Mg51  1  0.30284500  0.91489000  0.32340900  1
  Mg  Mg52  1  0.19715500  0.91489000  0.82340900  1
  Mg  Mg53  1  0.30284500  0.58511000  0.32340900  1
  Mg  Mg54  1  0.80284500  0.41489000  0.17659100  1
  Mg  Mg55  1  0.69715500  0.08511000  0.67659100  1
  Mg  Mg56  1  0.81122300  0.08825000  0.51133000  1
  Mg  Mg57  1  0.68877700  0.41175000  0.01133000  1
  Mg  Mg58  1  0.18877700  0.58825000  0.48867000  1
  Mg  Mg59  1  0.31122300  0.91175000  0.98867000  1
  Mg  Mg60  1  0.18877700  0.91175000  0.48867000  1
  Mg  Mg61  1  0.31122300  0.58825000  0.98867000  1
  Mg  Mg62  1  0.81122300  0.41175000  0.51133000  1
  Mg  Mg63  1  0.68877700  0.08825000  0.01133000  1
  Mg  Mg64  1  0.79436500  0.07720100  0.84638100  1
  Mg  Mg65  1  0.70563500  0.42279900  0.34638100  1
  Mg  Mg66  1  0.20563500  0.57720100  0.15361900  1
  Mg  Mg67  1  0.29436500  0.92279900  0.65361900  1
  Mg  Mg68  1  0.20563500  0.92279900  0.15361900  1
  Mg  Mg69  1  0.29436500  0.57720100  0.65361900  1
  Mg  Mg70  1  0.79436500  0.42279900  0.84638100  1
  Mg  Mg71  1  0.70563500  0.07720100  0.34638100  1
  Au  Au72  1  0.12641300  0.75000000  0.91389700  1
  Au  Au73  1  0.37358700  0.75000000  0.41389700  1
  Au  Au74  1  0.87358700  0.25000000  0.08610300  1
  Au  Au75  1  0.62641300  0.25000000  0.58610300  1
  Au  Au76  1  0.12094500  0.75000000  0.58518000  1
  Au  Au77  1  0.37905500  0.75000000  0.08518000  1
  Au  Au78  1  0.87905500  0.25000000  0.41482000  1
  Au  Au79  1  0.62094500  0.25000000  0.91482000  1
  Au  Au80  1  0.12081700  0.75000000  0.23443100  1
  Au  Au81  1  0.37918300  0.75000000  0.73443100  1
  Au  Au82  1  0.87918300  0.25000000  0.76556900  1
  Au  Au83  1  0.62081700  0.25000000  0.26556900  1
  Au  Au84  1  0.87707500  0.58262400  0.09051200  1
  Au  Au85  1  0.62292500  0.91737600  0.59051200  1
  Au  Au86  1  0.12292500  0.08262400  0.90948800  1
  Au  Au87  1  0.37707500  0.41737600  0.40948800  1
  Au  Au88  1  0.12292500  0.41737600  0.90948800  1
  Au  Au89  1  0.37707500  0.08262400  0.40948800  1
  Au  Au90  1  0.87707500  0.91737600  0.09051200  1
  Au  Au91  1  0.62292500  0.58262400  0.59051200  1
  Au  Au92  1  0.87635000  0.58539300  0.41824500  1
  Au  Au93  1  0.62365000  0.91460700  0.91824500  1
  Au  Au94  1  0.12365000  0.08539300  0.58175500  1
  Au  Au95  1  0.37635000  0.41460700  0.08175500  1
  Au  Au96  1  0.12365000  0.41460700  0.58175500  1
  Au  Au97  1  0.37635000  0.08539300  0.08175500  1
  Au  Au98  1  0.87635000  0.91460700  0.41824500  1
  Au  Au99  1  0.62365000  0.58539300  0.91824500  1
  Au  Au100  1  0.87571700  0.58393500  0.75577100  1
  Au  Au101  1  0.62428300  0.91606500  0.25577100  1
  Au  Au102  1  0.12428300  0.08393500  0.24422900  1
  Au  Au103  1  0.37571700  0.41606500  0.74422900  1
  Au  Au104  1  0.12428300  0.41606500  0.24422900  1
  Au  Au105  1  0.37571700  0.08393500  0.74422900  1
  Au  Au106  1  0.87571700  0.91606500  0.75577100  1
  Au  Au107  1  0.62428300  0.58393500  0.25577100  1
