# generated using pymatgen
data_Y12Si5S28
_symmetry_space_group_name_H-M   'P 1'
_cell_length_a   9.82592800
_cell_length_b   11.35940685
_cell_length_c   11.36723977
_cell_angle_alpha   60.58157540
_cell_angle_beta   64.40593162
_cell_angle_gamma   64.38174217
_symmetry_Int_Tables_number   1
_chemical_formula_structural   Y12Si5S28
_chemical_formula_sum   'Y12 Si5 S28'
_cell_volume   956.77921070
_cell_formula_units_Z   1
loop_
 _symmetry_equiv_pos_site_id
 _symmetry_equiv_pos_as_xyz
  1  'x, y, z'
loop_
 _atom_site_type_symbol
 _atom_site_label
 _atom_site_symmetry_multiplicity
 _atom_site_fract_x
 _atom_site_fract_y
 _atom_site_fract_z
 _atom_site_occupancy
  Y  Y0  1  0.23280200  0.93079500  0.70145000  1
  Y  Y1  1  0.21928900  0.46666900  0.18462000  1
  Y  Y2  1  0.64973600  0.70444500  0.42402700  1
  Y  Y3  1  0.63474300  0.18468100  0.95153700  1
  Y  Y4  1  0.13144700  0.74879100  0.46831900  1
  Y  Y5  1  0.12958700  0.23398900  0.00294000  1
  Y  Y6  1  0.77991600  0.04112500  0.30434900  1
  Y  Y7  1  0.77381900  0.57070300  0.79659100  1
  Y  Y8  1  0.36684100  0.31660200  0.54516400  1
  Y  Y9  1  0.34447500  0.80695400  0.06654100  1
  Y  Y10  1  0.86197600  0.27182300  0.50172500  1
  Y  Y11  1  0.87200600  0.76136400  0.01982800  1
  Si  Si12  1  0.33418900  0.08728300  0.25169300  1
  Si  Si13  1  0.33359400  0.58155700  0.74448300  1
  Si  Si14  1  0.66632800  0.00492300  0.66266000  1
  Si  Si15  1  0.66689000  0.50503400  0.16031500  1
  Si  Si16  1  0.00120600  0.22596800  0.77396000  1
  S  S17  1  0.33272500  0.90139300  0.43363600  1
  S  S18  1  0.33338100  0.39924600  0.93204600  1
  S  S19  1  0.67431200  0.31271200  0.33871100  1
  S  S20  1  0.65954800  0.82750800  0.85388200  1
  S  S21  1  0.10799100  0.23828900  0.25292100  1
  S  S22  1  0.10389500  0.72517700  0.73888400  1
  S  S23  1  0.47024800  0.20919800  0.22198400  1
  S  S24  1  0.48703100  0.69218200  0.70774900  1
  S  S25  1  0.41248600  0.04620400  0.06365200  1
  S  S26  1  0.42135200  0.54421900  0.55532300  1
  S  S27  1  0.89468800  0.00798100  0.51856300  1
  S  S28  1  0.89558900  0.50784700  0.01364700  1
  S  S29  1  0.52041000  0.03658400  0.54811000  1
  S  S30  1  0.52665000  0.53688800  0.04117300  1
  S  S31  1  0.58219700  0.19502400  0.70091500  1
  S  S32  1  0.58008900  0.69264900  0.20161500  1
  S  S33  1  0.13864500  0.22323100  0.55090800  1
  S  S34  1  0.16600900  0.73667000  0.99790800  1
  S  S35  1  0.73638600  0.91677700  0.18083000  1
  S  S36  1  0.77464400  0.38162700  0.70734600  1
  S  S37  1  0.09454100  0.95037400  0.21605100  1
  S  S38  1  0.08902000  0.40717100  0.73197200  1
  S  S39  1  0.83908000  0.74252200  0.51599600  1
  S  S40  1  0.85033400  0.23520500  0.00115100  1
  S  S41  1  0.23631700  0.07424000  0.84014300  1
  S  S42  1  0.25820000  0.56380200  0.33767300  1
  S  S43  1  0.91375200  0.04156200  0.80813400  1
  S  S44  1  0.90163500  0.53350900  0.30637600  1
