# generated using pymatgen
data_Yb(GaFe)6
_symmetry_space_group_name_H-M   'P 1'
_cell_length_a   5.23417900
_cell_length_b   6.54422024
_cell_length_c   6.64829937
_cell_angle_alpha   99.05736326
_cell_angle_beta   113.18168225
_cell_angle_gamma   66.42753483
_symmetry_Int_Tables_number   1
_chemical_formula_structural   Yb(GaFe)6
_chemical_formula_sum   'Yb1 Ga6 Fe6'
_cell_volume   191.87329502
_cell_formula_units_Z   1
loop_
 _symmetry_equiv_pos_site_id
 _symmetry_equiv_pos_as_xyz
  1  'x, y, z'
loop_
 _atom_site_type_symbol
 _atom_site_label
 _atom_site_symmetry_multiplicity
 _atom_site_fract_x
 _atom_site_fract_y
 _atom_site_fract_z
 _atom_site_occupancy
  Yb  Yb0  1  0.00000000  0.00000000  0.00000000  1
  Ga  Ga1  1  0.50000000  0.50000000  0.00000000  1
  Ga  Ga2  1  0.00000000  0.50000000  0.00000000  1
  Ga  Ga3  1  0.65138400  0.33156500  0.63433300  1
  Ga  Ga4  1  0.34861600  0.66843500  0.36566700  1
  Ga  Ga5  1  0.01705100  0.33156500  0.36566700  1
  Ga  Ga6  1  0.98294900  0.66843500  0.63433300  1
  Fe  Fe7  1  0.71177600  0.79443900  0.21799000  1
  Fe  Fe8  1  0.28822400  0.20556100  0.78201000  1
  Fe  Fe9  1  0.49378600  0.79443900  0.78201000  1
  Fe  Fe10  1  0.50621400  0.20556100  0.21799000  1
  Fe  Fe11  1  0.50000000  0.00000000  0.50000000  1
  Fe  Fe12  1  0.00000000  0.00000000  0.50000000  1
