# generated using pymatgen
data_UCoNi
_symmetry_space_group_name_H-M   'P 1'
_cell_length_a   4.91932768
_cell_length_b   4.91932768
_cell_length_c   4.91932768
_cell_angle_alpha   120.79820220
_cell_angle_beta   119.35282580
_cell_angle_gamma   89.87382369
_symmetry_Int_Tables_number   1
_chemical_formula_structural   UCoNi
_chemical_formula_sum   'U2 Co2 Ni2'
_cell_volume   84.06563883
_cell_formula_units_Z   2
loop_
 _symmetry_equiv_pos_site_id
 _symmetry_equiv_pos_as_xyz
  1  'x, y, z'
loop_
 _atom_site_type_symbol
 _atom_site_label
 _atom_site_symmetry_multiplicity
 _atom_site_fract_x
 _atom_site_fract_y
 _atom_site_fract_z
 _atom_site_occupancy
  U  U0  1  0.12330200  0.87330200  0.25000000  1
  U  U1  1  0.87669800  0.12669800  0.75000000  1
  Co  Co2  1  0.00000000  0.50000000  0.50000000  1
  Co  Co3  1  0.50000000  0.50000000  0.00000000  1
  Ni  Ni4  1  0.50000000  0.00000000  0.00000000  1
  Ni  Ni5  1  0.50000000  0.50000000  0.50000000  1
