# generated using pymatgen
data_Yb6Fe2S11
_symmetry_space_group_name_H-M   'P 1'
_cell_length_a   6.52648898
_cell_length_b   6.52648898
_cell_length_c   33.82268400
_cell_angle_alpha   90.00000000
_cell_angle_beta   90.00000000
_cell_angle_gamma   147.13389291
_symmetry_Int_Tables_number   1
_chemical_formula_structural   Yb6Fe2S11
_chemical_formula_sum   'Yb12 Fe4 S22'
_cell_volume   781.82445123
_cell_formula_units_Z   2
loop_
 _symmetry_equiv_pos_site_id
 _symmetry_equiv_pos_as_xyz
  1  'x, y, z'
loop_
 _atom_site_type_symbol
 _atom_site_label
 _atom_site_symmetry_multiplicity
 _atom_site_fract_x
 _atom_site_fract_y
 _atom_site_fract_z
 _atom_site_occupancy
  Yb  Yb0  1  0.99933700  0.00066300  0.25000000  1
  Yb  Yb1  1  0.00066300  0.99933700  0.75000000  1
  Yb  Yb2  1  0.75733300  0.24266700  0.06222400  1
  Yb  Yb3  1  0.24266700  0.75733300  0.93777600  1
  Yb  Yb4  1  0.75733300  0.24266700  0.43777600  1
  Yb  Yb5  1  0.24266700  0.75733300  0.56222400  1
  Yb  Yb6  1  0.50000000  0.50000000  0.00000000  1
  Yb  Yb7  1  0.50000000  0.50000000  0.50000000  1
  Yb  Yb8  1  0.25542100  0.74457900  0.17840800  1
  Yb  Yb9  1  0.74457900  0.25542100  0.82159200  1
  Yb  Yb10  1  0.25542100  0.74457900  0.32159200  1
  Yb  Yb11  1  0.74457900  0.25542100  0.67840800  1
  Fe  Fe12  1  0.51627400  0.48372600  0.13522900  1
  Fe  Fe13  1  0.48372600  0.51627400  0.86477100  1
  Fe  Fe14  1  0.51627400  0.48372600  0.36477100  1
  Fe  Fe15  1  0.48372600  0.51627400  0.63522900  1
  S  S16  1  0.11985800  0.88014200  0.38581700  1
  S  S17  1  0.88014200  0.11985800  0.61418300  1
  S  S18  1  0.11985800  0.88014200  0.11418300  1
  S  S19  1  0.88014200  0.11985800  0.88581700  1
  S  S20  1  0.91480200  0.08519800  0.34365500  1
  S  S21  1  0.08519800  0.91480200  0.65634500  1
  S  S22  1  0.91480200  0.08519800  0.15634500  1
  S  S23  1  0.08519800  0.91480200  0.84365500  1
  S  S24  1  0.33770800  0.66229200  0.25000000  1
  S  S25  1  0.66229200  0.33770800  0.75000000  1
  S  S26  1  0.60118200  0.39881800  0.30313200  1
  S  S27  1  0.39881800  0.60118200  0.69686800  1
  S  S28  1  0.60118200  0.39881800  0.19686800  1
  S  S29  1  0.39881800  0.60118200  0.80313200  1
  S  S30  1  0.42206700  0.57793300  0.42188000  1
  S  S31  1  0.57793300  0.42206700  0.57812000  1
  S  S32  1  0.42206700  0.57793300  0.07812000  1
  S  S33  1  0.57793300  0.42206700  0.92188000  1
  S  S34  1  0.15220200  0.84779800  0.48302200  1
  S  S35  1  0.84779800  0.15220200  0.51697800  1
  S  S36  1  0.15220200  0.84779800  0.01697800  1
  S  S37  1  0.84779800  0.15220200  0.98302200  1
