# generated using pymatgen
data_Zn5Fe3(P3O14)2
_symmetry_space_group_name_H-M   'P 1'
_cell_length_a   6.34961600
_cell_length_b   9.33344859
_cell_length_c   9.88590690
_cell_angle_alpha   71.12034628
_cell_angle_beta   79.12465209
_cell_angle_gamma   75.16715106
_symmetry_Int_Tables_number   1
_chemical_formula_structural   Zn5Fe3(P3O14)2
_chemical_formula_sum   'Zn5 Fe3 P6 O28'
_cell_volume   532.28415306
_cell_formula_units_Z   1
loop_
 _symmetry_equiv_pos_site_id
 _symmetry_equiv_pos_as_xyz
  1  'x, y, z'
loop_
 _atom_site_type_symbol
 _atom_site_label
 _atom_site_symmetry_multiplicity
 _atom_site_fract_x
 _atom_site_fract_y
 _atom_site_fract_z
 _atom_site_occupancy
  Zn  Zn0  1  0.04690900  0.84147500  0.21332800  1
  Zn  Zn1  1  0.94725900  0.15663500  0.78137600  1
  Zn  Zn2  1  0.01580200  0.49732800  0.19852800  1
  Zn  Zn3  1  0.98375300  0.50054300  0.80188100  1
  Zn  Zn4  1  0.28888200  0.63076300  0.51929200  1
  Fe  Fe5  1  0.45326000  0.24556700  0.16437900  1
  Fe  Fe6  1  0.54505000  0.75666200  0.83505500  1
  Fe  Fe7  1  0.70332600  0.38029300  0.48260200  1
  P  P8  1  0.24557800  0.27295100  0.48166200  1
  P  P9  1  0.75350600  0.72007100  0.51416500  1
  P  P10  1  0.00058000  0.20421700  0.08257800  1
  P  P11  1  0.99689200  0.79679300  0.91557700  1
  P  P12  1  0.47113000  0.59457600  0.18991600  1
  P  P13  1  0.52504600  0.40712600  0.81199700  1
  O  O14  1  0.99957500  0.72351900  0.08291600  1
  O  O15  1  0.00201000  0.27162500  0.91476600  1
  O  O16  1  0.30624300  0.67858500  0.29390900  1
  O  O17  1  0.69243300  0.32679000  0.70514900  1
  O  O18  1  0.02800000  0.38383700  0.41852000  1
  O  O19  1  0.96530300  0.62268400  0.58690900  1
  O  O20  1  0.31003900  0.49239200  0.74354900  1
  O  O21  1  0.68666900  0.50518600  0.25961400  1
  O  O22  1  0.48815300  0.28324600  0.95350200  1
  O  O23  1  0.51447700  0.71480900  0.04661200  1
  O  O24  1  0.47493800  0.01415200  0.17563900  1
  O  O25  1  0.53238000  0.98877800  0.80400600  1
  O  O26  1  0.76953700  0.20459300  0.16221400  1
  O  O27  1  0.22909700  0.79291500  0.83480200  1
  O  O28  1  0.13899000  0.03554800  0.11566900  1
  O  O29  1  0.86324100  0.96447700  0.89155700  1
  O  O30  1  0.37478500  0.18417800  0.37487600  1
  O  O31  1  0.59645000  0.80894900  0.61682500  1
  O  O32  1  0.25476800  0.84963900  0.54069000  1
  O  O33  1  0.79057100  0.15986400  0.49733300  1
  O  O34  1  0.36331400  0.47210700  0.16714900  1
  O  O35  1  0.63434100  0.52806600  0.83625000  1
  O  O36  1  0.38567300  0.38226100  0.49608200  1
  O  O37  1  0.62875200  0.60407500  0.49708500  1
  O  O38  1  0.11276500  0.30394300  0.13393400  1
  O  O39  1  0.88236200  0.70179100  0.85968400  1
  O  O40  1  0.81436100  0.83232400  0.36967100  1
  O  O41  1  0.18379900  0.16466800  0.62875300  1
