# generated using pymatgen
data_VCuSnS4
_symmetry_space_group_name_H-M   'P 1'
_cell_length_a   7.28047057
_cell_length_b   7.01888050
_cell_length_c   7.39708364
_cell_angle_alpha   90.00000000
_cell_angle_beta   59.46872416
_cell_angle_gamma   118.81838325
_symmetry_Int_Tables_number   1
_chemical_formula_structural   VCuSnS4
_chemical_formula_sum   'V2 Cu2 Sn2 S8'
_cell_volume   269.82961780
_cell_formula_units_Z   2
loop_
 _symmetry_equiv_pos_site_id
 _symmetry_equiv_pos_as_xyz
  1  'x, y, z'
loop_
 _atom_site_type_symbol
 _atom_site_label
 _atom_site_symmetry_multiplicity
 _atom_site_fract_x
 _atom_site_fract_y
 _atom_site_fract_z
 _atom_site_occupancy
  V  V0  1  0.50000000  0.50000000  0.00000000  1
  V  V1  1  0.50000000  0.00000000  0.00000000  1
  Cu  Cu2  1  0.73556600  0.36778300  0.38221700  1
  Cu  Cu3  1  0.26443400  0.63221700  0.61778300  1
  Sn  Sn4  1  0.00000000  0.00000000  0.50000000  1
  Sn  Sn5  1  0.00000000  0.00000000  0.00000000  1
  S  S6  1  0.02922600  0.76018900  0.23538700  1
  S  S7  1  0.02922600  0.26903700  0.23538700  1
  S  S8  1  0.49942100  0.24971100  0.76824800  1
  S  S9  1  0.49942100  0.24971100  0.23233100  1
  S  S10  1  0.97077400  0.23981100  0.76461300  1
  S  S11  1  0.97077400  0.73096300  0.76461300  1
  S  S12  1  0.50057900  0.75028900  0.23175200  1
  S  S13  1  0.50057900  0.75028900  0.76766900  1
