# generated using pymatgen
data_Zr2P3H3O13
_symmetry_space_group_name_H-M   'P 1'
_cell_length_a   8.88945700
_cell_length_b   8.90088521
_cell_length_c   9.43703764
_cell_angle_alpha   62.88558138
_cell_angle_beta   62.29242851
_cell_angle_gamma   60.35348839
_symmetry_Int_Tables_number   1
_chemical_formula_structural   Zr2P3H3O13
_chemical_formula_sum   'Zr4 P6 H6 O26'
_cell_volume   549.24436618
_cell_formula_units_Z   2
loop_
 _symmetry_equiv_pos_site_id
 _symmetry_equiv_pos_as_xyz
  1  'x, y, z'
loop_
 _atom_site_type_symbol
 _atom_site_label
 _atom_site_symmetry_multiplicity
 _atom_site_fract_x
 _atom_site_fract_y
 _atom_site_fract_z
 _atom_site_occupancy
  Zr  Zr0  1  0.34925600  0.34892500  0.94162000  1
  Zr  Zr1  1  0.84761900  0.85808400  0.44219600  1
  Zr  Zr2  1  0.64725400  0.64328100  0.05131100  1
  Zr  Zr3  1  0.14223300  0.15180800  0.55122200  1
  P  P4  1  0.24854000  0.96394000  0.24388800  1
  P  P5  1  0.53516900  0.25027100  0.24931600  1
  P  P6  1  0.96310700  0.53608200  0.24848200  1
  P  P7  1  0.46224300  0.74686400  0.74420000  1
  P  P8  1  0.03644500  0.47093400  0.74118200  1
  P  P9  1  0.75220300  0.03054200  0.75561500  1
  H  H10  1  0.45516400  0.48488800  0.46478200  1
  H  H11  1  0.64636800  0.52450900  0.38831600  1
  H  H12  1  0.93567700  0.01267100  0.97781500  1
  H  H13  1  0.15964900  0.95433700  0.88507400  1
  H  H14  1  0.49292900  0.54013100  0.59111600  1
  H  H15  1  0.05936500  0.96585100  0.09769400  1
  O  O16  1  0.12191800  0.51579400  0.08676000  1
  O  O17  1  0.25833000  0.13655600  0.09650900  1
  O  O18  1  0.50252800  0.27481500  0.09182500  1
  O  O19  1  0.00590100  0.64541100  0.59378700  1
  O  O20  1  0.76890500  0.01070300  0.59387200  1
  O  O21  1  0.62507200  0.77374400  0.58881400  1
  O  O22  1  0.86893400  0.49132600  0.89980900  1
  O  O23  1  0.74108300  0.85731300  0.90310300  1
  O  O24  1  0.48911800  0.71650100  0.90618400  1
  O  O25  1  0.99459500  0.36216700  0.39605200  1
  O  O26  1  0.22444300  0.98434500  0.40725300  1
  O  O27  1  0.36888200  0.22756900  0.40504800  1
  O  O28  1  0.54633400  0.48297100  0.49654900  1
  O  O29  1  0.04751800  0.00498700  0.98112100  1
  O  O30  1  0.57724200  0.19031000  0.80041700  1
  O  O31  1  0.43299500  0.58160400  0.75817500  1
  O  O32  1  0.20620300  0.43018100  0.77875400  1
  O  O33  1  0.70464000  0.08004800  0.27872800  1
  O  O34  1  0.93223600  0.69774700  0.29179600  1
  O  O35  1  0.08011700  0.93266900  0.26410200  1
  O  O36  1  0.42086600  0.80075000  0.20319800  1
  O  O37  1  0.56295400  0.42110700  0.22294700  1
  O  O38  1  0.78364500  0.56859000  0.22671700  1
  O  O39  1  0.28874400  0.92027100  0.72549700  1
  O  O40  1  0.06573800  0.31300000  0.69232400  1
  O  O41  1  0.91963700  0.06550400  0.72682900  1
