# generated using pymatgen
data_VCuS4
_symmetry_space_group_name_H-M   'P 1'
_cell_length_a   6.82581863
_cell_length_b   6.82581863
_cell_length_c   6.82581863
_cell_angle_alpha   121.50631054
_cell_angle_beta   118.38684074
_cell_angle_gamma   90.11375302
_symmetry_Int_Tables_number   1
_chemical_formula_structural   VCuS4
_chemical_formula_sum   'V2 Cu2 S8'
_cell_volume   224.85227509
_cell_formula_units_Z   2
loop_
 _symmetry_equiv_pos_site_id
 _symmetry_equiv_pos_as_xyz
  1  'x, y, z'
loop_
 _atom_site_type_symbol
 _atom_site_label
 _atom_site_symmetry_multiplicity
 _atom_site_fract_x
 _atom_site_fract_y
 _atom_site_fract_z
 _atom_site_occupancy
  V  V0  1  0.50000000  0.50000000  0.50000000  1
  V  V1  1  0.50000000  0.00000000  0.00000000  1
  Cu  Cu2  1  0.12754700  0.87754700  0.25000000  1
  Cu  Cu3  1  0.87245300  0.12245300  0.75000000  1
  S  S4  1  0.26278800  0.74666700  0.98387900  1
  S  S5  1  0.26278800  0.27890800  0.51612100  1
  S  S6  1  0.26253000  0.74627800  0.51625200  1
  S  S7  1  0.73002700  0.74627800  0.98374800  1
  S  S8  1  0.73721200  0.25333300  0.01612100  1
  S  S9  1  0.73721200  0.72109200  0.48387900  1
  S  S10  1  0.73747000  0.25372200  0.48374800  1
  S  S11  1  0.26997300  0.25372200  0.01625200  1
