# generated using pymatgen
data_RbY(PO3)4
_symmetry_space_group_name_H-M   'P 1'
_cell_length_a   8.98021200
_cell_length_b   10.46548900
_cell_length_c   12.90811082
_cell_angle_alpha   55.59942272
_cell_angle_beta   90.00000000
_cell_angle_gamma   90.00000000
_symmetry_Int_Tables_number   1
_chemical_formula_structural   RbY(PO3)4
_chemical_formula_sum   'Rb4 Y4 P16 O48'
_cell_volume   1000.96639216
_cell_formula_units_Z   4
loop_
 _symmetry_equiv_pos_site_id
 _symmetry_equiv_pos_as_xyz
  1  'x, y, z'
loop_
 _atom_site_type_symbol
 _atom_site_label
 _atom_site_symmetry_multiplicity
 _atom_site_fract_x
 _atom_site_fract_y
 _atom_site_fract_z
 _atom_site_occupancy
  Rb  Rb0  1  0.56630900  0.26521000  0.04180000  1
  Rb  Rb1  1  0.93369100  0.26521000  0.54180000  1
  Rb  Rb2  1  0.43369100  0.73479000  0.95820000  1
  Rb  Rb3  1  0.06630900  0.73479000  0.45820000  1
  Y  Y4  1  0.72699800  0.81546100  0.68301300  1
  Y  Y5  1  0.77300200  0.81546100  0.18301300  1
  Y  Y6  1  0.27300200  0.18453900  0.31698700  1
  Y  Y7  1  0.22699800  0.18453900  0.81698700  1
  P  P8  1  0.40844900  0.88869500  0.25853300  1
  P  P9  1  0.09155100  0.88869500  0.75853300  1
  P  P10  1  0.59155100  0.11130500  0.74146700  1
  P  P11  1  0.90844900  0.11130500  0.24146700  1
  P  P12  1  0.67148300  0.17545300  0.36482100  1
  P  P13  1  0.82851700  0.17545300  0.86482100  1
  P  P14  1  0.32851700  0.82454700  0.63517900  1
  P  P15  1  0.17148300  0.82454700  0.13517900  1
  P  P16  1  0.47425700  0.52655000  0.72117900  1
  P  P17  1  0.02574300  0.52655000  0.22117900  1
  P  P18  1  0.52574300  0.47345000  0.27882100  1
  P  P19  1  0.97425700  0.47345000  0.77882100  1
  P  P20  1  0.10985700  0.30082500  0.02328900  1
  P  P21  1  0.39014300  0.30082500  0.52328900  1
  P  P22  1  0.89014300  0.69917500  0.97671100  1
  P  P23  1  0.60985700  0.69917500  0.47671100  1
  O  O24  1  0.54705700  0.53991700  0.59983500  1
  O  O25  1  0.95294300  0.53991700  0.09983500  1
  O  O26  1  0.45294300  0.46008300  0.40016500  1
  O  O27  1  0.04705700  0.46008300  0.90016500  1
  O  O28  1  0.58508600  0.57179900  0.78265800  1
  O  O29  1  0.91491400  0.57179900  0.28265800  1
  O  O30  1  0.41491400  0.42820100  0.21734200  1
  O  O31  1  0.08508600  0.42820100  0.71734200  1
  O  O32  1  0.79116100  0.21977900  0.25456000  1
  O  O33  1  0.70883900  0.21977900  0.75456000  1
  O  O34  1  0.20883900  0.78022100  0.74544000  1
  O  O35  1  0.29116100  0.78022100  0.24544000  1
  O  O36  1  0.54099000  0.92389700  0.17558400  1
  O  O37  1  0.95901000  0.92389700  0.67558400  1
  O  O38  1  0.45901000  0.07610300  0.82441600  1
  O  O39  1  0.04099000  0.07610300  0.32441600  1
  O  O40  1  0.74158700  0.07100400  0.49122300  1
  O  O41  1  0.75841300  0.07100400  0.99122300  1
  O  O42  1  0.25841300  0.92899600  0.50877700  1
  O  O43  1  0.24158700  0.92899600  0.00877700  1
  O  O44  1  0.40628000  0.36868300  0.80115000  1
  O  O45  1  0.09372000  0.36868300  0.30115000  1
  O  O46  1  0.59372000  0.63131700  0.19885000  1
  O  O47  1  0.90628000  0.63131700  0.69885000  1
  O  O48  1  0.32487900  0.02080800  0.24533800  1
  O  O49  1  0.17512100  0.02080800  0.74533800  1
  O  O50  1  0.67512100  0.97919200  0.75466200  1
  O  O51  1  0.82487900  0.97919200  0.25466200  1
  O  O52  1  0.21235100  0.33561600  0.09628400  1
  O  O53  1  0.28764900  0.33561600  0.59628400  1
  O  O54  1  0.78764900  0.66438400  0.90371600  1
  O  O55  1  0.71235100  0.66438400  0.40371600  1
  O  O56  1  0.16723300  0.20205300  0.98194300  1
  O  O57  1  0.33276700  0.20205300  0.48194300  1
  O  O58  1  0.83276700  0.79794700  0.01805700  1
  O  O59  1  0.66723300  0.79794700  0.51805700  1
  O  O60  1  0.52859400  0.13339100  0.33116700  1
  O  O61  1  0.97140600  0.13339100  0.83116700  1
  O  O62  1  0.47140600  0.86660900  0.66883300  1
  O  O63  1  0.02859400  0.86660900  0.16883300  1
  O  O64  1  0.84187800  0.34478000  0.84161900  1
  O  O65  1  0.65812200  0.34478000  0.34161900  1
  O  O66  1  0.15812200  0.65522000  0.15838100  1
  O  O67  1  0.34187800  0.65522000  0.65838100  1
  O  O68  1  0.95270400  0.23309100  0.09657400  1
  O  O69  1  0.54729600  0.23309100  0.59657400  1
  O  O70  1  0.04729600  0.76690900  0.90342600  1
  O  O71  1  0.45270400  0.76690900  0.40342600  1
