# generated using pymatgen
data_VCd2PO7
_symmetry_space_group_name_H-M   'P 1'
_cell_length_a   4.84954642
_cell_length_b   5.75495608
_cell_length_c   11.01285400
_cell_angle_alpha   90.00000000
_cell_angle_beta   90.00000000
_cell_angle_gamma   97.45444329
_symmetry_Int_Tables_number   1
_chemical_formula_structural   VCd2PO7
_chemical_formula_sum   'V2 Cd4 P2 O14'
_cell_volume   304.75925514
_cell_formula_units_Z   2
loop_
 _symmetry_equiv_pos_site_id
 _symmetry_equiv_pos_as_xyz
  1  'x, y, z'
loop_
 _atom_site_type_symbol
 _atom_site_label
 _atom_site_symmetry_multiplicity
 _atom_site_fract_x
 _atom_site_fract_y
 _atom_site_fract_z
 _atom_site_occupancy
  V  V0  1  0.64149000  0.85278600  0.89264500  1
  V  V1  1  0.35851000  0.64721400  0.39264500  1
  Cd  Cd2  1  0.10898100  0.91035100  0.65115200  1
  Cd  Cd3  1  0.89101900  0.58964900  0.15115200  1
  Cd  Cd4  1  0.88826900  0.09551400  0.34687900  1
  Cd  Cd5  1  0.11173100  0.40448600  0.84687900  1
  P  P6  1  0.35123700  0.15443500  0.11204700  1
  P  P7  1  0.64876300  0.34556500  0.61204700  1
  O  O8  1  0.89323100  0.03727000  0.81774400  1
  O  O9  1  0.10676900  0.46273000  0.31774400  1
  O  O10  1  0.13171400  0.97722700  0.17637400  1
  O  O11  1  0.86828600  0.52277300  0.67637400  1
  O  O12  1  0.79632200  0.62615400  0.95518500  1
  O  O13  1  0.20367800  0.87384600  0.45518500  1
  O  O14  1  0.21955900  0.35264000  0.04773400  1
  O  O15  1  0.78044100  0.14736000  0.54773400  1
  O  O16  1  0.48596200  0.01203900  0.00880100  1
  O  O17  1  0.51403800  0.48796100  0.50880100  1
  O  O18  1  0.38301400  0.73921600  0.79443600  1
  O  O19  1  0.61698600  0.76078400  0.29443600  1
  O  O20  1  0.59118500  0.25394400  0.19700300  1
  O  O21  1  0.40881500  0.24605600  0.69700300  1
