# generated using pymatgen
data_V4Os
_symmetry_space_group_name_H-M   'P 1'
_cell_length_a   10.52936027
_cell_length_b   10.40824803
_cell_length_c   2.66516310
_cell_angle_alpha   85.27782657
_cell_angle_beta   80.11099788
_cell_angle_gamma   14.61117555
_symmetry_Int_Tables_number   1
_chemical_formula_structural   V4Os
_chemical_formula_sum   'V4 Os1'
_cell_volume   68.32730547
_cell_formula_units_Z   1
loop_
 _symmetry_equiv_pos_site_id
 _symmetry_equiv_pos_as_xyz
  1  'x, y, z'
loop_
 _atom_site_type_symbol
 _atom_site_label
 _atom_site_symmetry_multiplicity
 _atom_site_fract_x
 _atom_site_fract_y
 _atom_site_fract_z
 _atom_site_occupancy
  V  V0  1  0.39848600  0.39848600  0.60151400  1
  V  V1  1  0.79944500  0.79944500  0.20055500  1
  V  V2  1  0.20055500  0.20055500  0.79944500  1
  V  V3  1  0.60151400  0.60151400  0.39848600  1
  Os  Os4  1  0.00000000  0.00000000  0.00000000  1
