# generated using pymatgen
data_ZnCu15H24(ClO3)8
_symmetry_space_group_name_H-M   'P 1'
_cell_length_a   18.91212478
_cell_length_b   18.91212478
_cell_length_c   18.91212546
_cell_angle_alpha   21.21991801
_cell_angle_beta   21.21991801
_cell_angle_gamma   21.21991798
_symmetry_Int_Tables_number   1
_chemical_formula_structural   ZnCu15H24(ClO3)8
_chemical_formula_sum   'Zn1 Cu15 H24 Cl8 O24'
_cell_volume   776.21105847
_cell_formula_units_Z   1
loop_
 _symmetry_equiv_pos_site_id
 _symmetry_equiv_pos_as_xyz
  1  'x, y, z'
loop_
 _atom_site_type_symbol
 _atom_site_label
 _atom_site_symmetry_multiplicity
 _atom_site_fract_x
 _atom_site_fract_y
 _atom_site_fract_z
 _atom_site_occupancy
  Zn  Zn0  1  0.50000000  0.50000000  0.50000000  1
  Cu  Cu1  1  0.12467800  0.62539000  0.12467800  1
  Cu  Cu2  1  0.37532800  0.87412600  0.37532800  1
  Cu  Cu3  1  0.87532200  0.37461000  0.87532200  1
  Cu  Cu4  1  0.62467200  0.12587400  0.62467200  1
  Cu  Cu5  1  0.37532800  0.37532800  0.87412600  1
  Cu  Cu6  1  0.62467200  0.62467200  0.12587400  1
  Cu  Cu7  1  0.12467800  0.12467800  0.62539000  1
  Cu  Cu8  1  0.87532200  0.87532200  0.37461000  1
  Cu  Cu9  1  0.62539000  0.12467800  0.12467800  1
  Cu  Cu10  1  0.87412600  0.37532800  0.37532800  1
  Cu  Cu11  1  0.37461000  0.87532200  0.87532200  1
  Cu  Cu12  1  0.12587400  0.62467200  0.62467200  1
  Cu  Cu13  1  0.25008100  0.25008100  0.25008100  1
  Cu  Cu14  1  0.00000000  0.00000000  0.00000000  1
  Cu  Cu15  1  0.74991900  0.74991900  0.74991900  1
  H  H16  1  0.46834000  0.87045000  0.46834000  1
  H  H17  1  0.72028900  0.11732300  0.72028900  1
  H  H18  1  0.21851200  0.62048800  0.21851200  1
  H  H19  1  0.96786500  0.37187500  0.96786500  1
  H  H20  1  0.46834000  0.46834000  0.87045000  1
  H  H21  1  0.72028900  0.72028900  0.11732300  1
  H  H22  1  0.21851200  0.21851200  0.62048800  1
  H  H23  1  0.96786500  0.96786500  0.37187500  1
  H  H24  1  0.87045000  0.46834000  0.46834000  1
  H  H25  1  0.11732300  0.72028900  0.72028900  1
  H  H26  1  0.62048800  0.21851200  0.21851200  1
  H  H27  1  0.37187500  0.96786500  0.96786500  1
  H  H28  1  0.03213500  0.62812500  0.03213500  1
  H  H29  1  0.27971100  0.88267700  0.27971100  1
  H  H30  1  0.78148800  0.37951200  0.78148800  1
  H  H31  1  0.53166000  0.12955000  0.53166000  1
  H  H32  1  0.03213500  0.03213500  0.62812500  1
  H  H33  1  0.27971100  0.27971100  0.88267700  1
  H  H34  1  0.78148800  0.78148800  0.37951200  1
  H  H35  1  0.53166000  0.53166000  0.12955000  1
  H  H36  1  0.62812500  0.03213500  0.03213500  1
  H  H37  1  0.88267700  0.27971100  0.27971100  1
  H  H38  1  0.37951200  0.78148800  0.78148800  1
  H  H39  1  0.12955000  0.53166000  0.53166000  1
  Cl  Cl40  1  0.32996500  0.32996500  0.32996500  1
  Cl  Cl41  1  0.58005300  0.58005300  0.58005300  1
  Cl  Cl42  1  0.08000900  0.08000900  0.08000900  1
  Cl  Cl43  1  0.82986100  0.82986100  0.82986100  1
  Cl  Cl44  1  0.17013900  0.17013900  0.17013900  1
  Cl  Cl45  1  0.41994700  0.41994700  0.41994700  1
  Cl  Cl46  1  0.91999100  0.91999100  0.91999100  1
  Cl  Cl47  1  0.67003500  0.67003500  0.67003500  1
  O  O48  1  0.40101300  0.02817800  0.40101300  1
  O  O49  1  0.65351400  0.27412200  0.65351400  1
  O  O50  1  0.15096000  0.77841900  0.15096000  1
  O  O51  1  0.90016300  0.52985000  0.90016300  1
  O  O52  1  0.40101300  0.40101300  0.02817800  1
  O  O53  1  0.65351400  0.65351400  0.27412200  1
  O  O54  1  0.15096000  0.15096000  0.77841900  1
  O  O55  1  0.90016300  0.90016300  0.52985000  1
  O  O56  1  0.02817800  0.40101300  0.40101300  1
  O  O57  1  0.27412200  0.65351400  0.65351400  1
  O  O58  1  0.77841900  0.15096000  0.15096000  1
  O  O59  1  0.52985000  0.90016300  0.90016300  1
  O  O60  1  0.09983700  0.47015000  0.09983700  1
  O  O61  1  0.34648600  0.72587800  0.34648600  1
  O  O62  1  0.84904000  0.22158100  0.84904000  1
  O  O63  1  0.59898700  0.97182200  0.59898700  1
  O  O64  1  0.09983700  0.09983700  0.47015000  1
  O  O65  1  0.34648600  0.34648600  0.72587800  1
  O  O66  1  0.84904000  0.84904000  0.22158100  1
  O  O67  1  0.59898700  0.59898700  0.97182200  1
  O  O68  1  0.47015000  0.09983700  0.09983700  1
  O  O69  1  0.72587800  0.34648600  0.34648600  1
  O  O70  1  0.22158100  0.84904000  0.84904000  1
  O  O71  1  0.97182200  0.59898700  0.59898700  1
