# generated using pymatgen
data_V3CrGaSe8
_symmetry_space_group_name_H-M   'P 1'
_cell_length_a   7.38618731
_cell_length_b   7.38618731
_cell_length_c   7.38618763
_cell_angle_alpha   59.40096637
_cell_angle_beta   59.40096637
_cell_angle_gamma   59.40097288
_symmetry_Int_Tables_number   1
_chemical_formula_structural   V3CrGaSe8
_chemical_formula_sum   'V3 Cr1 Ga1 Se8'
_cell_volume   281.05095209
_cell_formula_units_Z   1
loop_
 _symmetry_equiv_pos_site_id
 _symmetry_equiv_pos_as_xyz
  1  'x, y, z'
loop_
 _atom_site_type_symbol
 _atom_site_label
 _atom_site_symmetry_multiplicity
 _atom_site_fract_x
 _atom_site_fract_y
 _atom_site_fract_z
 _atom_site_occupancy
  V  V0  1  0.60562200  0.17475400  0.60562200  1
  V  V1  1  0.17475400  0.60562200  0.60562200  1
  V  V2  1  0.60562200  0.60562200  0.17475400  1
  Cr  Cr3  1  0.61709300  0.61709300  0.61709300  1
  Ga  Ga4  1  0.99836300  0.99836300  0.99836300  1
  Se  Se5  1  0.37109700  0.37109700  0.37109700  1
  Se  Se6  1  0.37666700  0.87361100  0.37666700  1
  Se  Se7  1  0.87361100  0.37666700  0.37666700  1
  Se  Se8  1  0.37666700  0.37666700  0.87361100  1
  Se  Se9  1  0.86191300  0.86191300  0.86191300  1
  Se  Se10  1  0.86480900  0.40897300  0.86480900  1
  Se  Se11  1  0.40897300  0.86480900  0.86480900  1
  Se  Se12  1  0.86480900  0.86480900  0.40897300  1
