# generated using pymatgen
data_V3As2O9
_symmetry_space_group_name_H-M   'P 1'
_cell_length_a   5.50411597
_cell_length_b   5.50411597
_cell_length_c   6.53782517
_cell_angle_alpha   77.73846750
_cell_angle_beta   77.73846750
_cell_angle_gamma   72.08143845
_symmetry_Int_Tables_number   1
_chemical_formula_structural   V3As2O9
_chemical_formula_sum   'V3 As2 O9'
_cell_volume   181.84184637
_cell_formula_units_Z   1
loop_
 _symmetry_equiv_pos_site_id
 _symmetry_equiv_pos_as_xyz
  1  'x, y, z'
loop_
 _atom_site_type_symbol
 _atom_site_label
 _atom_site_symmetry_multiplicity
 _atom_site_fract_x
 _atom_site_fract_y
 _atom_site_fract_z
 _atom_site_occupancy
  V  V0  1  0.57687600  0.57687600  0.69610800  1
  V  V1  1  0.40757700  0.40757700  0.28691500  1
  V  V2  1  0.97895500  0.97895500  0.52597800  1
  As  As3  1  0.18183400  0.18183400  0.81418700  1
  As  As4  1  0.81814000  0.81814000  0.18738700  1
  O  O5  1  0.79831300  0.79831300  0.70191700  1
  O  O6  1  0.21507200  0.21507200  0.30414100  1
  O  O7  1  0.36681300  0.36681300  0.62262900  1
  O  O8  1  0.63007000  0.63007000  0.36958100  1
  O  O9  1  0.49442100  0.49442100  0.01842100  1
  O  O10  1  0.88982100  0.27192400  0.68912900  1
  O  O11  1  0.27192400  0.88982100  0.68912900  1
  O  O12  1  0.11230700  0.72847700  0.31523900  1
  O  O13  1  0.72847700  0.11230700  0.31523900  1
