# generated using pymatgen
data_V3S5
_symmetry_space_group_name_H-M   'P 1'
_cell_length_a   5.62371404
_cell_length_b   6.68449280
_cell_length_c   8.09686269
_cell_angle_alpha   70.01893503
_cell_angle_beta   110.23118713
_cell_angle_gamma   89.81961066
_symmetry_Int_Tables_number   1
_chemical_formula_structural   V3S5
_chemical_formula_sum   'V6 S10'
_cell_volume   265.85286257
_cell_formula_units_Z   2
loop_
 _symmetry_equiv_pos_site_id
 _symmetry_equiv_pos_as_xyz
  1  'x, y, z'
loop_
 _atom_site_type_symbol
 _atom_site_label
 _atom_site_symmetry_multiplicity
 _atom_site_fract_x
 _atom_site_fract_y
 _atom_site_fract_z
 _atom_site_occupancy
  V  V0  1  0.78775300  0.40782400  0.59174900  1
  V  V1  1  0.41224700  0.19217600  0.80825100  1
  V  V2  1  0.60000000  0.80000000  0.20000000  1
  V  V3  1  0.99452200  0.01355500  0.98416800  1
  V  V4  1  0.20547800  0.58644500  0.41583200  1
  V  V5  1  0.10000000  0.30000000  0.20000000  1
  S  S6  1  0.71604100  0.14981600  0.10204900  1
  S  S7  1  0.91678600  0.74715700  0.49981500  1
  S  S8  1  0.11690100  0.35593700  0.89534300  1
  S  S9  1  0.31529300  0.94505800  0.29957500  1
  S  S10  1  0.51954000  0.54910100  0.70147700  1
  S  S11  1  0.88470700  0.65494200  0.10042500  1
  S  S12  1  0.08309900  0.24406300  0.50465700  1
  S  S13  1  0.28321400  0.85284300  0.90018500  1
  S  S14  1  0.48395900  0.45018400  0.29795100  1
  S  S15  1  0.68046000  0.05089900  0.69852300  1
