# generated using pymatgen
data_TmAgS2
_symmetry_space_group_name_H-M   'P 1'
_cell_length_a   6.59794355
_cell_length_b   6.59794355
_cell_length_c   6.59794378
_cell_angle_alpha   35.07498471
_cell_angle_beta   35.07498471
_cell_angle_gamma   35.07498284
_symmetry_Int_Tables_number   1
_chemical_formula_structural   TmAgS2
_chemical_formula_sum   'Tm1 Ag1 S2'
_cell_volume   84.69908106
_cell_formula_units_Z   1
loop_
 _symmetry_equiv_pos_site_id
 _symmetry_equiv_pos_as_xyz
  1  'x, y, z'
loop_
 _atom_site_type_symbol
 _atom_site_label
 _atom_site_symmetry_multiplicity
 _atom_site_fract_x
 _atom_site_fract_y
 _atom_site_fract_z
 _atom_site_occupancy
  Tm  Tm0  1  0.50000000  0.50000000  0.50000000  1
  Ag  Ag1  1  0.00000000  0.00000000  0.00000000  1
  S  S2  1  0.24544100  0.24544100  0.24544100  1
  S  S3  1  0.75455900  0.75455900  0.75455900  1
