# generated using pymatgen
data_V2MoS4
_symmetry_space_group_name_H-M   'P 1'
_cell_length_a   6.58242426
_cell_length_b   6.58242426
_cell_length_c   5.94336661
_cell_angle_alpha   65.79886650
_cell_angle_beta   65.79886650
_cell_angle_gamma   28.53753351
_symmetry_Int_Tables_number   1
_chemical_formula_structural   V2MoS4
_chemical_formula_sum   'V2 Mo1 S4'
_cell_volume   111.47648809
_cell_formula_units_Z   1
loop_
 _symmetry_equiv_pos_site_id
 _symmetry_equiv_pos_as_xyz
  1  'x, y, z'
loop_
 _atom_site_type_symbol
 _atom_site_label
 _atom_site_symmetry_multiplicity
 _atom_site_fract_x
 _atom_site_fract_y
 _atom_site_fract_z
 _atom_site_occupancy
  V  V0  1  0.00082800  0.00082800  0.99522400  1
  V  V1  1  0.74258000  0.74258000  0.31974500  1
  Mo  Mo2  1  0.25807000  0.25807000  0.68683900  1
  S  S3  1  0.89372400  0.89372400  0.43905800  1
  S  S4  1  0.10821100  0.10821100  0.54773200  1
  S  S5  1  0.36024300  0.36024300  0.98216500  1
  S  S6  1  0.63634400  0.63634400  0.02923800  1
