# generated using pymatgen
data_Tm2CoGe4
_symmetry_space_group_name_H-M   'P 1'
_cell_length_a   4.07164700
_cell_length_b   4.07885400
_cell_length_c   8.16277125
_cell_angle_alpha   75.53166395
_cell_angle_beta   90.00000000
_cell_angle_gamma   90.00000000
_symmetry_Int_Tables_number   1
_chemical_formula_structural   Tm2CoGe4
_chemical_formula_sum   'Tm2 Co1 Ge4'
_cell_volume   131.26516727
_cell_formula_units_Z   1
loop_
 _symmetry_equiv_pos_site_id
 _symmetry_equiv_pos_as_xyz
  1  'x, y, z'
loop_
 _atom_site_type_symbol
 _atom_site_label
 _atom_site_symmetry_multiplicity
 _atom_site_fract_x
 _atom_site_fract_y
 _atom_site_fract_z
 _atom_site_occupancy
  Tm  Tm0  1  0.25000000  0.89200200  0.21599600  1
  Tm  Tm1  1  0.75000000  0.10186600  0.79626700  1
  Co  Co2  1  0.25000000  0.68731500  0.62537100  1
  Ge  Ge3  1  0.25000000  0.25758200  0.48483600  1
  Ge  Ge4  1  0.75000000  0.75549500  0.48901000  1
  Ge  Ge5  1  0.25000000  0.54354700  0.91290600  1
  Ge  Ge6  1  0.75000000  0.44119300  0.11761400  1
