# generated using pymatgen
data_Tl4Br3Cl
_symmetry_space_group_name_H-M   'P 1'
_cell_length_a   4.01614200
_cell_length_b   4.01614200
_cell_length_c   16.09554400
_cell_angle_alpha   90.00000000
_cell_angle_beta   90.00000000
_cell_angle_gamma   90.00000000
_symmetry_Int_Tables_number   1
_chemical_formula_structural   Tl4Br3Cl
_chemical_formula_sum   'Tl4 Br3 Cl1'
_cell_volume   259.61141209
_cell_formula_units_Z   1
loop_
 _symmetry_equiv_pos_site_id
 _symmetry_equiv_pos_as_xyz
  1  'x, y, z'
loop_
 _atom_site_type_symbol
 _atom_site_label
 _atom_site_symmetry_multiplicity
 _atom_site_fract_x
 _atom_site_fract_y
 _atom_site_fract_z
 _atom_site_occupancy
  Tl  Tl0  1  0.00000000  0.00000000  0.87836000  1
  Tl  Tl1  1  0.00000000  0.00000000  0.12164000  1
  Tl  Tl2  1  0.00000000  0.00000000  0.37492300  1
  Tl  Tl3  1  0.00000000  0.00000000  0.62507700  1
  Br  Br4  1  0.50000000  0.50000000  0.24916500  1
  Br  Br5  1  0.50000000  0.50000000  0.50000000  1
  Br  Br6  1  0.50000000  0.50000000  0.75083500  1
  Cl  Cl7  1  0.50000000  0.50000000  0.00000000  1
