# generated using pymatgen
data_Tm5TeSe4
_symmetry_space_group_name_H-M   'P 1'
_cell_length_a   16.77644196
_cell_length_b   16.77644196
_cell_length_c   16.77644208
_cell_angle_alpha   13.97834235
_cell_angle_beta   13.97834235
_cell_angle_gamma   13.97834346
_symmetry_Int_Tables_number   1
_chemical_formula_structural   Tm5TeSe4
_chemical_formula_sum   'Tm5 Te1 Se4'
_cell_volume   239.77910859
_cell_formula_units_Z   1
loop_
 _symmetry_equiv_pos_site_id
 _symmetry_equiv_pos_as_xyz
  1  'x, y, z'
loop_
 _atom_site_type_symbol
 _atom_site_label
 _atom_site_symmetry_multiplicity
 _atom_site_fract_x
 _atom_site_fract_y
 _atom_site_fract_z
 _atom_site_occupancy
  Tm  Tm0  1  0.70633700  0.70633700  0.70633700  1
  Tm  Tm1  1  0.10094000  0.10094000  0.10094000  1
  Tm  Tm2  1  0.50000000  0.50000000  0.50000000  1
  Tm  Tm3  1  0.29366300  0.29366300  0.29366300  1
  Tm  Tm4  1  0.89906000  0.89906000  0.89906000  1
  Te  Te5  1  0.00000000  0.00000000  0.00000000  1
  Se  Se6  1  0.59673800  0.59673800  0.59673800  1
  Se  Se7  1  0.19896600  0.19896600  0.19896600  1
  Se  Se8  1  0.80103400  0.80103400  0.80103400  1
  Se  Se9  1  0.40326200  0.40326200  0.40326200  1
