# generated using pymatgen
data_TlV6PSe7
_symmetry_space_group_name_H-M   'P 1'
_cell_length_a   9.59771388
_cell_length_b   9.59771388
_cell_length_c   3.38056700
_cell_angle_alpha   90.00000000
_cell_angle_beta   90.00000000
_cell_angle_gamma   119.99999915
_symmetry_Int_Tables_number   1
_chemical_formula_structural   TlV6PSe7
_chemical_formula_sum   'Tl1 V6 P1 Se7'
_cell_volume   269.68437232
_cell_formula_units_Z   1
loop_
 _symmetry_equiv_pos_site_id
 _symmetry_equiv_pos_as_xyz
  1  'x, y, z'
loop_
 _atom_site_type_symbol
 _atom_site_label
 _atom_site_symmetry_multiplicity
 _atom_site_fract_x
 _atom_site_fract_y
 _atom_site_fract_z
 _atom_site_occupancy
  Tl  Tl0  1  0.00000000  0.00000000  0.50019600  1
  V  V1  1  0.13337600  0.50347700  0.74864400  1
  V  V2  1  0.49652300  0.62989900  0.74864400  1
  V  V3  1  0.37010100  0.86662400  0.74864400  1
  V  V4  1  0.87971700  0.50713700  0.25148300  1
  V  V5  1  0.49286300  0.37257900  0.25148300  1
  V  V6  1  0.62742100  0.12028300  0.25148300  1
  P  P7  1  0.33333300  0.66666700  0.24927800  1
  Se  Se8  1  0.29272000  0.34462700  0.75490100  1
  Se  Se9  1  0.65537300  0.94809300  0.75490100  1
  Se  Se10  1  0.05190700  0.70728000  0.75490100  1
  Se  Se11  1  0.70192000  0.65621300  0.24511100  1
  Se  Se12  1  0.34378700  0.04570800  0.24511100  1
  Se  Se13  1  0.95429200  0.29808000  0.24511100  1
  Se  Se14  1  0.66666700  0.33333300  0.75078700  1
