# generated using pymatgen
data_Tm4FeS7
_symmetry_space_group_name_H-M   'P 1'
_cell_length_a   3.74125700
_cell_length_b   6.41581407
_cell_length_c   11.25884256
_cell_angle_alpha   103.94484959
_cell_angle_beta   90.00000000
_cell_angle_gamma   73.04831552
_symmetry_Int_Tables_number   1
_chemical_formula_structural   Tm4FeS7
_chemical_formula_sum   'Tm4 Fe1 S7'
_cell_volume   250.16804411
_cell_formula_units_Z   1
loop_
 _symmetry_equiv_pos_site_id
 _symmetry_equiv_pos_as_xyz
  1  'x, y, z'
loop_
 _atom_site_type_symbol
 _atom_site_label
 _atom_site_symmetry_multiplicity
 _atom_site_fract_x
 _atom_site_fract_y
 _atom_site_fract_z
 _atom_site_occupancy
  Tm  Tm0  1  0.69385900  0.61228200  0.20512600  1
  Tm  Tm1  1  0.30583700  0.38832600  0.80191300  1
  Tm  Tm2  1  0.99962000  0.00076100  0.00555300  1
  Tm  Tm3  1  0.11295400  0.77409100  0.56544600  1
  Fe  Fe4  1  0.88855100  0.22289700  0.42399800  1
  S  S5  1  0.74553100  0.50893900  0.63892100  1
  S  S6  1  0.26818900  0.46362100  0.35388000  1
  S  S7  1  0.33847600  0.32304700  0.05139800  1
  S  S8  1  0.65994700  0.68010600  0.94844000  1
  S  S9  1  0.03206200  0.93587600  0.22664100  1
  S  S10  1  0.96360400  0.07279100  0.78381400  1
  S  S11  1  0.49136800  0.01726400  0.49487100  1
