# generated using pymatgen
data_V2Cd3O8
_symmetry_space_group_name_H-M   'P 1'
_cell_length_a   5.42020100
_cell_length_b   7.06450200
_cell_length_c   10.05070100
_cell_angle_alpha   90.00000000
_cell_angle_beta   90.00000000
_cell_angle_gamma   90.00000000
_symmetry_Int_Tables_number   1
_chemical_formula_structural   V2Cd3O8
_chemical_formula_sum   'V4 Cd6 O16'
_cell_volume   384.85160109
_cell_formula_units_Z   2
loop_
 _symmetry_equiv_pos_site_id
 _symmetry_equiv_pos_as_xyz
  1  'x, y, z'
loop_
 _atom_site_type_symbol
 _atom_site_label
 _atom_site_symmetry_multiplicity
 _atom_site_fract_x
 _atom_site_fract_y
 _atom_site_fract_z
 _atom_site_occupancy
  V  V0  1  0.74403700  0.50000000  0.68003200  1
  V  V1  1  0.25596300  0.50000000  0.18003200  1
  V  V2  1  0.75873300  0.00000000  0.31841200  1
  V  V3  1  0.24126700  0.00000000  0.81841200  1
  Cd  Cd4  1  0.24998400  0.74012800  0.49841000  1
  Cd  Cd5  1  0.75001600  0.25987200  0.99841000  1
  Cd  Cd6  1  0.24998400  0.25987200  0.49841000  1
  Cd  Cd7  1  0.75001600  0.74012800  0.99841000  1
  Cd  Cd8  1  0.24945500  0.00000000  0.15051000  1
  Cd  Cd9  1  0.75054500  0.00000000  0.65051000  1
  O  O10  1  0.05042200  0.50000000  0.63163600  1
  O  O11  1  0.94957800  0.50000000  0.13163600  1
  O  O12  1  0.43714800  0.00000000  0.36463100  1
  O  O13  1  0.56285200  0.00000000  0.86463100  1
  O  O14  1  0.29594200  0.50000000  0.35321500  1
  O  O15  1  0.70405800  0.50000000  0.85321500  1
  O  O16  1  0.16924800  0.00000000  0.63942200  1
  O  O17  1  0.83075200  0.00000000  0.13942200  1
  O  O18  1  0.39560600  0.70931600  0.12037200  1
  O  O19  1  0.60439400  0.29068400  0.62037200  1
  O  O20  1  0.10009900  0.19089100  0.88558800  1
  O  O21  1  0.89990100  0.80910900  0.38558800  1
  O  O22  1  0.10009900  0.80910900  0.88558800  1
  O  O23  1  0.89990100  0.19089100  0.38558800  1
  O  O24  1  0.39560600  0.29068400  0.12037200  1
  O  O25  1  0.60439400  0.70931600  0.62037200  1
