# generated using pymatgen
data_V2GaFe
_symmetry_space_group_name_H-M   'P 1'
_cell_length_a   2.60437727
_cell_length_b   2.60437727
_cell_length_c   8.05604069
_cell_angle_alpha   90.00000000
_cell_angle_beta   90.00000000
_cell_angle_gamma   105.69217654
_symmetry_Int_Tables_number   1
_chemical_formula_structural   V2GaFe
_chemical_formula_sum   'V2 Ga1 Fe1'
_cell_volume   52.60576691
_cell_formula_units_Z   1
loop_
 _symmetry_equiv_pos_site_id
 _symmetry_equiv_pos_as_xyz
  1  'x, y, z'
loop_
 _atom_site_type_symbol
 _atom_site_label
 _atom_site_symmetry_multiplicity
 _atom_site_fract_x
 _atom_site_fract_y
 _atom_site_fract_z
 _atom_site_occupancy
  V  V0  1  0.00000000  0.00000000  0.50528200  1
  V  V1  1  0.50000000  0.50000000  0.75825600  1
  Ga  Ga2  1  0.50000000  0.50000000  0.23986700  1
  Fe  Fe3  1  0.00000000  0.00000000  0.99659500  1
