# generated using pymatgen
data_VCo5AsO10
_symmetry_space_group_name_H-M   'P 1'
_cell_length_a   10.15027461
_cell_length_b   10.15027461
_cell_length_c   14.73171458
_cell_angle_alpha   62.41697560
_cell_angle_beta   62.41697560
_cell_angle_gamma   35.32270687
_symmetry_Int_Tables_number   1
_chemical_formula_structural   VCo5AsO10
_chemical_formula_sum   'V4 Co20 As4 O40'
_cell_volume   766.97455592
_cell_formula_units_Z   4
loop_
 _symmetry_equiv_pos_site_id
 _symmetry_equiv_pos_as_xyz
  1  'x, y, z'
loop_
 _atom_site_type_symbol
 _atom_site_label
 _atom_site_symmetry_multiplicity
 _atom_site_fract_x
 _atom_site_fract_y
 _atom_site_fract_z
 _atom_site_occupancy
  V  V0  1  0.40014700  0.40014700  0.52669900  1
  V  V1  1  0.59985300  0.59985300  0.47330100  1
  V  V2  1  0.50875400  0.50875400  0.12565600  1
  V  V3  1  0.49124600  0.49124600  0.87434400  1
  Co  Co4  1  0.11207300  0.11207300  0.46379500  1
  Co  Co5  1  0.88792700  0.88792700  0.53620500  1
  Co  Co6  1  0.70549200  0.70549200  0.20597500  1
  Co  Co7  1  0.29450800  0.29450800  0.79402500  1
  Co  Co8  1  0.30856800  0.30856800  0.29849900  1
  Co  Co9  1  0.69143200  0.69143200  0.70150100  1
  Co  Co10  1  0.29393400  0.79086200  0.30857100  1
  Co  Co11  1  0.79086200  0.29393400  0.30857100  1
  Co  Co12  1  0.70606600  0.20913800  0.69142900  1
  Co  Co13  1  0.20913800  0.70606600  0.69142900  1
  Co  Co14  1  0.09339300  0.09339300  0.10286500  1
  Co  Co15  1  0.90660700  0.90660700  0.89713500  1
  Co  Co16  1  0.00000000  0.50000000  0.50000000  1
  Co  Co17  1  0.50000000  0.00000000  0.50000000  1
  Co  Co18  1  0.50000000  0.00000000  0.00000000  1
  Co  Co19  1  0.00000000  0.50000000  0.00000000  1
  Co  Co20  1  0.60725600  0.11080700  0.09805500  1
  Co  Co21  1  0.11080700  0.60725600  0.09805500  1
  Co  Co22  1  0.39274400  0.88919300  0.90194500  1
  Co  Co23  1  0.88919300  0.39274400  0.90194500  1
  As  As24  1  0.20116900  0.20116900  0.20227200  1
  As  As25  1  0.79883100  0.79883100  0.79772800  1
  As  As26  1  0.89357400  0.89357400  0.27668500  1
  As  As27  1  0.10642600  0.10642600  0.72331500  1
  O  O28  1  0.10651000  0.10651000  0.33160600  1
  O  O29  1  0.89349000  0.89349000  0.66839400  1
  O  O30  1  0.60158000  0.60158000  0.34868800  1
  O  O31  1  0.39842000  0.39842000  0.65131200  1
  O  O32  1  0.32414500  0.78847200  0.05503700  1
  O  O33  1  0.78847200  0.32414500  0.05503700  1
  O  O34  1  0.67585500  0.21152800  0.94496300  1
  O  O35  1  0.21152800  0.67585500  0.94496300  1
  O  O36  1  0.99286500  0.99286500  0.25485900  1
  O  O37  1  0.00713500  0.00713500  0.74514100  1
  O  O38  1  0.21167600  0.68378000  0.45644100  1
  O  O39  1  0.68378000  0.21167600  0.45644100  1
  O  O40  1  0.78832400  0.31622000  0.54355900  1
  O  O41  1  0.31622000  0.78832400  0.54355900  1
  O  O42  1  0.21526400  0.21526400  0.44737600  1
  O  O43  1  0.78473600  0.78473600  0.55262400  1
  O  O44  1  0.46438700  0.03881400  0.23578200  1
  O  O45  1  0.03881400  0.46438700  0.23578200  1
  O  O46  1  0.53561300  0.96118600  0.76421800  1
  O  O47  1  0.96118600  0.53561300  0.76421800  1
  O  O48  1  0.08302400  0.61649300  0.34392100  1
  O  O49  1  0.61649300  0.08302400  0.34392100  1
  O  O50  1  0.91697600  0.38350700  0.65607900  1
  O  O51  1  0.38350700  0.91697600  0.65607900  1
  O  O52  1  0.80452900  0.80452900  0.05147800  1
  O  O53  1  0.19547100  0.19547100  0.94852200  1
  O  O54  1  0.40952700  0.40952700  0.14536300  1
  O  O55  1  0.59047300  0.59047300  0.85463700  1
  O  O56  1  0.89778000  0.89778000  0.15627600  1
  O  O57  1  0.10222000  0.10222000  0.84372400  1
  O  O58  1  0.51107700  0.51107700  0.24280200  1
  O  O59  1  0.48892300  0.48892300  0.75719800  1
  O  O60  1  0.28881300  0.28881300  0.06242700  1
  O  O61  1  0.71118700  0.71118700  0.93757300  1
  O  O62  1  0.69337300  0.69337300  0.45592200  1
  O  O63  1  0.30662700  0.30662700  0.54407800  1
  O  O64  1  0.37174700  0.93738800  0.15885200  1
  O  O65  1  0.93738800  0.37174700  0.15885200  1
  O  O66  1  0.62825300  0.06261200  0.84114800  1
  O  O67  1  0.06261200  0.62825300  0.84114800  1
