# generated using pymatgen
data_U2Si3Au
_symmetry_space_group_name_H-M   'P 1'
_cell_length_a   3.87891000
_cell_length_b   4.15876557
_cell_length_c   7.20699122
_cell_angle_alpha   90.00261246
_cell_angle_beta   90.00000000
_cell_angle_gamma   90.00000000
_symmetry_Int_Tables_number   1
_chemical_formula_structural   U2Si3Au
_chemical_formula_sum   'U2 Si3 Au1'
_cell_volume   116.25941543
_cell_formula_units_Z   1
loop_
 _symmetry_equiv_pos_site_id
 _symmetry_equiv_pos_as_xyz
  1  'x, y, z'
loop_
 _atom_site_type_symbol
 _atom_site_label
 _atom_site_symmetry_multiplicity
 _atom_site_fract_x
 _atom_site_fract_y
 _atom_site_fract_z
 _atom_site_occupancy
  U  U0  1  0.00000000  0.00005400  0.98204000  1
  U  U1  1  0.00000000  0.49995100  0.52091500  1
  Si  Si2  1  0.50000000  0.49998500  0.83336800  1
  Si  Si3  1  0.50000000  0.49995700  0.15458600  1
  Si  Si4  1  0.50000000  0.99994500  0.67531300  1
  Au  Au5  1  0.50000000  0.99990800  0.33377700  1
