# generated using pymatgen
data_V6PbO15
_symmetry_space_group_name_H-M   'P 1'
_cell_length_a   8.05531232
_cell_length_b   8.05531232
_cell_length_c   10.39045446
_cell_angle_alpha   70.69690701
_cell_angle_beta   70.69690701
_cell_angle_gamma   26.78400571
_symmetry_Int_Tables_number   1
_chemical_formula_structural   V6PbO15
_chemical_formula_sum   'V6 Pb1 O15'
_cell_volume   285.74240509
_cell_formula_units_Z   1
loop_
 _symmetry_equiv_pos_site_id
 _symmetry_equiv_pos_as_xyz
  1  'x, y, z'
loop_
 _atom_site_type_symbol
 _atom_site_label
 _atom_site_symmetry_multiplicity
 _atom_site_fract_x
 _atom_site_fract_y
 _atom_site_fract_z
 _atom_site_occupancy
  V  V0  1  0.33433600  0.33433600  0.90182800  1
  V  V1  1  0.66787000  0.66787000  0.10139700  1
  V  V2  1  0.11567300  0.11567300  0.89035000  1
  V  V3  1  0.87826600  0.87826600  0.11275900  1
  V  V4  1  0.28409000  0.28409000  0.59276100  1
  V  V5  1  0.71864100  0.71864100  0.41233400  1
  Pb  Pb6  1  0.00052600  0.00052600  0.60133800  1
  O  O7  1  0.43746800  0.43746800  0.77521300  1
  O  O8  1  0.56784600  0.56784600  0.21492100  1
  O  O9  1  0.10784000  0.10784000  0.73343900  1
  O  O10  1  0.88199300  0.88199300  0.26871900  1
  O  O11  1  0.24612800  0.24612800  0.43025000  1
  O  O12  1  0.75826500  0.75826500  0.57583900  1
  O  O13  1  0.00129600  0.00129600  0.99983800  1
  O  O14  1  0.63496500  0.63496500  0.92467800  1
  O  O15  1  0.36895300  0.36895300  0.07297600  1
  O  O16  1  0.26075900  0.26075900  0.77550200  1
  O  O17  1  0.73806100  0.73806100  0.21286000  1
  O  O18  1  0.81581000  0.81581000  0.95505300  1
  O  O19  1  0.18632400  0.18632400  0.04331100  1
  O  O20  1  0.39595200  0.39595200  0.53210200  1
  O  O21  1  0.60334900  0.60334900  0.47860300  1
