# generated using pymatgen
data_Tm4CoSn8
_symmetry_space_group_name_H-M   'P 1'
_cell_length_a   4.41091600
_cell_length_b   4.40366800
_cell_length_c   16.60510200
_cell_angle_alpha   90.00000000
_cell_angle_beta   90.00000000
_cell_angle_gamma   90.00000000
_symmetry_Int_Tables_number   1
_chemical_formula_structural   Tm4CoSn8
_chemical_formula_sum   'Tm4 Co1 Sn8'
_cell_volume   322.54098234
_cell_formula_units_Z   1
loop_
 _symmetry_equiv_pos_site_id
 _symmetry_equiv_pos_as_xyz
  1  'x, y, z'
loop_
 _atom_site_type_symbol
 _atom_site_label
 _atom_site_symmetry_multiplicity
 _atom_site_fract_x
 _atom_site_fract_y
 _atom_site_fract_z
 _atom_site_occupancy
  Tm  Tm0  1  0.25000000  0.00000000  0.09849100  1
  Tm  Tm1  1  0.25000000  0.50000000  0.60332300  1
  Tm  Tm2  1  0.75000000  0.50000000  0.39673000  1
  Tm  Tm3  1  0.75000000  0.00000000  0.89930600  1
  Co  Co4  1  0.25000000  0.00000000  0.30838300  1
  Sn  Sn5  1  0.25000000  0.00000000  0.45533600  1
  Sn  Sn6  1  0.25000000  0.50000000  0.93607100  1
  Sn  Sn7  1  0.75000000  0.50000000  0.06238300  1
  Sn  Sn8  1  0.75000000  0.00000000  0.57412700  1
  Sn  Sn9  1  0.25000000  0.50000000  0.23672700  1
  Sn  Sn10  1  0.25000000  0.00000000  0.74837800  1
  Sn  Sn11  1  0.75000000  0.00000000  0.23890100  1
  Sn  Sn12  1  0.75000000  0.50000000  0.75284400  1
