# generated using pymatgen
data_TiFe2Bi2PbO9
_symmetry_space_group_name_H-M   'P 1'
_cell_length_a   5.65286775
_cell_length_b   5.65286775
_cell_length_c   14.18489500
_cell_angle_alpha   90.00000000
_cell_angle_beta   90.00000000
_cell_angle_gamma   119.99999704
_symmetry_Int_Tables_number   1
_chemical_formula_structural   TiFe2Bi2PbO9
_chemical_formula_sum   'Ti2 Fe4 Bi4 Pb2 O18'
_cell_volume   392.54949222
_cell_formula_units_Z   2
loop_
 _symmetry_equiv_pos_site_id
 _symmetry_equiv_pos_as_xyz
  1  'x, y, z'
loop_
 _atom_site_type_symbol
 _atom_site_label
 _atom_site_symmetry_multiplicity
 _atom_site_fract_x
 _atom_site_fract_y
 _atom_site_fract_z
 _atom_site_occupancy
  Ti  Ti0  1  0.00000000  0.00000000  0.14268400  1
  Ti  Ti1  1  0.33333300  0.66666700  0.80852400  1
  Fe  Fe2  1  0.66666700  0.33333300  0.48220600  1
  Fe  Fe3  1  0.66666700  0.33333300  0.98518200  1
  Fe  Fe4  1  0.00000000  0.00000000  0.65402300  1
  Fe  Fe5  1  0.33333300  0.66666700  0.31331000  1
  Bi  Bi6  1  0.33333300  0.66666700  0.53394700  1
  Bi  Bi7  1  0.66666700  0.33333300  0.69954700  1
  Bi  Bi8  1  0.00000000  0.00000000  0.36626000  1
  Bi  Bi9  1  0.33333300  0.66666700  0.03085900  1
  Pb  Pb10  1  0.66666700  0.33333300  0.21809200  1
  Pb  Pb11  1  0.00000000  0.00000000  0.88706700  1
  O  O12  1  0.33386600  0.21583200  0.07981800  1
  O  O13  1  0.01634000  0.57221400  0.41696800  1
  O  O14  1  0.66696700  0.88883400  0.74728400  1
  O  O15  1  0.78416800  0.11803400  0.07981800  1
  O  O16  1  0.42778600  0.44412600  0.41696800  1
  O  O17  1  0.11116600  0.77813400  0.74728400  1
  O  O18  1  0.88196600  0.66613400  0.07981800  1
  O  O19  1  0.55587400  0.98366000  0.41696800  1
  O  O20  1  0.22186600  0.33303300  0.74728400  1
  O  O21  1  0.19895600  0.88520700  0.24872300  1
  O  O22  1  0.89066200  0.24099100  0.58558000  1
  O  O23  1  0.53120200  0.54961000  0.91652700  1
  O  O24  1  0.11479300  0.31374900  0.24872300  1
  O  O25  1  0.75900900  0.64967100  0.58558000  1
  O  O26  1  0.45039000  0.98159100  0.91652700  1
  O  O27  1  0.68625100  0.80104400  0.24872300  1
  O  O28  1  0.35032900  0.10933800  0.58558000  1
  O  O29  1  0.01840900  0.46879800  0.91652700  1
