# generated using pymatgen
data_UP2C2(NO4)2
_symmetry_space_group_name_H-M   'P 1'
_cell_length_a   5.52083651
_cell_length_b   5.63538831
_cell_length_c   10.13763265
_cell_angle_alpha   93.57108830
_cell_angle_beta   73.24864716
_cell_angle_gamma   120.79254574
_symmetry_Int_Tables_number   1
_chemical_formula_structural   UP2C2(NO4)2
_chemical_formula_sum   'U1 P2 C2 N2 O8'
_cell_volume   258.04432835
_cell_formula_units_Z   1
loop_
 _symmetry_equiv_pos_site_id
 _symmetry_equiv_pos_as_xyz
  1  'x, y, z'
loop_
 _atom_site_type_symbol
 _atom_site_label
 _atom_site_symmetry_multiplicity
 _atom_site_fract_x
 _atom_site_fract_y
 _atom_site_fract_z
 _atom_site_occupancy
  U  U0  1  0.50000000  0.00000000  0.00000000  1
  P  P1  1  0.05572700  0.29936600  0.18869900  1
  P  P2  1  0.94427300  0.70063400  0.81130100  1
  C  C3  1  0.35738400  0.40778000  0.53786200  1
  C  C4  1  0.64261600  0.59222000  0.46213800  1
  N  N5  1  0.11412100  0.25266800  0.60361900  1
  N  N6  1  0.88587900  0.74733200  0.39638100  1
  O  O7  1  0.24987900  0.61459900  0.12130000  1
  O  O8  1  0.75012100  0.38540100  0.87870000  1
  O  O9  1  0.79673700  0.16412300  0.11790300  1
  O  O10  1  0.25189800  0.16818500  0.11795300  1
  O  O11  1  0.20326300  0.83587700  0.88209700  1
  O  O12  1  0.74810200  0.83181500  0.88204700  1
  O  O13  1  0.95766200  0.26587700  0.34068500  1
  O  O14  1  0.04233800  0.73412300  0.65931500  1
