# generated using pymatgen
data_UMnAl
_symmetry_space_group_name_H-M   'P 1'
_cell_length_a   5.20346616
_cell_length_b   5.10204877
_cell_length_c   8.74508600
_cell_angle_alpha   90.00000000
_cell_angle_beta   90.00000000
_cell_angle_gamma   120.72744714
_symmetry_Int_Tables_number   1
_chemical_formula_structural   UMnAl
_chemical_formula_sum   'U4 Mn4 Al4'
_cell_volume   199.57294749
_cell_formula_units_Z   4
loop_
 _symmetry_equiv_pos_site_id
 _symmetry_equiv_pos_as_xyz
  1  'x, y, z'
loop_
 _atom_site_type_symbol
 _atom_site_label
 _atom_site_symmetry_multiplicity
 _atom_site_fract_x
 _atom_site_fract_y
 _atom_site_fract_z
 _atom_site_occupancy
  U  U0  1  0.65270900  0.30377300  0.52889700  1
  U  U1  1  0.34237900  0.68570600  0.43663700  1
  U  U2  1  0.34237900  0.68570600  0.06336300  1
  U  U3  1  0.65270900  0.30377300  0.97110300  1
  Mn  Mn4  1  0.84516000  0.18657200  0.25000000  1
  Mn  Mn5  1  0.34001600  0.18699000  0.25000000  1
  Mn  Mn6  1  0.99801600  0.99550000  0.50090500  1
  Mn  Mn7  1  0.99801600  0.99550000  0.99909500  1
  Al  Al8  1  0.16093700  0.32118000  0.75000000  1
  Al  Al9  1  0.15764400  0.82256800  0.75000000  1
  Al  Al10  1  0.66560100  0.82249900  0.75000000  1
  Al  Al11  1  0.84443400  0.69023400  0.25000000  1
