# generated using pymatgen
data_V2Bi4O11
_symmetry_space_group_name_H-M   'P 1'
_cell_length_a   5.80347656
_cell_length_b   5.67028874
_cell_length_c   8.30367284
_cell_angle_alpha   88.75621427
_cell_angle_beta   68.27834274
_cell_angle_gamma   91.79778906
_symmetry_Int_Tables_number   1
_chemical_formula_structural   V2Bi4O11
_chemical_formula_sum   'V2 Bi4 O11'
_cell_volume   253.56095752
_cell_formula_units_Z   1
loop_
 _symmetry_equiv_pos_site_id
 _symmetry_equiv_pos_as_xyz
  1  'x, y, z'
loop_
 _atom_site_type_symbol
 _atom_site_label
 _atom_site_symmetry_multiplicity
 _atom_site_fract_x
 _atom_site_fract_y
 _atom_site_fract_z
 _atom_site_occupancy
  V  V0  1  0.49435900  0.47217100  0.99695200  1
  V  V1  1  0.07790500  0.03520100  0.97453700  1
  Bi  Bi2  1  0.73164000  0.98605300  0.63418100  1
  Bi  Bi3  1  0.39723100  0.02706900  0.33831200  1
  Bi  Bi4  1  0.14889500  0.51901000  0.65702700  1
  Bi  Bi5  1  0.83984400  0.53330500  0.31127700  1
  O  O6  1  0.04016200  0.75462500  0.47299100  1
  O  O7  1  0.56590500  0.23329700  0.49125300  1
  O  O8  1  0.54239500  0.74872000  0.48959300  1
  O  O9  1  0.05583100  0.24018300  0.48932100  1
  O  O10  1  0.27336200  0.66856100  0.02318700  1
  O  O11  1  0.36778500  0.17428400  0.98934400  1
  O  O12  1  0.85067400  0.90522000  0.16282700  1
  O  O13  1  0.94593400  0.29006800  0.95308300  1
  O  O14  1  0.72184300  0.55951600  0.79403400  1
  O  O15  1  0.53132100  0.46437400  0.19797200  1
  O  O16  1  0.12371400  0.90574400  0.77890600  1
