# generated using pymatgen
data_V12Ag5O32
_symmetry_space_group_name_H-M   'P 1'
_cell_length_a   8.40840484
_cell_length_b   8.40840484
_cell_length_c   12.44175202
_cell_angle_alpha   74.04835229
_cell_angle_beta   74.04835229
_cell_angle_gamma   51.45708396
_symmetry_Int_Tables_number   1
_chemical_formula_structural   V12Ag5O32
_chemical_formula_sum   'V12 Ag5 O32'
_cell_volume   655.21156200
_cell_formula_units_Z   1
loop_
 _symmetry_equiv_pos_site_id
 _symmetry_equiv_pos_as_xyz
  1  'x, y, z'
loop_
 _atom_site_type_symbol
 _atom_site_label
 _atom_site_symmetry_multiplicity
 _atom_site_fract_x
 _atom_site_fract_y
 _atom_site_fract_z
 _atom_site_occupancy
  V  V0  1  0.96369300  0.96369300  0.45876000  1
  V  V1  1  0.46318100  0.46318100  0.45966300  1
  V  V2  1  0.53670900  0.03628300  0.54005600  1
  V  V3  1  0.03628300  0.53670900  0.54005600  1
  V  V4  1  0.49449400  0.49449400  0.19252300  1
  V  V5  1  0.99338400  0.99338400  0.18944100  1
  V  V6  1  0.00627600  0.50507900  0.80540000  1
  V  V7  1  0.50507900  0.00627600  0.80540000  1
  V  V8  1  0.07463800  0.07463800  0.92128300  1
  V  V9  1  0.57865800  0.57865800  0.91926700  1
  V  V10  1  0.42650400  0.92519400  0.07980700  1
  V  V11  1  0.92519400  0.42650400  0.07980700  1
  Ag  Ag12  1  0.21276900  0.21276900  0.32073000  1
  Ag  Ag13  1  0.71348000  0.71348000  0.32008400  1
  Ag  Ag14  1  0.28515000  0.78725500  0.67970100  1
  Ag  Ag15  1  0.78725500  0.28515000  0.67970100  1
  Ag  Ag16  1  0.35722300  0.35722300  0.97908200  1
  O  O17  1  0.38512100  0.38512100  0.26741800  1
  O  O18  1  0.88498100  0.88498100  0.26795500  1
  O  O19  1  0.11687800  0.61546400  0.73145800  1
  O  O20  1  0.61546400  0.11687800  0.73145800  1
  O  O21  1  0.04430400  0.04430400  0.32358100  1
  O  O22  1  0.54428200  0.54428200  0.32362400  1
  O  O23  1  0.45487900  0.95436400  0.67406400  1
  O  O24  1  0.95436400  0.45487900  0.67406400  1
  O  O25  1  0.47787200  0.47787200  0.04612300  1
  O  O26  1  0.97693800  0.97693800  0.04626000  1
  O  O27  1  0.02599800  0.52209300  0.95740500  1
  O  O28  1  0.52209300  0.02599800  0.95740500  1
  O  O29  1  0.32564200  0.32564200  0.53839300  1
  O  O30  1  0.82567400  0.82567400  0.53816600  1
  O  O31  1  0.17507500  0.67453400  0.46123800  1
  O  O32  1  0.67453400  0.17507500  0.46123800  1
  O  O33  1  0.71492200  0.71492200  0.83070700  1
  O  O34  1  0.21576100  0.21576100  0.82966000  1
  O  O35  1  0.78240100  0.28276900  0.17251100  1
  O  O36  1  0.28276900  0.78240100  0.17251100  1
  O  O37  1  0.14217500  0.14217500  0.07217800  1
  O  O38  1  0.64175300  0.64175300  0.07147900  1
  O  O39  1  0.35695200  0.85712400  0.92917500  1
  O  O40  1  0.85712400  0.35695200  0.92917500  1
  O  O41  1  0.02435400  0.02435400  0.54992300  1
  O  O42  1  0.52425200  0.52425200  0.55015200  1
  O  O43  1  0.47588800  0.97591900  0.44878200  1
  O  O44  1  0.97591900  0.47588800  0.44878200  1
  O  O45  1  0.02885400  0.02885400  0.81623800  1
  O  O46  1  0.52908000  0.52908000  0.81644700  1
  O  O47  1  0.47122100  0.97100700  0.18578500  1
  O  O48  1  0.97100700  0.47122100  0.18578500  1
