# generated using pymatgen
data_Tm(VFe5)2
_symmetry_space_group_name_H-M   'P 1'
_cell_length_a   4.69147700
_cell_length_b   6.41300674
_cell_length_c   6.41300674
_cell_angle_alpha   97.68154896
_cell_angle_beta   111.45548171
_cell_angle_gamma   68.54451829
_symmetry_Int_Tables_number   1
_chemical_formula_structural   Tm(VFe5)2
_chemical_formula_sum   'Tm1 V2 Fe10'
_cell_volume   167.12996627
_cell_formula_units_Z   1
loop_
 _symmetry_equiv_pos_site_id
 _symmetry_equiv_pos_as_xyz
  1  'x, y, z'
loop_
 _atom_site_type_symbol
 _atom_site_label
 _atom_site_symmetry_multiplicity
 _atom_site_fract_x
 _atom_site_fract_y
 _atom_site_fract_z
 _atom_site_occupancy
  Tm  Tm0  1  0.00000000  0.00000000  0.00000000  1
  V  V1  1  0.00000000  0.35735800  0.35735800  1
  V  V2  1  0.00000000  0.64264200  0.64264200  1
  Fe  Fe3  1  0.72667900  0.77332100  0.22667900  1
  Fe  Fe4  1  0.27332100  0.22667900  0.77332100  1
  Fe  Fe5  1  0.50000000  0.77923100  0.77923100  1
  Fe  Fe6  1  0.50000000  0.22076900  0.22076900  1
  Fe  Fe7  1  0.50000000  0.00000000  0.50000000  1
  Fe  Fe8  1  0.00000000  0.00000000  0.50000000  1
  Fe  Fe9  1  0.50000000  0.50000000  0.00000000  1
  Fe  Fe10  1  0.00000000  0.50000000  0.00000000  1
  Fe  Fe11  1  0.64046000  0.35954000  0.64046000  1
  Fe  Fe12  1  0.35954000  0.64046000  0.35954000  1
