# generated using pymatgen
data_TiCoCuS4
_symmetry_space_group_name_H-M   'P 1'
_cell_length_a   6.91166565
_cell_length_b   6.91166565
_cell_length_c   6.91166565
_cell_angle_alpha   120.96850960
_cell_angle_beta   118.98001561
_cell_angle_gamma   90.05320386
_symmetry_Int_Tables_number   1
_chemical_formula_structural   TiCoCuS4
_chemical_formula_sum   'Ti2 Co2 Cu2 S8'
_cell_volume   233.47401597
_cell_formula_units_Z   2
loop_
 _symmetry_equiv_pos_site_id
 _symmetry_equiv_pos_as_xyz
  1  'x, y, z'
loop_
 _atom_site_type_symbol
 _atom_site_label
 _atom_site_symmetry_multiplicity
 _atom_site_fract_x
 _atom_site_fract_y
 _atom_site_fract_z
 _atom_site_occupancy
  Ti  Ti0  1  0.00000000  0.00000000  0.50000000  1
  Ti  Ti1  1  0.00000000  0.50000000  0.00000000  1
  Co  Co2  1  0.50000000  0.00000000  0.50000000  1
  Co  Co3  1  0.00000000  0.00000000  0.00000000  1
  Cu  Cu4  1  0.62526900  0.37526900  0.25000000  1
  Cu  Cu5  1  0.37473100  0.62473100  0.75000000  1
  S  S6  1  0.23056100  0.23666600  0.99389400  1
  S  S7  1  0.74277200  0.23666600  0.50610600  1
  S  S8  1  0.75241100  0.22441000  0.97199900  1
  S  S9  1  0.75241100  0.78041200  0.52800100  1
  S  S10  1  0.76943900  0.76333400  0.00610600  1
  S  S11  1  0.25722800  0.76333400  0.49389400  1
  S  S12  1  0.24758900  0.77559000  0.02800100  1
  S  S13  1  0.24758900  0.21958800  0.47199900  1
