# generated using pymatgen
data_VH26(C3O)4
_symmetry_space_group_name_H-M   'P 1'
_cell_length_a   9.91026749
_cell_length_b   10.04331814
_cell_length_c   11.65954300
_cell_angle_alpha   90.00000000
_cell_angle_beta   90.00000000
_cell_angle_gamma   59.77911176
_symmetry_Int_Tables_number   1
_chemical_formula_structural   VH26(C3O)4
_chemical_formula_sum   'V2 H52 C24 O8'
_cell_volume   1002.77566827
_cell_formula_units_Z   2
loop_
 _symmetry_equiv_pos_site_id
 _symmetry_equiv_pos_as_xyz
  1  'x, y, z'
loop_
 _atom_site_type_symbol
 _atom_site_label
 _atom_site_symmetry_multiplicity
 _atom_site_fract_x
 _atom_site_fract_y
 _atom_site_fract_z
 _atom_site_occupancy
  V  V0  1  0.73490100  0.99882600  0.14139300  1
  V  V1  1  0.26509900  0.00117400  0.64139300  1
  H  H2  1  0.52666700  0.43508800  0.12816600  1
  H  H3  1  0.96390000  0.56303600  0.12787700  1
  H  H4  1  0.47333300  0.56491200  0.62816600  1
  H  H5  1  0.03610000  0.43696400  0.62787700  1
  H  H6  1  0.54901100  0.41440700  0.34721500  1
  H  H7  1  0.96543900  0.58351600  0.34749800  1
  H  H8  1  0.45098900  0.58559300  0.84721500  1
  H  H9  1  0.03456100  0.41648400  0.84749800  1
  H  H10  1  0.19455400  0.02469700  0.96217100  1
  H  H11  1  0.80544600  0.97530300  0.46217100  1
  H  H12  1  0.47929100  0.30556000  0.42153900  1
  H  H13  1  0.78469300  0.69412200  0.42161000  1
  H  H14  1  0.52070900  0.69444000  0.92153900  1
  H  H15  1  0.21530700  0.30587800  0.92161000  1
  H  H16  1  0.34422100  0.48474800  0.35594700  1
  H  H17  1  0.83043700  0.51560700  0.35593400  1
  H  H18  1  0.65577900  0.51525200  0.85594700  1
  H  H19  1  0.16956300  0.48439300  0.85593400  1
  H  H20  1  0.44397200  0.33852800  0.05229400  1
  H  H21  1  0.78254200  0.66163900  0.05235300  1
  H  H22  1  0.55602800  0.66147200  0.55229400  1
  H  H23  1  0.21745800  0.33836100  0.55235300  1
  H  H24  1  0.35770100  0.17350600  0.16291700  1
  H  H25  1  0.52917600  0.82856400  0.16280600  1
  H  H26  1  0.64229900  0.82649400  0.66291700  1
  H  H27  1  0.47082400  0.17143600  0.66280600  1
  H  H28  1  0.36698500  0.16928200  0.31624600  1
  H  H29  1  0.53382900  0.83254800  0.31623200  1
  H  H30  1  0.63301500  0.83071800  0.81624600  1
  H  H31  1  0.46617100  0.16745200  0.81623200  1
  H  H32  1  0.94494000  0.14310800  0.84227100  1
  H  H33  1  0.08563500  0.85168400  0.83914500  1
  H  H34  1  0.05506000  0.85689200  0.34227100  1
  H  H35  1  0.91436500  0.14831600  0.33914500  1
  H  H36  1  0.77372500  0.14928700  0.89728900  1
  H  H37  1  0.91740500  0.85239800  0.89541900  1
  H  H38  1  0.22627500  0.85071300  0.39728900  1
  H  H39  1  0.08259500  0.14760200  0.39541900  1
  H  H40  1  0.22920700  0.34067400  0.24358600  1
  H  H41  1  0.56955800  0.66163800  0.24339600  1
  H  H42  1  0.77079300  0.65932600  0.74358600  1
  H  H43  1  0.43044200  0.33836200  0.74339600  1
  H  H44  1  0.32233400  0.50407400  0.13752400  1
  H  H45  1  0.82806800  0.49649800  0.13754800  1
  H  H46  1  0.67766600  0.49592600  0.63752400  1
  H  H47  1  0.17193200  0.50350200  0.63754800  1
  H  H48  1  0.85880300  0.24549600  0.97162000  1
  H  H49  1  0.10229100  0.74726500  0.96712700  1
  H  H50  1  0.14119700  0.75450400  0.47162000  1
  H  H51  1  0.89770900  0.25273500  0.46712700  1
  H  H52  1  0.20389200  0.91409700  0.09511600  1
  H  H53  1  0.79610800  0.08590300  0.59511600  1
  C  C54  1  0.13756100  0.98690100  0.02329200  1
  C  C55  1  0.86243900  0.01309900  0.52329200  1
  C  C56  1  0.88409800  0.14327300  0.92101100  1
  C  C57  1  0.02534500  0.85207600  0.91825700  1
  C  C58  1  0.11590200  0.85672700  0.42101100  1
  C  C59  1  0.97465500  0.14792400  0.41825700  1
  C  C60  1  0.34828200  0.24069900  0.23989600  1
  C  C61  1  0.58759500  0.76104800  0.23984100  1
  C  C62  1  0.65171800  0.75930100  0.73989600  1
  C  C63  1  0.41240500  0.23895200  0.73984100  1
  C  C64  1  0.45959200  0.38047400  0.34730000  1
  C  C65  1  0.84099300  0.61897000  0.34737400  1
  C  C66  1  0.54040800  0.61952600  0.84730000  1
  C  C67  1  0.15900700  0.38103000  0.84737400  1
  C  C68  1  0.98768600  0.99593300  0.98959200  1
  C  C69  1  0.01231400  0.00406700  0.48959200  1
  C  C70  1  0.43825000  0.39984500  0.13177600  1
  C  C71  1  0.83916100  0.59983700  0.13175900  1
  C  C72  1  0.56175000  0.60015500  0.63177600  1
  C  C73  1  0.16083900  0.40016300  0.63175900  1
  C  C74  1  0.46632400  0.29647100  0.23601600  1
  C  C75  1  0.76293500  0.70351700  0.23606100  1
  C  C76  1  0.53367600  0.70352900  0.73601600  1
  C  C77  1  0.23706500  0.29648300  0.73606100  1
  O  O78  1  0.62297900  0.16577000  0.22935500  1
  O  O79  1  0.78827800  0.83299900  0.22970900  1
  O  O80  1  0.37702100  0.83423000  0.72935500  1
  O  O81  1  0.21172200  0.16700100  0.72970900  1
  O  O82  1  0.90906300  0.99613200  0.09448600  1
  O  O83  1  0.09093700  0.00386800  0.59448600  1
  O  O84  1  0.63221100  0.00054000  0.03160500  1
  O  O85  1  0.36778900  0.99946000  0.53160500  1
