# generated using pymatgen
data_TiAlV2
_symmetry_space_group_name_H-M   'P 1'
_cell_length_a   2.69367970
_cell_length_b   2.69367970
_cell_length_c   8.59507300
_cell_angle_alpha   90.00000000
_cell_angle_beta   90.00000000
_cell_angle_gamma   107.16788386
_symmetry_Int_Tables_number   1
_chemical_formula_structural   TiAlV2
_chemical_formula_sum   'Ti1 Al1 V2'
_cell_volume   59.58633850
_cell_formula_units_Z   1
loop_
 _symmetry_equiv_pos_site_id
 _symmetry_equiv_pos_as_xyz
  1  'x, y, z'
loop_
 _atom_site_type_symbol
 _atom_site_label
 _atom_site_symmetry_multiplicity
 _atom_site_fract_x
 _atom_site_fract_y
 _atom_site_fract_z
 _atom_site_occupancy
  Ti  Ti0  1  0.50000000  0.50000000  0.73902900  1
  Al  Al1  1  0.00000000  0.00000000  0.01063900  1
  V  V2  1  0.00000000  0.00000000  0.49072000  1
  V  V3  1  0.50000000  0.50000000  0.25961200  1
