# generated using pymatgen
data_TlCu3Te2
_symmetry_space_group_name_H-M   'P 1'
_cell_length_a   8.57107200
_cell_length_b   8.57050300
_cell_length_c   16.78716712
_cell_angle_alpha   59.37431484
_cell_angle_beta   90.00000000
_cell_angle_gamma   90.00000000
_symmetry_Int_Tables_number   1
_chemical_formula_structural   TlCu3Te2
_chemical_formula_sum   'Tl8 Cu24 Te16'
_cell_volume   1061.14975683
_cell_formula_units_Z   8
loop_
 _symmetry_equiv_pos_site_id
 _symmetry_equiv_pos_as_xyz
  1  'x, y, z'
loop_
 _atom_site_type_symbol
 _atom_site_label
 _atom_site_symmetry_multiplicity
 _atom_site_fract_x
 _atom_site_fract_y
 _atom_site_fract_z
 _atom_site_occupancy
  Tl  Tl0  1  0.75162600  0.24740600  0.00124100  1
  Tl  Tl1  1  0.24837400  0.24740600  0.50124100  1
  Tl  Tl2  1  0.24627000  0.74804500  0.00126700  1
  Tl  Tl3  1  0.75373000  0.74804500  0.50126700  1
  Tl  Tl4  1  0.75414100  0.99859000  0.24872300  1
  Tl  Tl5  1  0.24585900  0.99859000  0.74872300  1
  Tl  Tl6  1  0.24640200  0.50496200  0.24866100  1
  Tl  Tl7  1  0.75359800  0.50496200  0.74866100  1
  Cu  Cu8  1  0.86940300  0.44278900  0.42447200  1
  Cu  Cu9  1  0.13059700  0.44278900  0.92447200  1
  Cu  Cu10  1  0.36520900  0.20835000  0.92401600  1
  Cu  Cu11  1  0.63479100  0.20835000  0.42401600  1
  Cu  Cu12  1  0.12734300  0.56301300  0.57290300  1
  Cu  Cu13  1  0.87265700  0.56301300  0.07290300  1
  Cu  Cu14  1  0.63782100  0.79263100  0.07836700  1
  Cu  Cu15  1  0.36217900  0.79263100  0.57836700  1
  Cu  Cu16  1  0.62358400  0.65824200  0.96692800  1
  Cu  Cu17  1  0.37641600  0.65824200  0.46692800  1
  Cu  Cu18  1  0.12663900  0.90816000  0.46716000  1
  Cu  Cu19  1  0.87336100  0.90816000  0.96716000  1
  Cu  Cu20  1  0.37307200  0.34181600  0.03197300  1
  Cu  Cu21  1  0.62692800  0.34181600  0.53197300  1
  Cu  Cu22  1  0.87484400  0.08772900  0.53828400  1
  Cu  Cu23  1  0.12515600  0.08772900  0.03828400  1
  Cu  Cu24  1  0.75314500  0.50315300  0.24785100  1
  Cu  Cu25  1  0.24685500  0.50315300  0.74785100  1
  Cu  Cu26  1  0.62457600  0.17078800  0.70490800  1
  Cu  Cu27  1  0.37542400  0.17078800  0.20490800  1
  Cu  Cu28  1  0.87861600  0.06553500  0.79278700  1
  Cu  Cu29  1  0.12138400  0.06553500  0.29278700  1
  Cu  Cu30  1  0.35883700  0.82878300  0.29229700  1
  Cu  Cu31  1  0.64116300  0.82878300  0.79229700  1
  Te  Te32  1  0.41673400  0.03239200  0.38370100  1
  Te  Te33  1  0.58326600  0.03239200  0.88370100  1
  Te  Te34  1  0.91397300  0.70371800  0.88186900  1
  Te  Te35  1  0.08602700  0.70371800  0.38186900  1
  Te  Te36  1  0.58705800  0.96386900  0.61668800  1
  Te  Te37  1  0.41294200  0.96386900  0.11668800  1
  Te  Te38  1  0.08157100  0.29457800  0.11810300  1
  Te  Te39  1  0.91842900  0.29457800  0.61810300  1
  Te  Te40  1  0.57638400  0.43625800  0.14047400  1
  Te  Te41  1  0.42361600  0.43625800  0.64047400  1
  Te  Te42  1  0.06807300  0.79182400  0.64080900  1
  Te  Te43  1  0.93192700  0.79182400  0.14080900  1
  Te  Te44  1  0.42317100  0.56660700  0.85862200  1
  Te  Te45  1  0.57682900  0.56660700  0.35862200  1
  Te  Te46  1  0.92553900  0.21676100  0.35989500  1
  Te  Te47  1  0.07446100  0.21676100  0.85989500  1
