# generated using pymatgen
data_TiAlN2
_symmetry_space_group_name_H-M   'P 1'
_cell_length_a   5.19097528
_cell_length_b   5.19097528
_cell_length_c   5.19097511
_cell_angle_alpha   32.69750804
_cell_angle_beta   32.69750804
_cell_angle_gamma   32.69750870
_symmetry_Int_Tables_number   1
_chemical_formula_structural   TiAlN2
_chemical_formula_sum   'Ti1 Al1 N2'
_cell_volume   36.30764601
_cell_formula_units_Z   1
loop_
 _symmetry_equiv_pos_site_id
 _symmetry_equiv_pos_as_xyz
  1  'x, y, z'
loop_
 _atom_site_type_symbol
 _atom_site_label
 _atom_site_symmetry_multiplicity
 _atom_site_fract_x
 _atom_site_fract_y
 _atom_site_fract_z
 _atom_site_occupancy
  Ti  Ti0  1  0.50000000  0.50000000  0.50000000  1
  Al  Al1  1  0.00000000  0.00000000  0.00000000  1
  N  N2  1  0.25604700  0.25604700  0.25604700  1
  N  N3  1  0.74395300  0.74395300  0.74395300  1
