# generated using pymatgen
data_Ti8N5
_symmetry_space_group_name_H-M   'P 1'
_cell_length_a   4.20132900
_cell_length_b   4.20132900
_cell_length_c   8.60562900
_cell_angle_alpha   90.00000000
_cell_angle_beta   90.00000000
_cell_angle_gamma   90.00000000
_symmetry_Int_Tables_number   1
_chemical_formula_structural   Ti8N5
_chemical_formula_sum   'Ti8 N5'
_cell_volume   151.89938056
_cell_formula_units_Z   1
loop_
 _symmetry_equiv_pos_site_id
 _symmetry_equiv_pos_as_xyz
  1  'x, y, z'
loop_
 _atom_site_type_symbol
 _atom_site_label
 _atom_site_symmetry_multiplicity
 _atom_site_fract_x
 _atom_site_fract_y
 _atom_site_fract_z
 _atom_site_occupancy
  Ti  Ti0  1  0.00000000  0.00000000  0.74403200  1
  Ti  Ti1  1  0.50000000  0.50000000  0.24095300  1
  Ti  Ti2  1  0.00000000  0.50000000  0.01658000  1
  Ti  Ti3  1  0.50000000  0.00000000  0.51450200  1
  Ti  Ti4  1  0.00000000  0.00000000  0.25596800  1
  Ti  Ti5  1  0.50000000  0.50000000  0.75904700  1
  Ti  Ti6  1  0.50000000  0.00000000  0.98342000  1
  Ti  Ti7  1  0.00000000  0.50000000  0.48549800  1
  N  N8  1  0.50000000  0.50000000  0.00000000  1
  N  N9  1  0.00000000  0.00000000  0.50000000  1
  N  N10  1  0.50000000  0.00000000  0.75005600  1
  N  N11  1  0.00000000  0.50000000  0.24994400  1
  N  N12  1  0.00000000  0.00000000  0.00000000  1
