# generated using pymatgen
data_Ti3Al
_symmetry_space_group_name_H-M   'P 1'
_cell_length_a   2.92754222
_cell_length_b   2.92754222
_cell_length_c   9.22636200
_cell_angle_alpha   90.00000000
_cell_angle_beta   90.00000000
_cell_angle_gamma   120.00000504
_symmetry_Int_Tables_number   1
_chemical_formula_structural   Ti3Al
_chemical_formula_sum   'Ti3 Al1'
_cell_volume   68.48058078
_cell_formula_units_Z   1
loop_
 _symmetry_equiv_pos_site_id
 _symmetry_equiv_pos_as_xyz
  1  'x, y, z'
loop_
 _atom_site_type_symbol
 _atom_site_label
 _atom_site_symmetry_multiplicity
 _atom_site_fract_x
 _atom_site_fract_y
 _atom_site_fract_z
 _atom_site_occupancy
  Ti  Ti0  1  0.66666700  0.33333300  0.00000000  1
  Ti  Ti1  1  0.33333300  0.66666700  0.75059400  1
  Ti  Ti2  1  0.33333300  0.66666700  0.24940600  1
  Al  Al3  1  0.66666700  0.33333300  0.50000000  1
