# generated using pymatgen
data_Ti3B4Mo
_symmetry_space_group_name_H-M   'P 1'
_cell_length_a   3.05944200
_cell_length_b   4.55387800
_cell_length_c   6.04776696
_cell_angle_alpha   89.63020373
_cell_angle_beta   90.00000000
_cell_angle_gamma   90.00000000
_symmetry_Int_Tables_number   1
_chemical_formula_structural   Ti3B4Mo
_chemical_formula_sum   'Ti3 B4 Mo1'
_cell_volume   84.25770362
_cell_formula_units_Z   1
loop_
 _symmetry_equiv_pos_site_id
 _symmetry_equiv_pos_as_xyz
  1  'x, y, z'
loop_
 _atom_site_type_symbol
 _atom_site_label
 _atom_site_symmetry_multiplicity
 _atom_site_fract_x
 _atom_site_fract_y
 _atom_site_fract_z
 _atom_site_occupancy
  Ti  Ti0  1  0.50000000  0.87490700  0.17577500  1
  Ti  Ti1  1  0.00000000  0.37868400  0.32710500  1
  Ti  Ti2  1  0.00000000  0.11891900  0.82153100  1
  B  B3  1  0.50000000  0.10224700  0.52901800  1
  B  B4  1  0.50000000  0.39968900  0.02891000  1
  B  B5  1  0.00000000  0.90038800  0.46980800  1
  B  B6  1  0.00000000  0.60238100  0.96895900  1
  Mo  Mo7  1  0.50000000  0.62278500  0.67889400  1
