# generated using pymatgen
data_Ti2MnZnO6
_symmetry_space_group_name_H-M   'P 1'
_cell_length_a   5.60982189
_cell_length_b   10.31480509
_cell_length_c   7.62076994
_cell_angle_alpha   90.00292102
_cell_angle_beta   83.46050977
_cell_angle_gamma   90.01544881
_symmetry_Int_Tables_number   1
_chemical_formula_structural   Ti2MnZnO6
_chemical_formula_sum   'Ti8 Mn4 Zn4 O24'
_cell_volume   438.10075959
_cell_formula_units_Z   4
loop_
 _symmetry_equiv_pos_site_id
 _symmetry_equiv_pos_as_xyz
  1  'x, y, z'
loop_
 _atom_site_type_symbol
 _atom_site_label
 _atom_site_symmetry_multiplicity
 _atom_site_fract_x
 _atom_site_fract_y
 _atom_site_fract_z
 _atom_site_occupancy
  Ti  Ti0  1  0.70745000  0.99998400  0.85370700  1
  Ti  Ti1  1  0.20744200  0.24998000  0.35371800  1
  Ti  Ti2  1  0.70745700  0.49997900  0.85371000  1
  Ti  Ti3  1  0.20743200  0.74997600  0.35372400  1
  Ti  Ti4  1  0.29274500  0.49999500  0.14634100  1
  Ti  Ti5  1  0.79275700  0.75000100  0.64633800  1
  Ti  Ti6  1  0.29274200  0.99999500  0.14633500  1
  Ti  Ti7  1  0.79275900  0.25000400  0.64633700  1
  Mn  Mn8  1  0.78154600  0.74996100  0.14073400  1
  Mn  Mn9  1  0.28156500  0.00000900  0.64073500  1
  Mn  Mn10  1  0.78164000  0.24995500  0.14077400  1
  Mn  Mn11  1  0.28167500  0.50000700  0.64078500  1
  Zn  Zn12  1  0.22355900  0.24998400  0.86175100  1
  Zn  Zn13  1  0.72355300  0.49997700  0.36175300  1
  Zn  Zn14  1  0.22356200  0.74998300  0.86174900  1
  Zn  Zn15  1  0.72355300  0.99997900  0.36175100  1
  O  O16  1  0.34978400  0.06918100  0.91468000  1
  O  O17  1  0.84983400  0.31917100  0.41465500  1
  O  O18  1  0.34978700  0.56917200  0.91467700  1
  O  O19  1  0.84983900  0.81917200  0.41466000  1
  O  O20  1  0.15862600  0.33525200  0.10566900  1
  O  O21  1  0.65861900  0.58524400  0.60567800  1
  O  O22  1  0.15863500  0.83525200  0.10566600  1
  O  O23  1  0.65863200  0.08525000  0.60567500  1
  O  O24  1  0.52039600  0.34553700  0.74410700  1
  O  O25  1  0.02039100  0.59553000  0.24411700  1
  O  O26  1  0.52039700  0.84553200  0.74411000  1
  O  O27  1  0.02039000  0.09554000  0.24411500  1
  O  O28  1  0.64759400  0.43638400  0.08531500  1
  O  O29  1  0.14756100  0.68641500  0.58534300  1
  O  O30  1  0.64756200  0.93641600  0.08533600  1
  O  O31  1  0.14755100  0.18643300  0.58534400  1
  O  O32  1  0.84565300  0.16258900  0.88745900  1
  O  O33  1  0.34565500  0.41257100  0.38744100  1
  O  O34  1  0.84566400  0.66257900  0.88744300  1
  O  O35  1  0.34566400  0.91256800  0.38742500  1
  O  O36  1  0.47260100  0.15112100  0.26021900  1
  O  O37  1  0.97258300  0.40111100  0.76019700  1
  O  O38  1  0.47258800  0.65110700  0.26022700  1
  O  O39  1  0.97256800  0.90110400  0.76020400  1
