# generated using pymatgen
data_Ti2CrTe4
_symmetry_space_group_name_H-M   'P 1'
_cell_length_a   7.35241448
_cell_length_b   7.35241448
_cell_length_c   7.08755109
_cell_angle_alpha   61.99914903
_cell_angle_beta   61.99914903
_cell_angle_gamma   31.13527874
_symmetry_Int_Tables_number   1
_chemical_formula_structural   Ti2CrTe4
_chemical_formula_sum   'Ti2 Cr1 Te4'
_cell_volume   172.98589275
_cell_formula_units_Z   1
loop_
 _symmetry_equiv_pos_site_id
 _symmetry_equiv_pos_as_xyz
  1  'x, y, z'
loop_
 _atom_site_type_symbol
 _atom_site_label
 _atom_site_symmetry_multiplicity
 _atom_site_fract_x
 _atom_site_fract_y
 _atom_site_fract_z
 _atom_site_occupancy
  Ti  Ti0  1  0.00399500  0.00399500  0.99669900  1
  Ti  Ti1  1  0.24601500  0.24601500  0.72324800  1
  Cr  Cr2  1  0.74723100  0.74723100  0.28336900  1
  Te  Te3  1  0.88472100  0.88472100  0.44913000  1
  Te  Te4  1  0.11324100  0.11324100  0.54561500  1
  Te  Te5  1  0.63498500  0.63498500  0.03874100  1
  Te  Te6  1  0.36981200  0.36981200  0.96319700  1
