# generated using pymatgen
data_Ti3AgS6
_symmetry_space_group_name_H-M   'P 1'
_cell_length_a   7.31396105
_cell_length_b   7.31396105
_cell_length_c   7.31396110
_cell_angle_alpha   47.93670747
_cell_angle_beta   47.93670747
_cell_angle_gamma   47.93670688
_symmetry_Int_Tables_number   1
_chemical_formula_structural   Ti3AgS6
_chemical_formula_sum   'Ti3 Ag1 S6'
_cell_volume   197.53090218
_cell_formula_units_Z   1
loop_
 _symmetry_equiv_pos_site_id
 _symmetry_equiv_pos_as_xyz
  1  'x, y, z'
loop_
 _atom_site_type_symbol
 _atom_site_label
 _atom_site_symmetry_multiplicity
 _atom_site_fract_x
 _atom_site_fract_y
 _atom_site_fract_z
 _atom_site_occupancy
  Ti  Ti0  1  0.50000000  0.50000000  0.50000000  1
  Ti  Ti1  1  0.16726400  0.16726400  0.16726400  1
  Ti  Ti2  1  0.83273600  0.83273600  0.83273600  1
  Ag  Ag3  1  0.00000000  0.00000000  0.00000000  1
  S  S4  1  0.57005700  0.24536400  0.90752000  1
  S  S5  1  0.90752000  0.57005700  0.24536400  1
  S  S6  1  0.24536400  0.90752000  0.57005700  1
  S  S7  1  0.75463600  0.09248000  0.42994300  1
  S  S8  1  0.09248000  0.42994300  0.75463600  1
  S  S9  1  0.42994300  0.75463600  0.09248000  1
