# generated using pymatgen
data_Ti5S8
_symmetry_space_group_name_H-M   'P 1'
_cell_length_a   3.41379000
_cell_length_b   5.94335000
_cell_length_c   11.88936686
_cell_angle_alpha   81.52748201
_cell_angle_beta   90.00000000
_cell_angle_gamma   90.00000000
_symmetry_Int_Tables_number   1
_chemical_formula_structural   Ti5S8
_chemical_formula_sum   'Ti5 S8'
_cell_volume   238.59491016
_cell_formula_units_Z   1
loop_
 _symmetry_equiv_pos_site_id
 _symmetry_equiv_pos_as_xyz
  1  'x, y, z'
loop_
 _atom_site_type_symbol
 _atom_site_label
 _atom_site_symmetry_multiplicity
 _atom_site_fract_x
 _atom_site_fract_y
 _atom_site_fract_z
 _atom_site_occupancy
  Ti  Ti0  1  0.00000000  0.01248800  0.99921900  1
  Ti  Ti1  1  0.50000000  0.49282600  0.99924900  1
  Ti  Ti2  1  0.00000000  0.49670400  0.49589200  1
  Ti  Ti3  1  0.50000000  0.99209200  0.50298900  1
  Ti  Ti4  1  0.50000000  0.41460900  0.26453300  1
  S  S5  1  0.50000000  0.29948700  0.61574200  1
  S  S6  1  0.00000000  0.79461000  0.62126600  1
  S  S7  1  0.50000000  0.71477300  0.37331900  1
  S  S8  1  0.00000000  0.19383000  0.37186600  1
  S  S9  1  0.00000000  0.62816000  0.13041300  1
  S  S10  1  0.50000000  0.13247500  0.12698500  1
  S  S11  1  0.00000000  0.37081000  0.87783700  1
  S  S12  1  0.50000000  0.86855600  0.88643000  1
