# generated using pymatgen
data_Ti2Mn3V
_symmetry_space_group_name_H-M   'P 1'
_cell_length_a   4.78626967
_cell_length_b   4.78626967
_cell_length_c   7.89845200
_cell_angle_alpha   90.00000000
_cell_angle_beta   90.00000000
_cell_angle_gamma   119.23625032
_symmetry_Int_Tables_number   1
_chemical_formula_structural   Ti2Mn3V
_chemical_formula_sum   'Ti4 Mn6 V2'
_cell_volume   157.89126717
_cell_formula_units_Z   2
loop_
 _symmetry_equiv_pos_site_id
 _symmetry_equiv_pos_as_xyz
  1  'x, y, z'
loop_
 _atom_site_type_symbol
 _atom_site_label
 _atom_site_symmetry_multiplicity
 _atom_site_fract_x
 _atom_site_fract_y
 _atom_site_fract_z
 _atom_site_occupancy
  Ti  Ti0  1  0.66658700  0.33341300  0.30294900  1
  Ti  Ti1  1  0.33255700  0.66744300  0.18285100  1
  Ti  Ti2  1  0.33255700  0.66744300  0.81714900  1
  Ti  Ti3  1  0.66658700  0.33341300  0.69705100  1
  Mn  Mn4  1  0.16992200  0.83007800  0.50000000  1
  Mn  Mn5  1  0.34273300  0.17147000  0.00000000  1
  Mn  Mn6  1  0.82853000  0.65726700  0.00000000  1
  Mn  Mn7  1  0.82792700  0.17207300  0.00000000  1
  Mn  Mn8  1  0.00231600  0.99768400  0.24080200  1
  Mn  Mn9  1  0.00231600  0.99768400  0.75919800  1
  V  V10  1  0.66175300  0.83374200  0.50000000  1
  V  V11  1  0.16625800  0.33824700  0.50000000  1
