# generated using pymatgen
data_Tl3SiF7
_symmetry_space_group_name_H-M   'P 1'
_cell_length_a   8.06375671
_cell_length_b   8.06375671
_cell_length_c   6.97312500
_cell_angle_alpha   90.00000000
_cell_angle_beta   90.00000000
_cell_angle_gamma   120.07125775
_symmetry_Int_Tables_number   1
_chemical_formula_structural   Tl3SiF7
_chemical_formula_sum   'Tl6 Si2 F14'
_cell_volume   392.39243497
_cell_formula_units_Z   2
loop_
 _symmetry_equiv_pos_site_id
 _symmetry_equiv_pos_as_xyz
  1  'x, y, z'
loop_
 _atom_site_type_symbol
 _atom_site_label
 _atom_site_symmetry_multiplicity
 _atom_site_fract_x
 _atom_site_fract_y
 _atom_site_fract_z
 _atom_site_occupancy
  Tl  Tl0  1  0.15548900  0.84451100  0.77730600  1
  Tl  Tl1  1  0.67606300  0.84945700  0.77780800  1
  Tl  Tl2  1  0.84945700  0.67606300  0.27780800  1
  Tl  Tl3  1  0.15054300  0.32393700  0.77780800  1
  Tl  Tl4  1  0.32393700  0.15054300  0.27780800  1
  Tl  Tl5  1  0.84451100  0.15548900  0.27730600  1
  Si  Si6  1  0.33427500  0.66572500  0.23403200  1
  Si  Si7  1  0.66572500  0.33427500  0.73403200  1
  F  F8  1  0.00373300  0.99626700  0.52098700  1
  F  F9  1  0.12982500  0.57130500  0.09364200  1
  F  F10  1  0.54023300  0.76118400  0.37131900  1
  F  F11  1  0.99626700  0.00373300  0.02098700  1
  F  F12  1  0.23881600  0.45976700  0.37131900  1
  F  F13  1  0.43122500  0.56877500  0.08171500  1
  F  F14  1  0.76118400  0.54023300  0.87131900  1
  F  F15  1  0.87017500  0.42869500  0.59364200  1
  F  F16  1  0.45976700  0.23881600  0.87131900  1
  F  F17  1  0.56877500  0.43122500  0.58171500  1
  F  F18  1  0.75952300  0.24047700  0.88709600  1
  F  F19  1  0.57130500  0.12982500  0.59364200  1
  F  F20  1  0.42869500  0.87017500  0.09364200  1
  F  F21  1  0.24047700  0.75952300  0.38709600  1
