# generated using pymatgen
data_Na3Zr2Si2PO12
_symmetry_space_group_name_H-M   'P 1'
_cell_length_a   9.16826200
_cell_length_b   9.16814110
_cell_length_c   16.32893398
_cell_angle_alpha   89.05549064
_cell_angle_beta   106.26391639
_cell_angle_gamma   119.97663260
_symmetry_Int_Tables_number   1
_chemical_formula_structural   Na3Zr2Si2PO12
_chemical_formula_sum   'Na12 Zr8 Si8 P4 O48'
_cell_volume   1128.71148065
_cell_formula_units_Z   4
loop_
 _symmetry_equiv_pos_site_id
 _symmetry_equiv_pos_as_xyz
  1  'x, y, z'
loop_
 _atom_site_type_symbol
 _atom_site_label
 _atom_site_symmetry_multiplicity
 _atom_site_fract_x
 _atom_site_fract_y
 _atom_site_fract_z
 _atom_site_occupancy
  Na  Na0  1  0.07180300  0.55055800  0.80464100  1
  Na  Na1  1  0.30346900  0.81848800  0.54407300  1
  Na  Na2  1  0.96432500  0.90082300  0.72114300  1
  Na  Na3  1  0.40062000  0.12423000  0.87432900  1
  Na  Na4  1  0.05401700  0.08093000  0.28598300  1
  Na  Na5  1  0.60655900  0.36730600  0.61968800  1
  Na  Na6  1  0.30408700  0.31623100  0.04379800  1
  Na  Na7  1  0.68527300  0.67091700  0.96262300  1
  Na  Na8  1  0.39404300  0.62080100  0.37123400  1
  Na  Na9  1  0.60233000  0.86515200  0.11888800  1
  Na  Na10  1  0.68723600  0.17048900  0.46255700  1
  Na  Na11  1  0.94890000  0.43197600  0.20784800  1
  Zr  Zr12  1  0.65092700  0.08119000  0.71937500  1
  Zr  Zr13  1  0.14622200  0.81789900  0.97167900  1
  Zr  Zr14  1  0.64985100  0.58287800  0.22081700  1
  Zr  Zr15  1  0.85152700  0.67015900  0.52986600  1
  Zr  Zr16  1  0.14404300  0.31661500  0.47098800  1
  Zr  Zr17  1  0.34979900  0.42175800  0.77889500  1
  Zr  Zr18  1  0.84967000  0.16804400  0.02948000  1
  Zr  Zr19  1  0.34819400  0.92328500  0.28089900  1
  Si  Si20  1  0.47240800  0.83783700  0.88081500  1
  Si  Si21  1  0.95679500  0.37568200  0.62390400  1
  Si  Si22  1  0.24848900  0.08681600  0.63303400  1
  Si  Si23  1  0.75188400  0.40816000  0.87031300  1
  Si  Si24  1  0.47284600  0.33883000  0.38188100  1
  Si  Si25  1  0.95595300  0.87328900  0.12443800  1
  Si  Si26  1  0.24755500  0.58655400  0.13200100  1
  Si  Si27  1  0.75073100  0.90895400  0.36899700  1
  P  P28  1  0.04394200  0.12440300  0.87390100  1
  P  P29  1  0.52889000  0.66107900  0.61942600  1
  P  P30  1  0.04461900  0.62487000  0.37507900  1
  P  P31  1  0.52902300  0.16039500  0.12083700  1
  O  O32  1  0.00194000  0.15607400  0.95521300  1
  O  O33  1  0.12079000  0.41024800  0.70966700  1
  O  O34  1  0.42963700  0.64521400  0.85423900  1
  O  O35  1  0.63323900  0.91953700  0.97371400  1
  O  O36  1  0.00514100  0.65599600  0.45716600  1
  O  O37  1  0.29195800  0.82660200  0.88890400  1
  O  O38  1  0.53152500  0.95975000  0.80786100  1
  O  O39  1  0.76875900  0.20624600  0.62446000  1
  O  O40  1  0.11913700  0.91277800  0.21158900  1
  O  O41  1  0.42100900  0.06748500  0.63977200  1
  O  O42  1  0.06848000  0.89808600  0.60358100  1
  O  O43  1  0.43671500  0.14926000  0.35480200  1
  O  O44  1  0.74679200  0.28210600  0.94299300  1
  O  O45  1  0.07536300  0.97245400  0.87758400  1
  O  O46  1  0.74363700  0.32363400  0.77957200  1
  O  O47  1  0.26581200  0.17047900  0.72605500  1
  O  O48  1  0.93273800  0.54179600  0.62490400  1
  O  O49  1  0.25020300  0.21408800  0.56082300  1
  O  O50  1  0.63283900  0.42213700  0.47478000  1
  O  O51  1  0.93637800  0.59491400  0.89821000  1
  O  O52  1  0.58176600  0.43167800  0.85973300  1
  O  O53  1  0.29022300  0.32431700  0.38845300  1
  O  O54  1  0.53028200  0.46179000  0.30878000  1
  O  O55  1  0.22103600  0.28864800  0.87605400  1
  O  O56  1  0.76815200  0.70311500  0.12437400  1
  O  O57  1  0.48096500  0.54440600  0.68921000  1
  O  O58  1  0.70387000  0.68075500  0.61271500  1
  O  O59  1  0.41779600  0.56305300  0.13987400  1
  O  O60  1  0.06511300  0.39913000  0.10112300  1
  O  O61  1  0.37742500  0.58123700  0.53210100  1
  O  O62  1  0.75327600  0.78483900  0.44170000  1
  O  O63  1  0.07117900  0.47044600  0.37550400  1
  O  O64  1  0.73777000  0.82594300  0.27641600  1
  O  O65  1  0.26024800  0.67120100  0.22344200  1
  O  O66  1  0.93113100  0.03960100  0.12464200  1
  O  O67  1  0.25560900  0.71529500  0.05983500  1
  O  O68  1  0.55992900  0.83771100  0.64567000  1
  O  O69  1  0.93248900  0.09749900  0.39529000  1
  O  O70  1  0.57809200  0.92757300  0.36009000  1
  O  O71  1  0.89313300  0.08375900  0.78991200  1
  O  O72  1  0.22332400  0.78714100  0.37722100  1
  O  O73  1  0.47877400  0.04277400  0.18967300  1
  O  O74  1  0.70199400  0.17695500  0.11267200  1
  O  O75  1  0.99483800  0.34194900  0.53595100  1
  O  O76  1  0.37697900  0.08395300  0.03344200  1
  O  O77  1  0.56617800  0.33929100  0.14813600  1
  O  O78  1  0.89346500  0.59102600  0.29223600  1
  O  O79  1  0.99594100  0.84018600  0.03707900  1
