# generated using pymatgen
data_Ti2Al2CrCuS8
_symmetry_space_group_name_H-M   'P 1'
_cell_length_a   7.00601233
_cell_length_b   7.00601233
_cell_length_c   7.17713941
_cell_angle_alpha   60.58483012
_cell_angle_beta   60.58483012
_cell_angle_gamma   59.80827826
_symmetry_Int_Tables_number   1
_chemical_formula_structural   Ti2Al2CrCuS8
_chemical_formula_sum   'Ti2 Al2 Cr1 Cu1 S8'
_cell_volume   250.90951725
_cell_formula_units_Z   1
loop_
 _symmetry_equiv_pos_site_id
 _symmetry_equiv_pos_as_xyz
  1  'x, y, z'
loop_
 _atom_site_type_symbol
 _atom_site_label
 _atom_site_symmetry_multiplicity
 _atom_site_fract_x
 _atom_site_fract_y
 _atom_site_fract_z
 _atom_site_occupancy
  Ti  Ti0  1  0.48587700  0.03469400  0.99318500  1
  Ti  Ti1  1  0.03469400  0.48587700  0.99318500  1
  Al  Al2  1  0.86873800  0.86873800  0.38641300  1
  Al  Al3  1  0.49622900  0.49622900  0.50952200  1
  Cr  Cr4  1  0.49094400  0.49094400  0.99617700  1
  Cu  Cu5  1  0.12698000  0.12698000  0.61797900  1
  S  S6  1  0.25614200  0.25614200  0.24254100  1
  S  S7  1  0.25627600  0.25627600  0.74963100  1
  S  S8  1  0.26411700  0.73138100  0.75125100  1
  S  S9  1  0.73138100  0.26411700  0.75125100  1
  S  S10  1  0.73888800  0.73888800  0.77423700  1
  S  S11  1  0.74147200  0.74147200  0.24509600  1
  S  S12  1  0.73800000  0.27026300  0.24476600  1
  S  S13  1  0.27026300  0.73800000  0.24476600  1
