# generated using pymatgen
data_Ti3Fe(BiO3)5
_symmetry_space_group_name_H-M   'P 1'
_cell_length_a   3.96800350
_cell_length_b   3.96800350
_cell_length_c   20.70600862
_cell_angle_alpha   84.57108651
_cell_angle_beta   84.57108651
_cell_angle_gamma   88.55952303
_symmetry_Int_Tables_number   1
_chemical_formula_structural   Ti3Fe(BiO3)5
_chemical_formula_sum   'Ti3 Fe1 Bi5 O15'
_cell_volume   323.05583639
_cell_formula_units_Z   1
loop_
 _symmetry_equiv_pos_site_id
 _symmetry_equiv_pos_as_xyz
  1  'x, y, z'
loop_
 _atom_site_type_symbol
 _atom_site_label
 _atom_site_symmetry_multiplicity
 _atom_site_fract_x
 _atom_site_fract_y
 _atom_site_fract_z
 _atom_site_occupancy
  Ti  Ti0  1  0.57769200  0.57769200  0.90132800  1
  Ti  Ti1  1  0.37785700  0.37785700  0.30325100  1
  Ti  Ti2  1  0.68165000  0.68165000  0.69771100  1
  Fe  Fe3  1  0.49115900  0.49115900  0.09881400  1
  Bi  Bi4  1  0.96921800  0.96921800  0.00964500  1
  Bi  Bi5  1  0.06920700  0.06920700  0.79622600  1
  Bi  Bi6  1  0.85838200  0.85838200  0.20641500  1
  Bi  Bi7  1  0.16809300  0.16809300  0.56218900  1
  Bi  Bi8  1  0.73021400  0.73021400  0.43913300  1
  O  O9  1  0.01192900  0.54476000  0.09080800  1
  O  O10  1  0.63871500  0.11813800  0.90142200  1
  O  O11  1  0.54476000  0.01192900  0.09080800  1
  O  O12  1  0.11813800  0.63871500  0.90142200  1
  O  O13  1  0.91248000  0.43092300  0.28638400  1
  O  O14  1  0.71695200  0.20051400  0.71474400  1
  O  O15  1  0.43092300  0.91248000  0.28638400  1
  O  O16  1  0.20051400  0.71695200  0.71474400  1
  O  O17  1  0.58775800  0.58775800  0.99657700  1
  O  O18  1  0.74328100  0.24299200  0.50016300  1
  O  O19  1  0.24299200  0.74328100  0.50016300  1
  O  O20  1  0.75565300  0.75565300  0.61073200  1
  O  O21  1  0.36648100  0.36648100  0.38961000  1
  O  O22  1  0.67838500  0.67838500  0.80657300  1
  O  O23  1  0.48016600  0.48016600  0.19475500  1
