# generated using pymatgen
data_UCu2(SiNi4)2
_symmetry_space_group_name_H-M   'P 1'
_cell_length_a   8.13816702
_cell_length_b   6.30248365
_cell_length_c   6.19360775
_cell_angle_alpha   81.26781474
_cell_angle_beta   49.94780974
_cell_angle_gamma   48.78437552
_symmetry_Int_Tables_number   1
_chemical_formula_structural   UCu2(SiNi4)2
_chemical_formula_sum   'U1 Cu2 Si2 Ni8'
_cell_volume   161.19372479
_cell_formula_units_Z   1
loop_
 _symmetry_equiv_pos_site_id
 _symmetry_equiv_pos_as_xyz
  1  'x, y, z'
loop_
 _atom_site_type_symbol
 _atom_site_label
 _atom_site_symmetry_multiplicity
 _atom_site_fract_x
 _atom_site_fract_y
 _atom_site_fract_z
 _atom_site_occupancy
  U  U0  1  0.00000000  0.00000000  0.00000000  1
  Cu  Cu1  1  0.00000000  0.00000000  0.50000000  1
  Cu  Cu2  1  0.50000000  0.50000000  0.00000000  1
  Si  Si3  1  0.00000000  0.50000000  0.00000000  1
  Si  Si4  1  0.50000000  0.00000000  0.50000000  1
  Ni  Ni5  1  0.72214000  0.50548700  0.49451300  1
  Ni  Ni6  1  0.27786000  0.49451300  0.50548700  1
  Ni  Ni7  1  0.50548700  0.72214000  0.27786000  1
  Ni  Ni8  1  0.49451300  0.27786000  0.72214000  1
  Ni  Ni9  1  0.65402600  0.99367000  0.00633000  1
  Ni  Ni10  1  0.34597400  0.00633000  0.99367000  1
  Ni  Ni11  1  0.99367000  0.65402600  0.34597400  1
  Ni  Ni12  1  0.00633000  0.34597400  0.65402600  1
