# generated using pymatgen
data_Tm2PbS4
_symmetry_space_group_name_H-M   'P 1'
_cell_length_a   14.79789042
_cell_length_b   14.79789042
_cell_length_c   12.07741800
_cell_angle_alpha   90.00000000
_cell_angle_beta   90.00000000
_cell_angle_gamma   149.10178973
_symmetry_Int_Tables_number   1
_chemical_formula_structural   Tm2PbS4
_chemical_formula_sum   'Tm16 Pb8 S32'
_cell_volume   1358.08320790
_cell_formula_units_Z   8
loop_
 _symmetry_equiv_pos_site_id
 _symmetry_equiv_pos_as_xyz
  1  'x, y, z'
loop_
 _atom_site_type_symbol
 _atom_site_label
 _atom_site_symmetry_multiplicity
 _atom_site_fract_x
 _atom_site_fract_y
 _atom_site_fract_z
 _atom_site_occupancy
  Tm  Tm0  1  0.06828500  0.93171500  0.91194800  1
  Tm  Tm1  1  0.93171500  0.06828500  0.41194800  1
  Tm  Tm2  1  0.56883800  0.43116200  0.91986400  1
  Tm  Tm3  1  0.43116200  0.56883800  0.41986400  1
  Tm  Tm4  1  0.43020900  0.06978800  0.78740500  1
  Tm  Tm5  1  0.93021200  0.56979100  0.78740500  1
  Tm  Tm6  1  0.56979100  0.93021200  0.28740500  1
  Tm  Tm7  1  0.06978800  0.43020900  0.28740500  1
  Tm  Tm8  1  0.32680600  0.17216500  0.26670300  1
  Tm  Tm9  1  0.82783500  0.67319400  0.26670300  1
  Tm  Tm10  1  0.67319400  0.82783500  0.76670300  1
  Tm  Tm11  1  0.17216500  0.32680600  0.76670300  1
  Tm  Tm12  1  0.67430700  0.32569300  0.43300800  1
  Tm  Tm13  1  0.32569300  0.67430700  0.93300800  1
  Tm  Tm14  1  0.17512600  0.82487400  0.42986200  1
  Tm  Tm15  1  0.82487400  0.17512600  0.92986200  1
  Pb  Pb16  1  0.53796500  0.46203500  0.61973900  1
  Pb  Pb17  1  0.46203500  0.53796500  0.11973900  1
  Pb  Pb18  1  0.04712300  0.95287700  0.56364000  1
  Pb  Pb19  1  0.95287700  0.04712300  0.06364000  1
  Pb  Pb20  1  0.46217300  0.04088600  0.09646600  1
  Pb  Pb21  1  0.95911400  0.53782700  0.09646600  1
  Pb  Pb22  1  0.53782700  0.95911400  0.59646600  1
  Pb  Pb23  1  0.04088600  0.46217300  0.59646600  1
  S  S24  1  0.51660800  0.48339200  0.31793900  1
  S  S25  1  0.48339200  0.51660800  0.81793900  1
  S  S26  1  0.70817400  0.29182600  0.64555500  1
  S  S27  1  0.29182600  0.70817400  0.14555500  1
  S  S28  1  0.16196400  0.83803600  0.93646400  1
  S  S29  1  0.83803600  0.16196400  0.43646400  1
  S  S30  1  0.66283600  0.33716400  0.93849800  1
  S  S31  1  0.33716400  0.66283600  0.43849800  1
  S  S32  1  0.36109100  0.13671600  0.47580900  1
  S  S33  1  0.86328400  0.63890900  0.47580900  1
  S  S34  1  0.63890900  0.86328400  0.97580900  1
  S  S35  1  0.13671600  0.36109100  0.97580900  1
  S  S36  1  0.20857100  0.79142900  0.64495300  1
  S  S37  1  0.79142900  0.20857100  0.14495300  1
  S  S38  1  0.48620900  0.01710700  0.38416900  1
  S  S39  1  0.98289300  0.51379100  0.38416900  1
  S  S40  1  0.51379100  0.98289300  0.88416900  1
  S  S41  1  0.01710700  0.48620900  0.88416900  1
  S  S42  1  0.63988600  0.36011400  0.22541400  1
  S  S43  1  0.36011400  0.63988600  0.72541400  1
  S  S44  1  0.28829700  0.20671100  0.05802300  1
  S  S45  1  0.79328900  0.71170300  0.05802300  1
  S  S46  1  0.71170300  0.79328900  0.55802300  1
  S  S47  1  0.20671100  0.28829700  0.55802300  1
  S  S48  1  0.01995200  0.98004800  0.33398100  1
  S  S49  1  0.98004800  0.01995200  0.83398100  1
  S  S50  1  0.33971000  0.16565400  0.76748100  1
  S  S51  1  0.83434600  0.66029000  0.76748100  1
  S  S52  1  0.66029000  0.83434600  0.26748100  1
  S  S53  1  0.16565400  0.33971000  0.26748100  1
  S  S54  1  0.14030400  0.85969600  0.22282200  1
  S  S55  1  0.85969600  0.14030400  0.72282200  1
