# generated using pymatgen
data_Th4AlGe
_symmetry_space_group_name_H-M   'P 1'
_cell_length_a   6.11132450
_cell_length_b   6.11132450
_cell_length_c   6.11132450
_cell_angle_alpha   103.16476807
_cell_angle_beta   103.16476807
_cell_angle_gamma   122.99020685
_symmetry_Int_Tables_number   1
_chemical_formula_structural   Th4AlGe
_chemical_formula_sum   'Th4 Al1 Ge1'
_cell_volume   168.23795595
_cell_formula_units_Z   1
loop_
 _symmetry_equiv_pos_site_id
 _symmetry_equiv_pos_as_xyz
  1  'x, y, z'
loop_
 _atom_site_type_symbol
 _atom_site_label
 _atom_site_symmetry_multiplicity
 _atom_site_fract_x
 _atom_site_fract_y
 _atom_site_fract_z
 _atom_site_occupancy
  Th  Th0  1  0.40982700  0.90982700  0.81965500  1
  Th  Th1  1  0.09017300  0.59017300  0.18034500  1
  Th  Th2  1  0.59017300  0.40982700  0.50000000  1
  Th  Th3  1  0.90982700  0.09017300  0.50000000  1
  Al  Al4  1  0.50000000  0.50000000  0.00000000  1
  Ge  Ge5  1  0.00000000  0.00000000  0.00000000  1
