# generated using pymatgen
data_TePd3
_symmetry_space_group_name_H-M   'P 1'
_cell_length_a   3.51623230
_cell_length_b   3.51623230
_cell_length_c   5.69533359
_cell_angle_alpha   90.00000000
_cell_angle_beta   90.00000000
_cell_angle_gamma   90.28027524
_symmetry_Int_Tables_number   1
_chemical_formula_structural   TePd3
_chemical_formula_sum   'Te1 Pd3'
_cell_volume   70.41563329
_cell_formula_units_Z   1
loop_
 _symmetry_equiv_pos_site_id
 _symmetry_equiv_pos_as_xyz
  1  'x, y, z'
loop_
 _atom_site_type_symbol
 _atom_site_label
 _atom_site_symmetry_multiplicity
 _atom_site_fract_x
 _atom_site_fract_y
 _atom_site_fract_z
 _atom_site_occupancy
  Te  Te0  1  0.00000000  0.00000000  0.00000000  1
  Pd  Pd1  1  0.50000000  0.50000000  0.25191000  1
  Pd  Pd2  1  0.00000000  0.00000000  0.50000000  1
  Pd  Pd3  1  0.50000000  0.50000000  0.74809000  1
