# generated using pymatgen
data_Te3Mo2Se
_symmetry_space_group_name_H-M   'P 1'
_cell_length_a   3.49950145
_cell_length_b   3.49950145
_cell_length_c   15.09505800
_cell_angle_alpha   90.00000000
_cell_angle_beta   90.00000000
_cell_angle_gamma   119.99998964
_symmetry_Int_Tables_number   1
_chemical_formula_structural   Te3Mo2Se
_chemical_formula_sum   'Te3 Mo2 Se1'
_cell_volume   160.09501870
_cell_formula_units_Z   1
loop_
 _symmetry_equiv_pos_site_id
 _symmetry_equiv_pos_as_xyz
  1  'x, y, z'
loop_
 _atom_site_type_symbol
 _atom_site_label
 _atom_site_symmetry_multiplicity
 _atom_site_fract_x
 _atom_site_fract_y
 _atom_site_fract_z
 _atom_site_occupancy
  Te  Te0  1  0.33333300  0.66666700  0.87274900  1
  Te  Te1  1  0.33333300  0.66666700  0.62977100  1
  Te  Te2  1  0.66666700  0.33333300  0.36606500  1
  Mo  Mo3  1  0.66666700  0.33333300  0.75116200  1
  Mo  Mo4  1  0.33333300  0.66666700  0.24331100  1
  Se  Se5  1  0.66666700  0.33333300  0.13694300  1
