# generated using pymatgen
data_V4Zn3Cu3O22
_symmetry_space_group_name_H-M   'P 1'
_cell_length_a   5.90357600
_cell_length_b   5.94460401
_cell_length_c   14.66544118
_cell_angle_alpha   89.50130672
_cell_angle_beta   89.62604082
_cell_angle_gamma   60.51493847
_symmetry_Int_Tables_number   1
_chemical_formula_structural   V4Zn3Cu3O22
_chemical_formula_sum   'V4 Zn3 Cu3 O22'
_cell_volume   447.99807597
_cell_formula_units_Z   1
loop_
 _symmetry_equiv_pos_site_id
 _symmetry_equiv_pos_as_xyz
  1  'x, y, z'
loop_
 _atom_site_type_symbol
 _atom_site_label
 _atom_site_symmetry_multiplicity
 _atom_site_fract_x
 _atom_site_fract_y
 _atom_site_fract_z
 _atom_site_occupancy
  V  V0  1  0.00095200  0.99516100  0.87182000  1
  V  V1  1  0.00363000  0.99716300  0.37327500  1
  V  V2  1  0.99637000  0.00283700  0.62672500  1
  V  V3  1  0.99904800  0.00483900  0.12818000  1
  Zn  Zn4  1  0.00000000  0.50000000  0.00000000  1
  Zn  Zn5  1  0.00000000  0.50000000  0.50000000  1
  Zn  Zn6  1  0.50000000  0.50000000  0.00000000  1
  Cu  Cu7  1  0.50000000  0.50000000  0.50000000  1
  Cu  Cu8  1  0.50000000  0.00000000  0.50000000  1
  Cu  Cu9  1  0.50000000  0.00000000  0.00000000  1
  O  O10  1  0.33457500  0.33579100  0.76705700  1
  O  O11  1  0.33216300  0.33335300  0.26387800  1
  O  O12  1  0.66783700  0.66664700  0.73612200  1
  O  O13  1  0.66542500  0.66420900  0.23294300  1
  O  O14  1  0.35121600  0.32219700  0.55334800  1
  O  O15  1  0.34209500  0.31393600  0.05601700  1
  O  O16  1  0.65790500  0.68606400  0.94398300  1
  O  O17  1  0.64878400  0.67780300  0.44665200  1
  O  O18  1  0.99887500  0.00103800  0.74883900  1
  O  O19  1  0.00112500  0.99896200  0.25116100  1
  O  O20  1  0.31447200  0.84634200  0.58311300  1
  O  O21  1  0.31562500  0.85296100  0.08413700  1
  O  O22  1  0.83989300  0.84453000  0.58548400  1
  O  O23  1  0.83844200  0.85015900  0.08554500  1
  O  O24  1  0.83638300  0.31652100  0.58419900  1
  O  O25  1  0.84124300  0.31751000  0.08794000  1
  O  O26  1  0.68437500  0.14703900  0.91586300  1
  O  O27  1  0.68552800  0.15365800  0.41688700  1
  O  O28  1  0.16155800  0.14984100  0.91445500  1
  O  O29  1  0.16010700  0.15547000  0.41451600  1
  O  O30  1  0.15875700  0.68249000  0.91206000  1
  O  O31  1  0.16361700  0.68347900  0.41580100  1
