# generated using pymatgen
data_TcPt
_symmetry_space_group_name_H-M   'P 1'
_cell_length_a   4.83278612
_cell_length_b   4.83278612
_cell_length_c   4.83278660
_cell_angle_alpha   33.16321197
_cell_angle_beta   33.16321197
_cell_angle_gamma   33.16321524
_symmetry_Int_Tables_number   1
_chemical_formula_structural   TcPt
_chemical_formula_sum   'Tc1 Pt1'
_cell_volume   30.06571055
_cell_formula_units_Z   1
loop_
 _symmetry_equiv_pos_site_id
 _symmetry_equiv_pos_as_xyz
  1  'x, y, z'
loop_
 _atom_site_type_symbol
 _atom_site_label
 _atom_site_symmetry_multiplicity
 _atom_site_fract_x
 _atom_site_fract_y
 _atom_site_fract_z
 _atom_site_occupancy
  Tc  Tc0  1  0.50000000  0.50000000  0.50000000  1
  Pt  Pt1  1  0.00000000  0.00000000  0.00000000  1
