# generated using pymatgen
data_Tc3Pd
_symmetry_space_group_name_H-M   'P 1'
_cell_length_a   2.75195840
_cell_length_b   2.75195840
_cell_length_c   8.96451500
_cell_angle_alpha   90.00000000
_cell_angle_beta   90.00000000
_cell_angle_gamma   120.00000962
_symmetry_Int_Tables_number   1
_chemical_formula_structural   Tc3Pd
_chemical_formula_sum   'Tc3 Pd1'
_cell_volume   58.79509779
_cell_formula_units_Z   1
loop_
 _symmetry_equiv_pos_site_id
 _symmetry_equiv_pos_as_xyz
  1  'x, y, z'
loop_
 _atom_site_type_symbol
 _atom_site_label
 _atom_site_symmetry_multiplicity
 _atom_site_fract_x
 _atom_site_fract_y
 _atom_site_fract_z
 _atom_site_occupancy
  Tc  Tc0  1  0.33333300  0.66666700  0.00000000  1
  Tc  Tc1  1  0.66666700  0.33333300  0.75574400  1
  Tc  Tc2  1  0.66666700  0.33333300  0.24425600  1
  Pd  Pd3  1  0.33333300  0.66666700  0.50000000  1
