# generated using pymatgen
data_Y20Cu6(Pb3Se14)3
_symmetry_space_group_name_H-M   'P 1'
_cell_length_a   9.21634800
_cell_length_b   15.07808677
_cell_length_c   16.38397602
_cell_angle_alpha   102.47911457
_cell_angle_beta   104.67081452
_cell_angle_gamma   101.98114946
_symmetry_Int_Tables_number   1
_chemical_formula_structural   Y20Cu6(Pb3Se14)3
_chemical_formula_sum   'Y20 Cu6 Pb9 Se42'
_cell_volume   2065.93459425
_cell_formula_units_Z   1
loop_
 _symmetry_equiv_pos_site_id
 _symmetry_equiv_pos_as_xyz
  1  'x, y, z'
loop_
 _atom_site_type_symbol
 _atom_site_label
 _atom_site_symmetry_multiplicity
 _atom_site_fract_x
 _atom_site_fract_y
 _atom_site_fract_z
 _atom_site_occupancy
  Y  Y0  1  0.29503000  0.38912400  0.46529700  1
  Y  Y1  1  0.45403500  0.21345900  0.30101200  1
  Y  Y2  1  0.12636200  0.55256300  0.63132000  1
  Y  Y3  1  0.63362500  0.05334300  0.13822500  1
  Y  Y4  1  0.79773900  0.88577400  0.97238500  1
  Y  Y5  1  0.96419200  0.72160400  0.80167600  1
  Y  Y6  1  0.32603000  0.16357900  0.66368500  1
  Y  Y7  1  0.48100500  0.99898400  0.48876300  1
  Y  Y8  1  0.15711400  0.32944700  0.82799300  1
  Y  Y9  1  0.66496500  0.83594200  0.32958100  1
  Y  Y10  1  0.82651400  0.67120600  0.16284700  1
  Y  Y11  1  0.99294600  0.49978300  0.99609100  1
  Y  Y12  1  0.69683400  0.60166000  0.53589500  1
  Y  Y13  1  0.86062600  0.43379500  0.36850000  1
  Y  Y14  1  0.53039700  0.76962000  0.70321400  1
  Y  Y15  1  0.02787600  0.26584300  0.20430100  1
  Y  Y16  1  0.19730900  0.09966000  0.03760400  1
  Y  Y17  1  0.36421700  0.93538500  0.87152400  1
  Y  Y18  1  0.25468700  0.81233900  0.11970300  1
  Y  Y19  1  0.93458000  0.13172200  0.43827100  1
  Cu  Cu20  1  0.46749900  0.98142700  0.69607000  1
  Cu  Cu21  1  0.80520500  0.65198500  0.36308900  1
  Cu  Cu22  1  0.13596700  0.31426300  0.02981000  1
  Cu  Cu23  1  0.96784900  0.48399900  0.19503300  1
  Cu  Cu24  1  0.30216300  0.14728100  0.86163400  1
  Cu  Cu25  1  0.63541000  0.81667700  0.52770200  1
  Pb  Pb26  1  0.06439300  0.87339800  0.53902100  1
  Pb  Pb27  1  0.23165900  0.70694900  0.37376500  1
  Pb  Pb28  1  0.90010300  0.03873000  0.70841200  1
  Pb  Pb29  1  0.40384300  0.54185600  0.21079500  1
  Pb  Pb30  1  0.56894700  0.37318800  0.04350600  1
  Pb  Pb31  1  0.73554400  0.20556100  0.87741400  1
  Pb  Pb32  1  0.74805000  0.30260300  0.60832300  1
  Pb  Pb33  1  0.41598400  0.63532700  0.94066900  1
  Pb  Pb34  1  0.58105600  0.46863000  0.77398000  1
  Se  Se35  1  0.19145900  0.04124100  0.48896700  1
  Se  Se36  1  0.36551800  0.86795500  0.31674700  1
  Se  Se37  1  0.03053100  0.20078000  0.65047200  1
  Se  Se38  1  0.52467300  0.70756600  0.15622500  1
  Se  Se39  1  0.70128200  0.53650500  0.99233500  1
  Se  Se40  1  0.86739100  0.36944200  0.82474200  1
  Se  Se41  1  0.57546800  0.40953300  0.41501500  1
  Se  Se42  1  0.73879900  0.24563000  0.24885500  1
  Se  Se43  1  0.41007300  0.57950900  0.58286100  1
  Se  Se44  1  0.90558900  0.08115100  0.07822900  1
  Se  Se45  1  0.07524600  0.91319000  0.91538000  1
  Se  Se46  1  0.24417100  0.74493200  0.74944200  1
  Se  Se47  1  0.81081700  0.78921700  0.65488600  1
  Se  Se48  1  0.97672500  0.61926100  0.48877800  1
  Se  Se49  1  0.64390200  0.95510900  0.82352900  1
  Se  Se50  1  0.14254700  0.45549900  0.32096100  1
  Se  Se51  1  0.30959400  0.28561100  0.15794800  1
  Se  Se52  1  0.47829800  0.12182100  0.98946800  1
  Se  Se53  1  0.78232900  0.99515400  0.27942200  1
  Se  Se54  1  0.95319400  0.82295100  0.10703600  1
  Se  Se55  1  0.62750300  0.15431500  0.43874700  1
  Se  Se56  1  0.11609800  0.66631600  0.95115300  1
  Se  Se57  1  0.26754300  0.48666200  0.77150200  1
  Se  Se58  1  0.43548300  0.32032300  0.60492200  1
  Se  Se59  1  0.17336200  0.20243700  0.34999000  1
  Se  Se60  1  0.34515200  0.02887000  0.17606200  1
  Se  Se61  1  0.01138900  0.36304800  0.50844900  1
  Se  Se62  1  0.50691400  0.86870200  0.01640900  1
  Se  Se63  1  0.68191500  0.70484100  0.84446800  1
  Se  Se64  1  0.84895700  0.53853500  0.67950400  1
  Se  Se65  1  0.78810300  0.96216300  0.50637400  1
  Se  Se66  1  0.95726100  0.79081100  0.34112100  1
  Se  Se67  1  0.61985700  0.12211300  0.67050600  1
  Se  Se68  1  0.12494900  0.62821400  0.17359200  1
  Se  Se69  1  0.28917500  0.45616900  0.00667700  1
  Se  Se70  1  0.45583700  0.29068000  0.84075200  1
  Se  Se71  1  0.22848000  0.00735600  0.73104900  1
  Se  Se72  1  0.39586600  0.84479000  0.56145700  1
  Se  Se73  1  0.06314500  0.17472500  0.89703600  1
  Se  Se74  1  0.56390100  0.67678500  0.39760800  1
  Se  Se75  1  0.72967100  0.51103700  0.23025200  1
  Se  Se76  1  0.89891100  0.34351400  0.06513200  1
