# generated using pymatgen
data_TbYNi2
_symmetry_space_group_name_H-M   'P 1'
_cell_length_a   4.21381400
_cell_length_b   5.40134900
_cell_length_c   7.13701800
_cell_angle_alpha   90.00000000
_cell_angle_beta   90.00000000
_cell_angle_gamma   90.00000000
_symmetry_Int_Tables_number   1
_chemical_formula_structural   TbYNi2
_chemical_formula_sum   'Tb2 Y2 Ni4'
_cell_volume   162.44052830
_cell_formula_units_Z   2
loop_
 _symmetry_equiv_pos_site_id
 _symmetry_equiv_pos_as_xyz
  1  'x, y, z'
loop_
 _atom_site_type_symbol
 _atom_site_label
 _atom_site_symmetry_multiplicity
 _atom_site_fract_x
 _atom_site_fract_y
 _atom_site_fract_z
 _atom_site_occupancy
  Tb  Tb0  1  0.00000000  0.12155200  0.67708100  1
  Tb  Tb1  1  0.00000000  0.87844800  0.17708100  1
  Y  Y2  1  0.50000000  0.37834200  0.32309800  1
  Y  Y3  1  0.50000000  0.62165800  0.82309800  1
  Ni  Ni4  1  0.00000000  0.62442200  0.53860900  1
  Ni  Ni5  1  0.00000000  0.37557800  0.03860900  1
  Ni  Ni6  1  0.50000000  0.87720300  0.46121200  1
  Ni  Ni7  1  0.50000000  0.12279700  0.96121200  1
