# generated using pymatgen
data_Te10Rh7
_symmetry_space_group_name_H-M   'P 1'
_cell_length_a   8.86445700
_cell_length_b   9.07344697
_cell_length_c   10.56689188
_cell_angle_alpha   75.74364616
_cell_angle_beta   73.92214943
_cell_angle_gamma   77.96965438
_symmetry_Int_Tables_number   1
_chemical_formula_structural   Te10Rh7
_chemical_formula_sum   'Te20 Rh14'
_cell_volume   782.48986911
_cell_formula_units_Z   2
loop_
 _symmetry_equiv_pos_site_id
 _symmetry_equiv_pos_as_xyz
  1  'x, y, z'
loop_
 _atom_site_type_symbol
 _atom_site_label
 _atom_site_symmetry_multiplicity
 _atom_site_fract_x
 _atom_site_fract_y
 _atom_site_fract_z
 _atom_site_occupancy
  Te  Te0  1  0.78898900  0.54182200  0.99993700  1
  Te  Te1  1  0.58729000  0.34284600  0.80140300  1
  Te  Te2  1  0.38548200  0.14365500  0.60117300  1
  Te  Te3  1  0.18612300  0.94310100  0.40114200  1
  Te  Te4  1  0.98725600  0.74471200  0.19832100  1
  Te  Te5  1  0.01274400  0.25528800  0.80167900  1
  Te  Te6  1  0.81387700  0.05689900  0.59885800  1
  Te  Te7  1  0.61451800  0.85634500  0.39882700  1
  Te  Te8  1  0.41271000  0.65715400  0.19859700  1
  Te  Te9  1  0.21101100  0.45817800  0.00006300  1
  Te  Te10  1  0.49519000  0.22668800  0.20671300  1
  Te  Te11  1  0.29571000  0.02573900  0.00653500  1
  Te  Te12  1  0.09824600  0.82954300  0.80735800  1
  Te  Te13  1  0.89638800  0.62782900  0.60727200  1
  Te  Te14  1  0.69492800  0.42769100  0.40729000  1
  Te  Te15  1  0.30507200  0.57230900  0.59271000  1
  Te  Te16  1  0.10361200  0.37217100  0.39272800  1
  Te  Te17  1  0.90175400  0.17045700  0.19264200  1
  Te  Te18  1  0.70429000  0.97426100  0.99346500  1
  Te  Te19  1  0.50481000  0.77331200  0.79328700  1
  Rh  Rh20  1  0.74699900  0.26398000  0.99070000  1
  Rh  Rh21  1  0.54397200  0.06704600  0.79368800  1
  Rh  Rh22  1  0.34441000  0.86587200  0.58959600  1
  Rh  Rh23  1  0.14165400  0.66851700  0.39031600  1
  Rh  Rh24  1  0.94187300  0.46933300  0.19445400  1
  Rh  Rh25  1  0.05812700  0.53066700  0.80554600  1
  Rh  Rh26  1  0.85834600  0.33148300  0.60968400  1
  Rh  Rh27  1  0.65559000  0.13412800  0.41040400  1
  Rh  Rh28  1  0.45602800  0.93295400  0.20631200  1
  Rh  Rh29  1  0.25300100  0.73602000  0.00930000  1
  Rh  Rh30  1  0.60088900  0.59913800  0.60069400  1
  Rh  Rh31  1  0.19948300  0.19965600  0.19958000  1
  Rh  Rh32  1  0.80051700  0.80034400  0.80042000  1
  Rh  Rh33  1  0.39911100  0.40086200  0.39930600  1
