# generated using pymatgen
data_TlMo3Br7
_symmetry_space_group_name_H-M   'P 1'
_cell_length_a   14.27111880
_cell_length_b   14.28159969
_cell_length_c   14.37965397
_cell_angle_alpha   90.00000000
_cell_angle_beta   90.00000000
_cell_angle_gamma   90.00000000
_symmetry_Int_Tables_number   1
_chemical_formula_structural   TlMo3Br7
_chemical_formula_sum   'Tl8 Mo24 Br56'
_cell_volume   2930.78062994
_cell_formula_units_Z   8
loop_
 _symmetry_equiv_pos_site_id
 _symmetry_equiv_pos_as_xyz
  1  'x, y, z'
loop_
 _atom_site_type_symbol
 _atom_site_label
 _atom_site_symmetry_multiplicity
 _atom_site_fract_x
 _atom_site_fract_y
 _atom_site_fract_z
 _atom_site_occupancy
  Tl  Tl0  1  0.99268200  0.50313618  0.99938759  1
  Tl  Tl1  1  0.99268200  0.99686382  0.50061241  1
  Tl  Tl2  1  0.50731800  0.50313618  0.50061241  1
  Tl  Tl3  1  0.50731800  0.99686382  0.99938759  1
  Tl  Tl4  1  0.75000000  0.25000000  0.25000000  1
  Tl  Tl5  1  0.25000000  0.75000000  0.25000000  1
  Tl  Tl6  1  0.25000000  0.25000000  0.75000000  1
  Tl  Tl7  1  0.25000000  0.75000000  0.75000000  1
  Mo  Mo8  1  0.62263950  0.46999324  0.95888611  1
  Mo  Mo9  1  0.62263950  0.03000676  0.54111389  1
  Mo  Mo10  1  0.87736050  0.46999324  0.54111389  1
  Mo  Mo11  1  0.87736050  0.03000676  0.95888611  1
  Mo  Mo12  1  0.95726656  0.62168586  0.46932633  1
  Mo  Mo13  1  0.54273344  0.62168586  0.03067367  1
  Mo  Mo14  1  0.54273344  0.87831414  0.46932633  1
  Mo  Mo15  1  0.95726656  0.87831414  0.03067367  1
  Mo  Mo16  1  0.47040388  0.95808084  0.61999608  1
  Mo  Mo17  1  0.02959612  0.54191916  0.61999608  1
  Mo  Mo18  1  0.47040388  0.54191916  0.88000392  1
  Mo  Mo19  1  0.02959612  0.95808084  0.88000392  1
  Mo  Mo20  1  0.38052812  0.53125763  0.04174394  1
  Mo  Mo21  1  0.38052812  0.96874237  0.45825606  1
  Mo  Mo22  1  0.11947188  0.53125763  0.45825606  1
  Mo  Mo23  1  0.11947188  0.96874237  0.04174394  1
  Mo  Mo24  1  0.04043366  0.37986091  0.53114064  1
  Mo  Mo25  1  0.45956634  0.37986091  0.96885936  1
  Mo  Mo26  1  0.45956634  0.12013909  0.53114064  1
  Mo  Mo27  1  0.04043366  0.12013909  0.96885936  1
  Mo  Mo28  1  0.53240744  0.04139635  0.38024061  1
  Mo  Mo29  1  0.96759256  0.45860365  0.38024061  1
  Mo  Mo30  1  0.53240744  0.45860365  0.11975939  1
  Mo  Mo31  1  0.96759256  0.04139635  0.11975939  1
  Br  Br32  1  0.63102478  0.63057471  0.87048969  1
  Br  Br33  1  0.63102478  0.86942529  0.62951031  1
  Br  Br34  1  0.86897522  0.63057471  0.62951031  1
  Br  Br35  1  0.86897522  0.86942529  0.87048969  1
  Br  Br36  1  0.37100611  0.37000871  0.12907618  1
  Br  Br37  1  0.37100611  0.12999129  0.37092382  1
  Br  Br38  1  0.12899389  0.37000871  0.37092382  1
  Br  Br39  1  0.12899389  0.12999129  0.12907618  1
  Br  Br40  1  0.69159281  0.54926951  0.10880170  1
  Br  Br41  1  0.69159281  0.95073049  0.39119830  1
  Br  Br42  1  0.80840719  0.54926951  0.39119830  1
  Br  Br43  1  0.80840719  0.95073049  0.10880170  1
  Br  Br44  1  0.10905848  0.69165025  0.54641425  1
  Br  Br45  1  0.39094152  0.69165025  0.95358575  1
  Br  Br46  1  0.39094152  0.80834975  0.54641425  1
  Br  Br47  1  0.10905848  0.80834975  0.95358575  1
  Br  Br48  1  0.54970131  0.10829012  0.68958341  1
  Br  Br49  1  0.95029869  0.39170988  0.68958341  1
  Br  Br50  1  0.54970131  0.39170988  0.81041659  1
  Br  Br51  1  0.95029869  0.10829012  0.81041659  1
  Br  Br52  1  0.30911048  0.45437549  0.89160986  1
  Br  Br53  1  0.30911048  0.04562451  0.60839014  1
  Br  Br54  1  0.19088952  0.45437549  0.60839014  1
  Br  Br55  1  0.19088952  0.04562451  0.89160986  1
  Br  Br56  1  0.88974236  0.30862408  0.45471235  1
  Br  Br57  1  0.61025764  0.30862408  0.04528765  1
  Br  Br58  1  0.61025764  0.19137592  0.45471235  1
  Br  Br59  1  0.88974236  0.19137592  0.04528765  1
  Br  Br60  1  0.45532839  0.89081253  0.30924482  1
  Br  Br61  1  0.04467161  0.60918747  0.30924482  1
  Br  Br62  1  0.45532839  0.60918747  0.19075518  1
  Br  Br63  1  0.04467161  0.89081253  0.19075518  1
  Br  Br64  1  0.79142731  0.42585532  0.90396820  1
  Br  Br65  1  0.79142731  0.07414468  0.59603180  1
  Br  Br66  1  0.70857269  0.42585532  0.59603180  1
  Br  Br67  1  0.70857269  0.07414468  0.90396820  1
  Br  Br68  1  0.90323097  0.79069959  0.42576291  1
  Br  Br69  1  0.59676903  0.79069959  0.07423709  1
  Br  Br70  1  0.59676903  0.70930041  0.42576291  1
  Br  Br71  1  0.90323097  0.70930041  0.07423709  1
  Br  Br72  1  0.42439026  0.90223583  0.79008672  1
  Br  Br73  1  0.07560974  0.59776417  0.79008672  1
  Br  Br74  1  0.42439026  0.59776417  0.70991328  1
  Br  Br75  1  0.07560974  0.90223583  0.70991328  1
  Br  Br76  1  0.20972311  0.57628291  0.09818264  1
  Br  Br77  1  0.20972311  0.92371709  0.40181736  1
  Br  Br78  1  0.29027689  0.57628291  0.40181736  1
  Br  Br79  1  0.29027689  0.92371709  0.09818264  1
  Br  Br80  1  0.09821170  0.20957898  0.57621799  1
  Br  Br81  1  0.40178830  0.20957898  0.92378201  1
  Br  Br82  1  0.40178830  0.29042102  0.57621799  1
  Br  Br83  1  0.09821170  0.29042102  0.92378201  1
  Br  Br84  1  0.57620357  0.09826795  0.21015951  1
  Br  Br85  1  0.92379643  0.40173205  0.21015951  1
  Br  Br86  1  0.57620357  0.40173205  0.28984049  1
  Br  Br87  1  0.92379643  0.09826795  0.28984049  1
