# generated using pymatgen
data_TbPrMn4
_symmetry_space_group_name_H-M   'P 1'
_cell_length_a   5.23266938
_cell_length_b   5.23266938
_cell_length_c   5.23266938
_cell_angle_alpha   60.00000000
_cell_angle_beta   60.00000000
_cell_angle_gamma   60.00000000
_symmetry_Int_Tables_number   1
_chemical_formula_structural   TbPrMn4
_chemical_formula_sum   'Tb1 Pr1 Mn4'
_cell_volume   101.31059991
_cell_formula_units_Z   1
loop_
 _symmetry_equiv_pos_site_id
 _symmetry_equiv_pos_as_xyz
  1  'x, y, z'
loop_
 _atom_site_type_symbol
 _atom_site_label
 _atom_site_symmetry_multiplicity
 _atom_site_fract_x
 _atom_site_fract_y
 _atom_site_fract_z
 _atom_site_occupancy
  Tb  Tb0  1  0.00000000  0.00000000  0.00000000  1
  Pr  Pr1  1  0.25000000  0.25000000  0.25000000  1
  Mn  Mn2  1  0.62644900  0.62644900  0.12065200  1
  Mn  Mn3  1  0.62644900  0.12065200  0.62644900  1
  Mn  Mn4  1  0.12065200  0.62644900  0.62644900  1
  Mn  Mn5  1  0.62644900  0.62644900  0.62644900  1
