# generated using pymatgen
data_V2C12(NF3)3
_symmetry_space_group_name_H-M   'P 1'
_cell_length_a   17.29855300
_cell_length_b   7.51871900
_cell_length_c   7.72362638
_cell_angle_alpha   61.38575423
_cell_angle_beta   90.00000000
_cell_angle_gamma   90.00000000
_symmetry_Int_Tables_number   1
_chemical_formula_structural   V2C12(NF3)3
_chemical_formula_sum   'V4 C24 N6 F18'
_cell_volume   881.86497124
_cell_formula_units_Z   2
loop_
 _symmetry_equiv_pos_site_id
 _symmetry_equiv_pos_as_xyz
  1  'x, y, z'
loop_
 _atom_site_type_symbol
 _atom_site_label
 _atom_site_symmetry_multiplicity
 _atom_site_fract_x
 _atom_site_fract_y
 _atom_site_fract_z
 _atom_site_occupancy
  V  V0  1  0.66629900  0.33001200  0.33585200  1
  V  V1  1  0.16629900  0.66998800  0.66414800  1
  V  V2  1  0.33370400  0.67094800  0.66519800  1
  V  V3  1  0.83370400  0.32905200  0.33480200  1
  C  C4  1  0.63024600  0.66943600  0.65738200  1
  C  C5  1  0.13024600  0.33056400  0.34261800  1
  C  C6  1  0.36818000  0.33601400  0.33388200  1
  C  C7  1  0.86818000  0.66398600  0.66611800  1
  C  C8  1  0.58727900  0.79618500  0.47909100  1
  C  C9  1  0.57863700  0.48555100  0.75299200  1
  C  C10  1  0.57878700  0.70345800  0.79800800  1
  C  C11  1  0.08727900  0.20381500  0.52090900  1
  C  C12  1  0.07863700  0.51444900  0.24700800  1
  C  C13  1  0.07878700  0.29654200  0.20199200  1
  C  C14  1  0.41143600  0.20671300  0.51550800  1
  C  C15  1  0.42001600  0.51868500  0.25518300  1
  C  C16  1  0.42075300  0.28161000  0.20901300  1
  C  C17  1  0.91143600  0.79328700  0.48449200  1
  C  C18  1  0.92001600  0.48131500  0.74481700  1
  C  C19  1  0.92075300  0.71839000  0.79098700  1
  C  C20  1  0.68573400  0.99919800  0.00328500  1
  C  C21  1  0.18573400  0.00080200  0.99671500  1
  C  C22  1  0.73282700  0.88757500  0.18203500  1
  C  C23  1  0.73582100  0.18316500  0.91604100  1
  C  C24  1  0.73649500  0.92873400  0.88930600  1
  C  C25  1  0.23282700  0.11242500  0.81796500  1
  C  C26  1  0.23582100  0.81683500  0.08395900  1
  C  C27  1  0.23649500  0.07126600  0.11069400  1
  N  N28  1  0.03246800  0.31808100  0.36117800  1
  N  N29  1  0.53246800  0.68191900  0.63882200  1
  N  N30  1  0.96706800  0.67582300  0.64411200  1
  N  N31  1  0.46706800  0.32417700  0.35588800  1
  N  N32  1  0.28635900  0.00538300  0.98727000  1
  N  N33  1  0.78635900  0.99461700  0.01273000  1
  F  F34  1  0.61215500  0.56143300  0.26693800  1
  F  F35  1  0.61966700  0.26552600  0.16873600  1
  F  F36  1  0.61994200  0.18367300  0.56867400  1
  F  F37  1  0.11215500  0.43856700  0.73306200  1
  F  F38  1  0.11966700  0.73447400  0.83126400  1
  F  F39  1  0.11994200  0.81632700  0.43132600  1
  F  F40  1  0.38632400  0.43815000  0.73263200  1
  F  F41  1  0.38034400  0.73509400  0.83309000  1
  F  F42  1  0.37923700  0.82042200  0.43184000  1
  F  F43  1  0.88632400  0.56185000  0.26736800  1
  F  F44  1  0.88034400  0.26490600  0.16691000  1
  F  F45  1  0.87923700  0.17957800  0.56816000  1
  F  F46  1  0.75022100  0.47566200  0.13286000  1
  F  F47  1  0.74962600  0.11384700  0.39629200  1
  F  F48  1  0.74987500  0.40116700  0.47281300  1
  F  F49  1  0.25022100  0.52433800  0.86714000  1
  F  F50  1  0.24962600  0.88615300  0.60370800  1
  F  F51  1  0.24987500  0.59883300  0.52718700  1
