# generated using pymatgen
data_U6Si19Pt30
_symmetry_space_group_name_H-M   'P 1'
_cell_length_a   16.11283437
_cell_length_b   16.11283437
_cell_length_c   4.00048300
_cell_angle_alpha   90.00000000
_cell_angle_beta   90.00000000
_cell_angle_gamma   120.00000153
_symmetry_Int_Tables_number   1
_chemical_formula_structural   U6Si19Pt30
_chemical_formula_sum   'U6 Si19 Pt30'
_cell_volume   899.47053246
_cell_formula_units_Z   1
loop_
 _symmetry_equiv_pos_site_id
 _symmetry_equiv_pos_as_xyz
  1  'x, y, z'
loop_
 _atom_site_type_symbol
 _atom_site_label
 _atom_site_symmetry_multiplicity
 _atom_site_fract_x
 _atom_site_fract_y
 _atom_site_fract_z
 _atom_site_occupancy
  U  U0  1  0.09861700  0.70346300  0.24866000  1
  U  U1  1  0.60484600  0.90138300  0.24866000  1
  U  U2  1  0.29653700  0.39515400  0.24866000  1
  U  U3  1  0.90138300  0.29653700  0.75134000  1
  U  U4  1  0.39515400  0.09861700  0.75134000  1
  U  U5  1  0.70346300  0.60484600  0.75134000  1
  Si  Si6  1  0.37346100  0.93907000  0.25011700  1
  Si  Si7  1  0.56560900  0.62653900  0.25011700  1
  Si  Si8  1  0.06093000  0.43439100  0.25011700  1
  Si  Si9  1  0.62653900  0.06093000  0.74988300  1
  Si  Si10  1  0.43439100  0.37346100  0.74988300  1
  Si  Si11  1  0.93907000  0.56560900  0.74988300  1
  Si  Si12  1  0.68162100  0.44452100  0.25046200  1
  Si  Si13  1  0.76290000  0.31837900  0.25046200  1
  Si  Si14  1  0.55547900  0.23710000  0.25046200  1
  Si  Si15  1  0.31837900  0.55547900  0.74953800  1
  Si  Si16  1  0.23710000  0.68162100  0.74953800  1
  Si  Si17  1  0.44452100  0.76290000  0.74953800  1
  Si  Si18  1  0.86463300  0.74449900  0.25109600  1
  Si  Si19  1  0.87986600  0.13536700  0.25109600  1
  Si  Si20  1  0.25550100  0.12013400  0.25109600  1
  Si  Si21  1  0.13536700  0.25550100  0.74890400  1
  Si  Si22  1  0.12013400  0.86463300  0.74890400  1
  Si  Si23  1  0.74449900  0.87986600  0.74890400  1
  Si  Si24  1  0.00000000  0.00000000  0.50000000  1
  Pt  Pt25  1  0.34420500  0.77411900  0.24985800  1
  Pt  Pt26  1  0.42991300  0.65579500  0.24985800  1
  Pt  Pt27  1  0.22588100  0.57008700  0.24985800  1
  Pt  Pt28  1  0.65579500  0.22588100  0.75014200  1
  Pt  Pt29  1  0.57008700  0.34420500  0.75014200  1
  Pt  Pt30  1  0.77411900  0.42991300  0.75014200  1
  Pt  Pt31  1  0.54470800  0.46812700  0.25027200  1
  Pt  Pt32  1  0.92341800  0.45529200  0.25027200  1
  Pt  Pt33  1  0.53187300  0.07658200  0.25027200  1
  Pt  Pt34  1  0.45529200  0.53187300  0.74972800  1
  Pt  Pt35  1  0.07658200  0.54470800  0.74972800  1
  Pt  Pt36  1  0.46812700  0.92341800  0.74972800  1
  Pt  Pt37  1  0.23916700  0.96253100  0.24811600  1
  Pt  Pt38  1  0.72336500  0.76083300  0.24811600  1
  Pt  Pt39  1  0.03746900  0.27663500  0.24811600  1
  Pt  Pt40  1  0.76083300  0.03746900  0.75188400  1
  Pt  Pt41  1  0.27663500  0.23916700  0.75188400  1
  Pt  Pt42  1  0.96253100  0.72336500  0.75188400  1
  Pt  Pt43  1  0.02845900  0.87693000  0.24192000  1
  Pt  Pt44  1  0.84847100  0.97154100  0.24192000  1
  Pt  Pt45  1  0.12307000  0.15152900  0.24192000  1
  Pt  Pt46  1  0.97154100  0.12307000  0.75808000  1
  Pt  Pt47  1  0.15152900  0.02845900  0.75808000  1
  Pt  Pt48  1  0.87693000  0.84847100  0.75808000  1
  Pt  Pt49  1  0.84047200  0.58517400  0.25094800  1
  Pt  Pt50  1  0.74470200  0.15952800  0.25094800  1
  Pt  Pt51  1  0.41482600  0.25529800  0.25094800  1
  Pt  Pt52  1  0.15952800  0.41482600  0.74905200  1
  Pt  Pt53  1  0.25529800  0.84047200  0.74905200  1
  Pt  Pt54  1  0.58517400  0.74470200  0.74905200  1
