# generated using pymatgen
data_Ti4Nb(BiO3)7
_symmetry_space_group_name_H-M   'P 1'
_cell_length_a   29.77115070
_cell_length_b   29.77115070
_cell_length_c   5.45549848
_cell_angle_alpha   84.90524345
_cell_angle_beta   84.90524345
_cell_angle_gamma   10.62904776
_symmetry_Int_Tables_number   1
_chemical_formula_structural   Ti4Nb(BiO3)7
_chemical_formula_sum   'Ti8 Nb2 Bi14 O42'
_cell_volume   888.31987881
_cell_formula_units_Z   2
loop_
 _symmetry_equiv_pos_site_id
 _symmetry_equiv_pos_as_xyz
  1  'x, y, z'
loop_
 _atom_site_type_symbol
 _atom_site_label
 _atom_site_symmetry_multiplicity
 _atom_site_fract_x
 _atom_site_fract_y
 _atom_site_fract_z
 _atom_site_occupancy
  Ti  Ti0  1  0.38682900  0.46695000  0.57334600  1
  Ti  Ti1  1  0.53305000  0.61317200  0.42665400  1
  Ti  Ti2  1  0.03313900  0.11317700  0.92726200  1
  Ti  Ti3  1  0.88682300  0.96686100  0.07273800  1
  Ti  Ti4  1  0.46449300  0.53550700  0.50000000  1
  Ti  Ti5  1  0.96462700  0.03537300  0.00000000  1
  Ti  Ti6  1  0.74262800  0.83260500  0.71407100  1
  Ti  Ti7  1  0.16739400  0.25737200  0.28592900  1
  Nb  Nb8  1  0.66443000  0.76068300  0.78269900  1
  Nb  Nb9  1  0.23931700  0.33557000  0.21730100  1
  Bi  Bi10  1  0.25226800  0.24732800  0.74576500  1
  Bi  Bi11  1  0.75267200  0.74773200  0.25423500  1
  Bi  Bi12  1  0.34212800  0.32968200  0.68487200  1
  Bi  Bi13  1  0.67031800  0.65787200  0.31512800  1
  Bi  Bi14  1  0.16677200  0.16170400  0.86464400  1
  Bi  Bi15  1  0.83829600  0.83322800  0.13535600  1
  Bi  Bi16  1  0.88081500  0.87805100  0.59545800  1
  Bi  Bi17  1  0.12194900  0.11918500  0.40454200  1
  Bi  Bi18  1  0.61939100  0.62181200  0.85460500  1
  Bi  Bi19  1  0.37818800  0.38060900  0.14539500  1
  Bi  Bi20  1  0.97255800  0.95171500  0.53877700  1
  Bi  Bi21  1  0.04828500  0.02744200  0.46122300  1
  Bi  Bi22  1  0.54820300  0.52752400  0.96275800  1
  Bi  Bi23  1  0.47247600  0.45179700  0.03724200  1
  O  O24  1  0.91552200  0.65857800  0.41126000  1
  O  O25  1  0.34142200  0.08447800  0.58874000  1
  O  O26  1  0.84648800  0.57936900  0.48051700  1
  O  O27  1  0.42063100  0.15351200  0.51948300  1
  O  O28  1  0.17155300  0.81751000  0.26092300  1
  O  O29  1  0.18249000  0.82844700  0.73907700  1
  O  O30  1  0.68248000  0.32847800  0.75008300  1
  O  O31  1  0.67152200  0.31752000  0.24991700  1
  O  O32  1  0.75703400  0.87785400  0.75152400  1
  O  O33  1  0.12214600  0.24296600  0.24847600  1
  O  O34  1  0.62369400  0.73911500  0.88361500  1
  O  O35  1  0.26088500  0.37630600  0.11638500  1
  O  O36  1  0.38278600  0.55101700  0.60701000  1
  O  O37  1  0.44898300  0.61721400  0.39299000  1
  O  O38  1  0.94866100  0.11751700  0.04108900  1
  O  O39  1  0.88248300  0.05133900  0.95891100  1
  O  O40  1  0.57880400  0.28020900  0.86398300  1
  O  O41  1  0.71979100  0.42119600  0.13601700  1
  O  O42  1  0.21972800  0.92119400  0.22373600  1
  O  O43  1  0.07880600  0.78027200  0.77626400  1
  O  O44  1  0.49345300  0.06230100  0.00694400  1
  O  O45  1  0.93769900  0.50654700  0.99305600  1
  O  O46  1  0.43502200  0.00927000  0.06316700  1
  O  O47  1  0.99073000  0.56497800  0.93683300  1
  O  O48  1  0.35209600  0.44223000  0.54317300  1
  O  O49  1  0.55777000  0.64790400  0.45682700  1
  O  O50  1  0.05911200  0.14656800  0.83854400  1
  O  O51  1  0.85343200  0.94088800  0.16145600  1
  O  O52  1  0.15208300  0.72198200  0.28807700  1
  O  O53  1  0.27801800  0.84791700  0.71192300  1
  O  O54  1  0.77797000  0.34797000  0.66263000  1
  O  O55  1  0.65203000  0.22203000  0.33737000  1
  O  O56  1  0.59543500  0.12071900  0.89655400  1
  O  O57  1  0.87928100  0.40456500  0.10344600  1
  O  O58  1  0.37907700  0.90481100  0.11528200  1
  O  O59  1  0.09518900  0.62092300  0.88471800  1
  O  O60  1  0.65911300  0.84058700  0.67057900  1
  O  O61  1  0.15941300  0.34088700  0.32942100  1
  O  O62  1  0.09364600  0.62064500  0.38693900  1
  O  O63  1  0.37935500  0.90635400  0.61306100  1
  O  O64  1  0.87890000  0.40678300  0.60299600  1
  O  O65  1  0.59321700  0.12110000  0.39700400  1
