# generated using pymatgen
data_TbGd3(PO4)4
_symmetry_space_group_name_H-M   'P 1'
_cell_length_a   5.84119590
_cell_length_b   5.84119590
_cell_length_c   9.32937619
_cell_angle_alpha   83.76788616
_cell_angle_beta   83.76788616
_cell_angle_gamma   74.00718649
_symmetry_Int_Tables_number   1
_chemical_formula_structural   TbGd3(PO4)4
_chemical_formula_sum   'Tb1 Gd3 P4 O16'
_cell_volume   303.15407666
_cell_formula_units_Z   1
loop_
 _symmetry_equiv_pos_site_id
 _symmetry_equiv_pos_as_xyz
  1  'x, y, z'
loop_
 _atom_site_type_symbol
 _atom_site_label
 _atom_site_symmetry_multiplicity
 _atom_site_fract_x
 _atom_site_fract_y
 _atom_site_fract_z
 _atom_site_occupancy
  Tb  Tb0  1  0.31246000  0.31246000  0.93747800  1
  Gd  Gd1  1  0.81254200  0.81254200  0.43753300  1
  Gd  Gd2  1  0.68747300  0.68747300  0.06227100  1
  Gd  Gd3  1  0.18753300  0.18753300  0.56272500  1
  P  P4  1  0.93785700  0.93785700  0.81301400  1
  P  P5  1  0.43713900  0.43713900  0.31196200  1
  P  P6  1  0.06296600  0.06296600  0.18712700  1
  P  P7  1  0.56204400  0.56204400  0.68788800  1
  O  O8  1  0.10327800  0.10327800  0.82154900  1
  O  O9  1  0.60248900  0.60248900  0.32012500  1
  O  O10  1  0.96933300  0.31500400  0.10784800  1
  O  O11  1  0.46763400  0.81387300  0.60923100  1
  O  O12  1  0.31500400  0.96933300  0.10784800  1
  O  O13  1  0.81387300  0.46763400  0.60923100  1
  O  O14  1  0.92959300  0.92959300  0.64787000  1
  O  O15  1  0.42869600  0.42869600  0.14636300  1
  O  O16  1  0.89766100  0.89766100  0.17918400  1
  O  O17  1  0.39645100  0.39645100  0.68077400  1
  O  O18  1  0.03311900  0.68485200  0.89122400  1
  O  O19  1  0.53228500  0.18564600  0.39081600  1
  O  O20  1  0.68485200  0.03311900  0.89122400  1
  O  O21  1  0.18564600  0.53228500  0.39081600  1
  O  O22  1  0.07081900  0.07081900  0.35232100  1
  O  O23  1  0.56925300  0.56925300  0.85357700  1
