# generated using pymatgen
data_Ti(FeO2)3
_symmetry_space_group_name_H-M   'P 1'
_cell_length_a   6.04008800
_cell_length_b   6.06406711
_cell_length_c   14.77307284
_cell_angle_alpha   89.12125943
_cell_angle_beta   89.19563369
_cell_angle_gamma   60.22221440
_symmetry_Int_Tables_number   1
_chemical_formula_structural   Ti(FeO2)3
_chemical_formula_sum   'Ti4 Fe12 O24'
_cell_volume   469.58463809
_cell_formula_units_Z   4
loop_
 _symmetry_equiv_pos_site_id
 _symmetry_equiv_pos_as_xyz
  1  'x, y, z'
loop_
 _atom_site_type_symbol
 _atom_site_label
 _atom_site_symmetry_multiplicity
 _atom_site_fract_x
 _atom_site_fract_y
 _atom_site_fract_z
 _atom_site_occupancy
  Ti  Ti0  1  0.51690800  0.01485600  0.98535000  1
  Ti  Ti1  1  0.15017700  0.16239500  0.82540700  1
  Ti  Ti2  1  0.50789700  0.50404300  0.50554100  1
  Ti  Ti3  1  0.00597200  0.99573900  0.50551400  1
  Fe  Fe4  1  0.83146500  0.32217700  0.29748700  1
  Fe  Fe5  1  0.17282100  0.65963800  0.95331500  1
  Fe  Fe6  1  0.48934200  0.99309100  0.62799800  1
  Fe  Fe7  1  0.83559200  0.34325100  0.03860900  1
  Fe  Fe8  1  0.17719100  0.65844300  0.71079200  1
  Fe  Fe9  1  0.50205300  0.01147900  0.37747800  1
  Fe  Fe10  1  0.82610700  0.33843100  0.66821600  1
  Fe  Fe11  1  0.15409300  0.65590800  0.33914300  1
  Fe  Fe12  1  0.33356600  0.83062700  0.16544800  1
  Fe  Fe13  1  0.83160600  0.83282800  0.16729700  1
  Fe  Fe14  1  0.66050700  0.66232000  0.82997400  1
  Fe  Fe15  1  0.33195000  0.33381000  0.16613000  1
  O  O16  1  0.18065500  0.65773100  0.09563700  1
  O  O17  1  0.48039900  0.99874300  0.75405700  1
  O  O18  1  0.82152700  0.31906100  0.42550600  1
  O  O19  1  0.01261700  0.49626100  0.25377400  1
  O  O20  1  0.34307000  0.86304800  0.91398300  1
  O  O21  1  0.66785200  0.16782100  0.57287800  1
  O  O22  1  0.47951400  0.50825200  0.24852900  1
  O  O23  1  0.80122300  0.83085800  0.91844400  1
  O  O24  1  0.15020100  0.14170200  0.57880700  1
  O  O25  1  0.01947600  0.97749200  0.25196000  1
  O  O26  1  0.33357900  0.30088300  0.91939800  1
  O  O27  1  0.64082100  0.66385600  0.57516200  1
  O  O28  1  0.48802500  0.00859400  0.24505000  1
  O  O29  1  0.85719600  0.34115600  0.91297400  1
  O  O30  1  0.18223300  0.67800500  0.56698900  1
  O  O31  1  0.64925000  0.16627900  0.08025900  1
  O  O32  1  0.99584700  0.48631900  0.75967000  1
  O  O33  1  0.32335000  0.82371300  0.42100500  1
  O  O34  1  0.18836600  0.15732300  0.08788500  1
  O  O35  1  0.52630600  0.51306000  0.75020700  1
  O  O36  1  0.84844300  0.85549800  0.41486100  1
  O  O37  1  0.64552200  0.68923400  0.08313000  1
  O  O38  1  0.01673000  0.01619900  0.75771400  1
  O  O39  1  0.35388600  0.35321100  0.41508800  1
