# generated using pymatgen
data_SrB4O7
_symmetry_space_group_name_H-M   'P 1'
_cell_length_a   17.30233418
_cell_length_b   17.30233418
_cell_length_c   4.29576800
_cell_angle_alpha   90.00000000
_cell_angle_beta   90.00000000
_cell_angle_gamma   120.00000070
_symmetry_Int_Tables_number   1
_chemical_formula_structural   SrB4O7
_chemical_formula_sum   'Sr9 B36 O63'
_cell_volume   1113.73236113
_cell_formula_units_Z   9
loop_
 _symmetry_equiv_pos_site_id
 _symmetry_equiv_pos_as_xyz
  1  'x, y, z'
loop_
 _atom_site_type_symbol
 _atom_site_label
 _atom_site_symmetry_multiplicity
 _atom_site_fract_x
 _atom_site_fract_y
 _atom_site_fract_z
 _atom_site_occupancy
  Sr  Sr0  1  0.33333300  0.66666700  0.49882100  1
  Sr  Sr1  1  0.00000000  0.00000000  0.70553100  1
  Sr  Sr2  1  0.66666700  0.33333300  0.60697500  1
  Sr  Sr3  1  0.34095800  0.34281400  0.70121800  1
  Sr  Sr4  1  0.00185600  0.65904200  0.70121800  1
  Sr  Sr5  1  0.65718600  0.99814400  0.70121800  1
  Sr  Sr6  1  0.67484600  0.67261300  0.51649500  1
  Sr  Sr7  1  0.99776700  0.32515400  0.51649500  1
  Sr  Sr8  1  0.32738700  0.00223300  0.51649500  1
  B  B9  1  0.51514400  0.38019400  0.32421900  1
  B  B10  1  0.86504900  0.48485600  0.32421900  1
  B  B11  1  0.61980600  0.13495100  0.32421900  1
  B  B12  1  0.63675800  0.48542400  0.99728800  1
  B  B13  1  0.84866500  0.36324200  0.99728800  1
  B  B14  1  0.51457600  0.15133500  0.99728800  1
  B  B15  1  0.30006600  0.47146200  0.24168100  1
  B  B16  1  0.17139600  0.69993400  0.24168100  1
  B  B17  1  0.52853800  0.82860400  0.24168100  1
  B  B18  1  0.19245200  0.48110400  0.90617500  1
  B  B19  1  0.28865300  0.80754800  0.90617500  1
  B  B20  1  0.51889600  0.71134700  0.90617500  1
  B  B21  1  0.17864900  0.14102100  0.27757000  1
  B  B22  1  0.96237200  0.82135100  0.27757000  1
  B  B23  1  0.85897900  0.03762800  0.27757000  1
  B  B24  1  0.19996400  0.03905700  0.94410400  1
  B  B25  1  0.83909300  0.80003600  0.94410400  1
  B  B26  1  0.96094300  0.16090700  0.94410400  1
  B  B27  1  0.50757800  0.51264600  0.11095000  1
  B  B28  1  0.00506800  0.49242200  0.11095000  1
  B  B29  1  0.48735400  0.99493200  0.11095000  1
  B  B30  1  0.45104500  0.55834600  0.59758200  1
  B  B31  1  0.10730100  0.54895500  0.59758200  1
  B  B32  1  0.44165400  0.89269900  0.59758200  1
  B  B33  1  0.16878000  0.32741400  0.04731800  1
  B  B34  1  0.15863500  0.83122000  0.04731800  1
  B  B35  1  0.67258600  0.84136500  0.04731800  1
  B  B36  1  0.10835000  0.22595800  0.55960000  1
  B  B37  1  0.11760800  0.89165000  0.55960000  1
  B  B38  1  0.77404200  0.88239200  0.55960000  1
  B  B39  1  0.33605600  0.17102400  0.17916500  1
  B  B40  1  0.83496800  0.66394400  0.17916500  1
  B  B41  1  0.82897600  0.16503200  0.17916500  1
  B  B42  1  0.43849800  0.22885300  0.68228100  1
  B  B43  1  0.79035500  0.56150200  0.68228100  1
  B  B44  1  0.77114700  0.20964500  0.68228100  1
  O  O45  1  0.49176200  0.32201900  0.56192300  1
  O  O46  1  0.83025700  0.50823800  0.56192300  1
  O  O47  1  0.67798100  0.16974300  0.56192300  1
  O  O48  1  0.46645800  0.41990700  0.24890400  1
  O  O49  1  0.95344900  0.53354200  0.24890400  1
  O  O50  1  0.58009300  0.04655100  0.24890400  1
  O  O51  1  0.59830300  0.40765900  0.18392700  1
  O  O52  1  0.80935600  0.40169700  0.18392700  1
  O  O53  1  0.59234100  0.19064400  0.18392700  1
  O  O54  1  0.60307600  0.54234200  0.00000500  1
  O  O55  1  0.93926600  0.39692400  0.00000500  1
  O  O56  1  0.45765800  0.06073400  0.00000500  1
  O  O57  1  0.70201100  0.49111600  0.80773700  1
  O  O58  1  0.78910400  0.29798900  0.80773700  1
  O  O59  1  0.50888400  0.21089600  0.80773700  1
  O  O60  1  0.35741900  0.50967800  0.47879200  1
  O  O61  1  0.15225900  0.64258100  0.47879200  1
  O  O62  1  0.49032200  0.84774100  0.47879200  1
  O  O63  1  0.26393600  0.38261900  0.16909700  1
  O  O64  1  0.11868300  0.73606400  0.16909700  1
  O  O65  1  0.61738100  0.88131700  0.16909700  1
  O  O66  1  0.26927200  0.52352500  0.09540100  1
  O  O67  1  0.25425300  0.73072800  0.09540100  1
  O  O68  1  0.47647500  0.74574700  0.09540100  1
  O  O69  1  0.13939100  0.39039200  0.90785600  1
  O  O70  1  0.25100100  0.86060900  0.90785600  1
  O  O71  1  0.60960800  0.74899900  0.90785600  1
  O  O72  1  0.18318700  0.53859500  0.71549800  1
  O  O73  1  0.35540800  0.81681300  0.71549800  1
  O  O74  1  0.46140500  0.64459200  0.71549800  1
  O  O75  1  0.11470000  0.14737400  0.44282400  1
  O  O76  1  0.03267400  0.88530000  0.44282400  1
  O  O77  1  0.85262600  0.96732600  0.44282400  1
  O  O78  1  0.26864100  0.19520200  0.30970700  1
  O  O79  1  0.92656100  0.73135900  0.30970700  1
  O  O80  1  0.80479800  0.07343900  0.30970700  1
  O  O81  1  0.14319000  0.06686900  0.07320000  1
  O  O82  1  0.92367900  0.85681000  0.07320000  1
  O  O83  1  0.93313100  0.07632100  0.07320000  1
  O  O84  1  0.28669400  0.07695500  0.04504400  1
  O  O85  1  0.79026200  0.71330600  0.04504400  1
  O  O86  1  0.92304500  0.20973800  0.04504400  1
  O  O87  1  0.17118000  0.98454600  0.69308000  1
  O  O88  1  0.81336500  0.82882000  0.69308000  1
  O  O89  1  0.01545400  0.18663500  0.69308000  1
  O  O90  1  0.51598300  0.57656200  0.35008500  1
  O  O91  1  0.06057900  0.48401700  0.35008500  1
  O  O92  1  0.42343800  0.93942100  0.35008500  1
  O  O93  1  0.45156800  0.50316200  0.85050300  1
  O  O94  1  0.05159400  0.54843200  0.85050300  1
  O  O95  1  0.49683800  0.94840600  0.85050300  1
  O  O96  1  0.10801100  0.28055300  0.29989000  1
  O  O97  1  0.17254300  0.89198900  0.29989000  1
  O  O98  1  0.71944700  0.82745700  0.29989000  1
  O  O99  1  0.17474100  0.27252900  0.80028900  1
  O  O100  1  0.09778800  0.82525900  0.80028900  1
  O  O101  1  0.72747100  0.90221200  0.80028900  1
  O  O102  1  0.39005600  0.16627200  0.43216000  1
  O  O103  1  0.77621600  0.60994400  0.43216000  1
  O  O104  1  0.83372800  0.22378400  0.43216000  1
  O  O105  1  0.38394100  0.23411000  0.93291700  1
  O  O106  1  0.85016900  0.61605900  0.93291700  1
  O  O107  1  0.76589000  0.14983100  0.93291700  1
