# generated using pymatgen
data_Ti3Fe3(BiO3)7
_symmetry_space_group_name_H-M   'P 1'
_cell_length_a   4.04050192
_cell_length_b   4.04050192
_cell_length_c   28.39943618
_cell_angle_alpha   85.80550104
_cell_angle_beta   86.31916964
_cell_angle_gamma   91.98704692
_symmetry_Int_Tables_number   1
_chemical_formula_structural   Ti3Fe3(BiO3)7
_chemical_formula_sum   'Ti3 Fe3 Bi7 O21'
_cell_volume   461.08255049
_cell_formula_units_Z   1
loop_
 _symmetry_equiv_pos_site_id
 _symmetry_equiv_pos_as_xyz
  1  'x, y, z'
loop_
 _atom_site_type_symbol
 _atom_site_label
 _atom_site_symmetry_multiplicity
 _atom_site_fract_x
 _atom_site_fract_y
 _atom_site_fract_z
 _atom_site_occupancy
  Ti  Ti0  1  0.43245500  0.49586600  0.07167900  1
  Ti  Ti1  1  0.67125000  0.68823900  0.64051100  1
  Ti  Ti2  1  0.31037600  0.33165000  0.35797400  1
  Fe  Fe3  1  0.48839200  0.58148700  0.93012100  1
  Fe  Fe4  1  0.57604800  0.63757000  0.78638200  1
  Fe  Fe5  1  0.35661400  0.43059800  0.21278800  1
  Bi  Bi6  1  0.90679700  0.80351400  0.28968900  1
  Bi  Bi7  1  0.20243100  0.08965100  0.70791800  1
  Bi  Bi8  1  0.02765000  0.97871300  0.99363800  1
  Bi  Bi9  1  0.95653000  0.89499800  0.14847200  1
  Bi  Bi10  1  0.11694800  0.03350600  0.84954600  1
  Bi  Bi11  1  0.85963900  0.68559900  0.45476200  1
  Bi  Bi12  1  0.31220800  0.14523700  0.54255500  1
  O  O13  1  0.23951800  0.33990400  0.42057800  1
  O  O14  1  0.66208700  0.75933300  0.57858000  1
  O  O15  1  0.40092400  0.59572700  0.00334900  1
  O  O16  1  0.61634200  0.21681500  0.65151000  1
  O  O17  1  0.77795200  0.39097000  0.34757800  1
  O  O18  1  0.13167500  0.73214800  0.65151000  1
  O  O19  1  0.26145200  0.87447000  0.34757800  1
  O  O20  1  0.48580000  0.65420200  0.85999800  1
  O  O21  1  0.33722300  0.52256700  0.14021000  1
  O  O22  1  0.96471800  0.63225400  0.93542200  1
  O  O23  1  0.36699600  0.04533500  0.07232900  1
  O  O24  1  0.43232400  0.09986000  0.93542200  1
  O  O25  1  0.88233600  0.56067500  0.07232900  1
  O  O26  1  0.27827600  0.72097300  0.49943000  1
  O  O27  1  0.77959600  0.22229400  0.49943000  1
  O  O28  1  0.51765900  0.15678600  0.79137600  1
  O  O29  1  0.83671100  0.48988400  0.20822000  1
  O  O30  1  0.05183800  0.69096500  0.79137600  1
  O  O31  1  0.30189600  0.95506900  0.20822000  1
  O  O32  1  0.57211800  0.71070100  0.71718000  1
  O  O33  1  0.28422100  0.43343800  0.28234100  1
