# generated using pymatgen
data_U3(Mo5O16)4
_symmetry_space_group_name_H-M   'P 1'
_cell_length_a   8.19164824
_cell_length_b   15.38866853
_cell_length_c   10.89832343
_cell_angle_alpha   95.77038803
_cell_angle_beta   112.07509487
_cell_angle_gamma   74.48288439
_symmetry_Int_Tables_number   1
_chemical_formula_structural   U3(Mo5O16)4
_chemical_formula_sum   'U3 Mo20 O64'
_cell_volume   1226.71026803
_cell_formula_units_Z   1
loop_
 _symmetry_equiv_pos_site_id
 _symmetry_equiv_pos_as_xyz
  1  'x, y, z'
loop_
 _atom_site_type_symbol
 _atom_site_label
 _atom_site_symmetry_multiplicity
 _atom_site_fract_x
 _atom_site_fract_y
 _atom_site_fract_z
 _atom_site_occupancy
  U  U0  1  0.75000000  0.50000000  0.00000000  1
  U  U1  1  0.00102000  0.99825300  0.00000000  1
  U  U2  1  0.49898000  0.00174700  0.00000000  1
  Mo  Mo3  1  0.89582100  0.62576100  0.31967000  1
  Mo  Mo4  1  0.38965000  0.62293400  0.30922400  1
  Mo  Mo5  1  0.41957400  0.37706600  0.30922400  1
  Mo  Mo6  1  0.92385000  0.37423900  0.31967000  1
  Mo  Mo7  1  0.76415100  0.87816300  0.31044000  1
  Mo  Mo8  1  0.27459200  0.87500500  0.32300900  1
  Mo  Mo9  1  0.54841700  0.12499500  0.32300900  1
  Mo  Mo10  1  0.04628800  0.12183700  0.31044000  1
  Mo  Mo11  1  0.60417900  0.37423900  0.68033000  1
  Mo  Mo12  1  0.11035000  0.37706600  0.69077600  1
  Mo  Mo13  1  0.08042600  0.62293400  0.69077600  1
  Mo  Mo14  1  0.57615000  0.62576100  0.68033000  1
  Mo  Mo15  1  0.73584900  0.12183700  0.68956000  1
  Mo  Mo16  1  0.22540800  0.12499500  0.67699100  1
  Mo  Mo17  1  0.95158300  0.87500500  0.67699100  1
  Mo  Mo18  1  0.45371200  0.87816300  0.68956000  1
  Mo  Mo19  1  0.67829100  0.74846500  0.00000000  1
  Mo  Mo20  1  0.17788700  0.75398600  0.00000000  1
  Mo  Mo21  1  0.32211300  0.24601400  0.00000000  1
  Mo  Mo22  1  0.82170900  0.25153500  0.00000000  1
  O  O23  1  0.96346700  0.59903300  0.49993400  1
  O  O24  1  0.46353400  0.59903300  0.50006600  1
  O  O25  1  0.53653300  0.40096700  0.50006600  1
  O  O26  1  0.03646600  0.40096700  0.49993400  1
  O  O27  1  0.81052300  0.90930900  0.50563500  1
  O  O28  1  0.30488800  0.90930900  0.49436500  1
  O  O29  1  0.68947700  0.09069100  0.49436500  1
  O  O30  1  0.19511200  0.09069100  0.50563500  1
  O  O31  1  0.25222400  0.66004100  0.13673900  1
  O  O32  1  0.75417100  0.64488700  0.12543200  1
  O  O33  1  0.87126100  0.35511300  0.12543200  1
  O  O34  1  0.38451500  0.33995900  0.13673900  1
  O  O35  1  0.14544900  0.85729300  0.12240800  1
  O  O36  1  0.64357300  0.85784700  0.11916400  1
  O  O37  1  0.97559100  0.14215300  0.11916400  1
  O  O38  1  0.47696000  0.14270700  0.12240800  1
  O  O39  1  0.24777600  0.33995900  0.86326100  1
  O  O40  1  0.74582900  0.35511300  0.87456800  1
  O  O41  1  0.62873900  0.64488700  0.87456800  1
  O  O42  1  0.11548500  0.66004100  0.86326100  1
  O  O43  1  0.35455100  0.14270700  0.87759200  1
  O  O44  1  0.85642700  0.14215300  0.88083600  1
  O  O45  1  0.52440900  0.85784700  0.88083600  1
  O  O46  1  0.02304000  0.85729300  0.87759200  1
  O  O47  1  0.10836300  0.62519600  0.31725400  1
  O  O48  1  0.60536500  0.62250700  0.31514500  1
  O  O49  1  0.20978000  0.37749300  0.31514500  1
  O  O50  1  0.70889100  0.37480400  0.31725400  1
  O  O51  1  0.97970400  0.87814100  0.31612200  1
  O  O52  1  0.48464000  0.87645500  0.31585000  1
  O  O53  1  0.33121000  0.12354500  0.31585000  1
  O  O54  1  0.83641800  0.12185900  0.31612200  1
  O  O55  1  0.39163700  0.37480400  0.68274600  1
  O  O56  1  0.89463500  0.37749300  0.68485500  1
  O  O57  1  0.29022000  0.62250700  0.68485500  1
  O  O58  1  0.79110900  0.62519600  0.68274600  1
  O  O59  1  0.52029600  0.12185900  0.68387800  1
  O  O60  1  0.01536000  0.12354500  0.68415000  1
  O  O61  1  0.16879000  0.87645500  0.68415000  1
  O  O62  1  0.66358200  0.87814100  0.68387800  1
  O  O63  1  0.89069800  0.75076300  0.00000000  1
  O  O64  1  0.39289400  0.75149700  0.00000000  1
  O  O65  1  0.10710600  0.24850300  0.00000000  1
  O  O66  1  0.60930200  0.24923700  0.00000000  1
  O  O67  1  0.81084400  0.74816200  0.34595600  1
  O  O68  1  0.31627200  0.75353100  0.35358600  1
  O  O69  1  0.03511300  0.25183800  0.34595600  1
  O  O70  1  0.53731400  0.24646900  0.35358600  1
  O  O71  1  0.18372800  0.24646900  0.64641400  1
  O  O72  1  0.68915600  0.25183800  0.65404400  1
  O  O73  1  0.96268600  0.75353100  0.64641400  1
  O  O74  1  0.46488700  0.74816200  0.65404400  1
  O  O75  1  0.52888100  0.50376300  0.00000000  1
  O  O76  1  0.97111900  0.49623700  0.00000000  1
  O  O77  1  0.25000000  0.00000000  0.00000000  1
  O  O78  1  0.75000000  0.00000000  0.00000000  1
  O  O79  1  0.88047900  0.50000000  0.26095700  1
  O  O80  1  0.38701900  0.50000000  0.27403800  1
  O  O81  1  0.61694400  0.00270600  0.24184000  1
  O  O82  1  0.12489600  0.99729400  0.24184000  1
  O  O83  1  0.11298100  0.50000000  0.72596200  1
  O  O84  1  0.61952100  0.50000000  0.73904300  1
  O  O85  1  0.88305600  0.99729400  0.75816000  1
  O  O86  1  0.37510400  0.00270600  0.75816000  1
