# generated using pymatgen
data_Tb4Fe34C3
_symmetry_space_group_name_H-M   'P 1'
_cell_length_a   6.45006200
_cell_length_b   6.48296100
_cell_length_c   12.92834652
_cell_angle_alpha   83.75081554
_cell_angle_beta   83.28270268
_cell_angle_gamma   83.91156195
_symmetry_Int_Tables_number   1
_chemical_formula_structural   Tb4Fe34C3
_chemical_formula_sum   'Tb4 Fe34 C3'
_cell_volume   531.31363434
_cell_formula_units_Z   1
loop_
 _symmetry_equiv_pos_site_id
 _symmetry_equiv_pos_as_xyz
  1  'x, y, z'
loop_
 _atom_site_type_symbol
 _atom_site_label
 _atom_site_symmetry_multiplicity
 _atom_site_fract_x
 _atom_site_fract_y
 _atom_site_fract_z
 _atom_site_occupancy
  Tb  Tb0  1  0.34825700  0.33550500  0.42349300  1
  Tb  Tb1  1  0.33931800  0.33890000  0.92543500  1
  Tb  Tb2  1  0.65174300  0.66449500  0.57650700  1
  Tb  Tb3  1  0.66068200  0.66110000  0.07456500  1
  Fe  Fe4  1  0.28473600  0.71410600  0.25003600  1
  Fe  Fe5  1  0.28526800  0.71458900  0.75059800  1
  Fe  Fe6  1  0.99878900  0.28595800  0.60758900  1
  Fe  Fe7  1  0.99859800  0.28760200  0.10532200  1
  Fe  Fe8  1  0.71322500  0.99826700  0.39335100  1
  Fe  Fe9  1  0.71117200  0.00218600  0.89447300  1
  Fe  Fe10  1  0.00121100  0.71404200  0.39241100  1
  Fe  Fe11  1  0.00140200  0.71239800  0.89467800  1
  Fe  Fe12  1  0.28677500  0.00173300  0.60664900  1
  Fe  Fe13  1  0.28882800  0.99781400  0.10552700  1
  Fe  Fe14  1  0.71526400  0.28589400  0.74996400  1
  Fe  Fe15  1  0.71473200  0.28541100  0.24940200  1
  Fe  Fe16  1  0.09645200  0.09722200  0.29816100  1
  Fe  Fe17  1  0.09579800  0.09574100  0.79940000  1
  Fe  Fe18  1  0.90354800  0.90277800  0.70183900  1
  Fe  Fe19  1  0.90420200  0.90425900  0.20060000  1
  Fe  Fe20  1  0.00000000  0.00000000  0.50000000  1
  Fe  Fe21  1  0.00000000  0.00000000  0.00000000  1
  Fe  Fe22  1  0.50015000  0.00088100  0.24954300  1
  Fe  Fe23  1  0.49985000  0.99911900  0.75045700  1
  Fe  Fe24  1  0.00216900  0.49921100  0.75114200  1
  Fe  Fe25  1  0.99783100  0.50078900  0.24885800  1
  Fe  Fe26  1  0.65461700  0.14648800  0.57715500  1
  Fe  Fe27  1  0.65512400  0.15020500  0.07671800  1
  Fe  Fe28  1  0.65511000  0.65890300  0.32302400  1
  Fe  Fe29  1  0.65769100  0.65700800  0.82561900  1
  Fe  Fe30  1  0.14813500  0.65824800  0.57831200  1
  Fe  Fe31  1  0.14941100  0.65558700  0.07674200  1
  Fe  Fe32  1  0.34538300  0.85351200  0.42284500  1
  Fe  Fe33  1  0.34487600  0.84979500  0.92328200  1
  Fe  Fe34  1  0.34489000  0.34109700  0.67697600  1
  Fe  Fe35  1  0.34230900  0.34299200  0.17438100  1
  Fe  Fe36  1  0.85186500  0.34175200  0.42168800  1
  Fe  Fe37  1  0.85058900  0.34441300  0.92325800  1
  C  C38  1  0.50049900  0.50065700  0.75078900  1
  C  C39  1  0.49950100  0.49934300  0.24921100  1
  C  C40  1  0.00000000  0.50000000  0.50000000  1
