# generated using pymatgen
data_ZnCu15H24(ClO3)8
_symmetry_space_group_name_H-M   'P 1'
_cell_length_a   9.20396900
_cell_length_b   9.27155764
_cell_length_c   9.29831835
_cell_angle_alpha   97.00482133
_cell_angle_beta   97.24449536
_cell_angle_gamma   97.46993204
_symmetry_Int_Tables_number   1
_chemical_formula_structural   ZnCu15H24(ClO3)8
_chemical_formula_sum   'Zn1 Cu15 H24 Cl8 O24'
_cell_volume   772.69998763
_cell_formula_units_Z   1
loop_
 _symmetry_equiv_pos_site_id
 _symmetry_equiv_pos_as_xyz
  1  'x, y, z'
loop_
 _atom_site_type_symbol
 _atom_site_label
 _atom_site_symmetry_multiplicity
 _atom_site_fract_x
 _atom_site_fract_y
 _atom_site_fract_z
 _atom_site_occupancy
  Zn  Zn0  1  0.00000000  0.50000000  0.00000000  1
  Cu  Cu1  1  0.75296600  0.99692900  0.25595300  1
  Cu  Cu2  1  0.99577000  0.25519900  0.75272800  1
  Cu  Cu3  1  0.25485700  0.75513300  0.99698000  1
  Cu  Cu4  1  0.24703400  0.00307100  0.74404700  1
  Cu  Cu5  1  0.00423000  0.74480100  0.24727200  1
  Cu  Cu6  1  0.74514300  0.24486700  0.00302000  1
  Cu  Cu7  1  0.50000000  0.50000000  0.50000000  1
  Cu  Cu8  1  0.50000000  0.00000000  0.00000000  1
  Cu  Cu9  1  0.00000000  0.00000000  0.50000000  1
  Cu  Cu10  1  0.49849700  0.24478600  0.25435500  1
  Cu  Cu11  1  0.24552500  0.25490500  0.50047300  1
  Cu  Cu12  1  0.25377300  0.49689900  0.24372500  1
  Cu  Cu13  1  0.50150300  0.75521400  0.74564500  1
  Cu  Cu14  1  0.75447500  0.74509500  0.49952700  1
  Cu  Cu15  1  0.74622700  0.50310100  0.75627500  1
  H  H16  1  0.48207600  0.77762200  0.47518700  1
  H  H17  1  0.77547900  0.47312100  0.48295100  1
  H  H18  1  0.47430200  0.48438600  0.78204100  1
  H  H19  1  0.51792400  0.22237800  0.52481300  1
  H  H20  1  0.22452100  0.52687900  0.51704900  1
  H  H21  1  0.52569800  0.51561400  0.21795900  1
  H  H22  1  0.48580100  0.97822000  0.29402000  1
  H  H23  1  0.97807000  0.29329200  0.48661500  1
  H  H24  1  0.29037700  0.48553400  0.97759200  1
  H  H25  1  0.51419900  0.02178000  0.70598000  1
  H  H26  1  0.02193000  0.70670800  0.51338500  1
  H  H27  1  0.70962300  0.51446600  0.02240800  1
  H  H28  1  0.77279600  0.97206300  0.98168700  1
  H  H29  1  0.97256400  0.98228300  0.77402300  1
  H  H30  1  0.98080800  0.77950300  0.97500500  1
  H  H31  1  0.22720400  0.02793700  0.01831300  1
  H  H32  1  0.02743600  0.01771700  0.22597700  1
  H  H33  1  0.01919200  0.22049700  0.02499500  1
  H  H34  1  0.46704300  0.26074200  0.97604000  1
  H  H35  1  0.26176100  0.97627100  0.46781600  1
  H  H36  1  0.97670800  0.46919000  0.26775800  1
  H  H37  1  0.53295700  0.73925800  0.02396000  1
  H  H38  1  0.73823900  0.02372900  0.53218400  1
  H  H39  1  0.02329200  0.53081000  0.73224200  1
  Cl  Cl40  1  0.81770500  0.32119200  0.31412000  1
  Cl  Cl41  1  0.32199400  0.31335400  0.81868400  1
  Cl  Cl42  1  0.31408500  0.81830500  0.32192200  1
  Cl  Cl43  1  0.18229500  0.67880800  0.68588000  1
  Cl  Cl44  1  0.67800600  0.68664600  0.18131600  1
  Cl  Cl45  1  0.68591500  0.18169500  0.67807800  1
  Cl  Cl46  1  0.81897500  0.82008100  0.81924000  1
  Cl  Cl47  1  0.18102500  0.17991900  0.18076000  1
  O  O48  1  0.72771000  0.03881300  0.05002600  1
  O  O49  1  0.04109900  0.04961700  0.72858200  1
  O  O50  1  0.04813500  0.73338800  0.04194200  1
  O  O51  1  0.27229000  0.96118700  0.94997400  1
  O  O52  1  0.95890100  0.95038300  0.27141800  1
  O  O53  1  0.95186500  0.26661200  0.95805800  1
  O  O54  1  0.53621400  0.21796000  0.04561600  1
  O  O55  1  0.21698900  0.04438400  0.53575000  1
  O  O56  1  0.04695800  0.53839100  0.22570000  1
  O  O57  1  0.46378600  0.78204000  0.95438400  1
  O  O58  1  0.78301100  0.95561600  0.46425000  1
  O  O59  1  0.95304200  0.46160900  0.77430000  1
  O  O60  1  0.54945100  0.73143800  0.54260400  1
  O  O61  1  0.72494900  0.53936000  0.54656200  1
  O  O62  1  0.54469400  0.55250400  0.73923300  1
  O  O63  1  0.45054900  0.26856200  0.45739600  1
  O  O64  1  0.27505100  0.46064000  0.45343800  1
  O  O65  1  0.45530600  0.44749600  0.26076700  1
  O  O66  1  0.55654400  0.05046300  0.25807400  1
  O  O67  1  0.04899600  0.25417300  0.55568800  1
  O  O68  1  0.24447300  0.55183200  0.04480700  1
  O  O69  1  0.44345600  0.94953700  0.74192600  1
  O  O70  1  0.95100400  0.74582700  0.44431200  1
  O  O71  1  0.75552700  0.44816800  0.95519300  1
