# generated using pymatgen
data_Tb2Al3Pt
_symmetry_space_group_name_H-M   'P 1'
_cell_length_a   5.43953251
_cell_length_b   5.43953251
_cell_length_c   5.43953337
_cell_angle_alpha   61.35316898
_cell_angle_beta   61.35316898
_cell_angle_gamma   61.35316647
_symmetry_Int_Tables_number   1
_chemical_formula_structural   Tb2Al3Pt
_chemical_formula_sum   'Tb2 Al3 Pt1'
_cell_volume   117.26766902
_cell_formula_units_Z   1
loop_
 _symmetry_equiv_pos_site_id
 _symmetry_equiv_pos_as_xyz
  1  'x, y, z'
loop_
 _atom_site_type_symbol
 _atom_site_label
 _atom_site_symmetry_multiplicity
 _atom_site_fract_x
 _atom_site_fract_y
 _atom_site_fract_z
 _atom_site_occupancy
  Tb  Tb0  1  0.62504000  0.62504000  0.62504000  1
  Tb  Tb1  1  0.37496000  0.37496000  0.37496000  1
  Al  Al2  1  0.00000000  0.50000000  0.00000000  1
  Al  Al3  1  0.50000000  0.00000000  0.00000000  1
  Al  Al4  1  0.00000000  0.00000000  0.50000000  1
  Pt  Pt5  1  0.00000000  0.00000000  0.00000000  1
