# generated using pymatgen
data_Tb2MnCrO6
_symmetry_space_group_name_H-M   'P 1'
_cell_length_a   5.75038400
_cell_length_b   5.38181000
_cell_length_c   9.18761447
_cell_angle_alpha   54.71965110
_cell_angle_beta   90.00000000
_cell_angle_gamma   90.00000000
_symmetry_Int_Tables_number   1
_chemical_formula_structural   Tb2MnCrO6
_chemical_formula_sum   'Tb4 Mn2 Cr2 O12'
_cell_volume   232.11156451
_cell_formula_units_Z   2
loop_
 _symmetry_equiv_pos_site_id
 _symmetry_equiv_pos_as_xyz
  1  'x, y, z'
loop_
 _atom_site_type_symbol
 _atom_site_label
 _atom_site_symmetry_multiplicity
 _atom_site_fract_x
 _atom_site_fract_y
 _atom_site_fract_z
 _atom_site_occupancy
  Tb  Tb0  1  0.57147200  0.73071200  0.75045000  1
  Tb  Tb1  1  0.07147200  0.26928800  0.74955000  1
  Tb  Tb2  1  0.42852800  0.26928800  0.24955000  1
  Tb  Tb3  1  0.92852800  0.73071200  0.25045000  1
  Mn  Mn4  1  0.50000000  0.00000000  0.00000000  1
  Mn  Mn5  1  0.00000000  0.00000000  0.50000000  1
  Cr  Cr6  1  0.50000000  0.50000000  0.50000000  1
  Cr  Cr7  1  0.00000000  0.50000000  0.00000000  1
  O  O8  1  0.81374200  0.25402800  0.94266400  1
  O  O9  1  0.31374200  0.74597200  0.55733600  1
  O  O10  1  0.19506200  0.36489000  0.44621200  1
  O  O11  1  0.69506200  0.63511000  0.05378800  1
  O  O12  1  0.18625800  0.74597200  0.05733600  1
  O  O13  1  0.68625800  0.25402800  0.44266400  1
  O  O14  1  0.80493800  0.63511000  0.55378800  1
  O  O15  1  0.30493800  0.36489000  0.94621200  1
  O  O16  1  0.96018500  0.86739200  0.74476300  1
  O  O17  1  0.46018500  0.13260800  0.75523700  1
  O  O18  1  0.03981500  0.13260800  0.25523700  1
  O  O19  1  0.53981500  0.86739200  0.24476300  1
