# generated using pymatgen
data_Tb4Si7
_symmetry_space_group_name_H-M   'P 1'
_cell_length_a   5.65424846
_cell_length_b   5.65424846
_cell_length_c   13.99290851
_cell_angle_alpha   89.33646698
_cell_angle_beta   89.33646698
_cell_angle_gamma   89.40760124
_symmetry_Int_Tables_number   1
_chemical_formula_structural   Tb4Si7
_chemical_formula_sum   'Tb8 Si14'
_cell_volume   447.27734590
_cell_formula_units_Z   2
loop_
 _symmetry_equiv_pos_site_id
 _symmetry_equiv_pos_as_xyz
  1  'x, y, z'
loop_
 _atom_site_type_symbol
 _atom_site_label
 _atom_site_symmetry_multiplicity
 _atom_site_fract_x
 _atom_site_fract_y
 _atom_site_fract_z
 _atom_site_occupancy
  Tb  Tb0  1  0.88551900  0.37929300  0.12831400  1
  Tb  Tb1  1  0.62070700  0.11448100  0.87168600  1
  Tb  Tb2  1  0.87258900  0.87258900  0.62615600  1
  Tb  Tb3  1  0.12741100  0.12741100  0.37384400  1
  Tb  Tb4  1  0.37929300  0.88551900  0.12831400  1
  Tb  Tb5  1  0.11448100  0.62070700  0.87168600  1
  Tb  Tb6  1  0.37404800  0.37404800  0.62968300  1
  Tb  Tb7  1  0.62595200  0.62595200  0.37031700  1
  Si  Si8  1  0.86309600  0.37756200  0.71293900  1
  Si  Si9  1  0.62243800  0.13690400  0.28706100  1
  Si  Si10  1  0.88000200  0.88000200  0.20207900  1
  Si  Si11  1  0.11999800  0.11999800  0.79792100  1
  Si  Si12  1  0.37756200  0.86309600  0.71293900  1
  Si  Si13  1  0.13690400  0.62243800  0.28706100  1
  Si  Si14  1  0.38147000  0.38147000  0.18440100  1
  Si  Si15  1  0.61853000  0.61853000  0.81559900  1
  Si  Si16  1  0.87402500  0.37412700  0.54398100  1
  Si  Si17  1  0.62587300  0.12597500  0.45601900  1
  Si  Si18  1  0.85704300  0.85704300  0.03222000  1
  Si  Si19  1  0.14295700  0.14295700  0.96778000  1
  Si  Si20  1  0.37412700  0.87402500  0.54398100  1
  Si  Si21  1  0.12597500  0.62587300  0.45601900  1
