# generated using pymatgen
data_Tb2Fe17CN
_symmetry_space_group_name_H-M   'P 1'
_cell_length_a   6.44374600
_cell_length_b   6.47318531
_cell_length_c   6.50734918
_cell_angle_alpha   83.69436051
_cell_angle_beta   83.44790655
_cell_angle_gamma   83.00790856
_symmetry_Int_Tables_number   1
_chemical_formula_structural   Tb2Fe17CN
_chemical_formula_sum   'Tb2 Fe17 C1 N1'
_cell_volume   266.38349987
_cell_formula_units_Z   1
loop_
 _symmetry_equiv_pos_site_id
 _symmetry_equiv_pos_as_xyz
  1  'x, y, z'
loop_
 _atom_site_type_symbol
 _atom_site_label
 _atom_site_symmetry_multiplicity
 _atom_site_fract_x
 _atom_site_fract_y
 _atom_site_fract_z
 _atom_site_occupancy
  Tb  Tb0  1  0.66125300  0.65293100  0.66024400  1
  Tb  Tb1  1  0.33874700  0.34706900  0.33975600  1
  Fe  Fe2  1  0.71344800  0.00186600  0.28488900  1
  Fe  Fe3  1  0.00044200  0.28294000  0.71703000  1
  Fe  Fe4  1  0.29166100  0.71011100  0.99839700  1
  Fe  Fe5  1  0.99955800  0.71706000  0.28297000  1
  Fe  Fe6  1  0.70833900  0.28988900  0.00160300  1
  Fe  Fe7  1  0.28655200  0.99813400  0.71511100  1
  Fe  Fe8  1  0.90413700  0.90472900  0.90467900  1
  Fe  Fe9  1  0.09586300  0.09527100  0.09532100  1
  Fe  Fe10  1  0.34504400  0.85262700  0.34057300  1
  Fe  Fe11  1  0.85072000  0.34342100  0.34079500  1
  Fe  Fe12  1  0.34420500  0.34266900  0.85240700  1
  Fe  Fe13  1  0.65495600  0.14737300  0.65942700  1
  Fe  Fe14  1  0.14928000  0.65657900  0.65920500  1
  Fe  Fe15  1  0.65579500  0.65733100  0.14759300  1
  Fe  Fe16  1  0.00000000  0.50000000  0.00000000  1
  Fe  Fe17  1  0.50000000  0.00000000  0.00000000  1
  Fe  Fe18  1  0.00000000  0.00000000  0.50000000  1
  C  C19  1  0.50000000  0.00000000  0.50000000  1
  N  N20  1  0.00000000  0.50000000  0.50000000  1
