# generated using pymatgen
data_TbEr(TiFe11)2
_symmetry_space_group_name_H-M   'P 1'
_cell_length_a   4.71180600
_cell_length_b   6.43091283
_cell_length_c   11.96836624
_cell_angle_alpha   89.91070746
_cell_angle_beta   90.00000000
_cell_angle_gamma   111.49009482
_symmetry_Int_Tables_number   1
_chemical_formula_structural   TbEr(TiFe11)2
_chemical_formula_sum   'Tb1 Er1 Ti2 Fe22'
_cell_volume   337.44403379
_cell_formula_units_Z   1
loop_
 _symmetry_equiv_pos_site_id
 _symmetry_equiv_pos_as_xyz
  1  'x, y, z'
loop_
 _atom_site_type_symbol
 _atom_site_label
 _atom_site_symmetry_multiplicity
 _atom_site_fract_x
 _atom_site_fract_y
 _atom_site_fract_z
 _atom_site_occupancy
  Tb  Tb0  1  0.50287600  0.00575300  0.50303600  1
  Er  Er1  1  0.00313800  0.00627600  0.00295900  1
  Ti  Ti2  1  0.31616100  0.63232300  0.31560800  1
  Ti  Ti3  1  0.81620400  0.63240800  0.81664400  1
  Fe  Fe4  1  0.39043500  0.78087000  0.10842300  1
  Fe  Fe5  1  0.88916000  0.77832100  0.61053400  1
  Fe  Fe6  1  0.11008200  0.22016400  0.38867900  1
  Fe  Fe7  1  0.60891500  0.21783100  0.89050500  1
  Fe  Fe8  1  0.88725800  0.77451600  0.38679800  1
  Fe  Fe9  1  0.38823400  0.77646800  0.88853600  1
  Fe  Fe10  1  0.61492600  0.22985200  0.11469100  1
  Fe  Fe11  1  0.11575400  0.23150800  0.61629500  1
  Fe  Fe12  1  0.25060400  0.00188900  0.24936800  1
  Fe  Fe13  1  0.75109900  0.00194800  0.75073400  1
  Fe  Fe14  1  0.75128500  0.00188900  0.24936800  1
  Fe  Fe15  1  0.25084900  0.00194800  0.75073400  1
  Fe  Fe16  1  0.00032900  0.49987800  0.00106000  1
  Fe  Fe17  1  0.50020800  0.49986300  0.50099400  1
  Fe  Fe18  1  0.49954900  0.49987800  0.00106000  1
  Fe  Fe19  1  0.99965500  0.49986300  0.50099400  1
  Fe  Fe20  1  0.67833600  0.35667100  0.32102300  1
  Fe  Fe21  1  0.17813300  0.35626500  0.82245800  1
  Fe  Fe22  1  0.82186700  0.64373400  0.17750300  1
  Fe  Fe23  1  0.32172700  0.64345400  0.67869200  1
  Fe  Fe24  1  0.17655100  0.35310100  0.17607900  1
  Fe  Fe25  1  0.67666500  0.35333000  0.67722500  1
