# generated using pymatgen
data_Ti2NbNi9
_symmetry_space_group_name_H-M   'P 1'
_cell_length_a   13.56196141
_cell_length_b   13.56196141
_cell_length_c   8.44131100
_cell_angle_alpha   90.00000000
_cell_angle_beta   90.00000000
_cell_angle_gamma   158.22350851
_symmetry_Int_Tables_number   1
_chemical_formula_structural   Ti2NbNi9
_chemical_formula_sum   'Ti8 Nb4 Ni36'
_cell_volume   575.98798040
_cell_formula_units_Z   4
loop_
 _symmetry_equiv_pos_site_id
 _symmetry_equiv_pos_as_xyz
  1  'x, y, z'
loop_
 _atom_site_type_symbol
 _atom_site_label
 _atom_site_symmetry_multiplicity
 _atom_site_fract_x
 _atom_site_fract_y
 _atom_site_fract_z
 _atom_site_occupancy
  Ti  Ti0  1  0.77742800  0.22257200  0.00000000  1
  Ti  Ti1  1  0.44191200  0.55808800  0.00000000  1
  Ti  Ti2  1  0.99919200  0.00080800  0.24941100  1
  Ti  Ti3  1  0.66629100  0.33370900  0.25006300  1
  Ti  Ti4  1  0.33263200  0.66736800  0.24953900  1
  Ti  Ti5  1  0.99919200  0.00080800  0.75058900  1
  Ti  Ti6  1  0.66629100  0.33370900  0.74993700  1
  Ti  Ti7  1  0.33263200  0.66736800  0.75046100  1
  Nb  Nb8  1  0.55501000  0.44499000  0.50000000  1
  Nb  Nb9  1  0.22351500  0.77648500  0.50000000  1
  Nb  Nb10  1  0.88924400  0.11075600  0.50000000  1
  Nb  Nb11  1  0.10969100  0.89030900  0.00000000  1
  Ni  Ni12  1  0.38311300  0.10593500  0.50000000  1
  Ni  Ni13  1  0.04885600  0.43793800  0.50000000  1
  Ni  Ni14  1  0.71574700  0.77304300  0.50000000  1
  Ni  Ni15  1  0.89406500  0.61688700  0.50000000  1
  Ni  Ni16  1  0.56206200  0.95114400  0.50000000  1
  Ni  Ni17  1  0.22695700  0.28425300  0.50000000  1
  Ni  Ni18  1  0.05636000  0.94364000  0.50000000  1
  Ni  Ni19  1  0.72313000  0.27687000  0.50000000  1
  Ni  Ni20  1  0.38947600  0.61052400  0.50000000  1
  Ni  Ni21  1  0.28447600  0.23142900  0.00000000  1
  Ni  Ni22  1  0.94979400  0.56092300  0.00000000  1
  Ni  Ni23  1  0.61735300  0.89651500  0.00000000  1
  Ni  Ni24  1  0.76857100  0.71552400  0.00000000  1
  Ni  Ni25  1  0.43907700  0.05020600  0.00000000  1
  Ni  Ni26  1  0.10348500  0.38264700  0.00000000  1
  Ni  Ni27  1  0.60884400  0.39115600  0.00000000  1
  Ni  Ni28  1  0.27574400  0.72425600  0.00000000  1
  Ni  Ni29  1  0.94219600  0.05780400  0.00000000  1
  Ni  Ni30  1  0.16666200  0.83333800  0.24970900  1
  Ni  Ni31  1  0.83295100  0.16704900  0.24747000  1
  Ni  Ni32  1  0.49894800  0.50105200  0.24706200  1
  Ni  Ni33  1  0.83285400  0.66722100  0.24981400  1
  Ni  Ni34  1  0.50226100  0.00296100  0.24738700  1
  Ni  Ni35  1  0.16744700  0.33545900  0.24754400  1
  Ni  Ni36  1  0.33277900  0.16714600  0.24981400  1
  Ni  Ni37  1  0.99703900  0.49773900  0.24738700  1
  Ni  Ni38  1  0.66454100  0.83255300  0.24754400  1
  Ni  Ni39  1  0.16666200  0.83333800  0.75029100  1
  Ni  Ni40  1  0.83295100  0.16704900  0.75253000  1
  Ni  Ni41  1  0.49894800  0.50105200  0.75293800  1
  Ni  Ni42  1  0.83285400  0.66722100  0.75018600  1
  Ni  Ni43  1  0.50226100  0.00296100  0.75261300  1
  Ni  Ni44  1  0.16744700  0.33545900  0.75245600  1
  Ni  Ni45  1  0.33277900  0.16714600  0.75018600  1
  Ni  Ni46  1  0.99703900  0.49773900  0.75261300  1
  Ni  Ni47  1  0.66454100  0.83255300  0.75245600  1
