# generated using pymatgen
data_Ta2Co(ReSe4)2
_symmetry_space_group_name_H-M   'P 1'
_cell_length_a   3.48006191
_cell_length_b   3.48006191
_cell_length_c   25.00296800
_cell_angle_alpha   90.00000000
_cell_angle_beta   90.00000000
_cell_angle_gamma   119.99999837
_symmetry_Int_Tables_number   1
_chemical_formula_structural   Ta2Co(ReSe4)2
_chemical_formula_sum   'Ta2 Co1 Re2 Se8'
_cell_volume   262.23831466
_cell_formula_units_Z   1
loop_
 _symmetry_equiv_pos_site_id
 _symmetry_equiv_pos_as_xyz
  1  'x, y, z'
loop_
 _atom_site_type_symbol
 _atom_site_label
 _atom_site_symmetry_multiplicity
 _atom_site_fract_x
 _atom_site_fract_y
 _atom_site_fract_z
 _atom_site_occupancy
  Ta  Ta0  1  0.00000000  0.00000000  0.12871500  1
  Ta  Ta1  1  0.00000000  0.00000000  0.62481200  1
  Co  Co2  1  0.00000000  0.00000000  0.25536200  1
  Re  Re3  1  0.00000000  0.00000000  0.37110500  1
  Re  Re4  1  0.00000000  0.00000000  0.87487100  1
  Se  Se5  1  0.66666700  0.33333300  0.30550000  1
  Se  Se6  1  0.66666700  0.33333300  0.81277500  1
  Se  Se7  1  0.33333300  0.66666700  0.19642800  1
  Se  Se8  1  0.33333300  0.66666700  0.69139400  1
  Se  Se9  1  0.33333300  0.66666700  0.06209000  1
  Se  Se10  1  0.33333300  0.66666700  0.55812000  1
  Se  Se11  1  0.66666700  0.33333300  0.43211400  1
  Se  Se12  1  0.66666700  0.33333300  0.93671400  1
