# generated using pymatgen
data_Mn(SiO3)2
_symmetry_space_group_name_H-M   'P 1'
_cell_length_a   6.39253000
_cell_length_b   6.39253000
_cell_length_c   5.33091544
_cell_angle_alpha   75.11029432
_cell_angle_beta   75.11029432
_cell_angle_gamma   84.03569358
_symmetry_Int_Tables_number   1
_chemical_formula_structural   Mn(SiO3)2
_chemical_formula_sum   'Mn2 Si4 O12'
_cell_volume   203.29359146
_cell_formula_units_Z   2
loop_
 _symmetry_equiv_pos_site_id
 _symmetry_equiv_pos_as_xyz
  1  'x, y, z'
loop_
 _atom_site_type_symbol
 _atom_site_label
 _atom_site_symmetry_multiplicity
 _atom_site_fract_x
 _atom_site_fract_y
 _atom_site_fract_z
 _atom_site_occupancy
  Mn  Mn0  1  0.90703500  0.09296500  0.75000000  1
  Mn  Mn1  1  0.09296500  0.90703500  0.25000000  1
  Si  Si2  1  0.78725600  0.60838200  0.74823200  1
  Si  Si3  1  0.39161800  0.21274400  0.75176800  1
  Si  Si4  1  0.60838200  0.78725600  0.24823200  1
  Si  Si5  1  0.21274400  0.39161800  0.25176800  1
  O  O6  1  0.63924100  0.64153300  0.53460500  1
  O  O7  1  0.35846700  0.36075900  0.96539500  1
  O  O8  1  0.36075900  0.35846700  0.46539500  1
  O  O9  1  0.64153300  0.63924100  0.03460500  1
  O  O10  1  0.91032700  0.37146800  0.78837900  1
  O  O11  1  0.62853200  0.08967300  0.71162100  1
  O  O12  1  0.08967300  0.62853200  0.21162100  1
  O  O13  1  0.37146800  0.91032700  0.28837900  1
  O  O14  1  0.80848000  0.96522800  0.13608900  1
  O  O15  1  0.03477200  0.19152000  0.36391100  1
  O  O16  1  0.96522800  0.80848000  0.63608900  1
  O  O17  1  0.19152000  0.03477200  0.86391100  1
