# generated using pymatgen
data_SiSbO4
_symmetry_space_group_name_H-M   'P 1'
_cell_length_a   10.33250060
_cell_length_b   10.33250060
_cell_length_c   10.33250060
_cell_angle_alpha   109.47122063
_cell_angle_beta   109.47122063
_cell_angle_gamma   109.47122063
_symmetry_Int_Tables_number   1
_chemical_formula_structural   SiSbO4
_chemical_formula_sum   'Si12 Sb12 O48'
_cell_volume   849.16957651
_cell_formula_units_Z   12
loop_
 _symmetry_equiv_pos_site_id
 _symmetry_equiv_pos_as_xyz
  1  'x, y, z'
loop_
 _atom_site_type_symbol
 _atom_site_label
 _atom_site_symmetry_multiplicity
 _atom_site_fract_x
 _atom_site_fract_y
 _atom_site_fract_z
 _atom_site_occupancy
  Si  Si0  1  0.12500000  0.87500000  0.25000000  1
  Si  Si1  1  0.25000000  0.12500000  0.87500000  1
  Si  Si2  1  0.75000000  0.37500000  0.62500000  1
  Si  Si3  1  0.62500000  0.37500000  0.25000000  1
  Si  Si4  1  0.62500000  0.75000000  0.37500000  1
  Si  Si5  1  0.37500000  0.62500000  0.75000000  1
  Si  Si6  1  0.12500000  0.75000000  0.87500000  1
  Si  Si7  1  0.75000000  0.87500000  0.12500000  1
  Si  Si8  1  0.87500000  0.25000000  0.12500000  1
  Si  Si9  1  0.37500000  0.25000000  0.62500000  1
  Si  Si10  1  0.25000000  0.62500000  0.37500000  1
  Si  Si11  1  0.87500000  0.12500000  0.75000000  1
  Sb  Sb12  1  0.87500000  0.62500000  0.25000000  1
  Sb  Sb13  1  0.62500000  0.25000000  0.87500000  1
  Sb  Sb14  1  0.87500000  0.75000000  0.62500000  1
  Sb  Sb15  1  0.75000000  0.62500000  0.87500000  1
  Sb  Sb16  1  0.25000000  0.87500000  0.62500000  1
  Sb  Sb17  1  0.62500000  0.87500000  0.75000000  1
  Sb  Sb18  1  0.12500000  0.37500000  0.75000000  1
  Sb  Sb19  1  0.37500000  0.75000000  0.12500000  1
  Sb  Sb20  1  0.12500000  0.25000000  0.37500000  1
  Sb  Sb21  1  0.25000000  0.37500000  0.12500000  1
  Sb  Sb22  1  0.75000000  0.12500000  0.37500000  1
  Sb  Sb23  1  0.37500000  0.12500000  0.25000000  1
  O  O24  1  0.47314600  0.37047400  0.27550400  1
  O  O25  1  0.30235900  0.89732900  0.02685400  1
  O  O26  1  0.60267100  0.90503000  0.12952600  1
  O  O27  1  0.59497000  0.19764100  0.22449600  1
  O  O28  1  0.12952600  0.02685400  0.22449600  1
  O  O29  1  0.19764100  0.22449600  0.59497000  1
  O  O30  1  0.19764100  0.47314600  0.60267100  1
  O  O31  1  0.22449600  0.59497000  0.19764100  1
  O  O32  1  0.37047400  0.59497000  0.89732900  1
  O  O33  1  0.90503000  0.27550400  0.30235900  1
  O  O34  1  0.27550400  0.30235900  0.90503000  1
  O  O35  1  0.22449600  0.12952600  0.02685400  1
  O  O36  1  0.47314600  0.60267100  0.19764100  1
  O  O37  1  0.89732900  0.37047400  0.59497000  1
  O  O38  1  0.02685400  0.22449600  0.12952600  1
  O  O39  1  0.60267100  0.19764100  0.47314600  1
  O  O40  1  0.59497000  0.89732900  0.37047400  1
  O  O41  1  0.02685400  0.30235900  0.89732900  1
  O  O42  1  0.90503000  0.12952600  0.60267100  1
  O  O43  1  0.62952600  0.40503000  0.10267100  1
  O  O44  1  0.37047400  0.27550400  0.47314600  1
  O  O45  1  0.27550400  0.47314600  0.37047400  1
  O  O46  1  0.89732900  0.02685400  0.30235900  1
  O  O47  1  0.30235900  0.90503000  0.27550400  1
  O  O48  1  0.52685400  0.62952600  0.72449600  1
  O  O49  1  0.69764100  0.10267100  0.97314600  1
  O  O50  1  0.39732900  0.09497000  0.87047400  1
  O  O51  1  0.40503000  0.80235900  0.77550400  1
  O  O52  1  0.87047400  0.97314600  0.77550400  1
  O  O53  1  0.80235900  0.77550400  0.40503000  1
  O  O54  1  0.80235900  0.52685400  0.39732900  1
  O  O55  1  0.77550400  0.40503000  0.80235900  1
  O  O56  1  0.69764100  0.09497000  0.72449600  1
  O  O57  1  0.10267100  0.97314600  0.69764100  1
  O  O58  1  0.72449600  0.52685400  0.62952600  1
  O  O59  1  0.62952600  0.72449600  0.52685400  1
  O  O60  1  0.87047400  0.39732900  0.09497000  1
  O  O61  1  0.09497000  0.87047400  0.39732900  1
  O  O62  1  0.97314600  0.69764100  0.10267100  1
  O  O63  1  0.40503000  0.10267100  0.62952600  1
  O  O64  1  0.39732900  0.80235900  0.52685400  1
  O  O65  1  0.97314600  0.77550400  0.87047400  1
  O  O66  1  0.10267100  0.62952600  0.40503000  1
  O  O67  1  0.52685400  0.39732900  0.80235900  1
  O  O68  1  0.77550400  0.87047400  0.97314600  1
  O  O69  1  0.72449600  0.69764100  0.09497000  1
  O  O70  1  0.09497000  0.72449600  0.69764100  1
  O  O71  1  0.12952600  0.60267100  0.90503000  1
