# generated using pymatgen
data_Tb(CuSe)3
_symmetry_space_group_name_H-M   'P 1'
_cell_length_a   7.73699964
_cell_length_b   7.73699964
_cell_length_c   7.73699950
_cell_angle_alpha   53.75852111
_cell_angle_beta   53.75852111
_cell_angle_gamma   53.75851431
_symmetry_Int_Tables_number   1
_chemical_formula_structural   Tb(CuSe)3
_chemical_formula_sum   'Tb2 Cu6 Se6'
_cell_volume   279.70784379
_cell_formula_units_Z   2
loop_
 _symmetry_equiv_pos_site_id
 _symmetry_equiv_pos_as_xyz
  1  'x, y, z'
loop_
 _atom_site_type_symbol
 _atom_site_label
 _atom_site_symmetry_multiplicity
 _atom_site_fract_x
 _atom_site_fract_y
 _atom_site_fract_z
 _atom_site_occupancy
  Tb  Tb0  1  0.83358800  0.83358800  0.83358800  1
  Tb  Tb1  1  0.16641200  0.16641200  0.16641200  1
  Cu  Cu2  1  0.72126000  0.37482600  0.03202800  1
  Cu  Cu3  1  0.03202800  0.72126000  0.37482600  1
  Cu  Cu4  1  0.37482600  0.03202800  0.72126000  1
  Cu  Cu5  1  0.62517400  0.96797200  0.27874000  1
  Cu  Cu6  1  0.96797200  0.27874000  0.62517400  1
  Cu  Cu7  1  0.27874000  0.62517400  0.96797200  1
  Se  Se8  1  0.25567600  0.91122500  0.58189700  1
  Se  Se9  1  0.91122500  0.58189700  0.25567600  1
  Se  Se10  1  0.58189700  0.25567600  0.91122500  1
  Se  Se11  1  0.41810300  0.74432400  0.08877500  1
  Se  Se12  1  0.08877500  0.41810300  0.74432400  1
  Se  Se13  1  0.74432400  0.08877500  0.41810300  1
