# generated using pymatgen
data_SiSnO4
_symmetry_space_group_name_H-M   'P 1'
_cell_length_a   10.11591457
_cell_length_b   10.11591457
_cell_length_c   10.11591457
_cell_angle_alpha   109.47122063
_cell_angle_beta   109.47122063
_cell_angle_gamma   109.47122063
_symmetry_Int_Tables_number   1
_chemical_formula_structural   SiSnO4
_chemical_formula_sum   'Si12 Sn12 O48'
_cell_volume   796.88117655
_cell_formula_units_Z   12
loop_
 _symmetry_equiv_pos_site_id
 _symmetry_equiv_pos_as_xyz
  1  'x, y, z'
loop_
 _atom_site_type_symbol
 _atom_site_label
 _atom_site_symmetry_multiplicity
 _atom_site_fract_x
 _atom_site_fract_y
 _atom_site_fract_z
 _atom_site_occupancy
  Si  Si0  1  0.12500000  0.87500000  0.25000000  1
  Si  Si1  1  0.25000000  0.12500000  0.87500000  1
  Si  Si2  1  0.75000000  0.37500000  0.62500000  1
  Si  Si3  1  0.62500000  0.37500000  0.25000000  1
  Si  Si4  1  0.62500000  0.75000000  0.37500000  1
  Si  Si5  1  0.37500000  0.62500000  0.75000000  1
  Si  Si6  1  0.12500000  0.75000000  0.87500000  1
  Si  Si7  1  0.75000000  0.87500000  0.12500000  1
  Si  Si8  1  0.87500000  0.25000000  0.12500000  1
  Si  Si9  1  0.37500000  0.25000000  0.62500000  1
  Si  Si10  1  0.25000000  0.62500000  0.37500000  1
  Si  Si11  1  0.87500000  0.12500000  0.75000000  1
  Sn  Sn12  1  0.87500000  0.62500000  0.25000000  1
  Sn  Sn13  1  0.62500000  0.25000000  0.87500000  1
  Sn  Sn14  1  0.87500000  0.75000000  0.62500000  1
  Sn  Sn15  1  0.75000000  0.62500000  0.87500000  1
  Sn  Sn16  1  0.25000000  0.87500000  0.62500000  1
  Sn  Sn17  1  0.62500000  0.87500000  0.75000000  1
  Sn  Sn18  1  0.12500000  0.37500000  0.75000000  1
  Sn  Sn19  1  0.37500000  0.75000000  0.12500000  1
  Sn  Sn20  1  0.12500000  0.25000000  0.37500000  1
  Sn  Sn21  1  0.25000000  0.37500000  0.12500000  1
  Sn  Sn22  1  0.75000000  0.12500000  0.37500000  1
  Sn  Sn23  1  0.37500000  0.12500000  0.25000000  1
  O  O24  1  0.47017700  0.36950400  0.27585200  1
  O  O25  1  0.30567400  0.89932600  0.02982300  1
  O  O26  1  0.60067400  0.90634800  0.13049600  1
  O  O27  1  0.59365200  0.19432600  0.22414800  1
  O  O28  1  0.13049600  0.02982300  0.22414800  1
  O  O29  1  0.19432600  0.22414800  0.59365200  1
  O  O30  1  0.19432600  0.47017700  0.60067400  1
  O  O31  1  0.22414800  0.59365200  0.19432600  1
  O  O32  1  0.36950400  0.59365200  0.89932600  1
  O  O33  1  0.90634800  0.27585200  0.30567400  1
  O  O34  1  0.27585200  0.30567400  0.90634800  1
  O  O35  1  0.22414800  0.13049600  0.02982300  1
  O  O36  1  0.47017700  0.60067400  0.19432600  1
  O  O37  1  0.89932600  0.36950400  0.59365200  1
  O  O38  1  0.02982300  0.22414800  0.13049600  1
  O  O39  1  0.60067400  0.19432600  0.47017700  1
  O  O40  1  0.59365200  0.89932600  0.36950400  1
  O  O41  1  0.02982300  0.30567400  0.89932600  1
  O  O42  1  0.90634800  0.13049600  0.60067400  1
  O  O43  1  0.63049600  0.40634800  0.10067400  1
  O  O44  1  0.36950400  0.27585200  0.47017700  1
  O  O45  1  0.27585200  0.47017700  0.36950400  1
  O  O46  1  0.89932600  0.02982300  0.30567400  1
  O  O47  1  0.30567400  0.90634800  0.27585200  1
  O  O48  1  0.52982300  0.63049600  0.72414800  1
  O  O49  1  0.69432600  0.10067400  0.97017700  1
  O  O50  1  0.39932600  0.09365200  0.86950400  1
  O  O51  1  0.40634800  0.80567400  0.77585200  1
  O  O52  1  0.86950400  0.97017700  0.77585200  1
  O  O53  1  0.80567400  0.77585200  0.40634800  1
  O  O54  1  0.80567400  0.52982300  0.39932600  1
  O  O55  1  0.77585200  0.40634800  0.80567400  1
  O  O56  1  0.69432600  0.09365200  0.72414800  1
  O  O57  1  0.10067400  0.97017700  0.69432600  1
  O  O58  1  0.72414800  0.52982300  0.63049600  1
  O  O59  1  0.63049600  0.72414800  0.52982300  1
  O  O60  1  0.86950400  0.39932600  0.09365200  1
  O  O61  1  0.09365200  0.86950400  0.39932600  1
  O  O62  1  0.97017700  0.69432600  0.10067400  1
  O  O63  1  0.40634800  0.10067400  0.63049600  1
  O  O64  1  0.39932600  0.80567400  0.52982300  1
  O  O65  1  0.97017700  0.77585200  0.86950400  1
  O  O66  1  0.10067400  0.63049600  0.40634800  1
  O  O67  1  0.52982300  0.39932600  0.80567400  1
  O  O68  1  0.77585200  0.86950400  0.97017700  1
  O  O69  1  0.72414800  0.69432600  0.09365200  1
  O  O70  1  0.09365200  0.72414800  0.69432600  1
  O  O71  1  0.13049600  0.60067400  0.90634800  1
