# generated using pymatgen
data_TaTiSbO6
_symmetry_space_group_name_H-M   'P 1'
_cell_length_a   4.89873100
_cell_length_b   5.56348994
_cell_length_c   8.69563782
_cell_angle_alpha   91.30547352
_cell_angle_beta   106.29305931
_cell_angle_gamma   90.37934920
_symmetry_Int_Tables_number   1
_chemical_formula_structural   TaTiSbO6
_chemical_formula_sum   'Ta2 Ti2 Sb2 O12'
_cell_volume   227.39357362
_cell_formula_units_Z   2
loop_
 _symmetry_equiv_pos_site_id
 _symmetry_equiv_pos_as_xyz
  1  'x, y, z'
loop_
 _atom_site_type_symbol
 _atom_site_label
 _atom_site_symmetry_multiplicity
 _atom_site_fract_x
 _atom_site_fract_y
 _atom_site_fract_z
 _atom_site_occupancy
  Ta  Ta0  1  0.58535900  0.82194900  0.65100300  1
  Ta  Ta1  1  0.41464100  0.17805100  0.34899700  1
  Ti  Ti2  1  0.93795100  0.67517900  0.34668100  1
  Ti  Ti3  1  0.06204900  0.32482100  0.65331900  1
  Sb  Sb4  1  0.30065600  0.74258800  0.99986700  1
  Sb  Sb5  1  0.69934400  0.25741200  0.00013300  1
  O  O6  1  0.09217300  0.92953200  0.27745700  1
  O  O7  1  0.82094400  0.56350500  0.72546900  1
  O  O8  1  0.90782700  0.07046800  0.72254300  1
  O  O9  1  0.17905600  0.43649500  0.27453100  1
  O  O10  1  0.65563800  0.84698800  0.43682300  1
  O  O11  1  0.21969400  0.65525400  0.56086800  1
  O  O12  1  0.34436200  0.15301200  0.56317700  1
  O  O13  1  0.78030600  0.34474600  0.43913200  1
  O  O14  1  0.65460400  0.58395100  0.13699700  1
  O  O15  1  0.51828900  0.91348200  0.86386700  1
  O  O16  1  0.34539600  0.41604900  0.86300300  1
  O  O17  1  0.48171100  0.08651800  0.13613300  1
