# generated using pymatgen
data_Tb9Ni24Sn49
_symmetry_space_group_name_H-M   'P 1'
_cell_length_a   10.33349509
_cell_length_b   10.33349509
_cell_length_c   17.03763794
_cell_angle_alpha   89.87282938
_cell_angle_beta   89.87282938
_cell_angle_gamma   70.51234413
_symmetry_Int_Tables_number   1
_chemical_formula_structural   Tb9Ni24Sn49
_chemical_formula_sum   'Tb9 Ni24 Sn49'
_cell_volume   1715.07031294
_cell_formula_units_Z   1
loop_
 _symmetry_equiv_pos_site_id
 _symmetry_equiv_pos_as_xyz
  1  'x, y, z'
loop_
 _atom_site_type_symbol
 _atom_site_label
 _atom_site_symmetry_multiplicity
 _atom_site_fract_x
 _atom_site_fract_y
 _atom_site_fract_z
 _atom_site_occupancy
  Tb  Tb0  1  0.75059000  0.24969400  0.74997200  1
  Tb  Tb1  1  0.24941000  0.75030600  0.25002800  1
  Tb  Tb2  1  0.00000000  0.50000000  0.00000000  1
  Tb  Tb3  1  0.50000000  0.00000000  0.50000000  1
  Tb  Tb4  1  0.50000000  0.00000000  0.00000000  1
  Tb  Tb5  1  0.00000000  0.50000000  0.50000000  1
  Tb  Tb6  1  0.24969400  0.75059000  0.74997200  1
  Tb  Tb7  1  0.75030600  0.24941000  0.25002800  1
  Tb  Tb8  1  0.00000000  0.00000000  0.00000000  1
  Ni  Ni9  1  0.74123900  0.09688900  0.58021200  1
  Ni  Ni10  1  0.24137900  0.59879200  0.07968600  1
  Ni  Ni11  1  0.75862100  0.40120800  0.92031400  1
  Ni  Ni12  1  0.25876100  0.90311100  0.41978800  1
  Ni  Ni13  1  0.09688900  0.74123900  0.58021200  1
  Ni  Ni14  1  0.59879200  0.24137900  0.07968600  1
  Ni  Ni15  1  0.40120800  0.75862100  0.92031400  1
  Ni  Ni16  1  0.90311100  0.25876100  0.41978800  1
  Ni  Ni17  1  0.67895100  0.00002100  0.83967000  1
  Ni  Ni18  1  0.17838500  0.50163400  0.33930800  1
  Ni  Ni19  1  0.82161500  0.49836600  0.66069200  1
  Ni  Ni20  1  0.32104900  0.99997900  0.16033000  1
  Ni  Ni21  1  0.49836600  0.82161500  0.66069200  1
  Ni  Ni22  1  0.99997900  0.32104900  0.16033000  1
  Ni  Ni23  1  0.00002100  0.67895100  0.83967000  1
  Ni  Ni24  1  0.50163400  0.17838500  0.33930800  1
  Ni  Ni25  1  0.24010800  0.24010800  0.92047300  1
  Ni  Ni26  1  0.74077800  0.74077800  0.42071400  1
  Ni  Ni27  1  0.25922200  0.25922200  0.57928600  1
  Ni  Ni28  1  0.75989200  0.75989200  0.07952700  1
  Ni  Ni29  1  0.41970800  0.41970800  0.74100900  1
  Ni  Ni30  1  0.91949300  0.91949300  0.23984800  1
  Ni  Ni31  1  0.08050700  0.08050700  0.76015200  1
  Ni  Ni32  1  0.58029200  0.58029200  0.25899100  1
  Sn  Sn33  1  0.50490000  0.25084100  0.62270800  1
  Sn  Sn34  1  0.00325800  0.74133600  0.12812100  1
  Sn  Sn35  1  0.99674200  0.25866400  0.87187900  1
  Sn  Sn36  1  0.49510000  0.74915900  0.37729200  1
  Sn  Sn37  1  0.25084100  0.50490000  0.62270800  1
  Sn  Sn38  1  0.74133600  0.00325800  0.12812100  1
  Sn  Sn39  1  0.25866400  0.99674200  0.87187900  1
  Sn  Sn40  1  0.74915900  0.49510000  0.37729200  1
  Sn  Sn41  1  0.68145900  0.18754900  0.93507900  1
  Sn  Sn42  1  0.19109900  0.68213700  0.43652900  1
  Sn  Sn43  1  0.80890100  0.31786300  0.56347100  1
  Sn  Sn44  1  0.31854100  0.81245100  0.06492100  1
  Sn  Sn45  1  0.31786300  0.80890100  0.56347100  1
  Sn  Sn46  1  0.81245100  0.31854100  0.06492100  1
  Sn  Sn47  1  0.18754900  0.68145900  0.93507900  1
  Sn  Sn48  1  0.68213700  0.19109900  0.43652900  1
  Sn  Sn49  1  0.68446900  0.68446900  0.55838700  1
  Sn  Sn50  1  0.19247200  0.19247200  0.06139200  1
  Sn  Sn51  1  0.80752800  0.80752800  0.93860800  1
  Sn  Sn52  1  0.31553100  0.31553100  0.44161300  1
  Sn  Sn53  1  0.55944400  0.55944400  0.68664000  1
  Sn  Sn54  1  0.06179000  0.06179000  0.19259400  1
  Sn  Sn55  1  0.93821000  0.93821000  0.80740600  1
  Sn  Sn56  1  0.44055600  0.44055600  0.31336000  1
  Sn  Sn57  1  0.81166700  0.55612200  0.81470300  1
  Sn  Sn58  1  0.31263900  0.05760500  0.31588500  1
  Sn  Sn59  1  0.68736100  0.94239500  0.68411500  1
  Sn  Sn60  1  0.18833200  0.44387800  0.18529700  1
  Sn  Sn61  1  0.55612200  0.81166700  0.81470300  1
  Sn  Sn62  1  0.05760500  0.31263900  0.31588500  1
  Sn  Sn63  1  0.94239500  0.68736100  0.68411500  1
  Sn  Sn64  1  0.44387800  0.18833300  0.18529700  1
  Sn  Sn65  1  0.05606300  0.31661400  0.68541200  1
  Sn  Sn66  1  0.55562900  0.81755700  0.18791800  1
  Sn  Sn67  1  0.44437100  0.18244300  0.81208200  1
  Sn  Sn68  1  0.94393700  0.68338600  0.31458800  1
  Sn  Sn69  1  0.18244300  0.44437100  0.81208200  1
  Sn  Sn70  1  0.68338600  0.94393700  0.31458800  1
  Sn  Sn71  1  0.31661400  0.05606300  0.68541200  1
  Sn  Sn72  1  0.81755700  0.55562900  0.18791800  1
  Sn  Sn73  1  0.12943100  0.12943100  0.50181900  1
  Sn  Sn74  1  0.62822400  0.62822400  0.00234200  1
  Sn  Sn75  1  0.37177600  0.37177600  0.99765800  1
  Sn  Sn76  1  0.87056900  0.87056900  0.49818100  1
  Sn  Sn77  1  0.00162800  0.00162800  0.62979300  1
  Sn  Sn78  1  0.50088100  0.50088100  0.13077200  1
  Sn  Sn79  1  0.49911900  0.49911900  0.86922800  1
  Sn  Sn80  1  0.99837200  0.99837200  0.37020700  1
  Sn  Sn81  1  0.50000000  0.50000000  0.50000000  1
