# generated using pymatgen
data_Tb12Si5S28
_symmetry_space_group_name_H-M   'P 1'
_cell_length_a   9.84867200
_cell_length_b   11.38204180
_cell_length_c   11.38884436
_cell_angle_alpha   60.43367410
_cell_angle_beta   64.39211365
_cell_angle_gamma   64.37041853
_symmetry_Int_Tables_number   1
_chemical_formula_structural   Tb12Si5S28
_chemical_formula_sum   'Tb12 Si5 S28'
_cell_volume   961.42131051
_cell_formula_units_Z   1
loop_
 _symmetry_equiv_pos_site_id
 _symmetry_equiv_pos_as_xyz
  1  'x, y, z'
loop_
 _atom_site_type_symbol
 _atom_site_label
 _atom_site_symmetry_multiplicity
 _atom_site_fract_x
 _atom_site_fract_y
 _atom_site_fract_z
 _atom_site_occupancy
  Tb  Tb0  1  0.23184600  0.93208800  0.70054500  1
  Tb  Tb1  1  0.21831900  0.46515800  0.18649000  1
  Tb  Tb2  1  0.65024300  0.70334100  0.42594700  1
  Tb  Tb3  1  0.63487300  0.18563200  0.95098000  1
  Tb  Tb4  1  0.13180600  0.74695500  0.46954000  1
  Tb  Tb5  1  0.13110100  0.23405700  0.00107600  1
  Tb  Tb6  1  0.78042600  0.04199700  0.30389500  1
  Tb  Tb7  1  0.77332400  0.56966300  0.79809200  1
  Tb  Tb8  1  0.36713200  0.31560600  0.54591400  1
  Tb  Tb9  1  0.34535100  0.80665100  0.06597100  1
  Tb  Tb10  1  0.86151100  0.27094900  0.50221300  1
  Tb  Tb11  1  0.87153400  0.76144100  0.01989300  1
  Si  Si12  1  0.33407300  0.08679400  0.25112200  1
  Si  Si13  1  0.33330100  0.58242000  0.74532700  1
  Si  Si14  1  0.66657000  0.00438300  0.66260300  1
  Si  Si15  1  0.66675100  0.50508400  0.16079000  1
  Si  Si16  1  0.00091900  0.22877500  0.77113200  1
  S  S17  1  0.33274600  0.90107900  0.43367800  1
  S  S18  1  0.33344400  0.39945800  0.93211700  1
  S  S19  1  0.67339800  0.31328400  0.33949200  1
  S  S20  1  0.66019700  0.82657000  0.85351000  1
  S  S21  1  0.10782900  0.23673300  0.25245300  1
  S  S22  1  0.10366700  0.72572400  0.73989800  1
  S  S23  1  0.47027700  0.20823800  0.22162400  1
  S  S24  1  0.48594700  0.69301700  0.70953300  1
  S  S25  1  0.41376100  0.04515800  0.06299000  1
  S  S26  1  0.42113600  0.54426200  0.55672400  1
  S  S27  1  0.89495600  0.00714200  0.51876000  1
  S  S28  1  0.89534400  0.50706800  0.01496500  1
  S  S29  1  0.52100200  0.03604500  0.54795800  1
  S  S30  1  0.52609800  0.53567400  0.04290200  1
  S  S31  1  0.58212600  0.19352900  0.70222600  1
  S  S32  1  0.58008900  0.69249500  0.20211900  1
  S  S33  1  0.13885500  0.22550800  0.54813400  1
  S  S34  1  0.16478600  0.73667300  0.99961900  1
  S  S35  1  0.73771600  0.91615000  0.18143300  1
  S  S36  1  0.77404800  0.38388800  0.70500100  1
  S  S37  1  0.09514700  0.94922000  0.21575300  1
  S  S38  1  0.08885900  0.40949400  0.72985000  1
  S  S39  1  0.83921600  0.74233100  0.51641300  1
  S  S40  1  0.85094300  0.23674100  0.99918700  1
  S  S41  1  0.23582100  0.07591200  0.83822000  1
  S  S42  1  0.25850500  0.56331800  0.33799600  1
  S  S43  1  0.91366200  0.04369300  0.80666000  1
  S  S44  1  0.90134600  0.53310300  0.30675700  1
