# generated using pymatgen
data_SrLa2Fe2O7
_symmetry_space_group_name_H-M   'P 1'
_cell_length_a   10.60990812
_cell_length_b   10.60990812
_cell_length_c   10.60990812
_cell_angle_alpha   158.52523895
_cell_angle_beta   158.52523895
_cell_angle_gamma   30.55316471
_symmetry_Int_Tables_number   1
_chemical_formula_structural   SrLa2Fe2O7
_chemical_formula_sum   'Sr1 La2 Fe2 O7'
_cell_volume   159.96789155
_cell_formula_units_Z   1
loop_
 _symmetry_equiv_pos_site_id
 _symmetry_equiv_pos_as_xyz
  1  'x, y, z'
loop_
 _atom_site_type_symbol
 _atom_site_label
 _atom_site_symmetry_multiplicity
 _atom_site_fract_x
 _atom_site_fract_y
 _atom_site_fract_z
 _atom_site_occupancy
  Sr  Sr0  1  0.68272600  0.68272600  0.00000000  1
  La  La1  1  0.31753600  0.31753600  0.00000000  1
  La  La2  1  0.50533400  0.50533400  0.00000000  1
  Fe  Fe3  1  0.90281500  0.90281500  0.00000000  1
  Fe  Fe4  1  0.10065700  0.10065700  0.00000000  1
  O  O5  1  0.90102200  0.40102200  0.50000000  1
  O  O6  1  0.40102200  0.90102200  0.50000000  1
  O  O7  1  0.09273300  0.59273300  0.50000000  1
  O  O8  1  0.59273300  0.09273300  0.50000000  1
  O  O9  1  0.80071700  0.80071700  0.00000000  1
  O  O10  1  0.20315400  0.20315400  0.00000000  1
  O  O11  1  0.99955100  0.99955100  0.00000000  1
