# generated using pymatgen
data_U12Cd4H6C4O51
_symmetry_space_group_name_H-M   'P 1'
_cell_length_a   7.10624156
_cell_length_b   11.52909576
_cell_length_c   15.28042357
_cell_angle_alpha   108.13097587
_cell_angle_beta   95.51565773
_cell_angle_gamma   89.11541492
_symmetry_Int_Tables_number   1
_chemical_formula_structural   U12Cd4H6C4O51
_chemical_formula_sum   'U12 Cd4 H6 C4 O51'
_cell_volume   1184.09569089
_cell_formula_units_Z   1
loop_
 _symmetry_equiv_pos_site_id
 _symmetry_equiv_pos_as_xyz
  1  'x, y, z'
loop_
 _atom_site_type_symbol
 _atom_site_label
 _atom_site_symmetry_multiplicity
 _atom_site_fract_x
 _atom_site_fract_y
 _atom_site_fract_z
 _atom_site_occupancy
  U  U0  1  0.65255400  0.92593700  0.30882000  1
  U  U1  1  0.34786100  0.07390500  0.69129800  1
  U  U2  1  0.16291600  0.73647800  0.29697600  1
  U  U3  1  0.83752700  0.26350200  0.70339000  1
  U  U4  1  0.16262000  0.09742700  0.29038300  1
  U  U5  1  0.83723400  0.90228200  0.70971800  1
  U  U6  1  0.65983100  0.22916800  0.27106900  1
  U  U7  1  0.33936400  0.77112900  0.72915000  1
  U  U8  1  0.14544700  0.40969900  0.27092400  1
  U  U9  1  0.85511400  0.59033100  0.72987500  1
  U  U10  1  0.65459600  0.59293300  0.27299100  1
  U  U11  1  0.34595000  0.40705200  0.72692500  1
  Cd  Cd12  1  0.40146300  0.71225500  0.07257300  1
  Cd  Cd13  1  0.59847000  0.28774700  0.92770100  1
  Cd  Cd14  1  0.99836700  0.35522700  0.49902700  1
  Cd  Cd15  1  0.00110300  0.64478900  0.50130300  1
  H  H16  1  0.26215600  0.12265600  0.93190100  1
  H  H17  1  0.73774900  0.87752100  0.06826300  1
  H  H18  1  0.13168200  0.10939800  0.02325000  1
  H  H19  1  0.86814100  0.89062700  0.97681000  1
  H  H20  1  0.03420200  0.18664100  0.94513400  1
  H  H21  1  0.96569100  0.81346600  0.05498400  1
  C  C22  1  0.24378200  0.28848900  0.04597500  1
  C  C23  1  0.75597200  0.71152300  0.95426900  1
  C  C24  1  0.16559800  0.16854500  0.98280600  1
  C  C25  1  0.83422200  0.83152500  0.01731200  1
  O  O26  1  0.14872900  0.74923500  0.42076100  1
  O  O27  1  0.85152100  0.25081300  0.57964600  1
  O  O28  1  0.71692200  0.31158700  0.39825300  1
  O  O29  1  0.27860900  0.69060700  0.60365700  1
  O  O30  1  0.57323500  0.86943300  0.18223000  1
  O  O31  1  0.42712300  0.13056200  0.81775800  1
  O  O32  1  0.14946600  0.34441500  0.11535900  1
  O  O33  1  0.85052900  0.65559800  0.88487800  1
  O  O34  1  0.84669400  0.77372800  0.29025600  1
  O  O35  1  0.15350100  0.22592300  0.70967600  1
  O  O36  1  0.48661800  0.76572300  0.31583500  1
  O  O37  1  0.51352700  0.23456400  0.68433000  1
  O  O38  1  0.72412500  0.61085500  0.39767800  1
  O  O39  1  0.27731600  0.38872500  0.60171100  1
  O  O40  1  0.17596900  0.71079400  0.17052000  1
  O  O41  1  0.82441500  0.28879800  0.82984300  1
  O  O42  1  0.59632900  0.58848500  0.14841700  1
  O  O43  1  0.40342300  0.41109900  0.85154100  1
  O  O44  1  0.20992700  0.54759200  0.97595100  1
  O  O45  1  0.78996000  0.45240900  0.02424500  1
  O  O46  1  0.97759200  0.55060200  0.25679800  1
  O  O47  1  0.02302200  0.44873700  0.74327200  1
  O  O48  1  0.71530600  0.97974100  0.43329500  1
  O  O49  1  0.28542100  0.02033500  0.56671800  1
  O  O50  1  0.66066700  0.40180200  0.24132600  1
  O  O51  1  0.33863400  0.59720000  0.75854400  1
  O  O52  1  0.17598100  0.01570400  0.16457500  1
  O  O53  1  0.82300300  0.98392300  0.83536500  1
  O  O54  1  0.39275500  0.33787500  0.03487700  1
  O  O55  1  0.60718800  0.66213400  0.96535200  1
  O  O56  1  0.19207200  0.93149500  0.31982900  1
  O  O57  1  0.80666800  0.06845800  0.68035200  1
  O  O58  1  0.25536700  0.88543100  0.04069600  1
  O  O59  1  0.74452900  0.11454700  0.95971900  1
  O  O60  1  0.33576200  0.55051100  0.28464900  1
  O  O61  1  0.66496800  0.44944200  0.71626100  1
  O  O62  1  0.09718900  0.46294100  0.40606500  1
  O  O63  1  0.90245200  0.53733500  0.59460600  1
  O  O64  1  0.60953200  0.14640700  0.14833800  1
  O  O65  1  0.39229000  0.85303100  0.85181900  1
  O  O66  1  0.97754700  0.25467900  0.25549900  1
  O  O67  1  0.02180100  0.74638800  0.74569500  1
  O  O68  1  0.84521800  0.05870200  0.28515800  1
  O  O69  1  0.15432300  0.94218000  0.71535900  1
  O  O70  1  0.48272700  0.08797000  0.30995900  1
  O  O71  1  0.51682500  0.91183800  0.69006400  1
  O  O72  1  0.15166600  0.19027100  0.41413300  1
  O  O73  1  0.84873300  0.81012800  0.58604200  1
  O  O74  1  0.33552900  0.27966300  0.27765100  1
  O  O75  1  0.66424400  0.71873700  0.72087500  1
  O  O76  1  0.50243800  0.46249600  0.48843400  1
