# generated using pymatgen
data_SrPrVO4
_symmetry_space_group_name_H-M   'P 1'
_cell_length_a   6.91940670
_cell_length_b   6.91940670
_cell_length_c   6.91940670
_cell_angle_alpha   147.15525741
_cell_angle_beta   147.15525741
_cell_angle_gamma   47.13395316
_symmetry_Int_Tables_number   1
_chemical_formula_structural   SrPrVO4
_chemical_formula_sum   'Sr1 Pr1 V1 O4'
_cell_volume   97.08318981
_cell_formula_units_Z   1
loop_
 _symmetry_equiv_pos_site_id
 _symmetry_equiv_pos_as_xyz
  1  'x, y, z'
loop_
 _atom_site_type_symbol
 _atom_site_label
 _atom_site_symmetry_multiplicity
 _atom_site_fract_x
 _atom_site_fract_y
 _atom_site_fract_z
 _atom_site_occupancy
  Sr  Sr0  1  0.64561000  0.64561000  0.00000000  1
  Pr  Pr1  1  0.35792900  0.35792900  0.00000000  1
  V  V2  1  0.00300000  0.00300000  0.00000000  1
  O  O3  1  0.99227800  0.49227800  0.50000000  1
  O  O4  1  0.49227800  0.99227800  0.50000000  1
  O  O5  1  0.83429800  0.83429800  0.00000000  1
  O  O6  1  0.17460800  0.17460800  0.00000000  1
