# generated using pymatgen
data_Ta6Ti(CS2)3
_symmetry_space_group_name_H-M   'P 1'
_cell_length_a   5.73831787
_cell_length_b   5.73831787
_cell_length_c   8.86134855
_cell_angle_alpha   83.79293431
_cell_angle_beta   83.79293431
_cell_angle_gamma   120.00163563
_symmetry_Int_Tables_number   1
_chemical_formula_structural   Ta6Ti(CS2)3
_chemical_formula_sum   'Ta6 Ti1 C3 S6'
_cell_volume   246.71341990
_cell_formula_units_Z   1
loop_
 _symmetry_equiv_pos_site_id
 _symmetry_equiv_pos_as_xyz
  1  'x, y, z'
loop_
 _atom_site_type_symbol
 _atom_site_label
 _atom_site_symmetry_multiplicity
 _atom_site_fract_x
 _atom_site_fract_y
 _atom_site_fract_z
 _atom_site_occupancy
  Ta  Ta0  1  0.45586000  0.78903700  0.63294600  1
  Ta  Ta1  1  0.12241000  0.12241000  0.63175700  1
  Ta  Ta2  1  0.78903700  0.45586000  0.63294600  1
  Ta  Ta3  1  0.54414000  0.21096300  0.36705400  1
  Ta  Ta4  1  0.21096300  0.54414000  0.36705400  1
  Ta  Ta5  1  0.87759000  0.87759000  0.36824300  1
  Ti  Ti6  1  0.00000000  0.00000000  0.00000000  1
  C  C7  1  0.50000000  0.50000000  0.50000000  1
  C  C8  1  0.16765900  0.83234100  0.50000000  1
  C  C9  1  0.83234100  0.16765900  0.50000000  1
  S  S10  1  0.60625900  0.94198300  0.17371000  1
  S  S11  1  0.27794600  0.27794600  0.17326600  1
  S  S12  1  0.94198300  0.60625900  0.17371000  1
  S  S13  1  0.39374100  0.05801700  0.82629000  1
  S  S14  1  0.05801700  0.39374100  0.82629000  1
  S  S15  1  0.72205400  0.72205400  0.82673400  1
