# generated using pymatgen
data_Si3(TeO6)2
_symmetry_space_group_name_H-M   'P 1'
_cell_length_a   10.27659692
_cell_length_b   10.27659692
_cell_length_c   10.27659692
_cell_angle_alpha   109.47122063
_cell_angle_beta   109.47122063
_cell_angle_gamma   109.47122063
_symmetry_Int_Tables_number   1
_chemical_formula_structural   Si3(TeO6)2
_chemical_formula_sum   'Si12 Te8 O48'
_cell_volume   835.46079923
_cell_formula_units_Z   4
loop_
 _symmetry_equiv_pos_site_id
 _symmetry_equiv_pos_as_xyz
  1  'x, y, z'
loop_
 _atom_site_type_symbol
 _atom_site_label
 _atom_site_symmetry_multiplicity
 _atom_site_fract_x
 _atom_site_fract_y
 _atom_site_fract_z
 _atom_site_occupancy
  Si  Si0  1  0.12500000  0.75000000  0.87500000  1
  Si  Si1  1  0.87500000  0.25000000  0.12500000  1
  Si  Si2  1  0.75000000  0.37500000  0.62500000  1
  Si  Si3  1  0.12500000  0.87500000  0.25000000  1
  Si  Si4  1  0.25000000  0.12500000  0.87500000  1
  Si  Si5  1  0.37500000  0.62500000  0.75000000  1
  Si  Si6  1  0.37500000  0.25000000  0.62500000  1
  Si  Si7  1  0.87500000  0.12500000  0.75000000  1
  Si  Si8  1  0.62500000  0.37500000  0.25000000  1
  Si  Si9  1  0.75000000  0.87500000  0.12500000  1
  Si  Si10  1  0.25000000  0.62500000  0.37500000  1
  Si  Si11  1  0.62500000  0.75000000  0.37500000  1
  Te  Te12  1  0.50000000  0.00000000  0.00000000  1
  Te  Te13  1  0.50000000  0.50000000  0.00000000  1
  Te  Te14  1  0.00000000  0.50000000  0.50000000  1
  Te  Te15  1  0.00000000  0.00000000  0.50000000  1
  Te  Te16  1  0.50000000  0.50000000  0.50000000  1
  Te  Te17  1  0.00000000  0.50000000  0.00000000  1
  Te  Te18  1  0.50000000  0.00000000  0.50000000  1
  Te  Te19  1  0.00000000  0.00000000  0.00000000  1
  O  O20  1  0.58420700  0.89433400  0.38703800  1
  O  O21  1  0.38703800  0.58420700  0.89433400  1
  O  O22  1  0.30283100  0.31012700  0.91579300  1
  O  O23  1  0.49270400  0.60566600  0.18987300  1
  O  O24  1  0.31012700  0.89433400  0.00729600  1
  O  O25  1  0.11296200  0.00729600  0.19716900  1
  O  O26  1  0.38703800  0.30283100  0.49270400  1
  O  O27  1  0.89433400  0.38703800  0.58420700  1
  O  O28  1  0.18987300  0.19716900  0.58420700  1
  O  O29  1  0.49270400  0.38703800  0.30283100  1
  O  O30  1  0.89433400  0.00729600  0.31012700  1
  O  O31  1  0.60566600  0.91579300  0.11296200  1
  O  O32  1  0.91579300  0.11296200  0.60566600  1
  O  O33  1  0.30283100  0.49270400  0.38703800  1
  O  O34  1  0.58420700  0.18987300  0.19716900  1
  O  O35  1  0.19716900  0.58420700  0.18987300  1
  O  O36  1  0.00729600  0.31012700  0.89433400  1
  O  O37  1  0.91579300  0.30283100  0.31012700  1
  O  O38  1  0.00729600  0.19716900  0.11296200  1
  O  O39  1  0.81012700  0.80283100  0.41579300  1
  O  O40  1  0.18987300  0.49270400  0.60566600  1
  O  O41  1  0.60566600  0.18987300  0.49270400  1
  O  O42  1  0.19716900  0.11296200  0.00729600  1
  O  O43  1  0.11296200  0.60566600  0.91579300  1
  O  O44  1  0.41579300  0.10566600  0.61296200  1
  O  O45  1  0.61296200  0.41579300  0.10566600  1
  O  O46  1  0.69716900  0.68987300  0.08420700  1
  O  O47  1  0.50729600  0.39433400  0.81012700  1
  O  O48  1  0.68987300  0.10566600  0.99270400  1
  O  O49  1  0.88703800  0.99270400  0.80283100  1
  O  O50  1  0.61296200  0.69716900  0.50729600  1
  O  O51  1  0.10566600  0.61296200  0.41579300  1
  O  O52  1  0.88703800  0.39433400  0.08420700  1
  O  O53  1  0.80283100  0.88703800  0.99270400  1
  O  O54  1  0.39433400  0.81012700  0.50729600  1
  O  O55  1  0.68987300  0.08420700  0.69716900  1
  O  O56  1  0.81012700  0.50729600  0.39433400  1
  O  O57  1  0.99270400  0.80283100  0.88703800  1
  O  O58  1  0.08420700  0.69716900  0.68987300  1
  O  O59  1  0.99270400  0.68987300  0.10566600  1
  O  O60  1  0.80283100  0.41579300  0.81012700  1
  O  O61  1  0.41579300  0.81012700  0.80283100  1
  O  O62  1  0.69716900  0.50729600  0.61296200  1
  O  O63  1  0.08420700  0.88703800  0.39433400  1
  O  O64  1  0.39433400  0.08420700  0.88703800  1
  O  O65  1  0.10566600  0.99270400  0.68987300  1
  O  O66  1  0.50729600  0.61296200  0.69716900  1
  O  O67  1  0.31012700  0.91579300  0.30283100  1
