# generated using pymatgen
data_Sr5(Ga3O7)2
_symmetry_space_group_name_H-M   'P 1'
_cell_length_a   8.28493900
_cell_length_b   8.28094400
_cell_length_c   11.00438136
_cell_angle_alpha   87.69000846
_cell_angle_beta   90.00000000
_cell_angle_gamma   90.00000000
_symmetry_Int_Tables_number   1
_chemical_formula_structural   Sr5(Ga3O7)2
_chemical_formula_sum   'Sr10 Ga12 O28'
_cell_volume   754.36535787
_cell_formula_units_Z   2
loop_
 _symmetry_equiv_pos_site_id
 _symmetry_equiv_pos_as_xyz
  1  'x, y, z'
loop_
 _atom_site_type_symbol
 _atom_site_label
 _atom_site_symmetry_multiplicity
 _atom_site_fract_x
 _atom_site_fract_y
 _atom_site_fract_z
 _atom_site_occupancy
  Sr  Sr0  1  0.00000000  0.00000000  0.50000000  1
  Sr  Sr1  1  0.50000000  0.00000000  0.00000000  1
  Sr  Sr2  1  0.74701200  0.59161200  0.50247500  1
  Sr  Sr3  1  0.24701200  0.40838800  0.99752500  1
  Sr  Sr4  1  0.25298800  0.40838800  0.49752500  1
  Sr  Sr5  1  0.75298800  0.59161200  0.00247500  1
  Sr  Sr6  1  0.40799100  0.83923800  0.47021800  1
  Sr  Sr7  1  0.90799100  0.16076200  0.02978200  1
  Sr  Sr8  1  0.59200900  0.16076200  0.52978200  1
  Sr  Sr9  1  0.09200900  0.83923800  0.97021800  1
  Ga  Ga10  1  0.91377800  0.26918500  0.74631800  1
  Ga  Ga11  1  0.41377800  0.73081500  0.75368200  1
  Ga  Ga12  1  0.08622200  0.73081500  0.25368200  1
  Ga  Ga13  1  0.58622200  0.26918500  0.24631800  1
  Ga  Ga14  1  0.55881000  0.38601200  0.78717100  1
  Ga  Ga15  1  0.05881000  0.61398800  0.71282900  1
  Ga  Ga16  1  0.44119000  0.61398800  0.21282900  1
  Ga  Ga17  1  0.94119000  0.38601200  0.28717100  1
  Ga  Ga18  1  0.27144200  0.10455900  0.76060800  1
  Ga  Ga19  1  0.77144200  0.89544100  0.73939200  1
  Ga  Ga20  1  0.72855800  0.89544100  0.23939200  1
  Ga  Ga21  1  0.22855800  0.10455900  0.26060800  1
  O  O22  1  0.76183600  0.33784300  0.86096100  1
  O  O23  1  0.26183600  0.66215700  0.63903900  1
  O  O24  1  0.23816400  0.66215700  0.13903900  1
  O  O25  1  0.73816400  0.33784300  0.36096100  1
  O  O26  1  0.07739000  0.16486900  0.83865800  1
  O  O27  1  0.57739000  0.83513100  0.66134200  1
  O  O28  1  0.92261000  0.83513100  0.16134200  1
  O  O29  1  0.42261000  0.16486900  0.33865800  1
  O  O30  1  0.41787000  0.22790200  0.84995900  1
  O  O31  1  0.91787000  0.77209800  0.65004100  1
  O  O32  1  0.58213000  0.77209800  0.15004100  1
  O  O33  1  0.08213000  0.22790200  0.34995900  1
  O  O34  1  0.98989100  0.42511600  0.63458500  1
  O  O35  1  0.48989100  0.57488400  0.86541500  1
  O  O36  1  0.01010900  0.57488400  0.36541500  1
  O  O37  1  0.51010900  0.42511600  0.13458500  1
  O  O38  1  0.81891800  0.10119600  0.66131400  1
  O  O39  1  0.31891800  0.89880400  0.83868600  1
  O  O40  1  0.18108200  0.89880400  0.33868600  1
  O  O41  1  0.68108200  0.10119600  0.16131400  1
  O  O42  1  0.27929700  0.10533900  0.59450300  1
  O  O43  1  0.77929700  0.89466100  0.90549700  1
  O  O44  1  0.72070300  0.89466100  0.40549700  1
  O  O45  1  0.22070300  0.10533900  0.09450300  1
  O  O46  1  0.55852400  0.41164800  0.62204500  1
  O  O47  1  0.05852400  0.58835200  0.87795500  1
  O  O48  1  0.44147600  0.58835200  0.37795500  1
  O  O49  1  0.94147600  0.41164800  0.12204500  1
