# generated using pymatgen
data_SrNdZnRuO6
_symmetry_space_group_name_H-M   'P 1'
_cell_length_a   5.73412800
_cell_length_b   5.60131600
_cell_length_c   9.69541782
_cell_angle_alpha   54.74130685
_cell_angle_beta   90.00000000
_cell_angle_gamma   90.00000000
_symmetry_Int_Tables_number   1
_chemical_formula_structural   SrNdZnRuO6
_chemical_formula_sum   'Sr2 Nd2 Zn2 Ru2 O12'
_cell_volume   254.27805834
_cell_formula_units_Z   2
loop_
 _symmetry_equiv_pos_site_id
 _symmetry_equiv_pos_as_xyz
  1  'x, y, z'
loop_
 _atom_site_type_symbol
 _atom_site_label
 _atom_site_symmetry_multiplicity
 _atom_site_fract_x
 _atom_site_fract_y
 _atom_site_fract_z
 _atom_site_occupancy
  Sr  Sr0  1  0.21023700  0.24248600  0.25071000  1
  Sr  Sr1  1  0.78976300  0.24248600  0.75071000  1
  Nd  Nd2  1  0.30855400  0.76380600  0.75168800  1
  Nd  Nd3  1  0.69144600  0.76380600  0.25168800  1
  Zn  Zn4  1  0.76045100  0.49947200  0.00187200  1
  Zn  Zn5  1  0.23954900  0.49947200  0.50187200  1
  Ru  Ru6  1  0.75247400  0.00144800  0.49930400  1
  Ru  Ru7  1  0.24752600  0.00144800  0.99930400  1
  O  O8  1  0.04111500  0.13905200  0.54813000  1
  O  O9  1  0.95888500  0.13905200  0.04813000  1
  O  O10  1  0.47716000  0.83505800  0.45603400  1
  O  O11  1  0.52284000  0.83505800  0.95603400  1
  O  O12  1  0.94292400  0.75717800  0.45209600  1
  O  O13  1  0.05707600  0.75717800  0.95209600  1
  O  O14  1  0.53982000  0.23491800  0.53981800  1
  O  O15  1  0.46018000  0.23491800  0.03981800  1
  O  O16  1  0.76714200  0.33959900  0.25787700  1
  O  O17  1  0.23285800  0.33959900  0.75787700  1
  O  O18  1  0.72197400  0.68698300  0.74247100  1
  O  O19  1  0.27802600  0.68698300  0.24247100  1
