# generated using pymatgen
data_SrCaZnSi2O7
_symmetry_space_group_name_H-M   'P 1'
_cell_length_a   8.01373000
_cell_length_b   5.13329800
_cell_length_c   8.00587892
_cell_angle_alpha   89.10582542
_cell_angle_beta   90.00000000
_cell_angle_gamma   90.00000000
_symmetry_Int_Tables_number   1
_chemical_formula_structural   SrCaZnSi2O7
_chemical_formula_sum   'Sr2 Ca2 Zn2 Si4 O14'
_cell_volume   329.29664863
_cell_formula_units_Z   2
loop_
 _symmetry_equiv_pos_site_id
 _symmetry_equiv_pos_as_xyz
  1  'x, y, z'
loop_
 _atom_site_type_symbol
 _atom_site_label
 _atom_site_symmetry_multiplicity
 _atom_site_fract_x
 _atom_site_fract_y
 _atom_site_fract_z
 _atom_site_occupancy
  Sr  Sr0  1  0.16380300  0.49223900  0.08550900  1
  Sr  Sr1  1  0.66380300  0.50776100  0.91449100  1
  Ca  Ca2  1  0.82728700  0.49700300  0.42000100  1
  Ca  Ca3  1  0.32728700  0.50299700  0.57999900  1
  Zn  Zn4  1  0.50074200  0.99972800  0.25200100  1
  Zn  Zn5  1  0.00074200  0.00027200  0.74799900  1
  Si  Si6  1  0.63990700  0.06026000  0.60461500  1
  Si  Si7  1  0.13990700  0.93974000  0.39538500  1
  Si  Si8  1  0.36050800  0.05561000  0.88377100  1
  Si  Si9  1  0.86050800  0.94439000  0.11622900  1
  O  O10  1  0.64295900  0.74597700  0.60280700  1
  O  O11  1  0.14295900  0.25402300  0.39719300  1
  O  O12  1  0.36082000  0.74202600  0.88401200  1
  O  O13  1  0.86082000  0.25797400  0.11598800  1
  O  O14  1  0.58359600  0.21916900  0.43326600  1
  O  O15  1  0.08359600  0.78083100  0.56673400  1
  O  O16  1  0.42013400  0.19912100  0.05654800  1
  O  O17  1  0.92013400  0.80087900  0.94345200  1
  O  O18  1  0.68964600  0.79003100  0.17484600  1
  O  O19  1  0.18964600  0.20996900  0.82515400  1
  O  O20  1  0.31251400  0.79033300  0.33790800  1
  O  O21  1  0.81251400  0.20966700  0.66209200  1
  O  O22  1  0.99808500  0.82917900  0.25833800  1
  O  O23  1  0.49808500  0.17082100  0.74166200  1
