# generated using pymatgen
data_Ta6Cr(CS2)3
_symmetry_space_group_name_H-M   'P 1'
_cell_length_a   5.73536851
_cell_length_b   5.73536851
_cell_length_c   8.77777226
_cell_angle_alpha   83.76661027
_cell_angle_beta   83.76661027
_cell_angle_gamma   120.05045508
_symmetry_Int_Tables_number   1
_chemical_formula_structural   Ta6Cr(CS2)3
_chemical_formula_sum   'Ta6 Cr1 C3 S6'
_cell_volume   243.95557841
_cell_formula_units_Z   1
loop_
 _symmetry_equiv_pos_site_id
 _symmetry_equiv_pos_as_xyz
  1  'x, y, z'
loop_
 _atom_site_type_symbol
 _atom_site_label
 _atom_site_symmetry_multiplicity
 _atom_site_fract_x
 _atom_site_fract_y
 _atom_site_fract_z
 _atom_site_occupancy
  Ta  Ta0  1  0.45511400  0.78814900  0.63485900  1
  Ta  Ta1  1  0.12289800  0.12289800  0.63092000  1
  Ta  Ta2  1  0.78814900  0.45511400  0.63485900  1
  Ta  Ta3  1  0.54488600  0.21185100  0.36514100  1
  Ta  Ta4  1  0.21185100  0.54488600  0.36514100  1
  Ta  Ta5  1  0.87710200  0.87710200  0.36908000  1
  Cr  Cr6  1  0.00000000  0.00000000  0.00000000  1
  C  C7  1  0.50000000  0.50000000  0.50000000  1
  C  C8  1  0.16887600  0.83112400  0.50000000  1
  C  C9  1  0.83112400  0.16887600  0.50000000  1
  S  S10  1  0.60764600  0.94238000  0.17235100  1
  S  S11  1  0.27763900  0.27763900  0.17097800  1
  S  S12  1  0.94238000  0.60764600  0.17235100  1
  S  S13  1  0.39235400  0.05762000  0.82764900  1
  S  S14  1  0.05762000  0.39235400  0.82764900  1
  S  S15  1  0.72236100  0.72236100  0.82902200  1
