# generated using pymatgen
data_Ta3Zn2Bi3O14
_symmetry_space_group_name_H-M   'P 1'
_cell_length_a   7.31623153
_cell_length_b   7.31623153
_cell_length_c   7.31623174
_cell_angle_alpha   62.23253271
_cell_angle_beta   62.23253271
_cell_angle_gamma   62.23253600
_symmetry_Int_Tables_number   1
_chemical_formula_structural   Ta3Zn2Bi3O14
_chemical_formula_sum   'Ta3 Zn2 Bi3 O14'
_cell_volume   290.72022230
_cell_formula_units_Z   1
loop_
 _symmetry_equiv_pos_site_id
 _symmetry_equiv_pos_as_xyz
  1  'x, y, z'
loop_
 _atom_site_type_symbol
 _atom_site_label
 _atom_site_symmetry_multiplicity
 _atom_site_fract_x
 _atom_site_fract_y
 _atom_site_fract_z
 _atom_site_occupancy
  Ta  Ta0  1  0.50000000  0.00000000  0.50000000  1
  Ta  Ta1  1  0.00000000  0.50000000  0.50000000  1
  Ta  Ta2  1  0.50000000  0.50000000  0.00000000  1
  Zn  Zn3  1  0.50000000  0.50000000  0.50000000  1
  Zn  Zn4  1  0.00000000  0.00000000  0.00000000  1
  Bi  Bi5  1  0.00000000  0.50000000  0.00000000  1
  Bi  Bi6  1  0.50000000  0.00000000  0.00000000  1
  Bi  Bi7  1  0.00000000  0.00000000  0.50000000  1
  O  O8  1  0.40623000  0.40623000  0.85118300  1
  O  O9  1  0.85118300  0.40623000  0.40623000  1
  O  O10  1  0.40623000  0.85118300  0.40623000  1
  O  O11  1  0.81085600  0.81085600  0.42890500  1
  O  O12  1  0.42890500  0.81085600  0.81085600  1
  O  O13  1  0.81085600  0.42890500  0.81085600  1
  O  O14  1  0.59377000  0.59377000  0.14881700  1
  O  O15  1  0.14881700  0.59377000  0.59377000  1
  O  O16  1  0.59377000  0.14881700  0.59377000  1
  O  O17  1  0.18914400  0.18914400  0.57109500  1
  O  O18  1  0.57109500  0.18914400  0.18914400  1
  O  O19  1  0.18914400  0.57109500  0.18914400  1
  O  O20  1  0.10742200  0.10742200  0.10742200  1
  O  O21  1  0.89257800  0.89257800  0.89257800  1
