# generated using pymatgen
data_SrNdCrO4
_symmetry_space_group_name_H-M   'P 1'
_cell_length_a   6.77525945
_cell_length_b   6.77525945
_cell_length_c   6.77525945
_cell_angle_alpha   146.49682934
_cell_angle_beta   146.49682934
_cell_angle_gamma   48.10939069
_symmetry_Int_Tables_number   1
_chemical_formula_structural   SrNdCrO4
_chemical_formula_sum   'Sr1 Nd1 Cr1 O4'
_cell_volume   94.37124376
_cell_formula_units_Z   1
loop_
 _symmetry_equiv_pos_site_id
 _symmetry_equiv_pos_as_xyz
  1  'x, y, z'
loop_
 _atom_site_type_symbol
 _atom_site_label
 _atom_site_symmetry_multiplicity
 _atom_site_fract_x
 _atom_site_fract_y
 _atom_site_fract_z
 _atom_site_occupancy
  Sr  Sr0  1  0.64368200  0.64368200  0.00000000  1
  Nd  Nd1  1  0.36120100  0.36120100  0.00000000  1
  Cr  Cr2  1  0.00324700  0.00324700  0.00000000  1
  O  O3  1  0.49153200  0.99153200  0.50000000  1
  O  O4  1  0.99153200  0.49153200  0.50000000  1
  O  O5  1  0.83664200  0.83664200  0.00000000  1
  O  O6  1  0.17216300  0.17216300  0.00000000  1
