# generated using pymatgen
data_Ta6Mn(CS2)3
_symmetry_space_group_name_H-M   'P 1'
_cell_length_a   5.72884564
_cell_length_b   5.72884564
_cell_length_c   8.92143695
_cell_angle_alpha   83.88523464
_cell_angle_beta   83.88523464
_cell_angle_gamma   119.97964633
_symmetry_Int_Tables_number   1
_chemical_formula_structural   Ta6Mn(CS2)3
_chemical_formula_sum   'Ta6 Mn1 C3 S6'
_cell_volume   247.80433377
_cell_formula_units_Z   1
loop_
 _symmetry_equiv_pos_site_id
 _symmetry_equiv_pos_as_xyz
  1  'x, y, z'
loop_
 _atom_site_type_symbol
 _atom_site_label
 _atom_site_symmetry_multiplicity
 _atom_site_fract_x
 _atom_site_fract_y
 _atom_site_fract_z
 _atom_site_occupancy
  Ta  Ta0  1  0.12293000  0.12293000  0.63177300  1
  Ta  Ta1  1  0.45563100  0.78892700  0.63240100  1
  Ta  Ta2  1  0.78892700  0.45563100  0.63240100  1
  Ta  Ta3  1  0.21107300  0.54436900  0.36759900  1
  Ta  Ta4  1  0.54436900  0.21107300  0.36759900  1
  Ta  Ta5  1  0.87707000  0.87707000  0.36822700  1
  Mn  Mn6  1  0.00000000  0.00000000  0.00000000  1
  C  C7  1  0.16777900  0.83222100  0.50000000  1
  C  C8  1  0.50000000  0.50000000  0.50000000  1
  C  C9  1  0.83222100  0.16777900  0.50000000  1
  S  S10  1  0.27879300  0.27879300  0.17727600  1
  S  S11  1  0.60382400  0.94111100  0.17772200  1
  S  S12  1  0.94111100  0.60382400  0.17772200  1
  S  S13  1  0.05888900  0.39617600  0.82227800  1
  S  S14  1  0.39617600  0.05888900  0.82227800  1
  S  S15  1  0.72120700  0.72120700  0.82272400  1
