# generated using pymatgen
data_SrLaVFeO6
_symmetry_space_group_name_H-M   'P 1'
_cell_length_a   5.53857351
_cell_length_b   5.60348532
_cell_length_c   9.68247715
_cell_angle_alpha   73.14923187
_cell_angle_beta   90.55088840
_cell_angle_gamma   59.66271017
_symmetry_Int_Tables_number   1
_chemical_formula_structural   SrLaVFeO6
_chemical_formula_sum   'Sr2 La2 V2 Fe2 O12'
_cell_volume   243.74622079
_cell_formula_units_Z   2
loop_
 _symmetry_equiv_pos_site_id
 _symmetry_equiv_pos_as_xyz
  1  'x, y, z'
loop_
 _atom_site_type_symbol
 _atom_site_label
 _atom_site_symmetry_multiplicity
 _atom_site_fract_x
 _atom_site_fract_y
 _atom_site_fract_z
 _atom_site_occupancy
  Sr  Sr0  1  0.37455400  0.25012800  0.12528400  1
  Sr  Sr1  1  0.87439700  0.25021300  0.62523500  1
  La  La2  1  0.12235600  0.75177700  0.37669800  1
  La  La3  1  0.62250600  0.74982200  0.87678200  1
  V  V4  1  0.24918700  0.49998800  0.75066400  1
  V  V5  1  0.74903400  0.50042200  0.25048500  1
  Fe  Fe6  1  0.49980800  0.00031600  0.50012000  1
  Fe  Fe7  1  0.99979800  0.00015300  0.99976000  1
  O  O8  1  0.62763900  0.25023400  0.37435600  1
  O  O9  1  0.12709300  0.25033000  0.87409300  1
  O  O10  1  0.62644900  0.74841800  0.37414700  1
  O  O11  1  0.12738300  0.74780800  0.87432600  1
  O  O12  1  0.11377600  0.25680300  0.37187300  1
  O  O13  1  0.61414100  0.25715100  0.87179900  1
  O  O14  1  0.87335600  0.74865200  0.12506000  1
  O  O15  1  0.37401400  0.74900900  0.62573900  1
  O  O16  1  0.87460500  0.25079400  0.12588500  1
  O  O17  1  0.37365700  0.25239700  0.62534100  1
  O  O18  1  0.38826800  0.74237900  0.12614600  1
  O  O19  1  0.88797900  0.74320700  0.62620700  1
