# generated using pymatgen
data_SrLaTaNiO6
_symmetry_space_group_name_H-M   'P 1'
_cell_length_a   5.66175096
_cell_length_b   5.66175379
_cell_length_c   9.80646932
_cell_angle_alpha   73.22116748
_cell_angle_beta   90.00003718
_cell_angle_gamma   60.00000826
_symmetry_Int_Tables_number   1
_chemical_formula_structural   SrLaTaNiO6
_chemical_formula_sum   'Sr2 La2 Ta2 Ni2 O12'
_cell_volume   256.66592057
_cell_formula_units_Z   2
loop_
 _symmetry_equiv_pos_site_id
 _symmetry_equiv_pos_as_xyz
  1  'x, y, z'
loop_
 _atom_site_type_symbol
 _atom_site_label
 _atom_site_symmetry_multiplicity
 _atom_site_fract_x
 _atom_site_fract_y
 _atom_site_fract_z
 _atom_site_occupancy
  Sr  Sr0  1  0.37500100  0.24999700  0.12500300  1
  Sr  Sr1  1  0.87499900  0.25000200  0.62499700  1
  La  La2  1  0.12499900  0.75000200  0.37499700  1
  La  La3  1  0.62500100  0.74999900  0.87500200  1
  Ta  Ta4  1  0.75000000  0.49999900  0.25000100  1
  Ta  Ta5  1  0.25000000  0.50000100  0.74999900  1
  Ni  Ni6  1  0.50000000  0.00000000  0.50000000  1
  Ni  Ni7  1  0.00000000  0.00000000  0.00000000  1
  O  O8  1  0.12051500  0.25299000  0.37350500  1
  O  O9  1  0.62051500  0.25298800  0.87350700  1
  O  O10  1  0.62649500  0.25299000  0.37350400  1
  O  O11  1  0.12649700  0.25298800  0.87350700  1
  O  O12  1  0.62649500  0.74701000  0.37350500  1
  O  O13  1  0.12649600  0.74700800  0.87350800  1
  O  O14  1  0.87350400  0.74701100  0.12649400  1
  O  O15  1  0.37350500  0.74701100  0.62649500  1
  O  O16  1  0.87350400  0.25299100  0.12649400  1
  O  O17  1  0.37350500  0.25299000  0.62649400  1
  O  O18  1  0.37948500  0.74701100  0.12649400  1
  O  O19  1  0.87948400  0.74701100  0.62649400  1
