# generated using pymatgen
data_SrNd2BeO5
_symmetry_space_group_name_H-M   'P 1'
_cell_length_a   6.61643100
_cell_length_b   7.28705500
_cell_length_c   9.64161900
_cell_angle_alpha   90.00000000
_cell_angle_beta   90.00000000
_cell_angle_gamma   90.00000000
_symmetry_Int_Tables_number   1
_chemical_formula_structural   SrNd2BeO5
_chemical_formula_sum   'Sr4 Nd8 Be4 O20'
_cell_volume   464.86387818
_cell_formula_units_Z   4
loop_
 _symmetry_equiv_pos_site_id
 _symmetry_equiv_pos_as_xyz
  1  'x, y, z'
loop_
 _atom_site_type_symbol
 _atom_site_label
 _atom_site_symmetry_multiplicity
 _atom_site_fract_x
 _atom_site_fract_y
 _atom_site_fract_z
 _atom_site_occupancy
  Sr  Sr0  1  0.58289400  0.98126900  0.67508000  1
  Sr  Sr1  1  0.41710600  0.48126900  0.32492000  1
  Sr  Sr2  1  0.08289400  0.48126900  0.82492000  1
  Sr  Sr3  1  0.91710600  0.98126900  0.17508000  1
  Nd  Nd4  1  0.09552100  0.74611100  0.52305800  1
  Nd  Nd5  1  0.40447900  0.74611100  0.02305800  1
  Nd  Nd6  1  0.90447900  0.24611100  0.47694200  1
  Nd  Nd7  1  0.59552100  0.24611100  0.97694200  1
  Nd  Nd8  1  0.92591700  0.52680100  0.17210000  1
  Nd  Nd9  1  0.07408300  0.02680100  0.82790000  1
  Nd  Nd10  1  0.42591700  0.02680100  0.32790000  1
  Nd  Nd11  1  0.57408300  0.52680100  0.67210000  1
  Be  Be12  1  0.69228500  0.74902400  0.39901500  1
  Be  Be13  1  0.80771500  0.74902400  0.89901500  1
  Be  Be14  1  0.30771500  0.24902400  0.60098500  1
  Be  Be15  1  0.19228500  0.24902400  0.10098500  1
  O  O16  1  0.01952200  0.75043200  0.98953500  1
  O  O17  1  0.48047800  0.75043200  0.48953500  1
  O  O18  1  0.98047800  0.25043200  0.01046500  1
  O  O19  1  0.51952200  0.25043200  0.51046500  1
  O  O20  1  0.31354300  0.05840100  0.06931800  1
  O  O21  1  0.19555200  0.44115100  0.56798300  1
  O  O22  1  0.68645700  0.55840100  0.93068200  1
  O  O23  1  0.80444800  0.94115100  0.43201700  1
  O  O24  1  0.69555200  0.94115100  0.93201700  1
  O  O25  1  0.81354300  0.55840100  0.43068200  1
  O  O26  1  0.30444800  0.44115100  0.06798300  1
  O  O27  1  0.18645700  0.05840100  0.56931800  1
  O  O28  1  0.63568200  0.74959900  0.22632200  1
  O  O29  1  0.86431800  0.74959900  0.72632200  1
  O  O30  1  0.36431800  0.24959900  0.77367800  1
  O  O31  1  0.13568200  0.24959900  0.27367800  1
  O  O32  1  0.16342700  0.74721100  0.27765100  1
  O  O33  1  0.33657300  0.74721100  0.77765100  1
  O  O34  1  0.83657300  0.24721100  0.72234900  1
  O  O35  1  0.66342700  0.24721100  0.22234900  1
