# generated using pymatgen
data_SrLaCuSe3
_symmetry_space_group_name_H-M   'P 1'
_cell_length_a   4.29568800
_cell_length_b   8.56572500
_cell_length_c   16.61380800
_cell_angle_alpha   90.00000000
_cell_angle_beta   90.00000000
_cell_angle_gamma   90.00000000
_symmetry_Int_Tables_number   1
_chemical_formula_structural   SrLaCuSe3
_chemical_formula_sum   'Sr4 La4 Cu4 Se12'
_cell_volume   611.31639754
_cell_formula_units_Z   4
loop_
 _symmetry_equiv_pos_site_id
 _symmetry_equiv_pos_as_xyz
  1  'x, y, z'
loop_
 _atom_site_type_symbol
 _atom_site_label
 _atom_site_symmetry_multiplicity
 _atom_site_fract_x
 _atom_site_fract_y
 _atom_site_fract_z
 _atom_site_occupancy
  Sr  Sr0  1  0.25000000  0.09068100  0.21555100  1
  Sr  Sr1  1  0.25000000  0.59068100  0.28444900  1
  Sr  Sr2  1  0.75000000  0.90931900  0.78444900  1
  Sr  Sr3  1  0.75000000  0.40931900  0.71555100  1
  La  La4  1  0.25000000  0.25836700  0.95979200  1
  La  La5  1  0.25000000  0.75836700  0.54020800  1
  La  La6  1  0.75000000  0.74163300  0.04020800  1
  La  La7  1  0.75000000  0.24163300  0.45979200  1
  Cu  Cu8  1  0.25000000  0.12197600  0.63420200  1
  Cu  Cu9  1  0.25000000  0.62197600  0.86579800  1
  Cu  Cu10  1  0.75000000  0.87802400  0.36579800  1
  Cu  Cu11  1  0.75000000  0.37802400  0.13420200  1
  Se  Se12  1  0.25000000  0.37724700  0.56383900  1
  Se  Se13  1  0.25000000  0.87724700  0.93616100  1
  Se  Se14  1  0.75000000  0.62275300  0.43616100  1
  Se  Se15  1  0.75000000  0.12275300  0.06383900  1
  Se  Se16  1  0.25000000  0.17812100  0.78123700  1
  Se  Se17  1  0.25000000  0.67812100  0.71876300  1
  Se  Se18  1  0.75000000  0.82187900  0.21876300  1
  Se  Se19  1  0.75000000  0.32187900  0.28123700  1
  Se  Se20  1  0.25000000  0.00834800  0.40318500  1
  Se  Se21  1  0.25000000  0.50834800  0.09681500  1
  Se  Se22  1  0.75000000  0.99165200  0.59681500  1
  Se  Se23  1  0.75000000  0.49165200  0.90318500  1
