# generated using pymatgen
data_SrGdCoO4
_symmetry_space_group_name_H-M   'P 1'
_cell_length_a   6.63239029
_cell_length_b   6.63239029
_cell_length_c   6.63239029
_cell_angle_alpha   146.87504285
_cell_angle_beta   146.87504285
_cell_angle_gamma   47.54883736
_symmetry_Int_Tables_number   1
_chemical_formula_structural   SrGdCoO4
_chemical_formula_sum   'Sr1 Gd1 Co1 O4'
_cell_volume   86.78255134
_cell_formula_units_Z   1
loop_
 _symmetry_equiv_pos_site_id
 _symmetry_equiv_pos_as_xyz
  1  'x, y, z'
loop_
 _atom_site_type_symbol
 _atom_site_label
 _atom_site_symmetry_multiplicity
 _atom_site_fract_x
 _atom_site_fract_y
 _atom_site_fract_z
 _atom_site_occupancy
  Sr  Sr0  1  0.64304000  0.64304000  0.00000000  1
  Gd  Gd1  1  0.36273000  0.36273000  0.00000000  1
  Co  Co2  1  0.00496900  0.00496900  0.00000000  1
  O  O3  1  0.84111200  0.84111200  0.00000000  1
  O  O4  1  0.17169100  0.17169100  0.00000000  1
  O  O5  1  0.98822900  0.48822900  0.50000000  1
  O  O6  1  0.48822900  0.98822900  0.50000000  1
