# generated using pymatgen
data_Ta6Mn2FeO18
_symmetry_space_group_name_H-M   'P 1'
_cell_length_a   10.53330145
_cell_length_b   10.53330145
_cell_length_c   11.58229079
_cell_angle_alpha   58.19970115
_cell_angle_beta   58.19970115
_cell_angle_gamma   37.94349374
_symmetry_Int_Tables_number   1
_chemical_formula_structural   Ta6Mn2FeO18
_chemical_formula_sum   'Ta12 Mn4 Fe2 O36'
_cell_volume   656.11860631
_cell_formula_units_Z   2
loop_
 _symmetry_equiv_pos_site_id
 _symmetry_equiv_pos_as_xyz
  1  'x, y, z'
loop_
 _atom_site_type_symbol
 _atom_site_label
 _atom_site_symmetry_multiplicity
 _atom_site_fract_x
 _atom_site_fract_y
 _atom_site_fract_z
 _atom_site_occupancy
  Ta  Ta0  1  0.11219900  0.11219900  0.60974700  1
  Ta  Ta1  1  0.44379100  0.44379100  0.94464500  1
  Ta  Ta2  1  0.77654800  0.77654800  0.27770900  1
  Ta  Ta3  1  0.11028400  0.11028400  0.11135200  1
  Ta  Ta4  1  0.44371000  0.44371000  0.44293000  1
  Ta  Ta5  1  0.77674300  0.77674300  0.77678800  1
  Ta  Ta6  1  0.88780100  0.88780100  0.39025300  1
  Ta  Ta7  1  0.22345200  0.22345200  0.72229100  1
  Ta  Ta8  1  0.55620900  0.55620900  0.05535500  1
  Ta  Ta9  1  0.22325700  0.22325700  0.22321200  1
  Ta  Ta10  1  0.55629000  0.55629000  0.55707000  1
  Ta  Ta11  1  0.88971600  0.88971600  0.88864800  1
  Mn  Mn12  1  0.66645200  0.66645200  0.16625700  1
  Mn  Mn13  1  0.33354800  0.33354800  0.83374300  1
  Mn  Mn14  1  0.00000000  0.00000000  0.50000000  1
  Mn  Mn15  1  0.00000000  0.00000000  0.00000000  1
  Fe  Fe16  1  0.66637700  0.66637700  0.66745300  1
  Fe  Fe17  1  0.33362300  0.33362300  0.33254700  1
  O  O18  1  0.39879200  0.81392100  0.60615600  1
  O  O19  1  0.73123600  0.14655400  0.94046700  1
  O  O20  1  0.06559900  0.48039000  0.27172700  1
  O  O21  1  0.81392100  0.39879200  0.60615600  1
  O  O22  1  0.14655400  0.73123600  0.94046700  1
  O  O23  1  0.48039000  0.06559900  0.27172700  1
  O  O24  1  0.00718200  0.00718200  0.30075200  1
  O  O25  1  0.34208200  0.34208200  0.63449900  1
  O  O26  1  0.67480300  0.67480300  0.96797800  1
  O  O27  1  0.86976800  0.86976800  0.57741400  1
  O  O28  1  0.20380300  0.20380300  0.91040200  1
  O  O29  1  0.53669600  0.53669600  0.24314200  1
  O  O30  1  0.60120800  0.18607900  0.39384400  1
  O  O31  1  0.93440100  0.51961000  0.72827300  1
  O  O32  1  0.26876400  0.85344600  0.05953300  1
  O  O33  1  0.18607900  0.60120800  0.39384400  1
  O  O34  1  0.51961000  0.93440100  0.72827300  1
  O  O35  1  0.85344600  0.26876400  0.05953300  1
  O  O36  1  0.99281800  0.99281800  0.69924800  1
  O  O37  1  0.32519700  0.32519700  0.03202200  1
  O  O38  1  0.65791800  0.65791800  0.36550100  1
  O  O39  1  0.13023200  0.13023200  0.42258600  1
  O  O40  1  0.46330400  0.46330400  0.75685800  1
  O  O41  1  0.79619700  0.79619700  0.08959800  1
  O  O42  1  0.98246300  0.34989800  0.16706100  1
  O  O43  1  0.65010200  0.01753700  0.83293900  1
  O  O44  1  0.31652400  0.68347600  0.50000000  1
  O  O45  1  0.34989800  0.98246300  0.16706100  1
  O  O46  1  0.01753700  0.65010200  0.83293900  1
  O  O47  1  0.68347600  0.31652400  0.50000000  1
  O  O48  1  0.89337200  0.89337200  0.21194500  1
  O  O49  1  0.56233200  0.56233200  0.87501500  1
  O  O50  1  0.23083800  0.23083800  0.53985100  1
  O  O51  1  0.76916200  0.76916200  0.46014900  1
  O  O52  1  0.43766800  0.43766800  0.12498500  1
  O  O53  1  0.10662800  0.10662800  0.78805500  1
