# generated using pymatgen
data_SrGdNiO4
_symmetry_space_group_name_H-M   'P 1'
_cell_length_a   6.69091826
_cell_length_b   6.69091826
_cell_length_c   6.69091826
_cell_angle_alpha   146.92138949
_cell_angle_beta   146.92138949
_cell_angle_gamma   47.48019201
_symmetry_Int_Tables_number   1
_chemical_formula_structural   SrGdNiO4
_chemical_formula_sum   'Sr1 Gd1 Ni1 O4'
_cell_volume   88.88157805
_cell_formula_units_Z   1
loop_
 _symmetry_equiv_pos_site_id
 _symmetry_equiv_pos_as_xyz
  1  'x, y, z'
loop_
 _atom_site_type_symbol
 _atom_site_label
 _atom_site_symmetry_multiplicity
 _atom_site_fract_x
 _atom_site_fract_y
 _atom_site_fract_z
 _atom_site_occupancy
  Sr  Sr0  1  0.64242500  0.64242500  0.00000000  1
  Gd  Gd1  1  0.36253500  0.36253500  0.00000000  1
  Ni  Ni2  1  0.00242500  0.00242500  0.00000000  1
  O  O3  1  0.83724000  0.83724000  0.00000000  1
  O  O4  1  0.17624800  0.17624800  0.00000000  1
  O  O5  1  0.48956300  0.98956300  0.50000000  1
  O  O6  1  0.98956300  0.48956300  0.50000000  1
