# generated using pymatgen
data_SrLa2Al2O7
_symmetry_space_group_name_H-M   'P 1'
_cell_length_a   10.67459355
_cell_length_b   10.67459355
_cell_length_c   10.67459355
_cell_angle_alpha   159.58435458
_cell_angle_beta   159.58435458
_cell_angle_gamma   29.02907874
_symmetry_Int_Tables_number   1
_chemical_formula_structural   SrLa2Al2O7
_chemical_formula_sum   'Sr1 La2 Al2 O7'
_cell_volume   147.92726446
_cell_formula_units_Z   1
loop_
 _symmetry_equiv_pos_site_id
 _symmetry_equiv_pos_as_xyz
  1  'x, y, z'
loop_
 _atom_site_type_symbol
 _atom_site_label
 _atom_site_symmetry_multiplicity
 _atom_site_fract_x
 _atom_site_fract_y
 _atom_site_fract_z
 _atom_site_occupancy
  Sr  Sr0  1  0.50000000  0.50000000  0.00000000  1
  La  La1  1  0.68046400  0.68046400  0.00000000  1
  La  La2  1  0.31953600  0.31953600  0.00000000  1
  Al  Al3  1  0.91011200  0.91011200  0.00000000  1
  Al  Al4  1  0.08988800  0.08988800  0.00000000  1
  O  O5  1  0.90033700  0.40033700  0.50000000  1
  O  O6  1  0.40033700  0.90033700  0.50000000  1
  O  O7  1  0.09966300  0.59966300  0.50000000  1
  O  O8  1  0.59966300  0.09966300  0.50000000  1
  O  O9  1  0.79849600  0.79849600  0.00000000  1
  O  O10  1  0.20150400  0.20150400  0.00000000  1
  O  O11  1  0.00000000  0.00000000  0.00000000  1
