# generated using pymatgen
data_BiBOF4
_symmetry_space_group_name_H-M   'P 1'
_cell_length_a   4.31132922
_cell_length_b   4.31132922
_cell_length_c   9.46970300
_cell_angle_alpha   90.00000000
_cell_angle_beta   90.00000000
_cell_angle_gamma   90.78827727
_symmetry_Int_Tables_number   1
_chemical_formula_structural   BiBOF4
_chemical_formula_sum   'Bi2 B2 O2 F8'
_cell_volume   176.00201119
_cell_formula_units_Z   2
loop_
 _symmetry_equiv_pos_site_id
 _symmetry_equiv_pos_as_xyz
  1  'x, y, z'
loop_
 _atom_site_type_symbol
 _atom_site_label
 _atom_site_symmetry_multiplicity
 _atom_site_fract_x
 _atom_site_fract_y
 _atom_site_fract_z
 _atom_site_occupancy
  Bi  Bi0  1  0.50263800  0.99736200  0.12185200  1
  Bi  Bi1  1  0.00263800  0.49736200  0.87814800  1
  B  B2  1  0.98479600  0.51520400  0.33600300  1
  B  B3  1  0.48479600  0.01520400  0.66399700  1
  O  O4  1  0.06748000  0.93252000  0.00000000  1
  O  O5  1  0.56748000  0.43252000  0.00000000  1
  F  F6  1  0.04539300  0.83469800  0.31384100  1
  F  F7  1  0.16530200  0.95460700  0.68615900  1
  F  F8  1  0.66530200  0.45460700  0.31384100  1
  F  F9  1  0.54539300  0.33469800  0.68615900  1
  F  F10  1  0.09643500  0.40356500  0.45820200  1
  F  F11  1  0.59643500  0.90356500  0.54179800  1
  F  F12  1  0.13020600  0.36979400  0.20728300  1
  F  F13  1  0.63020600  0.86979400  0.79271700  1
