# generated using pymatgen
data_SrLa3Cr4O12
_symmetry_space_group_name_H-M   'P 1'
_cell_length_a   5.51242143
_cell_length_b   7.87141194
_cell_length_c   5.57796957
_cell_angle_alpha   89.99907697
_cell_angle_beta   90.00301215
_cell_angle_gamma   90.97125873
_symmetry_Int_Tables_number   1
_chemical_formula_structural   SrLa3Cr4O12
_chemical_formula_sum   'Sr1 La3 Cr4 O12'
_cell_volume   241.99633657
_cell_formula_units_Z   1
loop_
 _symmetry_equiv_pos_site_id
 _symmetry_equiv_pos_as_xyz
  1  'x, y, z'
loop_
 _atom_site_type_symbol
 _atom_site_label
 _atom_site_symmetry_multiplicity
 _atom_site_fract_x
 _atom_site_fract_y
 _atom_site_fract_z
 _atom_site_occupancy
  Sr  Sr0  1  0.50006500  0.25001700  0.00197000  1
  La  La1  1  0.00003400  0.74995500  0.49611900  1
  La  La2  1  0.50002100  0.74997900  0.00092000  1
  La  La3  1  0.99985100  0.25005600  0.50068000  1
  Cr  Cr4  1  0.99971100  0.00071700  0.99948000  1
  Cr  Cr5  1  0.50021800  0.00134700  0.49961000  1
  Cr  Cr6  1  0.00033300  0.49927400  0.99949700  1
  Cr  Cr7  1  0.49972100  0.49867000  0.49957500  1
  O  O8  1  0.99997300  0.74994700  0.06106800  1
  O  O9  1  0.50011200  0.24980900  0.55296800  1
  O  O10  1  0.00001000  0.25010900  0.93333700  1
  O  O11  1  0.49989700  0.75011700  0.43635000  1
  O  O12  1  0.21770700  0.53520500  0.71828900  1
  O  O13  1  0.78211700  0.96490700  0.71806400  1
  O  O14  1  0.72246900  0.02363600  0.22332800  1
  O  O15  1  0.27722700  0.47643600  0.22278400  1
  O  O16  1  0.72028600  0.53660900  0.77953700  1
  O  O17  1  0.27999500  0.96328300  0.77899800  1
  O  O18  1  0.21134400  0.02705500  0.28879100  1
  O  O19  1  0.78890800  0.47287300  0.28863400  1
