# generated using pymatgen
data_SrFeO2F
_symmetry_space_group_name_H-M   'P 1'
_cell_length_a   5.62969680
_cell_length_b   5.62969680
_cell_length_c   5.69997942
_cell_angle_alpha   59.80207659
_cell_angle_beta   59.80207659
_cell_angle_gamma   88.58898555
_symmetry_Int_Tables_number   1
_chemical_formula_structural   SrFeO2F
_chemical_formula_sum   'Sr2 Fe2 O4 F2'
_cell_volume   128.48657578
_cell_formula_units_Z   2
loop_
 _symmetry_equiv_pos_site_id
 _symmetry_equiv_pos_as_xyz
  1  'x, y, z'
loop_
 _atom_site_type_symbol
 _atom_site_label
 _atom_site_symmetry_multiplicity
 _atom_site_fract_x
 _atom_site_fract_y
 _atom_site_fract_z
 _atom_site_occupancy
  Sr  Sr0  1  0.25393800  0.25393800  0.51197900  1
  Sr  Sr1  1  0.74606200  0.74606200  0.48802100  1
  Fe  Fe2  1  0.50000000  0.00000000  0.00000000  1
  Fe  Fe3  1  0.00000000  0.50000000  0.00000000  1
  O  O4  1  0.68806500  0.68806500  0.09384600  1
  O  O5  1  0.31193500  0.31193500  0.90615400  1
  O  O6  1  0.23160300  0.76839700  0.00000000  1
  O  O7  1  0.76839700  0.23160300  0.00000000  1
  F  F8  1  0.79986400  0.20013600  0.50000000  1
  F  F9  1  0.20013600  0.79986400  0.50000000  1
