# generated using pymatgen
data_SrFe5Bi4O15
_symmetry_space_group_name_H-M   'P 1'
_cell_length_a   5.75981600
_cell_length_b   6.91648357
_cell_length_c   8.88540102
_cell_angle_alpha   104.84083679
_cell_angle_beta   107.42091330
_cell_angle_gamma   91.10256191
_symmetry_Int_Tables_number   1
_chemical_formula_structural   SrFe5Bi4O15
_chemical_formula_sum   'Sr1 Fe5 Bi4 O15'
_cell_volume   324.70016491
_cell_formula_units_Z   1
loop_
 _symmetry_equiv_pos_site_id
 _symmetry_equiv_pos_as_xyz
  1  'x, y, z'
loop_
 _atom_site_type_symbol
 _atom_site_label
 _atom_site_symmetry_multiplicity
 _atom_site_fract_x
 _atom_site_fract_y
 _atom_site_fract_z
 _atom_site_occupancy
  Sr  Sr0  1  0.56280100  0.90547200  0.19206700  1
  Fe  Fe1  1  0.94394900  0.00544400  0.98522000  1
  Fe  Fe2  1  0.34497800  0.60840200  0.78110600  1
  Fe  Fe3  1  0.75212000  0.20425000  0.57762800  1
  Fe  Fe4  1  0.12808900  0.81228400  0.37589400  1
  Fe  Fe5  1  0.55368900  0.41555900  0.18379700  1
  Bi  Bi6  1  0.02820800  0.49097700  0.01858400  1
  Bi  Bi7  1  0.43146800  0.09442800  0.80081700  1
  Bi  Bi8  1  0.83617100  0.70084800  0.60544800  1
  Bi  Bi9  1  0.22856100  0.29322400  0.41155500  1
  O  O10  1  0.50038500  0.40301700  0.66162900  1
  O  O11  1  0.10532600  0.81233700  0.85671900  1
  O  O12  1  0.69776800  0.20488700  0.05739200  1
  O  O13  1  0.91879700  0.00751300  0.46990300  1
  O  O14  1  0.30812100  0.60946900  0.26369700  1
  O  O15  1  0.40940700  0.02545000  0.47292500  1
  O  O16  1  0.00562100  0.43134300  0.66699200  1
  O  O17  1  0.60679100  0.83014600  0.87120300  1
  O  O18  1  0.82239000  0.61825700  0.27277900  1
  O  O19  1  0.21001100  0.22636700  0.07264300  1
  O  O20  1  0.59256200  0.30473800  0.37177700  1
  O  O21  1  0.20318300  0.71224300  0.57335800  1
  O  O22  1  0.80237000  0.11555600  0.77735400  1
  O  O23  1  0.03581800  0.91215100  0.17562300  1
  O  O24  1  0.39341600  0.51864000  0.97789000  1
