# generated using pymatgen
data_SrLaTiFeO6
_symmetry_space_group_name_H-M   'P 1'
_cell_length_a   9.38786335
_cell_length_b   9.38786335
_cell_length_c   9.38587083
_cell_angle_alpha   26.93335552
_cell_angle_beta   26.93335552
_cell_angle_gamma   38.49250993
_symmetry_Int_Tables_number   1
_chemical_formula_structural   SrLaTiFeO6
_chemical_formula_sum   'Sr1 La1 Ti1 Fe1 O6'
_cell_volume   169.41578788
_cell_formula_units_Z   1
loop_
 _symmetry_equiv_pos_site_id
 _symmetry_equiv_pos_as_xyz
  1  'x, y, z'
loop_
 _atom_site_type_symbol
 _atom_site_label
 _atom_site_symmetry_multiplicity
 _atom_site_fract_x
 _atom_site_fract_y
 _atom_site_fract_z
 _atom_site_occupancy
  Sr  Sr0  1  0.80926300  0.30926300  0.50000000  1
  La  La1  1  0.19453500  0.69453500  0.50000000  1
  Ti  Ti2  1  0.50168800  0.00168800  0.50000000  1
  Fe  Fe3  1  0.99954500  0.49954500  0.50000000  1
  O  O4  1  0.74539300  0.74539300  0.00000000  1
  O  O5  1  0.24539300  0.24539300  0.00000000  1
  O  O6  1  0.80832200  0.30832200  0.00398400  1
  O  O7  1  0.31230600  0.81230600  0.99601600  1
  O  O8  1  0.19855500  0.18500100  0.50000000  1
  O  O9  1  0.68500100  0.69855500  0.50000000  1
