# generated using pymatgen
data_SrEu2BeO5
_symmetry_space_group_name_H-M   'P 1'
_cell_length_a   6.64189600
_cell_length_b   7.25606700
_cell_length_c   9.63504100
_cell_angle_alpha   90.00000000
_cell_angle_beta   90.00000000
_cell_angle_gamma   90.00000000
_symmetry_Int_Tables_number   1
_chemical_formula_structural   SrEu2BeO5
_chemical_formula_sum   'Sr4 Eu8 Be4 O20'
_cell_volume   464.35157432
_cell_formula_units_Z   4
loop_
 _symmetry_equiv_pos_site_id
 _symmetry_equiv_pos_as_xyz
  1  'x, y, z'
loop_
 _atom_site_type_symbol
 _atom_site_label
 _atom_site_symmetry_multiplicity
 _atom_site_fract_x
 _atom_site_fract_y
 _atom_site_fract_z
 _atom_site_occupancy
  Sr  Sr0  1  0.58479600  0.98076200  0.67438600  1
  Sr  Sr1  1  0.41520400  0.48076200  0.32561400  1
  Sr  Sr2  1  0.08479600  0.48076200  0.82561400  1
  Sr  Sr3  1  0.91520400  0.98076200  0.17438600  1
  Eu  Eu4  1  0.08792100  0.74776400  0.52198600  1
  Eu  Eu5  1  0.41207900  0.74776400  0.02198600  1
  Eu  Eu6  1  0.91207900  0.24776400  0.47801400  1
  Eu  Eu7  1  0.58792100  0.24776400  0.97801400  1
  Eu  Eu8  1  0.91952500  0.52203200  0.17358600  1
  Eu  Eu9  1  0.08047500  0.02203200  0.82641400  1
  Eu  Eu10  1  0.41952500  0.02203200  0.32641400  1
  Eu  Eu11  1  0.58047500  0.52203200  0.67358600  1
  Be  Be12  1  0.69157200  0.74959800  0.39948800  1
  Be  Be13  1  0.80842800  0.74959800  0.89948800  1
  Be  Be14  1  0.30842800  0.24959800  0.60051200  1
  Be  Be15  1  0.19157200  0.24959800  0.10051200  1
  O  O16  1  0.01869900  0.74987100  0.99123500  1
  O  O17  1  0.48130100  0.74987100  0.49123500  1
  O  O18  1  0.98130100  0.24987100  0.00876500  1
  O  O19  1  0.51869900  0.24987100  0.50876500  1
  O  O20  1  0.31366200  0.05861500  0.06867700  1
  O  O21  1  0.19065400  0.44093800  0.56698900  1
  O  O22  1  0.68633800  0.55861500  0.93132300  1
  O  O23  1  0.80934600  0.94093800  0.43301100  1
  O  O24  1  0.69065400  0.94093800  0.93301100  1
  O  O25  1  0.81366200  0.55861500  0.43132300  1
  O  O26  1  0.30934600  0.44093800  0.06698900  1
  O  O27  1  0.18633800  0.05861500  0.56867700  1
  O  O28  1  0.63033900  0.75062000  0.22779500  1
  O  O29  1  0.86966100  0.75062000  0.72779500  1
  O  O30  1  0.36966100  0.25062000  0.77220500  1
  O  O31  1  0.13033900  0.25062000  0.27220500  1
  O  O32  1  0.16333700  0.74980000  0.28333600  1
  O  O33  1  0.33666300  0.74980000  0.78333600  1
  O  O34  1  0.83666300  0.24980000  0.71666400  1
  O  O35  1  0.66333700  0.24980000  0.21666400  1
