# generated using pymatgen
data_Sr3Ca(NCl)2
_symmetry_space_group_name_H-M   'P 1'
_cell_length_a   7.36772388
_cell_length_b   7.36772388
_cell_length_c   6.67312603
_cell_angle_alpha   81.34313183
_cell_angle_beta   81.34313183
_cell_angle_gamma   30.29875745
_symmetry_Int_Tables_number   1
_chemical_formula_structural   Sr3Ca(NCl)2
_chemical_formula_sum   'Sr3 Ca1 N2 Cl2'
_cell_volume   180.51755450
_cell_formula_units_Z   1
loop_
 _symmetry_equiv_pos_site_id
 _symmetry_equiv_pos_as_xyz
  1  'x, y, z'
loop_
 _atom_site_type_symbol
 _atom_site_label
 _atom_site_symmetry_multiplicity
 _atom_site_fract_x
 _atom_site_fract_y
 _atom_site_fract_z
 _atom_site_occupancy
  Sr  Sr0  1  0.84956100  0.84956100  0.38146700  1
  Sr  Sr1  1  0.15676600  0.15676600  0.61516600  1
  Sr  Sr2  1  0.65419200  0.65419200  0.11464200  1
  Ca  Ca3  1  0.33827900  0.33827900  0.89006200  1
  N  N4  1  0.75395400  0.75395400  0.75489000  1
  N  N5  1  0.25214500  0.25214500  0.24256800  1
  Cl  Cl6  1  0.49955700  0.49955700  0.50789300  1
  Cl  Cl7  1  0.99554700  0.99554700  0.99331200  1
