# generated using pymatgen
data_Sr3FeCo(ClO2)2
_symmetry_space_group_name_H-M   'P 1'
_cell_length_a   11.62818620
_cell_length_b   11.62818620
_cell_length_c   11.62818620
_cell_angle_alpha   159.74403245
_cell_angle_beta   159.74403245
_cell_angle_gamma   28.79953817
_symmetry_Int_Tables_number   1
_chemical_formula_structural   Sr3FeCo(ClO2)2
_chemical_formula_sum   'Sr3 Fe1 Co1 Cl2 O4'
_cell_volume   188.36747151
_cell_formula_units_Z   1
loop_
 _symmetry_equiv_pos_site_id
 _symmetry_equiv_pos_as_xyz
  1  'x, y, z'
loop_
 _atom_site_type_symbol
 _atom_site_label
 _atom_site_symmetry_multiplicity
 _atom_site_fract_x
 _atom_site_fract_y
 _atom_site_fract_z
 _atom_site_occupancy
  Sr  Sr0  1  0.84984800  0.84984800  0.00000000  1
  Sr  Sr1  1  0.15078900  0.15078900  0.00000000  1
  Sr  Sr2  1  0.99719100  0.99719100  0.00000000  1
  Fe  Fe3  1  0.57347900  0.57347900  0.00000000  1
  Co  Co4  1  0.42040600  0.42040600  0.00000000  1
  Cl  Cl5  1  0.70560300  0.70560300  0.00000000  1
  Cl  Cl6  1  0.30220000  0.30220000  0.00000000  1
  O  O7  1  0.07723000  0.57723000  0.50000000  1
  O  O8  1  0.57723000  0.07723000  0.50000000  1
  O  O9  1  0.92301200  0.42301200  0.50000000  1
  O  O10  1  0.42301200  0.92301200  0.50000000  1
