# generated using pymatgen
data_RbPdC4Br
_symmetry_space_group_name_H-M   'P 1'
_cell_length_a   7.53421854
_cell_length_b   7.53421854
_cell_length_c   7.53421854
_cell_angle_alpha   120.78348604
_cell_angle_beta   120.78348604
_cell_angle_gamma   88.64823604
_symmetry_Int_Tables_number   1
_chemical_formula_structural   RbPdC4Br
_chemical_formula_sum   'Rb2 Pd2 C8 Br2'
_cell_volume   298.74094589
_cell_formula_units_Z   2
loop_
 _symmetry_equiv_pos_site_id
 _symmetry_equiv_pos_as_xyz
  1  'x, y, z'
loop_
 _atom_site_type_symbol
 _atom_site_label
 _atom_site_symmetry_multiplicity
 _atom_site_fract_x
 _atom_site_fract_y
 _atom_site_fract_z
 _atom_site_occupancy
  Rb  Rb0  1  0.75000000  0.25000000  0.50000000  1
  Rb  Rb1  1  0.25000000  0.75000000  0.50000000  1
  Pd  Pd2  1  0.00000000  0.00000000  0.00000000  1
  Pd  Pd3  1  0.50000000  0.50000000  0.00000000  1
  C  C4  1  0.19038400  0.19038400  0.38076700  1
  C  C5  1  0.80961700  0.80961600  0.61923300  1
  C  C6  1  0.19038400  0.80961600  0.00000000  1
  C  C7  1  0.80961600  0.19038400  0.00000000  1
  C  C8  1  0.69061000  0.69061000  0.38122000  1
  C  C9  1  0.30939000  0.30939000  0.61878000  1
  C  C10  1  0.69061000  0.30939000  0.00000000  1
  C  C11  1  0.30939000  0.69061000  0.00000000  1
  Br  Br12  1  0.74323200  0.74323200  0.00000000  1
  Br  Br13  1  0.25676800  0.25676800  0.00000000  1
