# generated using pymatgen
data_Sr2Zn3Cd
_symmetry_space_group_name_H-M   'P 1'
_cell_length_a   6.08807515
_cell_length_b   6.08807515
_cell_length_c   7.85896671
_cell_angle_alpha   50.26148079
_cell_angle_beta   50.26148079
_cell_angle_gamma   47.50304109
_symmetry_Int_Tables_number   1
_chemical_formula_structural   Sr2Zn3Cd
_chemical_formula_sum   'Sr2 Zn3 Cd1'
_cell_volume   153.70499573
_cell_formula_units_Z   1
loop_
 _symmetry_equiv_pos_site_id
 _symmetry_equiv_pos_as_xyz
  1  'x, y, z'
loop_
 _atom_site_type_symbol
 _atom_site_label
 _atom_site_symmetry_multiplicity
 _atom_site_fract_x
 _atom_site_fract_y
 _atom_site_fract_z
 _atom_site_occupancy
  Sr  Sr0  1  0.44826400  0.44826400  0.80172100  1
  Sr  Sr1  1  0.54972900  0.54972900  0.19946600  1
  Zn  Zn2  1  0.17447000  0.17447000  0.39466700  1
  Zn  Zn3  1  0.15463500  0.15463500  0.78288200  1
  Zn  Zn4  1  0.83602400  0.83602400  0.22041400  1
  Cd  Cd5  1  0.83687800  0.83687800  0.60085000  1
