# generated using pymatgen
data_Sr3Nd(FeO4)2
_symmetry_space_group_name_H-M   'P 1'
_cell_length_a   6.91649566
_cell_length_b   6.91649566
_cell_length_c   5.49320200
_cell_angle_alpha   90.00000000
_cell_angle_beta   90.00000000
_cell_angle_gamma   133.33522757
_symmetry_Int_Tables_number   1
_chemical_formula_structural   Sr3Nd(FeO4)2
_chemical_formula_sum   'Sr3 Nd1 Fe2 O8'
_cell_volume   191.13569466
_cell_formula_units_Z   1
loop_
 _symmetry_equiv_pos_site_id
 _symmetry_equiv_pos_as_xyz
  1  'x, y, z'
loop_
 _atom_site_type_symbol
 _atom_site_label
 _atom_site_symmetry_multiplicity
 _atom_site_fract_x
 _atom_site_fract_y
 _atom_site_fract_z
 _atom_site_occupancy
  Sr  Sr0  1  0.64550100  0.35449900  0.00000000  1
  Sr  Sr1  1  0.35569700  0.64430300  0.00000000  1
  Sr  Sr2  1  0.85458900  0.14541100  0.50000000  1
  Nd  Nd3  1  0.14067600  0.85932400  0.50000000  1
  Fe  Fe4  1  0.50130700  0.49869300  0.50000000  1
  Fe  Fe5  1  0.99724800  0.00275200  0.00000000  1
  O  O6  1  0.84155100  0.15844900  0.00000000  1
  O  O7  1  0.32348000  0.67652000  0.50000000  1
  O  O8  1  0.66453300  0.33546700  0.50000000  1
  O  O9  1  0.16088600  0.83911400  0.00000000  1
  O  O10  1  0.25269500  0.24542900  0.25786200  1
  O  O11  1  0.75457100  0.74730500  0.74213800  1
  O  O12  1  0.75457100  0.74730500  0.25786200  1
  O  O13  1  0.25269500  0.24542900  0.74213800  1
