# generated using pymatgen
data_SrAlSi5N7O2
_symmetry_space_group_name_H-M   'P 1'
_cell_length_a   4.93742200
_cell_length_b   6.80448568
_cell_length_c   6.86298414
_cell_angle_alpha   75.32170240
_cell_angle_beta   69.49518429
_cell_angle_gamma   69.07919226
_symmetry_Int_Tables_number   1
_chemical_formula_structural   SrAlSi5N7O2
_chemical_formula_sum   'Sr1 Al1 Si5 N7 O2'
_cell_volume   199.54578823
_cell_formula_units_Z   1
loop_
 _symmetry_equiv_pos_site_id
 _symmetry_equiv_pos_as_xyz
  1  'x, y, z'
loop_
 _atom_site_type_symbol
 _atom_site_label
 _atom_site_symmetry_multiplicity
 _atom_site_fract_x
 _atom_site_fract_y
 _atom_site_fract_z
 _atom_site_occupancy
  Sr  Sr0  1  0.27991300  0.01044200  0.99555400  1
  Al  Al1  1  0.82512400  0.52720900  0.14714000  1
  Si  Si2  1  0.32548200  0.33279400  0.33222700  1
  Si  Si3  1  0.98951000  0.66075700  0.66078000  1
  Si  Si4  1  0.50167100  0.46847900  0.85472700  1
  Si  Si5  1  0.81633900  0.14417000  0.53179500  1
  Si  Si6  1  0.48514300  0.85937900  0.47974300  1
  N  N7  1  0.69287600  0.29706300  0.31545300  1
  N  N8  1  0.30979100  0.69029100  0.68798000  1
  N  N9  1  0.23983900  0.44384200  0.09891700  1
  N  N10  1  0.76011200  0.56749500  0.88951700  1
  N  N11  1  0.21537900  0.10089900  0.44373300  1
  N  N12  1  0.76787700  0.89512300  0.55151500  1
  N  N13  1  0.62972100  0.22842200  0.76933600  1
  O  O14  1  0.07726700  0.49975900  0.49324600  1
  O  O15  1  0.61505600  0.77387700  0.24833600  1
