# generated using pymatgen
data_Sr4ZrTi3O12
_symmetry_space_group_name_H-M   'P 1'
_cell_length_a   4.03729300
_cell_length_b   5.65726500
_cell_length_c   11.32376300
_cell_angle_alpha   90.00000000
_cell_angle_beta   90.00000000
_cell_angle_gamma   90.00000000
_symmetry_Int_Tables_number   1
_chemical_formula_structural   Sr4ZrTi3O12
_chemical_formula_sum   'Sr4 Zr1 Ti3 O12'
_cell_volume   258.63515892
_cell_formula_units_Z   1
loop_
 _symmetry_equiv_pos_site_id
 _symmetry_equiv_pos_as_xyz
  1  'x, y, z'
loop_
 _atom_site_type_symbol
 _atom_site_label
 _atom_site_symmetry_multiplicity
 _atom_site_fract_x
 _atom_site_fract_y
 _atom_site_fract_z
 _atom_site_occupancy
  Sr  Sr0  1  0.50000000  0.50000000  0.50000000  1
  Sr  Sr1  1  0.50000000  0.00000000  0.73767000  1
  Sr  Sr2  1  0.50000000  0.50000000  0.00000000  1
  Sr  Sr3  1  0.50000000  0.00000000  0.26233000  1
  Zr  Zr4  1  0.00000000  0.00000000  0.00000000  1
  Ti  Ti5  1  0.00000000  0.50000000  0.25490100  1
  Ti  Ti6  1  0.00000000  0.00000000  0.50000000  1
  Ti  Ti7  1  0.00000000  0.50000000  0.74509900  1
  O  O8  1  0.00000000  0.24770700  0.37789300  1
  O  O9  1  0.00000000  0.75229300  0.62210700  1
  O  O10  1  0.00000000  0.26035800  0.86779800  1
  O  O11  1  0.00000000  0.73964200  0.13220200  1
  O  O12  1  0.00000000  0.24770700  0.62210700  1
  O  O13  1  0.00000000  0.73964200  0.86779800  1
  O  O14  1  0.00000000  0.26035800  0.13220200  1
  O  O15  1  0.00000000  0.75229300  0.37789300  1
  O  O16  1  0.50000000  0.50000000  0.25842100  1
  O  O17  1  0.50000000  0.00000000  0.50000000  1
  O  O18  1  0.50000000  0.50000000  0.74157900  1
  O  O19  1  0.50000000  0.00000000  0.00000000  1
