# generated using pymatgen
data_Sr5Mn(Fe2O5)2
_symmetry_space_group_name_H-M   'P 1'
_cell_length_a   5.35515455
_cell_length_b   5.35594924
_cell_length_c   20.77676248
_cell_angle_alpha   83.78717699
_cell_angle_beta   83.78280599
_cell_angle_gamma   99.27125554
_symmetry_Int_Tables_number   1
_chemical_formula_structural   Sr5Mn(Fe2O5)2
_chemical_formula_sum   'Sr10 Mn2 Fe8 O20'
_cell_volume   579.85805544
_cell_formula_units_Z   2
loop_
 _symmetry_equiv_pos_site_id
 _symmetry_equiv_pos_as_xyz
  1  'x, y, z'
loop_
 _atom_site_type_symbol
 _atom_site_label
 _atom_site_symmetry_multiplicity
 _atom_site_fract_x
 _atom_site_fract_y
 _atom_site_fract_z
 _atom_site_occupancy
  Sr  Sr0  1  0.25001700  0.74965700  0.49989500  1
  Sr  Sr1  1  0.74988600  0.24949600  0.49990000  1
  Sr  Sr2  1  0.44764500  0.94767800  0.10419900  1
  Sr  Sr3  1  0.94761700  0.44777600  0.10420000  1
  Sr  Sr4  1  0.05217900  0.55252900  0.89593500  1
  Sr  Sr5  1  0.55225700  0.05244200  0.89594000  1
  Sr  Sr6  1  0.34871500  0.84875600  0.30145700  1
  Sr  Sr7  1  0.84882400  0.34855400  0.30145800  1
  Sr  Sr8  1  0.15132000  0.65102500  0.69843700  1
  Sr  Sr9  1  0.65116900  0.15112400  0.69843800  1
  Mn  Mn10  1  0.49946900  0.49984400  0.99994900  1
  Mn  Mn11  1  0.00008600  0.00065400  0.99986000  1
  Fe  Fe12  1  0.39777000  0.39796100  0.20288200  1
  Fe  Fe13  1  0.10152200  0.10196900  0.79775700  1
  Fe  Fe14  1  0.79940200  0.79911400  0.40048200  1
  Fe  Fe15  1  0.20083000  0.20071500  0.59894900  1
  Fe  Fe16  1  0.89789600  0.89745900  0.20285300  1
  Fe  Fe17  1  0.60193900  0.60205200  0.79770600  1
  Fe  Fe18  1  0.29922800  0.29915800  0.40052000  1
  Fe  Fe19  1  0.70105100  0.70010100  0.59889900  1
  O  O20  1  0.25007500  0.24981200  0.49978900  1
  O  O21  1  0.75008400  0.74973800  0.49978100  1
  O  O22  1  0.74945300  0.24984200  0.00000900  1
  O  O23  1  0.24945900  0.74985700  0.00000800  1
  O  O24  1  0.44854400  0.44864100  0.10423900  1
  O  O25  1  0.94861500  0.94861500  0.10424900  1
  O  O26  1  0.05258200  0.05327200  0.89621800  1
  O  O27  1  0.55254300  0.55324100  0.89625800  1
  O  O28  1  0.34798500  0.34807600  0.30154800  1
  O  O29  1  0.84809400  0.84795400  0.30154900  1
  O  O30  1  0.15192600  0.15188400  0.69836600  1
  O  O31  1  0.65195200  0.65184200  0.69836300  1
  O  O32  1  0.64735100  0.14737400  0.20223600  1
  O  O33  1  0.14737400  0.64735200  0.20223300  1
  O  O34  1  0.35236200  0.85260000  0.79800100  1
  O  O35  1  0.85236800  0.35257300  0.79800400  1
  O  O36  1  0.54982400  0.04972400  0.40038300  1
  O  O37  1  0.04982700  0.54972000  0.40038400  1
  O  O38  1  0.45040100  0.94985900  0.59932900  1
  O  O39  1  0.95035700  0.44996000  0.59933700  1
