# generated using pymatgen
data_SrCa3Ti4O12
_symmetry_space_group_name_H-M   'P 1'
_cell_length_a   7.76219800
_cell_length_b   5.46883800
_cell_length_c   5.50869025
_cell_angle_alpha   89.87431445
_cell_angle_beta   90.00000000
_cell_angle_gamma   90.00000000
_symmetry_Int_Tables_number   1
_chemical_formula_structural   SrCa3Ti4O12
_chemical_formula_sum   'Sr1 Ca3 Ti4 O12'
_cell_volume   233.84445904
_cell_formula_units_Z   1
loop_
 _symmetry_equiv_pos_site_id
 _symmetry_equiv_pos_as_xyz
  1  'x, y, z'
loop_
 _atom_site_type_symbol
 _atom_site_label
 _atom_site_symmetry_multiplicity
 _atom_site_fract_x
 _atom_site_fract_y
 _atom_site_fract_z
 _atom_site_occupancy
  Sr  Sr0  1  0.50000000  0.49538400  0.52279000  1
  Ca  Ca1  1  0.50000000  0.00500700  0.03405400  1
  Ca  Ca2  1  0.00000000  0.50569300  0.46383400  1
  Ca  Ca3  1  0.00000000  0.99846800  0.97014400  1
  Ti  Ti4  1  0.24779100  0.00232300  0.50235500  1
  Ti  Ti5  1  0.75251900  0.50210200  0.99880200  1
  Ti  Ti6  1  0.75220900  0.00232300  0.50235500  1
  Ti  Ti7  1  0.24748100  0.50210200  0.99880200  1
  O  O8  1  0.28571500  0.20847000  0.78995500  1
  O  O9  1  0.72634100  0.28002400  0.28125200  1
  O  O10  1  0.78895100  0.78274400  0.21534900  1
  O  O11  1  0.21241500  0.71081400  0.71190700  1
  O  O12  1  0.21104900  0.78274400  0.21534900  1
  O  O13  1  0.78758500  0.71081400  0.71190700  1
  O  O14  1  0.71428500  0.20847000  0.78995500  1
  O  O15  1  0.27365900  0.28002400  0.28125200  1
  O  O16  1  0.50000000  0.56939700  0.99698000  1
  O  O17  1  0.50000000  0.94929000  0.48046200  1
  O  O18  1  0.00000000  0.43106000  0.00921000  1
  O  O19  1  0.00000000  0.07275000  0.52328500  1
