# generated using pymatgen
data_SrCa2Sc6O12
_symmetry_space_group_name_H-M   'P 1'
_cell_length_a   3.19223400
_cell_length_b   9.70903268
_cell_length_c   9.70897833
_cell_angle_alpha   120.00052134
_cell_angle_beta   90.00017281
_cell_angle_gamma   89.99979154
_symmetry_Int_Tables_number   1
_chemical_formula_structural   SrCa2Sc6O12
_chemical_formula_sum   'Sr1 Ca2 Sc6 O12'
_cell_volume   260.59889142
_cell_formula_units_Z   1
loop_
 _symmetry_equiv_pos_site_id
 _symmetry_equiv_pos_as_xyz
  1  'x, y, z'
loop_
 _atom_site_type_symbol
 _atom_site_label
 _atom_site_symmetry_multiplicity
 _atom_site_fract_x
 _atom_site_fract_y
 _atom_site_fract_z
 _atom_site_occupancy
  Sr  Sr0  1  0.50000000  0.00000000  0.00000000  1
  Ca  Ca1  1  0.74903200  0.66665600  0.33332000  1
  Ca  Ca2  1  0.25096800  0.33334400  0.66668000  1
  Sc  Sc3  1  0.75524300  0.35019600  0.00181100  1
  Sc  Sc4  1  0.75526300  0.99819300  0.34839600  1
  Sc  Sc5  1  0.75525700  0.65161000  0.64979900  1
  Sc  Sc6  1  0.24475700  0.64980400  0.99818900  1
  Sc  Sc7  1  0.24473700  0.00180700  0.65160400  1
  Sc  Sc8  1  0.24474300  0.34839000  0.35020100  1
  O  O9  1  0.75005500  0.12774000  0.60223000  1
  O  O10  1  0.75005700  0.39777500  0.52550900  1
  O  O11  1  0.75005600  0.47448800  0.87226200  1
  O  O12  1  0.24994500  0.87226000  0.39777000  1
  O  O13  1  0.24994300  0.60222500  0.47449100  1
  O  O14  1  0.24994400  0.52551200  0.12773800  1
  O  O15  1  0.74644800  0.89272800  0.70167300  1
  O  O16  1  0.74645600  0.29831200  0.19104200  1
  O  O17  1  0.74645900  0.80894800  0.10726600  1
  O  O18  1  0.25355200  0.10727200  0.29832700  1
  O  O19  1  0.25354400  0.70168800  0.80895800  1
  O  O20  1  0.25354100  0.19105200  0.89273400  1
