# generated using pymatgen
data_Sr3NdCuRuO8
_symmetry_space_group_name_H-M   'P 1'
_cell_length_a   5.57063248
_cell_length_b   5.54794001
_cell_length_c   6.86397380
_cell_angle_alpha   90.00000000
_cell_angle_beta   66.05950122
_cell_angle_gamma   90.00000000
_symmetry_Int_Tables_number   1
_chemical_formula_structural   Sr3NdCuRuO8
_chemical_formula_sum   'Sr3 Nd1 Cu1 Ru1 O8'
_cell_volume   193.88426535
_cell_formula_units_Z   1
loop_
 _symmetry_equiv_pos_site_id
 _symmetry_equiv_pos_as_xyz
  1  'x, y, z'
loop_
 _atom_site_type_symbol
 _atom_site_label
 _atom_site_symmetry_multiplicity
 _atom_site_fract_x
 _atom_site_fract_y
 _atom_site_fract_z
 _atom_site_occupancy
  Sr  Sr0  1  0.85649900  0.50000000  0.28700200  1
  Sr  Sr1  1  0.35435700  0.00000000  0.29128700  1
  Sr  Sr2  1  0.14193000  0.50000000  0.71613900  1
  Nd  Nd3  1  0.63786100  0.00000000  0.72427900  1
  Cu  Cu4  1  0.99475700  0.00000000  0.01048700  1
  Ru  Ru5  1  0.49646800  0.50000000  0.00706400  1
  O  O6  1  0.74776300  0.24804200  0.98593600  1
  O  O7  1  0.26630200  0.75195800  0.98593600  1
  O  O8  1  0.26630200  0.24804200  0.98593600  1
  O  O9  1  0.74776300  0.75195800  0.98593600  1
  O  O10  1  0.16523000  0.00000000  0.66954000  1
  O  O11  1  0.66346800  0.50000000  0.67306400  1
  O  O12  1  0.33927000  0.50000000  0.32146000  1
  O  O13  1  0.82203200  0.00000000  0.35593700  1
