# generated using pymatgen
data_SrCaAl4(SiO5)4
_symmetry_space_group_name_H-M   'P 1'
_cell_length_a   13.11384900
_cell_length_b   5.35298100
_cell_length_c   5.39351197
_cell_angle_alpha   66.90521934
_cell_angle_beta   90.00000000
_cell_angle_gamma   90.00000000
_symmetry_Int_Tables_number   1
_chemical_formula_structural   SrCaAl4(SiO5)4
_chemical_formula_sum   'Sr1 Ca1 Al4 Si4 O20'
_cell_volume   348.27151520
_cell_formula_units_Z   1
loop_
 _symmetry_equiv_pos_site_id
 _symmetry_equiv_pos_as_xyz
  1  'x, y, z'
loop_
 _atom_site_type_symbol
 _atom_site_label
 _atom_site_symmetry_multiplicity
 _atom_site_fract_x
 _atom_site_fract_y
 _atom_site_fract_z
 _atom_site_occupancy
  Sr  Sr0  1  0.50000000  0.68155100  0.66222700  1
  Ca  Ca1  1  0.00000000  0.33118000  0.34186600  1
  Al  Al2  1  0.75231400  0.00126300  0.49877700  1
  Al  Al3  1  0.24768600  0.00126300  0.49877700  1
  Al  Al4  1  0.75177600  0.49907300  0.00095600  1
  Al  Al5  1  0.24822400  0.49907300  0.00095600  1
  Si  Si6  1  0.88129100  0.98473500  0.97419600  1
  Si  Si7  1  0.37834500  0.01572900  0.02631300  1
  Si  Si8  1  0.62165500  0.01572900  0.02631300  1
  Si  Si9  1  0.11870900  0.98473500  0.97419600  1
  O  O10  1  0.81120400  0.64930000  0.65264000  1
  O  O11  1  0.30892400  0.35023800  0.34742900  1
  O  O12  1  0.69107600  0.35023800  0.34742900  1
  O  O13  1  0.18879600  0.64930000  0.65264000  1
  O  O14  1  0.50000000  0.32313400  0.42958300  1
  O  O15  1  0.00000000  0.65865000  0.56328600  1
  O  O16  1  0.86658700  0.65407900  0.09886000  1
  O  O17  1  0.36137100  0.34391700  0.90155000  1
  O  O18  1  0.63862900  0.34391700  0.90155000  1
  O  O19  1  0.13341300  0.65407900  0.09886000  1
  O  O20  1  0.50000000  0.95296000  0.98077900  1
  O  O21  1  0.00000000  0.05588400  0.03223700  1
  O  O22  1  0.81905000  0.14060300  0.13913400  1
  O  O23  1  0.31766100  0.85966100  0.85927700  1
  O  O24  1  0.68233900  0.85966100  0.85927700  1
  O  O25  1  0.18095000  0.14060300  0.13913400  1
  O  O26  1  0.13684800  0.11445200  0.64815900  1
  O  O27  1  0.64404200  0.88437200  0.34867100  1
  O  O28  1  0.35595800  0.88437200  0.34867100  1
  O  O29  1  0.86315200  0.11445200  0.64815900  1
