# generated using pymatgen
data_Sr3Tl(FeO4)2
_symmetry_space_group_name_H-M   'P 1'
_cell_length_a   3.88272200
_cell_length_b   3.89738200
_cell_length_c   12.68725700
_cell_angle_alpha   90.00000000
_cell_angle_beta   90.00000000
_cell_angle_gamma   90.00000000
_symmetry_Int_Tables_number   1
_chemical_formula_structural   Sr3Tl(FeO4)2
_chemical_formula_sum   'Sr3 Tl1 Fe2 O8'
_cell_volume   191.98929277
_cell_formula_units_Z   1
loop_
 _symmetry_equiv_pos_site_id
 _symmetry_equiv_pos_as_xyz
  1  'x, y, z'
loop_
 _atom_site_type_symbol
 _atom_site_label
 _atom_site_symmetry_multiplicity
 _atom_site_fract_x
 _atom_site_fract_y
 _atom_site_fract_z
 _atom_site_occupancy
  Sr  Sr0  1  0.50000000  0.49915400  0.80161300  1
  Sr  Sr1  1  0.50000000  0.49915400  0.19838700  1
  Sr  Sr2  1  0.50000000  0.50043000  0.50000000  1
  Tl  Tl3  1  0.00000000  0.93809600  0.00000000  1
  Fe  Fe4  1  0.00000000  0.00030800  0.65510100  1
  Fe  Fe5  1  0.00000000  0.00030800  0.34489900  1
  O  O6  1  0.50000000  0.99823300  0.66160100  1
  O  O7  1  0.00000000  0.50056300  0.66201000  1
  O  O8  1  0.50000000  0.99823300  0.33839900  1
  O  O9  1  0.00000000  0.50056300  0.33799000  1
  O  O10  1  0.00000000  0.00079500  0.50000000  1
  O  O11  1  0.00000000  0.01895400  0.83325000  1
  O  O12  1  0.00000000  0.01895400  0.16675000  1
  O  O13  1  0.50000000  0.60025600  0.00000000  1
