# generated using pymatgen
data_Sr6Y2Al4O15
_symmetry_space_group_name_H-M   'P 1'
_cell_length_a   9.34672441
_cell_length_b   9.34672441
_cell_length_c   7.77352640
_cell_angle_alpha   89.38691660
_cell_angle_beta   89.38691660
_cell_angle_gamma   36.14414214
_symmetry_Int_Tables_number   1
_chemical_formula_structural   Sr6Y2Al4O15
_chemical_formula_sum   'Sr6 Y2 Al4 O15'
_cell_volume   400.52346468
_cell_formula_units_Z   1
loop_
 _symmetry_equiv_pos_site_id
 _symmetry_equiv_pos_as_xyz
  1  'x, y, z'
loop_
 _atom_site_type_symbol
 _atom_site_label
 _atom_site_symmetry_multiplicity
 _atom_site_fract_x
 _atom_site_fract_y
 _atom_site_fract_z
 _atom_site_occupancy
  Sr  Sr0  1  0.68735100  0.65722300  0.49565400  1
  Sr  Sr1  1  0.34277700  0.31264900  0.50434600  1
  Sr  Sr2  1  0.69109200  0.62711800  0.03449200  1
  Sr  Sr3  1  0.37288200  0.30890800  0.96550800  1
  Sr  Sr4  1  0.97393500  0.02606500  0.00000000  1
  Sr  Sr5  1  0.90481100  0.09518900  0.50000000  1
  Y  Y6  1  0.84988900  0.83537800  0.24678400  1
  Y  Y7  1  0.16462200  0.15011100  0.75321600  1
  Al  Al8  1  0.82778400  0.79101100  0.75538100  1
  Al  Al9  1  0.20898900  0.17221600  0.24461900  1
  Al  Al10  1  0.48182900  0.54517500  0.77360800  1
  Al  Al11  1  0.45482500  0.51817100  0.22639200  1
  O  O12  1  0.86231500  0.86305700  0.94831900  1
  O  O13  1  0.13694300  0.13768500  0.05168100  1
  O  O14  1  0.04658400  0.47416100  0.76434500  1
  O  O15  1  0.52583900  0.95341600  0.23565600  1
  O  O16  1  0.53424600  0.94574500  0.77222100  1
  O  O17  1  0.05425500  0.46575400  0.22777900  1
  O  O18  1  0.75941700  0.41870800  0.74320300  1
  O  O19  1  0.58129200  0.24058300  0.25679700  1
  O  O20  1  0.22709300  0.85990200  0.72721500  1
  O  O21  1  0.14009800  0.77290700  0.27278500  1
  O  O22  1  0.51226900  0.34814800  0.69129600  1
  O  O23  1  0.65185200  0.48773100  0.30870400  1
  O  O24  1  0.84691800  0.83682000  0.53740800  1
  O  O25  1  0.16318000  0.15308200  0.46259200  1
  O  O26  1  0.46771100  0.53228900  0.00000000  1
