# generated using pymatgen
data_Sr3LaCu2HgBiO10
_symmetry_space_group_name_H-M   'P 1'
_cell_length_a   9.77181032
_cell_length_b   9.77181032
_cell_length_c   9.77181032
_cell_angle_alpha   148.55184766
_cell_angle_beta   148.51556611
_cell_angle_gamma   45.09812782
_symmetry_Int_Tables_number   1
_chemical_formula_structural   Sr3LaCu2HgBiO10
_chemical_formula_sum   'Sr3 La1 Cu2 Hg1 Bi1 O10'
_cell_volume   253.44793237
_cell_formula_units_Z   1
loop_
 _symmetry_equiv_pos_site_id
 _symmetry_equiv_pos_as_xyz
  1  'x, y, z'
loop_
 _atom_site_type_symbol
 _atom_site_label
 _atom_site_symmetry_multiplicity
 _atom_site_fract_x
 _atom_site_fract_y
 _atom_site_fract_z
 _atom_site_occupancy
  Sr  Sr0  1  0.85307600  0.35307600  0.50000000  1
  Sr  Sr1  1  0.35494100  0.85494100  0.50000000  1
  Sr  Sr2  1  0.64653600  0.14653600  0.50000000  1
  La  La3  1  0.15101500  0.65101500  0.50000000  1
  Cu  Cu4  1  0.75174400  0.75174400  0.00000000  1
  Cu  Cu5  1  0.25374700  0.25374700  0.00000000  1
  Hg  Hg6  1  0.99951400  0.99951400  0.00000000  1
  Bi  Bi7  1  0.49942200  0.49942200  0.00000000  1
  O  O8  1  0.88151700  0.88151700  0.00000000  1
  O  O9  1  0.37751000  0.37751000  0.00000000  1
  O  O10  1  0.62220800  0.62220800  0.00000000  1
  O  O11  1  0.11814100  0.11814100  0.00000000  1
  O  O12  1  0.00522000  0.50522000  0.50000000  1
  O  O13  1  0.50005100  0.00005100  0.50000000  1
  O  O14  1  0.00050600  0.50047500  0.00830100  1
  O  O15  1  0.49217400  0.99220500  0.99169900  1
  O  O16  1  0.00050600  0.99220500  0.50003200  1
  O  O17  1  0.49217400  0.50047500  0.49996800  1
