# generated using pymatgen
data_BaCuSO
_symmetry_space_group_name_H-M   'P 1'
_cell_length_a   6.66260798
_cell_length_b   6.66260798
_cell_length_c   6.14363500
_cell_angle_alpha   90.00000000
_cell_angle_beta   90.00000000
_cell_angle_gamma   145.30291271
_symmetry_Int_Tables_number   1
_chemical_formula_structural   BaCuSO
_chemical_formula_sum   'Ba2 Cu2 S2 O2'
_cell_volume   155.24141914
_cell_formula_units_Z   2
loop_
 _symmetry_equiv_pos_site_id
 _symmetry_equiv_pos_as_xyz
  1  'x, y, z'
loop_
 _atom_site_type_symbol
 _atom_site_label
 _atom_site_symmetry_multiplicity
 _atom_site_fract_x
 _atom_site_fract_y
 _atom_site_fract_z
 _atom_site_occupancy
  Ba  Ba0  1  0.89630600  0.10369400  0.75000000  1
  Ba  Ba1  1  0.10369400  0.89630600  0.25000000  1
  Cu  Cu2  1  0.39700500  0.60299500  0.25000000  1
  Cu  Cu3  1  0.60299500  0.39700500  0.75000000  1
  S  S4  1  0.81629800  0.18370200  0.25000000  1
  S  S5  1  0.18370200  0.81629800  0.75000000  1
  O  O6  1  0.50000000  0.50000000  0.50000000  1
  O  O7  1  0.50000000  0.50000000  0.00000000  1
