# generated using pymatgen
data_Sr3LaNb3O12
_symmetry_space_group_name_H-M   'P 1'
_cell_length_a   9.80513005
_cell_length_b   9.80513005
_cell_length_c   9.80513003
_cell_angle_alpha   33.99070056
_cell_angle_beta   33.99070056
_cell_angle_gamma   33.99070506
_symmetry_Int_Tables_number   1
_chemical_formula_structural   Sr3LaNb3O12
_chemical_formula_sum   'Sr3 La1 Nb3 O12'
_cell_volume   262.62051427
_cell_formula_units_Z   1
loop_
 _symmetry_equiv_pos_site_id
 _symmetry_equiv_pos_as_xyz
  1  'x, y, z'
loop_
 _atom_site_type_symbol
 _atom_site_label
 _atom_site_symmetry_multiplicity
 _atom_site_fract_x
 _atom_site_fract_y
 _atom_site_fract_z
 _atom_site_occupancy
  Sr  Sr0  1  0.85899600  0.85899600  0.85899600  1
  Sr  Sr1  1  0.14070200  0.14070200  0.14070200  1
  Sr  Sr2  1  0.71460200  0.71460200  0.71460200  1
  La  La3  1  0.28528500  0.28528500  0.28528500  1
  Nb  Nb4  1  0.57652600  0.57652600  0.57652600  1
  Nb  Nb5  1  0.42447500  0.42447500  0.42447500  1
  Nb  Nb6  1  0.00131900  0.00131900  0.00131900  1
  O  O7  1  0.31312000  0.88705700  0.44227400  1
  O  O8  1  0.44227400  0.31312000  0.88705700  1
  O  O9  1  0.88705700  0.44227400  0.31312000  1
  O  O10  1  0.68672000  0.12257900  0.55443200  1
  O  O11  1  0.55443200  0.68672000  0.12257900  1
  O  O12  1  0.12257900  0.55443200  0.68672000  1
  O  O13  1  0.15389800  0.70170400  0.25893200  1
  O  O14  1  0.25893200  0.15389800  0.70170400  1
  O  O15  1  0.70170400  0.25893200  0.15389800  1
  O  O16  1  0.86197100  0.29252800  0.72287900  1
  O  O17  1  0.72287900  0.86197100  0.29252800  1
  O  O18  1  0.29252800  0.72287900  0.86197100  1
