# generated using pymatgen
data_Sr3CoSb2O9
_symmetry_space_group_name_H-M   'P 1'
_cell_length_a   9.91042050
_cell_length_b   9.91042050
_cell_length_c   9.91042050
_cell_angle_alpha   146.58664325
_cell_angle_beta   131.23427397
_cell_angle_gamma   60.40546401
_symmetry_Int_Tables_number   1
_chemical_formula_structural   Sr3CoSb2O9
_chemical_formula_sum   'Sr6 Co2 Sb4 O18'
_cell_volume   399.34220652
_cell_formula_units_Z   2
loop_
 _symmetry_equiv_pos_site_id
 _symmetry_equiv_pos_as_xyz
  1  'x, y, z'
loop_
 _atom_site_type_symbol
 _atom_site_label
 _atom_site_symmetry_multiplicity
 _atom_site_fract_x
 _atom_site_fract_y
 _atom_site_fract_z
 _atom_site_occupancy
  Sr  Sr0  1  0.58392800  0.32635300  0.25757500  1
  Sr  Sr1  1  0.93122200  0.67364700  0.25757500  1
  Sr  Sr2  1  0.23083000  0.00000000  0.23083000  1
  Sr  Sr3  1  0.41607200  0.67364700  0.74242500  1
  Sr  Sr4  1  0.76917000  0.00000000  0.76917000  1
  Sr  Sr5  1  0.06877800  0.32635300  0.74242500  1
  Co  Co6  1  0.83306000  0.83306000  0.00000000  1
  Co  Co7  1  0.16694000  0.16694000  0.00000000  1
  Sb  Sb8  1  0.00000000  0.50000000  0.50000000  1
  Sb  Sb9  1  0.33285400  0.83285400  0.50000000  1
  Sb  Sb10  1  0.66714600  0.16714600  0.50000000  1
  Sb  Sb11  1  0.50000000  0.50000000  0.00000000  1
  O  O12  1  0.74536100  0.50000000  0.24536100  1
  O  O13  1  0.10020200  0.83828600  0.26191600  1
  O  O14  1  0.42363000  0.16171400  0.26191600  1
  O  O15  1  0.25463900  0.50000000  0.75463900  1
  O  O16  1  0.57637000  0.83828600  0.73808400  1
  O  O17  1  0.89979800  0.16171400  0.73808400  1
  O  O18  1  0.91928800  0.66417700  0.74489000  1
  O  O19  1  0.25238200  0.00096700  0.74858500  1
  O  O20  1  0.58079400  0.33367600  0.75288200  1
  O  O21  1  0.91928800  0.17439800  0.25511000  1
  O  O22  1  0.25238200  0.50379700  0.25141500  1
  O  O23  1  0.58079400  0.82791200  0.24711800  1
  O  O24  1  0.08071200  0.82560200  0.74489000  1
  O  O25  1  0.41920600  0.17208800  0.75288200  1
  O  O26  1  0.74761800  0.49620300  0.74858500  1
  O  O27  1  0.08071200  0.33582300  0.25511000  1
  O  O28  1  0.41920600  0.66632400  0.24711800  1
  O  O29  1  0.74761800  0.99903300  0.25141500  1
