# generated using pymatgen
data_Sr3Y2FeCu3BiO12
_symmetry_space_group_name_H-M   'P 1'
_cell_length_a   5.41346385
_cell_length_b   5.41324182
_cell_length_c   10.37331425
_cell_angle_alpha   90.00000000
_cell_angle_beta   74.87462003
_cell_angle_gamma   90.00000000
_symmetry_Int_Tables_number   1
_chemical_formula_structural   Sr3Y2FeCu3BiO12
_chemical_formula_sum   'Sr3 Y2 Fe1 Cu3 Bi1 O12'
_cell_volume   293.45277339
_cell_formula_units_Z   1
loop_
 _symmetry_equiv_pos_site_id
 _symmetry_equiv_pos_as_xyz
  1  'x, y, z'
loop_
 _atom_site_type_symbol
 _atom_site_label
 _atom_site_symmetry_multiplicity
 _atom_site_fract_x
 _atom_site_fract_y
 _atom_site_fract_z
 _atom_site_occupancy
  Sr  Sr0  1  0.17830900  0.00000000  0.64338200  1
  Sr  Sr1  1  0.81976800  0.00000000  0.36046300  1
  Sr  Sr2  1  0.32020400  0.50000000  0.35959300  1
  Y  Y3  1  0.50385000  0.50000000  0.99230000  1
  Y  Y4  1  0.00128000  0.00000000  0.99744000  1
  Fe  Fe5  1  0.40377300  0.00000000  0.19245400  1
  Cu  Cu6  1  0.58674600  0.00000000  0.82650700  1
  Cu  Cu7  1  0.08638800  0.50000000  0.82722500  1
  Cu  Cu8  1  0.91820600  0.50000000  0.16358700  1
  Bi  Bi9  1  0.68843700  0.50000000  0.62312700  1
  O  O10  1  0.31933600  0.24828700  0.85701700  1
  O  O11  1  0.82364700  0.75171300  0.85701700  1
  O  O12  1  0.82364700  0.24828700  0.85701700  1
  O  O13  1  0.31933600  0.75171300  0.85701700  1
  O  O14  1  0.17878700  0.24809600  0.14712700  1
  O  O15  1  0.67408600  0.75190400  0.14712700  1
  O  O16  1  0.67408600  0.24809600  0.14712700  1
  O  O17  1  0.17878700  0.75190400  0.14712700  1
  O  O18  1  0.19937200  0.50000000  0.60125500  1
  O  O19  1  0.69913200  0.00000000  0.60173700  1
  O  O20  1  0.30806400  0.00000000  0.38387200  1
  O  O21  1  0.79475800  0.50000000  0.41048300  1
