# generated using pymatgen
data_LaBi2(CO)2
_symmetry_space_group_name_H-M   'P 1'
_cell_length_a   9.45242337
_cell_length_b   9.45242337
_cell_length_c   9.45242337
_cell_angle_alpha   156.27921426
_cell_angle_beta   156.27921426
_cell_angle_gamma   33.79495702
_symmetry_Int_Tables_number   1
_chemical_formula_structural   LaBi2(CO)2
_chemical_formula_sum   'La1 Bi2 C2 O2'
_cell_volume   136.54110846
_cell_formula_units_Z   1
loop_
 _symmetry_equiv_pos_site_id
 _symmetry_equiv_pos_as_xyz
  1  'x, y, z'
loop_
 _atom_site_type_symbol
 _atom_site_label
 _atom_site_symmetry_multiplicity
 _atom_site_fract_x
 _atom_site_fract_y
 _atom_site_fract_z
 _atom_site_occupancy
  La  La0  1  0.00000000  0.00000000  0.00000000  1
  Bi  Bi1  1  0.82171300  0.82171300  0.00000000  1
  Bi  Bi2  1  0.17828700  0.17828700  0.00000000  1
  C  C3  1  0.53638500  0.53638500  0.00000000  1
  C  C4  1  0.46361500  0.46361500  0.00000000  1
  O  O5  1  0.75000000  0.25000000  0.50000000  1
  O  O6  1  0.25000000  0.75000000  0.50000000  1
