# generated using pymatgen
data_Sr3LaMn4O10
_symmetry_space_group_name_H-M   'P 1'
_cell_length_a   3.97457000
_cell_length_b   5.62442200
_cell_length_c   10.84881582
_cell_angle_alpha   89.88248058
_cell_angle_beta   90.00000000
_cell_angle_gamma   90.00000000
_symmetry_Int_Tables_number   1
_chemical_formula_structural   Sr3LaMn4O10
_chemical_formula_sum   'Sr3 La1 Mn4 O10'
_cell_volume   242.52106752
_cell_formula_units_Z   1
loop_
 _symmetry_equiv_pos_site_id
 _symmetry_equiv_pos_as_xyz
  1  'x, y, z'
loop_
 _atom_site_type_symbol
 _atom_site_label
 _atom_site_symmetry_multiplicity
 _atom_site_fract_x
 _atom_site_fract_y
 _atom_site_fract_z
 _atom_site_occupancy
  Sr  Sr0  1  0.50000000  0.78829000  0.86091400  1
  Sr  Sr1  1  0.50000000  0.71202500  0.37111000  1
  Sr  Sr2  1  0.50000000  0.28901100  0.63254100  1
  La  La3  1  0.50000000  0.19975800  0.13448000  1
  Mn  Mn4  1  0.00000000  0.23502700  0.37767300  1
  Mn  Mn5  1  0.00000000  0.76571600  0.62261200  1
  Mn  Mn6  1  0.00000000  0.73070200  0.12053300  1
  Mn  Mn7  1  0.00000000  0.26832300  0.87940400  1
  O  O8  1  0.00000000  0.94682000  0.27539600  1
  O  O9  1  0.00000000  0.04753600  0.72792400  1
  O  O10  1  0.00000000  0.42593300  0.20848700  1
  O  O11  1  0.00000000  0.54791000  0.77711600  1
  O  O12  1  0.00000000  0.50282000  0.49784300  1
  O  O13  1  0.00000000  0.01827100  0.00995000  1
  O  O14  1  0.50000000  0.21461600  0.38651100  1
  O  O15  1  0.50000000  0.79599300  0.60402200  1
  O  O16  1  0.50000000  0.71420400  0.10488500  1
  O  O17  1  0.50000000  0.29704500  0.90860000  1
