# generated using pymatgen
data_Sr4Hf3TiO12
_symmetry_space_group_name_H-M   'P 1'
_cell_length_a   5.73240616
_cell_length_b   8.23335654
_cell_length_c   5.73758242
_cell_angle_alpha   89.96234773
_cell_angle_beta   90.02071320
_cell_angle_gamma   90.01808592
_symmetry_Int_Tables_number   1
_chemical_formula_structural   Sr4Hf3TiO12
_chemical_formula_sum   'Sr4 Hf3 Ti1 O12'
_cell_volume   270.79626480
_cell_formula_units_Z   1
loop_
 _symmetry_equiv_pos_site_id
 _symmetry_equiv_pos_as_xyz
  1  'x, y, z'
loop_
 _atom_site_type_symbol
 _atom_site_label
 _atom_site_symmetry_multiplicity
 _atom_site_fract_x
 _atom_site_fract_y
 _atom_site_fract_z
 _atom_site_occupancy
  Sr  Sr0  1  0.49351300  0.24302400  0.50407500  1
  Sr  Sr1  1  0.99214600  0.24308700  0.99684300  1
  Sr  Sr2  1  0.50648700  0.75697600  0.49592500  1
  Sr  Sr3  1  0.00785400  0.75691300  0.00315700  1
  Hf  Hf4  1  0.00000000  0.50000000  0.50000000  1
  Hf  Hf5  1  0.50000000  0.50000000  0.00000000  1
  Hf  Hf6  1  0.00000000  0.00000000  0.50000000  1
  Ti  Ti7  1  0.50000000  0.00000000  0.00000000  1
  O  O8  1  0.72015500  0.01363400  0.26754800  1
  O  O9  1  0.19343300  0.48966000  0.19316700  1
  O  O10  1  0.30697400  0.51232800  0.69354400  1
  O  O11  1  0.76771700  0.99017800  0.77984000  1
  O  O12  1  0.27984500  0.98636600  0.73245200  1
  O  O13  1  0.80656700  0.51034000  0.80683300  1
  O  O14  1  0.69302600  0.48767200  0.30645600  1
  O  O15  1  0.23228300  0.00982200  0.22016000  1
  O  O16  1  0.00416200  0.24927300  0.52705700  1
  O  O17  1  0.49850300  0.24352900  0.97580200  1
  O  O18  1  0.99583800  0.75072700  0.47294300  1
  O  O19  1  0.50149700  0.75647100  0.02419800  1
