# generated using pymatgen
data_Sr4Al6CrO16
_symmetry_space_group_name_H-M   'P 1'
_cell_length_a   8.26633047
_cell_length_b   8.26633047
_cell_length_c   8.26633047
_cell_angle_alpha   109.58934625
_cell_angle_beta   109.58934625
_cell_angle_gamma   109.23522683
_symmetry_Int_Tables_number   1
_chemical_formula_structural   Sr4Al6CrO16
_chemical_formula_sum   'Sr4 Al6 Cr1 O16'
_cell_volume   434.82136600
_cell_formula_units_Z   1
loop_
 _symmetry_equiv_pos_site_id
 _symmetry_equiv_pos_as_xyz
  1  'x, y, z'
loop_
 _atom_site_type_symbol
 _atom_site_label
 _atom_site_symmetry_multiplicity
 _atom_site_fract_x
 _atom_site_fract_y
 _atom_site_fract_z
 _atom_site_occupancy
  Sr  Sr0  1  0.50605900  0.00605900  0.01211800  1
  Sr  Sr1  1  0.99394100  0.00605900  0.50000000  1
  Sr  Sr2  1  0.99394100  0.49394100  0.98788200  1
  Sr  Sr3  1  0.50605900  0.49394100  0.50000000  1
  Al  Al4  1  0.49792200  0.24744400  0.74952200  1
  Al  Al5  1  0.75000000  0.25000000  0.50000000  1
  Al  Al6  1  0.25160100  0.50207800  0.74952200  1
  Al  Al7  1  0.25000000  0.75000000  0.50000000  1
  Al  Al8  1  0.49792200  0.74839900  0.25047800  1
  Al  Al9  1  0.75255600  0.50207800  0.25047800  1
  Cr  Cr10  1  0.00000000  0.00000000  0.00000000  1
  O  O11  1  0.65564300  0.99891200  0.34326900  1
  O  O12  1  0.32507400  0.66292800  0.66214600  1
  O  O13  1  0.66019800  0.33980200  0.00000000  1
  O  O14  1  0.33707200  0.99921900  0.66214600  1
  O  O15  1  0.00108800  0.34435700  0.65673100  1
  O  O16  1  0.66019800  0.66019800  0.32039600  1
  O  O17  1  0.65564300  0.31237300  0.65673100  1
  O  O18  1  0.00078100  0.66292800  0.33785400  1
  O  O19  1  0.33980200  0.66019800  0.00000000  1
  O  O20  1  0.33707200  0.67492600  0.33785400  1
  O  O21  1  0.68762700  0.34435700  0.34326900  1
  O  O22  1  0.33980200  0.33980200  0.67960400  1
  O  O23  1  0.89801900  0.75515500  0.85713700  1
  O  O24  1  0.95911800  0.10198100  0.85713700  1
  O  O25  1  0.24484500  0.10198100  0.14286300  1
  O  O26  1  0.89801900  0.04088200  0.14286300  1
