# generated using pymatgen
data_Sr3CaTi4O12
_symmetry_space_group_name_H-M   'P 1'
_cell_length_a   5.54707843
_cell_length_b   5.54707843
_cell_length_c   9.59927718
_cell_angle_alpha   73.39391373
_cell_angle_beta   73.39391373
_cell_angle_gamma   60.25150192
_symmetry_Int_Tables_number   1
_chemical_formula_structural   Sr3CaTi4O12
_chemical_formula_sum   'Sr3 Ca1 Ti4 O12'
_cell_volume   242.04059422
_cell_formula_units_Z   1
loop_
 _symmetry_equiv_pos_site_id
 _symmetry_equiv_pos_as_xyz
  1  'x, y, z'
loop_
 _atom_site_type_symbol
 _atom_site_label
 _atom_site_symmetry_multiplicity
 _atom_site_fract_x
 _atom_site_fract_y
 _atom_site_fract_z
 _atom_site_occupancy
  Sr  Sr0  1  0.12467100  0.87532900  0.50000000  1
  Sr  Sr1  1  0.37355500  0.12582900  0.75059900  1
  Sr  Sr2  1  0.87417100  0.62644500  0.24940100  1
  Ca  Ca3  1  0.62005000  0.37995000  0.00000000  1
  Ti  Ti4  1  0.24755200  0.00347800  0.12330700  1
  Ti  Ti5  1  0.74818700  0.50120000  0.62686800  1
  Ti  Ti6  1  0.99652200  0.75244800  0.87669300  1
  Ti  Ti7  1  0.49880000  0.25181300  0.37313200  1
  O  O8  1  0.91372400  0.58511400  0.75166300  1
  O  O9  1  0.41488600  0.08627600  0.24833700  1
  O  O10  1  0.05974100  0.94025900  0.00000000  1
  O  O11  1  0.58961400  0.41038600  0.50000000  1
  O  O12  1  0.63236800  0.88201400  0.50920300  1
  O  O13  1  0.15571200  0.38410500  0.00981600  1
  O  O14  1  0.61589500  0.84428800  0.99018400  1
  O  O15  1  0.11798600  0.36763200  0.49079700  1
  O  O16  1  0.39020300  0.62998300  0.76502400  1
  O  O17  1  0.88800100  0.13165600  0.26034200  1
  O  O18  1  0.37001700  0.60979700  0.23497600  1
  O  O19  1  0.86834400  0.11199900  0.73965800  1
