# generated using pymatgen
data_Sr4U3ZnO12
_symmetry_space_group_name_H-M   'P 1'
_cell_length_a   5.92023500
_cell_length_b   6.03878477
_cell_length_c   8.54992769
_cell_angle_alpha   90.35176741
_cell_angle_beta   90.70498968
_cell_angle_gamma   90.02889086
_symmetry_Int_Tables_number   1
_chemical_formula_structural   Sr4U3ZnO12
_chemical_formula_sum   'Sr4 U3 Zn1 O12'
_cell_volume   305.63972772
_cell_formula_units_Z   1
loop_
 _symmetry_equiv_pos_site_id
 _symmetry_equiv_pos_as_xyz
  1  'x, y, z'
loop_
 _atom_site_type_symbol
 _atom_site_label
 _atom_site_symmetry_multiplicity
 _atom_site_fract_x
 _atom_site_fract_y
 _atom_site_fract_z
 _atom_site_occupancy
  Sr  Sr0  1  0.48658700  0.46498500  0.22959400  1
  Sr  Sr1  1  0.01320500  0.94732400  0.22686000  1
  Sr  Sr2  1  0.51341300  0.53501500  0.77040600  1
  Sr  Sr3  1  0.98679500  0.05267600  0.77314000  1
  U  U4  1  0.50000000  0.00000000  0.50000000  1
  U  U5  1  0.00000000  0.50000000  0.50000000  1
  U  U6  1  0.50000000  0.00000000  0.00000000  1
  Zn  Zn7  1  0.00000000  0.50000000  0.00000000  1
  O  O8  1  0.28531000  0.71919500  0.04231000  1
  O  O9  1  0.20865800  0.20230000  0.43708700  1
  O  O10  1  0.70156400  0.29267000  0.56118100  1
  O  O11  1  0.78096600  0.78581800  0.96294300  1
  O  O12  1  0.71469000  0.28080500  0.95769000  1
  O  O13  1  0.79134200  0.79770000  0.56291300  1
  O  O14  1  0.29843600  0.70733000  0.43881900  1
  O  O15  1  0.21903400  0.21418200  0.03705700  1
  O  O16  1  0.90808000  0.53094200  0.26418300  1
  O  O17  1  0.59894200  0.03350500  0.25186300  1
  O  O18  1  0.09192000  0.46905800  0.73581700  1
  O  O19  1  0.40105800  0.96649500  0.74813700  1
