# generated using pymatgen
data_Sr7Ca2Al3(O4F)3
_symmetry_space_group_name_H-M   'P 1'
_cell_length_a   6.74352000
_cell_length_b   7.30851703
_cell_length_c   17.49604850
_cell_angle_alpha   97.83792454
_cell_angle_beta   89.23098559
_cell_angle_gamma   116.96285591
_symmetry_Int_Tables_number   1
_chemical_formula_structural   Sr7Ca2Al3(O4F)3
_chemical_formula_sum   'Sr14 Ca4 Al6 O24 F6'
_cell_volume   760.23881083
_cell_formula_units_Z   2
loop_
 _symmetry_equiv_pos_site_id
 _symmetry_equiv_pos_as_xyz
  1  'x, y, z'
loop_
 _atom_site_type_symbol
 _atom_site_label
 _atom_site_symmetry_multiplicity
 _atom_site_fract_x
 _atom_site_fract_y
 _atom_site_fract_z
 _atom_site_occupancy
  Sr  Sr0  1  0.16536400  0.33469000  0.91742400  1
  Sr  Sr1  1  0.49979900  0.00022400  0.25009900  1
  Sr  Sr2  1  0.83179900  0.66811300  0.58399000  1
  Sr  Sr3  1  0.83308500  0.66651200  0.08428000  1
  Sr  Sr4  1  0.16543800  0.33497300  0.41642500  1
  Sr  Sr5  1  0.49848500  0.00155100  0.75081300  1
  Sr  Sr6  1  0.39013800  0.11039000  0.55472000  1
  Sr  Sr7  1  0.72314100  0.77675500  0.88863800  1
  Sr  Sr8  1  0.27614900  0.88835100  0.94430100  1
  Sr  Sr9  1  0.60743200  0.55352800  0.27680800  1
  Sr  Sr10  1  0.94244600  0.22129700  0.61048600  1
  Sr  Sr11  1  0.39092000  0.44555200  0.72274900  1
  Sr  Sr12  1  0.72474700  0.11316500  0.05689700  1
  Sr  Sr13  1  0.05811500  0.77833100  0.38886700  1
  Ca  Ca14  1  0.27995900  0.22024400  0.11008600  1
  Ca  Ca15  1  0.61562600  0.88402700  0.44205100  1
  Ca  Ca16  1  0.94886800  0.55122600  0.77561200  1
  Ca  Ca17  1  0.05341400  0.44629900  0.22329000  1
  Al  Al18  1  0.66603900  0.33392100  0.91700800  1
  Al  Al19  1  0.00017300  0.00022100  0.24995500  1
  Al  Al20  1  0.33278900  0.66740100  0.58355100  1
  Al  Al21  1  0.33068200  0.66671900  0.08476800  1
  Al  Al22  1  0.66859100  0.33361000  0.41562700  1
  Al  Al23  1  0.99932700  0.00045400  0.75029300  1
  O  O24  1  0.49586300  0.70720400  0.00188400  1
  O  O25  1  0.83556700  0.37623500  0.33243500  1
  O  O26  1  0.16422400  0.04174900  0.66785200  1
  O  O27  1  0.30423700  0.90412400  0.09800200  1
  O  O28  1  0.63891200  0.56914500  0.43042200  1
  O  O29  1  0.97113500  0.23661500  0.76447400  1
  O  O30  1  0.54789900  0.37459200  0.83447300  1
  O  O31  1  0.88234200  0.04544400  0.16873200  1
  O  O32  1  0.21483200  0.70796600  0.50091800  1
  O  O33  1  0.92585300  0.56315200  0.92909700  1
  O  O34  1  0.25578500  0.23257200  0.26183200  1
  O  O35  1  0.59230200  0.89680100  0.59545200  1
  O  O36  1  0.49935600  0.29338800  0.00050400  1
  O  O37  1  0.83288800  0.95788800  0.33344800  1
  O  O38  1  0.16586800  0.62643100  0.66697800  1
  O  O39  1  0.69366300  0.10044300  0.90314400  1
  O  O40  1  0.02753100  0.76307700  0.23607000  1
  O  O41  1  0.36050300  0.43401000  0.56991000  1
  O  O42  1  0.44961700  0.62078800  0.16556200  1
  O  O43  1  0.78921400  0.28935200  0.49656700  1
  O  O44  1  0.12182500  0.95589200  0.83080600  1
  O  O45  1  0.07540200  0.43392700  0.07233800  1
  O  O46  1  0.41253000  0.10079400  0.40210500  1
  O  O47  1  0.74399100  0.76696300  0.73630100  1
  F  F48  1  0.32565300  0.66426900  0.83216100  1
  F  F49  1  0.66667700  0.33361200  0.16674200  1
  F  F50  1  0.99223500  0.99732300  0.49868600  1
  F  F51  1  0.00555300  0.00450800  0.00222000  1
  F  F52  1  0.33356000  0.66656300  0.33338400  1
  F  F53  1  0.67245200  0.33762400  0.66876400  1
