# generated using pymatgen
data_Sr4CeNd3Nb2(CuO5)4
_symmetry_space_group_name_H-M   'P 1'
_cell_length_a   14.79924348
_cell_length_b   14.79924348
_cell_length_c   5.59015800
_cell_angle_alpha   90.00000000
_cell_angle_beta   90.00000000
_cell_angle_gamma   158.22835104
_symmetry_Int_Tables_number   1
_chemical_formula_structural   Sr4CeNd3Nb2(CuO5)4
_chemical_formula_sum   'Sr4 Ce1 Nd3 Nb2 Cu4 O20'
_cell_volume   454.11906286
_cell_formula_units_Z   1
loop_
 _symmetry_equiv_pos_site_id
 _symmetry_equiv_pos_as_xyz
  1  'x, y, z'
loop_
 _atom_site_type_symbol
 _atom_site_label
 _atom_site_symmetry_multiplicity
 _atom_site_fract_x
 _atom_site_fract_y
 _atom_site_fract_z
 _atom_site_occupancy
  Sr  Sr0  1  0.08107400  0.91892600  0.50000000  1
  Sr  Sr1  1  0.58189500  0.41810500  0.00000000  1
  Sr  Sr2  1  0.41831000  0.58169000  0.00000000  1
  Sr  Sr3  1  0.91830800  0.08169200  0.50000000  1
  Ce  Ce4  1  0.70809100  0.29190900  0.00000000  1
  Nd  Nd5  1  0.20503500  0.79496500  0.50000000  1
  Nd  Nd6  1  0.79422400  0.20577600  0.50000000  1
  Nd  Nd7  1  0.29421900  0.70578100  0.00000000  1
  Nb  Nb8  1  0.49995400  0.50004600  0.50000000  1
  Nb  Nb9  1  0.99995400  0.00004600  0.00000000  1
  Cu  Cu10  1  0.14279100  0.85720900  0.00000000  1
  Cu  Cu11  1  0.64269200  0.35730800  0.50000000  1
  Cu  Cu12  1  0.35755900  0.64244100  0.50000000  1
  Cu  Cu13  1  0.85764700  0.14235300  0.00000000  1
  O  O14  1  0.06836800  0.93163200  0.00000000  1
  O  O15  1  0.56844400  0.43155600  0.50000000  1
  O  O16  1  0.43187100  0.56812900  0.50000000  1
  O  O17  1  0.93178500  0.06821500  0.00000000  1
  O  O18  1  0.40021500  0.10448200  0.75304800  1
  O  O19  1  0.89551800  0.59978500  0.24695200  1
  O  O20  1  0.89551800  0.59978500  0.75304800  1
  O  O21  1  0.40021500  0.10448200  0.24695200  1
  O  O22  1  0.10315200  0.39724800  0.74963700  1
  O  O23  1  0.60275200  0.89684800  0.25036300  1
  O  O24  1  0.60275200  0.89684800  0.74963700  1
  O  O25  1  0.10315200  0.39724800  0.25036300  1
  O  O26  1  0.50463400  0.00763400  0.75610400  1
  O  O27  1  0.99236600  0.49536600  0.24389600  1
  O  O28  1  0.99236600  0.49536600  0.75610400  1
  O  O29  1  0.50463400  0.00763400  0.24389600  1
  O  O30  1  0.24994100  0.24968700  0.74988100  1
  O  O31  1  0.75031300  0.75005900  0.25011900  1
  O  O32  1  0.75031300  0.75005900  0.74988100  1
  O  O33  1  0.24994100  0.24968700  0.25011900  1
