# generated using pymatgen
data_Sr4Mn2Nb4Bi4O23
_symmetry_space_group_name_H-M   'P 1'
_cell_length_a   5.60957713
_cell_length_b   5.61004213
_cell_length_c   16.53841936
_cell_angle_alpha   89.95958602
_cell_angle_beta   80.23588643
_cell_angle_gamma   89.76169849
_symmetry_Int_Tables_number   1
_chemical_formula_structural   Sr4Mn2Nb4Bi4O23
_chemical_formula_sum   'Sr4 Mn2 Nb4 Bi4 O23'
_cell_volume   512.91975540
_cell_formula_units_Z   1
loop_
 _symmetry_equiv_pos_site_id
 _symmetry_equiv_pos_as_xyz
  1  'x, y, z'
loop_
 _atom_site_type_symbol
 _atom_site_label
 _atom_site_symmetry_multiplicity
 _atom_site_fract_x
 _atom_site_fract_y
 _atom_site_fract_z
 _atom_site_occupancy
  Sr  Sr0  1  0.43173700  0.49062400  0.11776200  1
  Sr  Sr1  1  0.95050100  0.00937600  0.11776200  1
  Sr  Sr2  1  0.06826300  0.00937600  0.88223800  1
  Sr  Sr3  1  0.54949900  0.49062400  0.88223800  1
  Mn  Mn4  1  0.49489200  0.00510900  0.00000000  1
  Mn  Mn5  1  0.00510800  0.49489100  0.00000000  1
  Nb  Nb6  1  0.12360600  0.50173000  0.74930700  1
  Nb  Nb7  1  0.62708700  0.99827000  0.74930700  1
  Nb  Nb8  1  0.37639400  0.99827000  0.25069300  1
  Nb  Nb9  1  0.87291300  0.50173000  0.25069300  1
  Bi  Bi10  1  0.28677000  0.49947100  0.42487400  1
  Bi  Bi11  1  0.78835500  0.00052900  0.42487400  1
  Bi  Bi12  1  0.21323000  0.00052900  0.57512600  1
  Bi  Bi13  1  0.71164500  0.49947100  0.57512600  1
  O  O14  1  0.18812900  0.49562200  0.63241900  1
  O  O15  1  0.67945200  0.00437800  0.63241900  1
  O  O16  1  0.31187100  0.00437800  0.36758100  1
  O  O17  1  0.82054800  0.49562200  0.36758100  1
  O  O18  1  0.13484000  0.25000000  0.23032100  1
  O  O19  1  0.62808400  0.75000000  0.24383300  1
  O  O20  1  0.86921000  0.25000000  0.76157900  1
  O  O21  1  0.36921500  0.75000000  0.76157100  1
  O  O22  1  0.36516000  0.25000000  0.76967900  1
  O  O23  1  0.87191600  0.75000000  0.75616700  1
  O  O24  1  0.63079000  0.25000000  0.23842100  1
  O  O25  1  0.13078500  0.75000000  0.23842900  1
  O  O26  1  0.03355900  0.52544200  0.88202500  1
  O  O27  1  0.58441600  0.97455800  0.88202500  1
  O  O28  1  0.46644100  0.97455800  0.11797500  1
  O  O29  1  0.91558400  0.52544200  0.11797500  1
  O  O30  1  0.99999700  0.25000000  0.50000500  1
  O  O31  1  0.50012400  0.75000000  0.49975200  1
  O  O32  1  0.50000300  0.25000000  0.49999500  1
  O  O33  1  0.99987600  0.75000000  0.50024800  1
  O  O34  1  0.25000000  0.25000000  0.00000000  1
  O  O35  1  0.25000000  0.75000000  0.00000000  1
  O  O36  1  0.75000000  0.25000000  0.00000000  1
