# generated using pymatgen
data_Sr4CaHoCu6(PbO4)4
_symmetry_space_group_name_H-M   'P 1'
_cell_length_a   5.42261700
_cell_length_b   5.44628750
_cell_length_c   15.92428439
_cell_angle_alpha   89.85691231
_cell_angle_beta   89.42296254
_cell_angle_gamma   89.87725076
_symmetry_Int_Tables_number   1
_chemical_formula_structural   Sr4CaHoCu6(PbO4)4
_chemical_formula_sum   'Sr4 Ca1 Ho1 Cu6 Pb4 O16'
_cell_volume   470.26760870
_cell_formula_units_Z   1
loop_
 _symmetry_equiv_pos_site_id
 _symmetry_equiv_pos_as_xyz
  1  'x, y, z'
loop_
 _atom_site_type_symbol
 _atom_site_label
 _atom_site_symmetry_multiplicity
 _atom_site_fract_x
 _atom_site_fract_y
 _atom_site_fract_z
 _atom_site_occupancy
  Sr  Sr0  1  0.00234300  0.00139000  0.78143800  1
  Sr  Sr1  1  0.99765700  0.99861000  0.21856200  1
  Sr  Sr2  1  0.50182200  0.49965200  0.78001500  1
  Sr  Sr3  1  0.49817800  0.50034800  0.21998500  1
  Ca  Ca4  1  0.00000000  0.00000000  0.00000000  1
  Ho  Ho5  1  0.50000000  0.50000000  0.00000000  1
  Cu  Cu6  1  0.50021000  0.99984900  0.89468300  1
  Cu  Cu7  1  0.49979000  0.00015100  0.10531700  1
  Cu  Cu8  1  0.50000000  0.50000000  0.50000000  1
  Cu  Cu9  1  0.00028000  0.50016600  0.89458900  1
  Cu  Cu10  1  0.99972000  0.49983400  0.10541100  1
  Cu  Cu11  1  0.00000000  0.00000000  0.50000000  1
  Pb  Pb12  1  0.99587900  0.49636700  0.61119900  1
  Pb  Pb13  1  0.00412100  0.50363300  0.38880100  1
  Pb  Pb14  1  0.49733700  0.00961500  0.61119500  1
  Pb  Pb15  1  0.50266300  0.99038500  0.38880500  1
  O  O16  1  0.50267400  0.99520900  0.74791700  1
  O  O17  1  0.49732600  0.00479100  0.25208300  1
  O  O18  1  0.25574700  0.25576400  0.90521500  1
  O  O19  1  0.74425300  0.74423600  0.09478500  1
  O  O20  1  0.00309900  0.50511800  0.74801700  1
  O  O21  1  0.99690100  0.49488200  0.25198300  1
  O  O22  1  0.74443800  0.25536600  0.90491500  1
  O  O23  1  0.25556200  0.74463400  0.09508500  1
  O  O24  1  0.74455800  0.74459300  0.90558600  1
  O  O25  1  0.25544200  0.25540700  0.09441400  1
  O  O26  1  0.54914000  0.44717600  0.61421200  1
  O  O27  1  0.45086000  0.55282400  0.38578800  1
  O  O28  1  0.25558000  0.74422600  0.90544300  1
  O  O29  1  0.74442000  0.25577400  0.09455700  1
  O  O30  1  0.05721600  0.06660400  0.61306600  1
  O  O31  1  0.94278400  0.93339600  0.38693400  1
