# generated using pymatgen
data_Sr3Nd2Nb10O30
_symmetry_space_group_name_H-M   'P 1'
_cell_length_a   12.68010806
_cell_length_b   12.68010806
_cell_length_c   3.98207600
_cell_angle_alpha   90.00000000
_cell_angle_beta   90.00000000
_cell_angle_gamma   90.27004385
_symmetry_Int_Tables_number   1
_chemical_formula_structural   Sr3Nd2Nb10O30
_chemical_formula_sum   'Sr3 Nd2 Nb10 O30'
_cell_volume   640.25153769
_cell_formula_units_Z   1
loop_
 _symmetry_equiv_pos_site_id
 _symmetry_equiv_pos_as_xyz
  1  'x, y, z'
loop_
 _atom_site_type_symbol
 _atom_site_label
 _atom_site_symmetry_multiplicity
 _atom_site_fract_x
 _atom_site_fract_y
 _atom_site_fract_z
 _atom_site_occupancy
  Sr  Sr0  1  0.34089700  0.34089700  0.00000000  1
  Sr  Sr1  1  0.16343100  0.83292100  0.00000000  1
  Sr  Sr2  1  0.83292100  0.16343100  0.00000000  1
  Nd  Nd3  1  0.50393100  0.00073300  0.00000000  1
  Nd  Nd4  1  0.00073300  0.50393100  0.00000000  1
  Nb  Nb5  1  0.57990900  0.21504500  0.50000000  1
  Nb  Nb6  1  0.42004300  0.79165300  0.50000000  1
  Nb  Nb7  1  0.08127400  0.28888000  0.50000000  1
  Nb  Nb8  1  0.91956000  0.71061900  0.50000000  1
  Nb  Nb9  1  0.28888000  0.08127400  0.50000000  1
  Nb  Nb10  1  0.71061900  0.91956000  0.50000000  1
  Nb  Nb11  1  0.21504500  0.57990900  0.50000000  1
  Nb  Nb12  1  0.79165300  0.42004300  0.50000000  1
  Nb  Nb13  1  0.99919400  0.99919400  0.50000000  1
  Nb  Nb14  1  0.50406600  0.50406600  0.50000000  1
  O  O15  1  0.58366800  0.19752000  0.00000000  1
  O  O16  1  0.41587300  0.80881700  0.00000000  1
  O  O17  1  0.08101400  0.29895000  0.00000000  1
  O  O18  1  0.93403700  0.69314200  0.00000000  1
  O  O19  1  0.29895000  0.08101400  0.00000000  1
  O  O20  1  0.69314200  0.93403700  0.00000000  1
  O  O21  1  0.19752000  0.58366800  0.00000000  1
  O  O22  1  0.80881700  0.41587300  0.00000000  1
  O  O23  1  0.62774400  0.06240600  0.50000000  1
  O  O24  1  0.36505600  0.94084500  0.50000000  1
  O  O25  1  0.13025900  0.43952100  0.50000000  1
  O  O26  1  0.87130400  0.55834800  0.50000000  1
  O  O27  1  0.43952100  0.13025900  0.50000000  1
  O  O28  1  0.55834800  0.87130400  0.50000000  1
  O  O29  1  0.06240600  0.62774400  0.50000000  1
  O  O30  1  0.94084500  0.36505600  0.50000000  1
  O  O31  1  0.73164400  0.26802900  0.50000000  1
  O  O32  1  0.26802900  0.73164400  0.50000000  1
  O  O33  1  0.23022100  0.23022100  0.50000000  1
  O  O34  1  0.78757700  0.78757700  0.50000000  1
  O  O35  1  0.99171100  0.15859300  0.50000000  1
  O  O36  1  0.01220700  0.83869200  0.50000000  1
  O  O37  1  0.48498300  0.33483700  0.50000000  1
  O  O38  1  0.48872200  0.65404700  0.50000000  1
  O  O39  1  0.33483700  0.48498300  0.50000000  1
  O  O40  1  0.65404700  0.48872200  0.50000000  1
  O  O41  1  0.15859300  0.99171100  0.50000000  1
  O  O42  1  0.83869200  0.01220700  0.50000000  1
  O  O43  1  0.99810200  0.99810200  0.00000000  1
  O  O44  1  0.48767300  0.48767300  0.00000000  1
