# generated using pymatgen
data_Sr3Ta4TiO15
_symmetry_space_group_name_H-M   'P 1'
_cell_length_a   3.97096700
_cell_length_b   12.58211500
_cell_length_c   12.54873602
_cell_angle_alpha   90.00000000
_cell_angle_beta   89.99465074
_cell_angle_gamma   90.00000000
_symmetry_Int_Tables_number   1
_chemical_formula_structural   Sr3Ta4TiO15
_chemical_formula_sum   'Sr6 Ta8 Ti2 O30'
_cell_volume   626.97454664
_cell_formula_units_Z   2
loop_
 _symmetry_equiv_pos_site_id
 _symmetry_equiv_pos_as_xyz
  1  'x, y, z'
loop_
 _atom_site_type_symbol
 _atom_site_label
 _atom_site_symmetry_multiplicity
 _atom_site_fract_x
 _atom_site_fract_y
 _atom_site_fract_z
 _atom_site_occupancy
  Sr  Sr0  1  0.37173600  0.50347400  0.49426300  1
  Sr  Sr1  1  0.37173600  0.99652600  0.99426300  1
  Sr  Sr2  1  0.37030900  0.65147600  0.80698900  1
  Sr  Sr3  1  0.36930900  0.38037200  0.21017200  1
  Sr  Sr4  1  0.37030900  0.84852400  0.30698900  1
  Sr  Sr5  1  0.36930900  0.11962800  0.71017200  1
  Ta  Ta6  1  0.87446700  0.41956600  0.70938600  1
  Ta  Ta7  1  0.87446700  0.08043400  0.20938600  1
  Ta  Ta8  1  0.86575500  0.49819100  0.00301300  1
  Ta  Ta9  1  0.86575500  0.00180900  0.50301300  1
  Ta  Ta10  1  0.87796800  0.28925900  0.42253200  1
  Ta  Ta11  1  0.88053400  0.71329100  0.57499600  1
  Ta  Ta12  1  0.87796800  0.21074100  0.92253200  1
  Ta  Ta13  1  0.88053400  0.78670900  0.07499600  1
  Ti  Ti14  1  0.84354000  0.58738100  0.29040000  1
  Ti  Ti15  1  0.84354000  0.91261900  0.79040000  1
  O  O16  1  0.88492000  0.50257800  0.15784600  1
  O  O17  1  0.88858900  0.50340200  0.84219100  1
  O  O18  1  0.88492000  0.99742200  0.65784600  1
  O  O19  1  0.88858900  0.99659800  0.34219100  1
  O  O20  1  0.38381600  0.29693700  0.41233300  1
  O  O21  1  0.38306000  0.70306700  0.58566300  1
  O  O22  1  0.38381600  0.20306300  0.91233300  1
  O  O23  1  0.38306000  0.79693300  0.08566300  1
  O  O24  1  0.87907300  0.77224400  0.72784300  1
  O  O25  1  0.88258600  0.22311300  0.27344700  1
  O  O26  1  0.87907300  0.72775600  0.22784300  1
  O  O27  1  0.88258600  0.27688700  0.77344700  1
  O  O28  1  0.88797400  0.43073700  0.35113300  1
  O  O29  1  0.88739200  0.56820100  0.64482300  1
  O  O30  1  0.88797400  0.06926300  0.85113200  1
  O  O31  1  0.88739200  0.93179900  0.14482300  1
  O  O32  1  0.38199300  0.50026800  0.00145000  1
  O  O33  1  0.38199300  0.99973200  0.50145000  1
  O  O34  1  0.88277700  0.63036000  0.44084400  1
  O  O35  1  0.88347700  0.37155600  0.55736100  1
  O  O36  1  0.88277700  0.86964000  0.94084400  1
  O  O37  1  0.88347700  0.12844400  0.05736100  1
  O  O38  1  0.39088500  0.57552700  0.29708000  1
  O  O39  1  0.38336700  0.42496100  0.70065400  1
  O  O40  1  0.39088500  0.92447300  0.79708000  1
  O  O41  1  0.38336700  0.07503900  0.20065400  1
  O  O42  1  0.88737700  0.84120000  0.48852200  1
  O  O43  1  0.88909600  0.15815500  0.50705900  1
  O  O44  1  0.88737700  0.65880000  0.98852200  1
  O  O45  1  0.88909600  0.34184500  0.00705900  1
