# generated using pymatgen
data_Sr4Mn2Ga2O11
_symmetry_space_group_name_H-M   'P 1'
_cell_length_a   8.56373165
_cell_length_b   8.53274895
_cell_length_c   5.62797337
_cell_angle_alpha   71.07855338
_cell_angle_beta   70.48286927
_cell_angle_gamma   38.43857735
_symmetry_Int_Tables_number   1
_chemical_formula_structural   Sr4Mn2Ga2O11
_chemical_formula_sum   'Sr4 Mn2 Ga2 O11'
_cell_volume   239.59430310
_cell_formula_units_Z   1
loop_
 _symmetry_equiv_pos_site_id
 _symmetry_equiv_pos_as_xyz
  1  'x, y, z'
loop_
 _atom_site_type_symbol
 _atom_site_label
 _atom_site_symmetry_multiplicity
 _atom_site_fract_x
 _atom_site_fract_y
 _atom_site_fract_z
 _atom_site_occupancy
  Sr  Sr0  1  0.62192100  0.12371800  0.87628200  1
  Sr  Sr1  1  0.12371800  0.62192100  0.37807900  1
  Sr  Sr2  1  0.37807900  0.87628200  0.12371800  1
  Sr  Sr3  1  0.87628200  0.37807900  0.62192100  1
  Mn  Mn4  1  0.00000000  0.50000000  0.00000000  1
  Mn  Mn5  1  0.50000000  0.00000000  0.50000000  1
  Ga  Ga6  1  0.73143800  0.26856200  0.26856200  1
  Ga  Ga7  1  0.26856200  0.73143800  0.73143800  1
  O  O8  1  0.07805200  0.67589100  0.92194800  1
  O  O9  1  0.67589100  0.07805200  0.32410900  1
  O  O10  1  0.92194800  0.32410900  0.07805200  1
  O  O11  1  0.32410900  0.92194800  0.67589100  1
  O  O12  1  0.72699500  0.72699500  0.27300500  1
  O  O13  1  0.27300500  0.27300500  0.72699500  1
  O  O14  1  0.75000000  0.75000000  0.75000000  1
  O  O15  1  0.25000000  0.25000000  0.25000000  1
  O  O16  1  0.50000000  0.50000000  0.50000000  1
  O  O17  1  0.00000000  0.00000000  0.50000000  1
  O  O18  1  0.50000000  0.50000000  0.00000000  1
