# generated using pymatgen
data_Sr3UFe2O9
_symmetry_space_group_name_H-M   'P 1'
_cell_length_a   10.06963013
_cell_length_b   10.06963013
_cell_length_c   10.06963013
_cell_angle_alpha   146.81029764
_cell_angle_beta   131.71488537
_cell_angle_gamma   59.84857627
_symmetry_Int_Tables_number   1
_chemical_formula_structural   Sr3UFe2O9
_chemical_formula_sum   'Sr6 U2 Fe4 O18'
_cell_volume   413.48125268
_cell_formula_units_Z   2
loop_
 _symmetry_equiv_pos_site_id
 _symmetry_equiv_pos_as_xyz
  1  'x, y, z'
loop_
 _atom_site_type_symbol
 _atom_site_label
 _atom_site_symmetry_multiplicity
 _atom_site_fract_x
 _atom_site_fract_y
 _atom_site_fract_z
 _atom_site_occupancy
  Sr  Sr0  1  0.78161200  0.50000000  0.28161200  1
  Sr  Sr1  1  0.37931000  0.14920100  0.23010900  1
  Sr  Sr2  1  0.08090800  0.85079900  0.23010900  1
  Sr  Sr3  1  0.21838800  0.50000000  0.71838800  1
  Sr  Sr4  1  0.91909200  0.14920100  0.76989100  1
  Sr  Sr5  1  0.62069000  0.85079900  0.76989100  1
  U  U6  1  0.66855600  0.66855600  0.00000000  1
  U  U7  1  0.33144400  0.33144400  0.00000000  1
  Fe  Fe8  1  0.50000000  0.00000000  0.50000000  1
  Fe  Fe9  1  0.16323300  0.66323300  0.50000000  1
  Fe  Fe10  1  0.83676700  0.33676700  0.50000000  1
  Fe  Fe11  1  0.00000000  0.00000000  0.00000000  1
  O  O12  1  0.74725200  0.00000000  0.74725200  1
  O  O13  1  0.41079600  0.66390400  0.74689100  1
  O  O14  1  0.08298700  0.33609600  0.74689100  1
  O  O15  1  0.58503900  0.84178200  0.25674300  1
  O  O16  1  0.24547100  0.49334800  0.24787700  1
  O  O17  1  0.91723900  0.16797700  0.25073700  1
  O  O18  1  0.41496100  0.67170400  0.25674300  1
  O  O19  1  0.08276100  0.33349800  0.25073700  1
  O  O20  1  0.75452900  0.00240600  0.24787700  1
  O  O21  1  0.25274800  0.00000000  0.25274800  1
  O  O22  1  0.91701300  0.66390400  0.25310900  1
  O  O23  1  0.58920400  0.33609600  0.25310900  1
  O  O24  1  0.41496100  0.15821800  0.74325700  1
  O  O25  1  0.08276100  0.83202300  0.74926300  1
  O  O26  1  0.75452900  0.50665200  0.75212300  1
  O  O27  1  0.58503900  0.32829600  0.74325700  1
  O  O28  1  0.24547100  0.99759400  0.75212300  1
  O  O29  1  0.91723900  0.66650200  0.74926300  1
