# generated using pymatgen
data_Sr6CaY2TiCu6(HgO10)2
_symmetry_space_group_name_H-M   'P 1'
_cell_length_a   3.77048200
_cell_length_b   11.62924600
_cell_length_c   12.13166600
_cell_angle_alpha   90.00000000
_cell_angle_beta   90.00000000
_cell_angle_gamma   90.00000000
_symmetry_Int_Tables_number   1
_chemical_formula_structural   Sr6CaY2TiCu6(HgO10)2
_chemical_formula_sum   'Sr6 Ca1 Y2 Ti1 Cu6 Hg2 O20'
_cell_volume   531.94762529
_cell_formula_units_Z   1
loop_
 _symmetry_equiv_pos_site_id
 _symmetry_equiv_pos_as_xyz
  1  'x, y, z'
loop_
 _atom_site_type_symbol
 _atom_site_label
 _atom_site_symmetry_multiplicity
 _atom_site_fract_x
 _atom_site_fract_y
 _atom_site_fract_z
 _atom_site_occupancy
  Sr  Sr0  1  0.50000000  0.00000000  0.77467200  1
  Sr  Sr1  1  0.50000000  0.33755600  0.79530500  1
  Sr  Sr2  1  0.50000000  0.66244400  0.79530500  1
  Sr  Sr3  1  0.50000000  0.00000000  0.22532800  1
  Sr  Sr4  1  0.50000000  0.33755600  0.20469500  1
  Sr  Sr5  1  0.50000000  0.66244400  0.20469500  1
  Ca  Ca6  1  0.50000000  0.00000000  0.50000000  1
  Y  Y7  1  0.50000000  0.33207200  0.50000000  1
  Y  Y8  1  0.50000000  0.66792800  0.50000000  1
  Ti  Ti9  1  0.00000000  0.50000000  0.00000000  1
  Cu  Cu10  1  0.00000000  0.83347700  0.63352600  1
  Cu  Cu11  1  0.00000000  0.16652300  0.63352600  1
  Cu  Cu12  1  0.00000000  0.50000000  0.63566000  1
  Cu  Cu13  1  0.00000000  0.83347700  0.36647400  1
  Cu  Cu14  1  0.00000000  0.16652300  0.36647400  1
  Cu  Cu15  1  0.00000000  0.50000000  0.36434000  1
  Hg  Hg16  1  0.00000000  0.83097600  0.00000000  1
  Hg  Hg17  1  0.00000000  0.16902400  0.00000000  1
  O  O18  1  0.00000000  0.00000000  0.63120400  1
  O  O19  1  0.00000000  0.33373800  0.62294000  1
  O  O20  1  0.00000000  0.66626200  0.62294000  1
  O  O21  1  0.50000000  0.82787400  0.62415400  1
  O  O22  1  0.50000000  0.17212600  0.62415400  1
  O  O23  1  0.50000000  0.50000000  0.62092300  1
  O  O24  1  0.00000000  0.00000000  0.36879600  1
  O  O25  1  0.00000000  0.33373800  0.37706000  1
  O  O26  1  0.00000000  0.66626200  0.37706000  1
  O  O27  1  0.50000000  0.82787400  0.37584600  1
  O  O28  1  0.50000000  0.17212600  0.37584600  1
  O  O29  1  0.50000000  0.50000000  0.37907700  1
  O  O30  1  0.00000000  0.83546500  0.83280300  1
  O  O31  1  0.00000000  0.16453500  0.83280300  1
  O  O32  1  0.00000000  0.50000000  0.84477100  1
  O  O33  1  0.00000000  0.83546500  0.16719700  1
  O  O34  1  0.00000000  0.16453500  0.16719700  1
  O  O35  1  0.00000000  0.50000000  0.15522900  1
  O  O36  1  0.50000000  0.38650300  0.00000000  1
  O  O37  1  0.50000000  0.61349700  0.00000000  1
