# generated using pymatgen
data_BaCoSe2
_symmetry_space_group_name_H-M   'P 1'
_cell_length_a   4.19959078
_cell_length_b   4.19959112
_cell_length_c   6.31234051
_cell_angle_alpha   109.42963785
_cell_angle_beta   109.42963843
_cell_angle_gamma   90.00000899
_symmetry_Int_Tables_number   1
_chemical_formula_structural   BaCoSe2
_chemical_formula_sum   'Ba1 Co1 Se2'
_cell_volume   98.23957830
_cell_formula_units_Z   1
loop_
 _symmetry_equiv_pos_site_id
 _symmetry_equiv_pos_as_xyz
  1  'x, y, z'
loop_
 _atom_site_type_symbol
 _atom_site_label
 _atom_site_symmetry_multiplicity
 _atom_site_fract_x
 _atom_site_fract_y
 _atom_site_fract_z
 _atom_site_occupancy
  Ba  Ba0  1  0.00000000  0.00000000  0.00000000  1
  Co  Co1  1  0.25000000  0.75000000  0.50000000  1
  Se  Se2  1  0.65870300  0.65870300  0.31740700  1
  Se  Se3  1  0.34129700  0.34129700  0.68259300  1
