# generated using pymatgen
data_Sr4Cu2Bi4O13
_symmetry_space_group_name_H-M   'P 1'
_cell_length_a   12.75397201
_cell_length_b   12.75397201
_cell_length_c   5.64290578
_cell_angle_alpha   89.53081441
_cell_angle_beta   89.53081441
_cell_angle_gamma   154.10455133
_symmetry_Int_Tables_number   1
_chemical_formula_structural   Sr4Cu2Bi4O13
_chemical_formula_sum   'Sr4 Cu2 Bi4 O13'
_cell_volume   400.60543897
_cell_formula_units_Z   1
loop_
 _symmetry_equiv_pos_site_id
 _symmetry_equiv_pos_as_xyz
  1  'x, y, z'
loop_
 _atom_site_type_symbol
 _atom_site_label
 _atom_site_symmetry_multiplicity
 _atom_site_fract_x
 _atom_site_fract_y
 _atom_site_fract_z
 _atom_site_occupancy
  Sr  Sr0  1  0.44121600  0.06862700  0.24916800  1
  Sr  Sr1  1  0.58532100  0.93391200  0.26056000  1
  Sr  Sr2  1  0.06608800  0.41467900  0.73944000  1
  Sr  Sr3  1  0.93137300  0.55878400  0.75083200  1
  Cu  Cu4  1  0.00311000  0.50171900  0.24775600  1
  Cu  Cu5  1  0.49828100  0.99689000  0.75224400  1
  Bi  Bi6  1  0.82364200  0.67869900  0.25765100  1
  Bi  Bi7  1  0.18101200  0.31299500  0.22862300  1
  Bi  Bi8  1  0.68700500  0.81898800  0.77137700  1
  Bi  Bi9  1  0.32130100  0.17635800  0.74234900  1
  O  O10  1  0.24834700  0.75165300  0.50000000  1
  O  O11  1  0.75586800  0.24413200  0.50000000  1
  O  O12  1  0.75942700  0.24057300  0.00000000  1
  O  O13  1  0.24608800  0.75391200  0.00000000  1
  O  O14  1  0.84257200  0.53225900  0.20755600  1
  O  O15  1  0.21013000  0.49920100  0.26300500  1
  O  O16  1  0.50079900  0.78987000  0.73699500  1
  O  O17  1  0.46774100  0.15742800  0.79244400  1
  O  O18  1  0.10141300  0.89858700  0.50000000  1
  O  O19  1  0.91542800  0.08457200  0.50000000  1
  O  O20  1  0.90089800  0.09910200  0.00000000  1
  O  O21  1  0.03674900  0.96325100  0.00000000  1
  O  O22  1  0.53119200  0.46880800  0.50000000  1
