# generated using pymatgen
data_Sr6Ca4Cu17O29
_symmetry_space_group_name_H-M   'P 1'
_cell_length_a   8.80906542
_cell_length_b   8.78339764
_cell_length_c   11.32030780
_cell_angle_alpha   71.07926494
_cell_angle_beta   70.99933904
_cell_angle_gamma   99.42115106
_symmetry_Int_Tables_number   1
_chemical_formula_structural   Sr6Ca4Cu17O29
_chemical_formula_sum   'Sr6 Ca4 Cu17 O29'
_cell_volume   747.07854098
_cell_formula_units_Z   1
loop_
 _symmetry_equiv_pos_site_id
 _symmetry_equiv_pos_as_xyz
  1  'x, y, z'
loop_
 _atom_site_type_symbol
 _atom_site_label
 _atom_site_symmetry_multiplicity
 _atom_site_fract_x
 _atom_site_fract_y
 _atom_site_fract_z
 _atom_site_occupancy
  Sr  Sr0  1  0.43549600  0.17322300  0.39878100  1
  Sr  Sr1  1  0.16572300  0.42799600  0.39878100  1
  Sr  Sr2  1  0.56450400  0.82677700  0.60121900  1
  Sr  Sr3  1  0.83427700  0.57200400  0.60121900  1
  Sr  Sr4  1  0.62638300  0.36249900  0.00000000  1
  Sr  Sr5  1  0.37361700  0.63750100  0.00000000  1
  Ca  Ca6  1  0.77773400  0.02825000  0.19737000  1
  Ca  Ca7  1  0.02489600  0.77438000  0.19737000  1
  Ca  Ca8  1  0.22226600  0.97175000  0.80263000  1
  Ca  Ca9  1  0.97510400  0.22562000  0.80263000  1
  Cu  Cu10  1  0.23412800  0.23159600  0.19942000  1
  Cu  Cu11  1  0.56645200  0.56898500  0.19942000  1
  Cu  Cu12  1  0.76587200  0.76840400  0.80058000  1
  Cu  Cu13  1  0.43354800  0.43101500  0.80058000  1
  Cu  Cu14  1  0.83725700  0.83441600  0.00000000  1
  Cu  Cu15  1  0.16274300  0.16558400  0.00000000  1
  Cu  Cu16  1  0.35611100  0.85611100  0.28777800  1
  Cu  Cu17  1  0.64388900  0.14388900  0.71222200  1
  Cu  Cu18  1  0.50000000  0.00000000  0.00000000  1
  Cu  Cu19  1  0.78739800  0.28739800  0.42520500  1
  Cu  Cu20  1  0.21260200  0.71260200  0.57479500  1
  Cu  Cu21  1  0.63405000  0.63737800  0.40019200  1
  Cu  Cu22  1  0.96575800  0.96243000  0.40019200  1
  Cu  Cu23  1  0.36595000  0.36262200  0.59980800  1
  Cu  Cu24  1  0.03424200  0.03757000  0.59980800  1
  Cu  Cu25  1  0.92964400  0.42964400  0.14071100  1
  Cu  Cu26  1  0.07035600  0.57035600  0.85928900  1
  O  O27  1  0.41281500  0.87794500  0.43061900  1
  O  O28  1  0.15656600  0.69143600  0.43061900  1
  O  O29  1  0.58718500  0.12205500  0.56938100  1
  O  O30  1  0.84343400  0.30856400  0.56938100  1
  O  O31  1  0.53653500  0.04625100  0.14805400  1
  O  O32  1  0.31541100  0.80569500  0.14805400  1
  O  O33  1  0.46346500  0.95374900  0.85194600  1
  O  O34  1  0.68458900  0.19430500  0.85194600  1
  O  O35  1  0.09026800  0.63392000  0.00000000  1
  O  O36  1  0.90973200  0.36608000  0.00000000  1
  O  O37  1  0.97014300  0.47762200  0.28001100  1
  O  O38  1  0.74984600  0.24236700  0.28001100  1
  O  O39  1  0.02985700  0.52237800  0.71998900  1
  O  O40  1  0.25015400  0.75763300  0.71998900  1
  O  O41  1  0.32379400  0.33290000  0.00000000  1
  O  O42  1  0.67620600  0.66710000  0.00000000  1
  O  O43  1  0.40037100  0.40037100  0.19925800  1
  O  O44  1  0.59962900  0.59962900  0.80074200  1
  O  O45  1  0.80170200  0.80170200  0.39659600  1
  O  O46  1  0.19829800  0.19829800  0.60340400  1
  O  O47  1  0.00000000  0.00000000  0.00000000  1
  O  O48  1  0.13308000  0.12575500  0.39877000  1
  O  O49  1  0.46815100  0.47547600  0.39877000  1
  O  O50  1  0.86692000  0.87424500  0.60123000  1
  O  O51  1  0.53184900  0.52452400  0.60123000  1
  O  O52  1  0.73239100  0.73880400  0.19982800  1
  O  O53  1  0.06778100  0.06136900  0.19982800  1
  O  O54  1  0.26760900  0.26119600  0.80017200  1
  O  O55  1  0.93221900  0.93863100  0.80017200  1
