# generated using pymatgen
data_Sr7Cu2HgBiSbO15
_symmetry_space_group_name_H-M   'P 1'
_cell_length_a   7.73915200
_cell_length_b   9.02216600
_cell_length_c   11.78846500
_cell_angle_alpha   90.00000000
_cell_angle_beta   90.00000000
_cell_angle_gamma   90.00000000
_symmetry_Int_Tables_number   1
_chemical_formula_structural   Sr7Cu2HgBiSbO15
_chemical_formula_sum   'Sr14 Cu4 Hg2 Bi2 Sb2 O30'
_cell_volume   823.11676686
_cell_formula_units_Z   2
loop_
 _symmetry_equiv_pos_site_id
 _symmetry_equiv_pos_as_xyz
  1  'x, y, z'
loop_
 _atom_site_type_symbol
 _atom_site_label
 _atom_site_symmetry_multiplicity
 _atom_site_fract_x
 _atom_site_fract_y
 _atom_site_fract_z
 _atom_site_occupancy
  Sr  Sr0  1  0.50000000  0.28989300  0.00000000  1
  Sr  Sr1  1  0.00000000  0.28989300  0.00000000  1
  Sr  Sr2  1  0.50000000  0.71010700  0.00000000  1
  Sr  Sr3  1  0.00000000  0.71010700  0.00000000  1
  Sr  Sr4  1  0.49291700  0.29274600  0.65694400  1
  Sr  Sr5  1  0.50708300  0.29274600  0.34305600  1
  Sr  Sr6  1  0.00708300  0.29274600  0.65694400  1
  Sr  Sr7  1  0.99291700  0.29274600  0.34305600  1
  Sr  Sr8  1  0.50708300  0.70725400  0.34305600  1
  Sr  Sr9  1  0.49291700  0.70725400  0.65694400  1
  Sr  Sr10  1  0.99291700  0.70725400  0.34305600  1
  Sr  Sr11  1  0.00708300  0.70725400  0.65694400  1
  Sr  Sr12  1  0.75000000  0.00000000  0.84083500  1
  Sr  Sr13  1  0.25000000  0.00000000  0.15916500  1
  Cu  Cu14  1  0.25000000  0.50000000  0.82635900  1
  Cu  Cu15  1  0.75000000  0.50000000  0.17364100  1
  Cu  Cu16  1  0.75000000  0.50000000  0.49959700  1
  Cu  Cu17  1  0.25000000  0.50000000  0.50040300  1
  Hg  Hg18  1  0.75000000  0.00000000  0.50200900  1
  Hg  Hg19  1  0.25000000  0.00000000  0.49799100  1
  Bi  Bi20  1  0.25000000  0.00000000  0.82017700  1
  Bi  Bi21  1  0.75000000  0.00000000  0.17982300  1
  Sb  Sb22  1  0.75000000  0.50000000  0.83248300  1
  Sb  Sb23  1  0.25000000  0.50000000  0.16751700  1
  O  O24  1  0.75000000  0.27380700  0.83627800  1
  O  O25  1  0.25000000  0.27380700  0.16372200  1
  O  O26  1  0.25000000  0.72619300  0.16372200  1
  O  O27  1  0.75000000  0.72619300  0.83627800  1
  O  O28  1  0.75000000  0.50000000  0.00104900  1
  O  O29  1  0.25000000  0.50000000  0.99895100  1
  O  O30  1  0.50000000  0.00000000  0.00000000  1
  O  O31  1  0.00000000  0.00000000  0.00000000  1
  O  O32  1  0.75000000  0.22701400  0.50400700  1
  O  O33  1  0.25000000  0.22701400  0.49599300  1
  O  O34  1  0.25000000  0.77298600  0.49599300  1
  O  O35  1  0.75000000  0.77298600  0.50400700  1
  O  O36  1  0.75000000  0.50000000  0.66525200  1
  O  O37  1  0.25000000  0.50000000  0.33474800  1
  O  O38  1  0.49453300  0.50000000  0.83079600  1
  O  O39  1  0.50546700  0.50000000  0.16920400  1
  O  O40  1  0.00546700  0.50000000  0.83079600  1
  O  O41  1  0.99453300  0.50000000  0.16920400  1
  O  O42  1  0.25000000  0.50000000  0.66096200  1
  O  O43  1  0.75000000  0.50000000  0.33903800  1
  O  O44  1  0.47146400  0.00000000  0.71073900  1
  O  O45  1  0.52853600  0.00000000  0.28926100  1
  O  O46  1  0.02853600  0.00000000  0.71073900  1
  O  O47  1  0.97146400  0.00000000  0.28926100  1
  O  O48  1  0.25000000  0.23716300  0.83412300  1
  O  O49  1  0.75000000  0.23716300  0.16587700  1
  O  O50  1  0.75000000  0.76283700  0.16587700  1
  O  O51  1  0.25000000  0.76283700  0.83412300  1
  O  O52  1  0.50000000  0.50000000  0.50000000  1
  O  O53  1  0.00000000  0.50000000  0.50000000  1
