# generated using pymatgen
data_Sr2Nd2MnCuO8
_symmetry_space_group_name_H-M   'P 1'
_cell_length_a   3.85339200
_cell_length_b   3.85339200
_cell_length_c   12.67075200
_cell_angle_alpha   90.00000000
_cell_angle_beta   90.00000000
_cell_angle_gamma   90.00000000
_symmetry_Int_Tables_number   1
_chemical_formula_structural   Sr2Nd2MnCuO8
_chemical_formula_sum   'Sr2 Nd2 Mn1 Cu1 O8'
_cell_volume   188.14330707
_cell_formula_units_Z   1
loop_
 _symmetry_equiv_pos_site_id
 _symmetry_equiv_pos_as_xyz
  1  'x, y, z'
loop_
 _atom_site_type_symbol
 _atom_site_label
 _atom_site_symmetry_multiplicity
 _atom_site_fract_x
 _atom_site_fract_y
 _atom_site_fract_z
 _atom_site_occupancy
  Sr  Sr0  1  0.00000000  0.00000000  0.64390500  1
  Sr  Sr1  1  0.00000000  0.00000000  0.35609500  1
  Nd  Nd2  1  0.50000000  0.50000000  0.13810300  1
  Nd  Nd3  1  0.50000000  0.50000000  0.86189700  1
  Mn  Mn4  1  0.50000000  0.50000000  0.50000000  1
  Cu  Cu5  1  0.00000000  0.00000000  0.00000000  1
  O  O6  1  0.50000000  0.50000000  0.31479300  1
  O  O7  1  0.00000000  0.00000000  0.84114500  1
  O  O8  1  0.00000000  0.00000000  0.15885500  1
  O  O9  1  0.50000000  0.50000000  0.68520700  1
  O  O10  1  0.00000000  0.50000000  0.50000000  1
  O  O11  1  0.50000000  0.00000000  0.00000000  1
  O  O12  1  0.50000000  0.00000000  0.50000000  1
  O  O13  1  0.00000000  0.50000000  0.00000000  1
