# generated using pymatgen
data_Sr3UIn2O9
_symmetry_space_group_name_H-M   'P 1'
_cell_length_a   6.01590000
_cell_length_b   8.39306600
_cell_length_c   19.58937964
_cell_angle_alpha   64.69299063
_cell_angle_beta   90.00000000
_cell_angle_gamma   90.00000000
_symmetry_Int_Tables_number   1
_chemical_formula_structural   Sr3UIn2O9
_chemical_formula_sum   'Sr12 U4 In8 O36'
_cell_volume   894.17988918
_cell_formula_units_Z   4
loop_
 _symmetry_equiv_pos_site_id
 _symmetry_equiv_pos_as_xyz
  1  'x, y, z'
loop_
 _atom_site_type_symbol
 _atom_site_label
 _atom_site_symmetry_multiplicity
 _atom_site_fract_x
 _atom_site_fract_y
 _atom_site_fract_z
 _atom_site_occupancy
  Sr  Sr0  1  0.95449600  0.39116700  0.34563600  1
  Sr  Sr1  1  0.95075200  0.77040800  0.00211600  1
  Sr  Sr2  1  0.96489900  0.07688800  0.66054800  1
  Sr  Sr3  1  0.54924800  0.77040800  0.50211600  1
  Sr  Sr4  1  0.53510100  0.07688800  0.16054800  1
  Sr  Sr5  1  0.54550400  0.39116700  0.84563600  1
  Sr  Sr6  1  0.04550400  0.60883300  0.65436400  1
  Sr  Sr7  1  0.03510100  0.92311200  0.33945200  1
  Sr  Sr8  1  0.04924800  0.22959200  0.99788400  1
  Sr  Sr9  1  0.45075200  0.22959200  0.49788400  1
  Sr  Sr10  1  0.45449600  0.60883300  0.15436400  1
  Sr  Sr11  1  0.46489900  0.92311200  0.83945200  1
  U  U12  1  0.99976100  0.33421700  0.16795100  1
  U  U13  1  0.00023900  0.66578300  0.83204900  1
  U  U14  1  0.50023900  0.33421700  0.66795100  1
  U  U15  1  0.49976100  0.66578300  0.33204900  1
  In  In16  1  0.50311800  0.83151000  0.66730800  1
  In  In17  1  0.49688200  0.16849000  0.33269200  1
  In  In18  1  0.50000000  0.50000000  0.00000000  1
  In  In19  1  0.00000000  0.50000000  0.50000000  1
  In  In20  1  0.99688200  0.83151000  0.16730800  1
  In  In21  1  0.00311800  0.16849000  0.83269200  1
  In  In22  1  0.00000000  0.00000000  0.50000000  1
  In  In23  1  0.50000000  0.00000000  0.00000000  1
  O  O24  1  0.79424300  0.86249900  0.60097900  1
  O  O25  1  0.79981100  0.19453900  0.26246100  1
  O  O26  1  0.80508300  0.52178100  0.92642400  1
  O  O27  1  0.69491700  0.52178100  0.42642400  1
  O  O28  1  0.70575700  0.86249900  0.10097900  1
  O  O29  1  0.70018900  0.19453900  0.76246100  1
  O  O30  1  0.20575700  0.13750100  0.39902100  1
  O  O31  1  0.19491700  0.47821900  0.07357600  1
  O  O32  1  0.20018900  0.80546100  0.73753900  1
  O  O33  1  0.30508300  0.47821900  0.57357600  1
  O  O34  1  0.29981100  0.80546100  0.23753900  1
  O  O35  1  0.29424300  0.13750100  0.89902100  1
  O  O36  1  0.29318300  0.88660400  0.57117000  1
  O  O37  1  0.28701900  0.21779000  0.23171000  1
  O  O38  1  0.28613800  0.55921800  0.89633700  1
  O  O39  1  0.21386200  0.55921800  0.39633700  1
  O  O40  1  0.20681700  0.88660400  0.07117000  1
  O  O41  1  0.21298100  0.21779000  0.73171000  1
  O  O42  1  0.70681700  0.11339600  0.42883000  1
  O  O43  1  0.71386200  0.44078200  0.10366300  1
  O  O44  1  0.71298100  0.78221000  0.76829000  1
  O  O45  1  0.78613800  0.44078200  0.60366300  1
  O  O46  1  0.78701900  0.78221000  0.26829000  1
  O  O47  1  0.79318300  0.11339600  0.92883000  1
  O  O48  1  0.52534300  0.12127400  0.63944300  1
  O  O49  1  0.52776500  0.45923000  0.29915100  1
  O  O50  1  0.53675400  0.76811100  0.97455100  1
  O  O51  1  0.96324600  0.76811100  0.47455100  1
  O  O52  1  0.97465700  0.12127400  0.13944300  1
  O  O53  1  0.97223500  0.45923000  0.79915100  1
  O  O54  1  0.47465700  0.87872600  0.36055700  1
  O  O55  1  0.46324600  0.23188900  0.02544900  1
  O  O56  1  0.47223500  0.54077000  0.70084900  1
  O  O57  1  0.03675400  0.23188900  0.52544900  1
  O  O58  1  0.02776500  0.54077000  0.20084900  1
  O  O59  1  0.02534300  0.87872600  0.86055700  1
