# generated using pymatgen
data_Sr2LaGaO5
_symmetry_space_group_name_H-M   'P 1'
_cell_length_a   6.87879523
_cell_length_b   6.87879523
_cell_length_c   7.52525091
_cell_angle_alpha   62.59430025
_cell_angle_beta   62.59430025
_cell_angle_gamma   89.59376090
_symmetry_Int_Tables_number   1
_chemical_formula_structural   Sr2LaGaO5
_chemical_formula_sum   'Sr4 La2 Ga2 O10'
_cell_volume   270.99977773
_cell_formula_units_Z   2
loop_
 _symmetry_equiv_pos_site_id
 _symmetry_equiv_pos_as_xyz
  1  'x, y, z'
loop_
 _atom_site_type_symbol
 _atom_site_label
 _atom_site_symmetry_multiplicity
 _atom_site_fract_x
 _atom_site_fract_y
 _atom_site_fract_z
 _atom_site_occupancy
  Sr  Sr0  1  0.25000000  0.25000000  0.50000000  1
  Sr  Sr1  1  0.75000000  0.75000000  0.50000000  1
  Sr  Sr2  1  0.82415400  0.67584600  0.00000000  1
  Sr  Sr3  1  0.17584600  0.32415400  0.00000000  1
  La  La4  1  0.68081900  0.18081900  0.00000000  1
  La  La5  1  0.31918100  0.81918100  0.00000000  1
  Ga  Ga6  1  0.75174700  0.25174700  0.49650600  1
  Ga  Ga7  1  0.24825300  0.74825300  0.50349400  1
  O  O8  1  0.21386000  0.99840600  0.28773400  1
  O  O9  1  0.49840600  0.71386000  0.28773400  1
  O  O10  1  0.00287700  0.50287700  0.29034500  1
  O  O11  1  0.70677800  0.20677800  0.29034500  1
  O  O12  1  0.78614000  0.00159400  0.71226600  1
  O  O13  1  0.50159400  0.28614000  0.71226600  1
  O  O14  1  0.99712300  0.49712300  0.70965500  1
  O  O15  1  0.29322200  0.79322200  0.70965500  1
  O  O16  1  0.50000000  0.50000000  0.00000000  1
  O  O17  1  0.00000000  0.00000000  0.00000000  1
