# generated using pymatgen
data_Sr2MnGaO5
_symmetry_space_group_name_H-M   'P 1'
_cell_length_a   7.78821134
_cell_length_b   9.10728760
_cell_length_c   7.85518076
_cell_angle_alpha   64.45262413
_cell_angle_beta   90.57234702
_cell_angle_gamma   90.24752446
_symmetry_Int_Tables_number   1
_chemical_formula_structural   Sr2MnGaO5
_chemical_formula_sum   'Sr8 Mn4 Ga4 O20'
_cell_volume   502.66434020
_cell_formula_units_Z   4
loop_
 _symmetry_equiv_pos_site_id
 _symmetry_equiv_pos_as_xyz
  1  'x, y, z'
loop_
 _atom_site_type_symbol
 _atom_site_label
 _atom_site_symmetry_multiplicity
 _atom_site_fract_x
 _atom_site_fract_y
 _atom_site_fract_z
 _atom_site_occupancy
  Sr  Sr0  1  0.74883700  0.77732700  0.37578500  1
  Sr  Sr1  1  0.24885200  0.77734200  0.87588700  1
  Sr  Sr2  1  0.75114900  0.22267700  0.12422000  1
  Sr  Sr3  1  0.25113200  0.22266500  0.62411900  1
  Sr  Sr4  1  0.75114700  0.77732500  0.84687800  1
  Sr  Sr5  1  0.25116800  0.77731700  0.34677300  1
  Sr  Sr6  1  0.74887000  0.22267300  0.65311600  1
  Sr  Sr7  1  0.24886100  0.22267500  0.15322200  1
  Mn  Mn8  1  0.99997800  0.99985800  0.50012300  1
  Mn  Mn9  1  0.50001900  0.99990400  0.50005700  1
  Mn  Mn10  1  0.50001600  0.00016000  0.99995300  1
  Mn  Mn11  1  0.99999800  0.00009500  0.99996300  1
  Ga  Ga12  1  0.56838000  0.49997600  0.25286800  1
  Ga  Ga13  1  0.06840200  0.49997500  0.75286600  1
  Ga  Ga14  1  0.93162700  0.50002300  0.24710900  1
  Ga  Ga15  1  0.43160100  0.50002300  0.74710800  1
  O  O16  1  0.74998800  0.98625800  0.00687300  1
  O  O17  1  0.24998600  0.98620900  0.50689000  1
  O  O18  1  0.74998100  0.01373900  0.49310400  1
  O  O19  1  0.24998700  0.01378900  0.99308900  1
  O  O20  1  0.99999000  0.00409500  0.74797500  1
  O  O21  1  0.49999300  0.00410600  0.24798700  1
  O  O22  1  0.50001300  0.99590200  0.75210200  1
  O  O23  1  0.00001400  0.99589100  0.25209100  1
  O  O24  1  0.75619700  0.50000200  0.41997000  1
  O  O25  1  0.25619400  0.50000200  0.91995600  1
  O  O26  1  0.74380500  0.49999900  0.07999900  1
  O  O27  1  0.24380700  0.49999500  0.58001400  1
  O  O28  1  0.47545000  0.70760500  0.15331300  1
  O  O29  1  0.97545400  0.70762800  0.65329300  1
  O  O30  1  0.02455200  0.29239700  0.34665700  1
  O  O31  1  0.52455000  0.29237300  0.84667700  1
  O  O32  1  0.02454200  0.70765800  0.13899800  1
  O  O33  1  0.52454500  0.70767300  0.63898700  1
  O  O34  1  0.47546000  0.29233900  0.36098500  1
  O  O35  1  0.97545500  0.29232500  0.86099400  1
