# generated using pymatgen
data_Sr5La6Nb4O24
_symmetry_space_group_name_H-M   'P 1'
_cell_length_a   11.78112445
_cell_length_b   11.78112445
_cell_length_c   11.73626551
_cell_angle_alpha   60.29602292
_cell_angle_beta   60.29602292
_cell_angle_gamma   90.55152774
_symmetry_Int_Tables_number   1
_chemical_formula_structural   Sr5La6Nb4O24
_chemical_formula_sum   'Sr10 La12 Nb8 O48'
_cell_volume   1156.54549672
_cell_formula_units_Z   2
loop_
 _symmetry_equiv_pos_site_id
 _symmetry_equiv_pos_as_xyz
  1  'x, y, z'
loop_
 _atom_site_type_symbol
 _atom_site_label
 _atom_site_symmetry_multiplicity
 _atom_site_fract_x
 _atom_site_fract_y
 _atom_site_fract_z
 _atom_site_occupancy
  Sr  Sr0  1  0.86502900  0.13497100  0.75000000  1
  Sr  Sr1  1  0.61555900  0.38444100  0.25000000  1
  Sr  Sr2  1  0.13497100  0.86502900  0.25000000  1
  Sr  Sr3  1  0.38444100  0.61555900  0.75000000  1
  Sr  Sr4  1  0.62596400  0.37403600  0.75000000  1
  Sr  Sr5  1  0.37403600  0.62596400  0.25000000  1
  Sr  Sr6  1  0.61839700  0.84941300  0.22070400  1
  Sr  Sr7  1  0.15058700  0.38160300  0.27929600  1
  Sr  Sr8  1  0.38160300  0.15058700  0.77929600  1
  Sr  Sr9  1  0.84941300  0.61839700  0.72070400  1
  La  La10  1  0.23719400  0.80744700  0.51811300  1
  La  La11  1  0.19255300  0.76280600  0.98188700  1
  La  La12  1  0.17195100  0.24316200  0.06621900  1
  La  La13  1  0.75683800  0.82804900  0.43378100  1
  La  La14  1  0.76280600  0.19255300  0.48188700  1
  La  La15  1  0.80744700  0.23719400  0.01811300  1
  La  La16  1  0.82804900  0.75683800  0.93378100  1
  La  La17  1  0.24316200  0.17195100  0.56621900  1
  La  La18  1  0.43018400  0.16216700  0.18576700  1
  La  La19  1  0.83783300  0.56981600  0.31423300  1
  La  La20  1  0.56981600  0.83783300  0.81423300  1
  La  La21  1  0.16216700  0.43018400  0.68576700  1
  Nb  Nb22  1  0.50000000  0.00000000  0.50000000  1
  Nb  Nb23  1  0.00000000  0.50000000  0.00000000  1
  Nb  Nb24  1  0.00000000  0.00000000  0.50000000  1
  Nb  Nb25  1  0.00000000  0.00000000  0.00000000  1
  Nb  Nb26  1  0.00000000  0.50000000  0.50000000  1
  Nb  Nb27  1  0.50000000  0.00000000  0.00000000  1
  Nb  Nb28  1  0.50000000  0.50000000  0.50000000  1
  Nb  Nb29  1  0.50000000  0.50000000  0.00000000  1
  O  O30  1  0.10207100  0.64395600  0.49987800  1
  O  O31  1  0.35604400  0.89792900  0.00012200  1
  O  O32  1  0.35177800  0.40282100  0.74338200  1
  O  O33  1  0.59717900  0.64822200  0.75661800  1
  O  O34  1  0.89792900  0.35604400  0.50012200  1
  O  O35  1  0.64395600  0.10207100  0.99987800  1
  O  O36  1  0.64822200  0.59717900  0.25661800  1
  O  O37  1  0.40282100  0.35177800  0.24338200  1
  O  O38  1  0.41672400  0.15263300  0.97996400  1
  O  O39  1  0.84736700  0.58327600  0.52003600  1
  O  O40  1  0.37601000  0.61327900  0.03940900  1
  O  O41  1  0.38672100  0.62399000  0.46059100  1
  O  O42  1  0.58327600  0.84736700  0.02003600  1
  O  O43  1  0.15263300  0.41672400  0.47996400  1
  O  O44  1  0.62399000  0.38672100  0.96059100  1
  O  O45  1  0.61327900  0.37601000  0.53940900  1
  O  O46  1  0.39552000  0.84145800  0.74025000  1
  O  O47  1  0.15854200  0.60448000  0.75975000  1
  O  O48  1  0.92228300  0.87000500  0.46949500  1
  O  O49  1  0.12999500  0.07771700  0.03050500  1
  O  O50  1  0.60448000  0.15854200  0.25975000  1
  O  O51  1  0.84145800  0.39552000  0.24025000  1
  O  O52  1  0.07771700  0.12999500  0.53050500  1
  O  O53  1  0.87000500  0.92228300  0.96949500  1
  O  O54  1  0.38308400  0.89933500  0.23953400  1
  O  O55  1  0.10066500  0.61691600  0.26046600  1
  O  O56  1  0.36386600  0.37436800  0.02136200  1
  O  O57  1  0.62563200  0.63613400  0.47863800  1
  O  O58  1  0.61691600  0.10066500  0.76046600  1
  O  O59  1  0.89933500  0.38308400  0.73953400  1
  O  O60  1  0.63613400  0.62563200  0.97863800  1
  O  O61  1  0.37436800  0.36386600  0.52136200  1
  O  O62  1  0.98758900  0.67093300  0.00782100  1
  O  O63  1  0.32906700  0.01241100  0.49217900  1
  O  O64  1  0.82673800  0.00876700  0.16420400  1
  O  O65  1  0.99123300  0.17326200  0.33579600  1
  O  O66  1  0.01241100  0.32906700  0.99217900  1
  O  O67  1  0.67093300  0.98758900  0.50782100  1
  O  O68  1  0.17326200  0.99123300  0.83579600  1
  O  O69  1  0.00876700  0.82673800  0.66420400  1
  O  O70  1  0.85140100  0.50294000  0.96538800  1
  O  O71  1  0.49706000  0.14859900  0.53461200  1
  O  O72  1  0.03618000  0.18834600  0.81797400  1
  O  O73  1  0.81165400  0.96382000  0.68202600  1
  O  O74  1  0.14859900  0.49706000  0.03461200  1
  O  O75  1  0.50294000  0.85140100  0.46538800  1
  O  O76  1  0.96382000  0.81165400  0.18202600  1
  O  O77  1  0.18834600  0.03618000  0.31797400  1
