# generated using pymatgen
data_Sr2NdMn3O9
_symmetry_space_group_name_H-M   'P 1'
_cell_length_a   5.54158763
_cell_length_b   5.54158763
_cell_length_c   13.46096564
_cell_angle_alpha   88.46625840
_cell_angle_beta   88.46625840
_cell_angle_gamma   58.82453971
_symmetry_Int_Tables_number   1
_chemical_formula_structural   Sr2NdMn3O9
_chemical_formula_sum   'Sr4 Nd2 Mn6 O18'
_cell_volume   353.51123455
_cell_formula_units_Z   2
loop_
 _symmetry_equiv_pos_site_id
 _symmetry_equiv_pos_as_xyz
  1  'x, y, z'
loop_
 _atom_site_type_symbol
 _atom_site_label
 _atom_site_symmetry_multiplicity
 _atom_site_fract_x
 _atom_site_fract_y
 _atom_site_fract_z
 _atom_site_occupancy
  Sr  Sr0  1  0.83462100  0.83106000  0.91688600  1
  Sr  Sr1  1  0.16894000  0.16537900  0.58311400  1
  Sr  Sr2  1  0.83106000  0.83462100  0.41688600  1
  Sr  Sr3  1  0.16537900  0.16894000  0.08311400  1
  Nd  Nd4  1  0.49498400  0.50501600  0.25000000  1
  Nd  Nd5  1  0.50501600  0.49498400  0.75000000  1
  Mn  Mn6  1  0.50000000  0.50000000  0.00000000  1
  Mn  Mn7  1  0.83303600  0.83260100  0.66655600  1
  Mn  Mn8  1  0.16696400  0.16739900  0.33344400  1
  Mn  Mn9  1  0.16739900  0.16696400  0.83344400  1
  Mn  Mn10  1  0.50000000  0.50000000  0.50000000  1
  Mn  Mn11  1  0.83260100  0.83303600  0.16655600  1
  O  O12  1  0.47694000  0.06879900  0.73828400  1
  O  O13  1  0.79885800  0.39041600  0.39844900  1
  O  O14  1  0.14182300  0.71775400  0.07167000  1
  O  O15  1  0.85817700  0.28224600  0.92833000  1
  O  O16  1  0.20114200  0.60958400  0.60155100  1
  O  O17  1  0.52306000  0.93120100  0.26171600  1
  O  O18  1  0.39041600  0.79885800  0.89844900  1
  O  O19  1  0.71775400  0.14182300  0.57167000  1
  O  O20  1  0.06879900  0.47694000  0.23828400  1
  O  O21  1  0.93120100  0.52306000  0.76171600  1
  O  O22  1  0.28224600  0.85817700  0.42833000  1
  O  O23  1  0.60958400  0.20114200  0.10155100  1
  O  O24  1  0.33679900  0.33800400  0.91129400  1
  O  O25  1  0.66199600  0.66320100  0.58870600  1
  O  O26  1  0.99090600  0.00909400  0.25000000  1
  O  O27  1  0.00909400  0.99090600  0.75000000  1
  O  O28  1  0.33800400  0.33679900  0.41129400  1
  O  O29  1  0.66320100  0.66199600  0.08870600  1
