# generated using pymatgen
data_Sr3Cu3Pb3ClO8
_symmetry_space_group_name_H-M   'P 1'
_cell_length_a   3.87042700
_cell_length_b   3.90928700
_cell_length_c   19.93454326
_cell_angle_alpha   89.11718459
_cell_angle_beta   90.00000000
_cell_angle_gamma   90.00000000
_symmetry_Int_Tables_number   1
_chemical_formula_structural   Sr3Cu3Pb3ClO8
_chemical_formula_sum   'Sr3 Cu3 Pb3 Cl1 O8'
_cell_volume   301.58599575
_cell_formula_units_Z   1
loop_
 _symmetry_equiv_pos_site_id
 _symmetry_equiv_pos_as_xyz
  1  'x, y, z'
loop_
 _atom_site_type_symbol
 _atom_site_label
 _atom_site_symmetry_multiplicity
 _atom_site_fract_x
 _atom_site_fract_y
 _atom_site_fract_z
 _atom_site_occupancy
  Sr  Sr0  1  0.00000000  0.51745100  0.71895900  1
  Sr  Sr1  1  0.00000000  0.48424300  0.27384600  1
  Sr  Sr2  1  0.00000000  0.50185400  0.09751500  1
  Cu  Cu3  1  0.50000000  0.00458900  0.81292100  1
  Cu  Cu4  1  0.50000000  0.99512100  0.18515300  1
  Cu  Cu5  1  0.00000000  0.49777600  0.50009800  1
  Pb  Pb6  1  0.50000000  0.00090900  0.58651500  1
  Pb  Pb7  1  0.50000000  0.99780700  0.40952400  1
  Pb  Pb8  1  0.00000000  0.49573000  0.89669700  1
  Cl  Cl9  1  0.50000000  0.00437500  0.01765800  1
  O  O10  1  0.00000000  0.00275100  0.82653400  1
  O  O11  1  0.50000000  0.49569100  0.17650300  1
  O  O12  1  0.00000000  0.99659500  0.17516500  1
  O  O13  1  0.50000000  0.50382700  0.82459300  1
  O  O14  1  0.50000000  0.02456200  0.69692700  1
  O  O15  1  0.50000000  0.98046100  0.30076300  1
  O  O16  1  0.00000000  0.60070400  0.59156100  1
  O  O17  1  0.00000000  0.39555400  0.40906700  1
