# generated using pymatgen
data_Sr2GdGaO5
_symmetry_space_group_name_H-M   'P 1'
_cell_length_a   6.77167955
_cell_length_b   6.77167955
_cell_length_c   7.41621077
_cell_angle_alpha   63.02323842
_cell_angle_beta   63.02323842
_cell_angle_gamma   90.36604423
_symmetry_Int_Tables_number   1
_chemical_formula_structural   Sr2GdGaO5
_chemical_formula_sum   'Sr4 Gd2 Ga2 O10'
_cell_volume   260.27884338
_cell_formula_units_Z   2
loop_
 _symmetry_equiv_pos_site_id
 _symmetry_equiv_pos_as_xyz
  1  'x, y, z'
loop_
 _atom_site_type_symbol
 _atom_site_label
 _atom_site_symmetry_multiplicity
 _atom_site_fract_x
 _atom_site_fract_y
 _atom_site_fract_z
 _atom_site_occupancy
  Sr  Sr0  1  0.25000000  0.25000000  0.50000000  1
  Sr  Sr1  1  0.75000000  0.75000000  0.50000000  1
  Sr  Sr2  1  0.82604700  0.67395300  0.00000000  1
  Sr  Sr3  1  0.17395300  0.32604700  0.00000000  1
  Gd  Gd4  1  0.68086600  0.18086600  0.00000000  1
  Gd  Gd5  1  0.31913400  0.81913400  0.00000000  1
  Ga  Ga6  1  0.75328600  0.25328600  0.49342800  1
  Ga  Ga7  1  0.24671400  0.74671400  0.50657200  1
  O  O8  1  0.21764800  0.99822600  0.28412600  1
  O  O9  1  0.49822600  0.71764800  0.28412600  1
  O  O10  1  0.00991900  0.50991900  0.28421600  1
  O  O11  1  0.70586500  0.20586500  0.28421600  1
  O  O12  1  0.78235200  0.00177400  0.71587400  1
  O  O13  1  0.50177400  0.28235200  0.71587400  1
  O  O14  1  0.99008100  0.49008100  0.71578400  1
  O  O15  1  0.29413500  0.79413500  0.71578400  1
  O  O16  1  0.50000000  0.50000000  0.00000000  1
  O  O17  1  0.00000000  0.00000000  0.00000000  1
