# generated using pymatgen
data_Sr2CdAu3
_symmetry_space_group_name_H-M   'P 1'
_cell_length_a   6.14724204
_cell_length_b   6.14724204
_cell_length_c   7.69470438
_cell_angle_alpha   52.45194867
_cell_angle_beta   52.45194867
_cell_angle_gamma   46.80093010
_symmetry_Int_Tables_number   1
_chemical_formula_structural   Sr2CdAu3
_chemical_formula_sum   'Sr2 Cd1 Au3'
_cell_volume   158.48641740
_cell_formula_units_Z   1
loop_
 _symmetry_equiv_pos_site_id
 _symmetry_equiv_pos_as_xyz
  1  'x, y, z'
loop_
 _atom_site_type_symbol
 _atom_site_label
 _atom_site_symmetry_multiplicity
 _atom_site_fract_x
 _atom_site_fract_y
 _atom_site_fract_z
 _atom_site_occupancy
  Sr  Sr0  1  0.45784500  0.45784500  0.79862400  1
  Sr  Sr1  1  0.54362600  0.54362600  0.20777600  1
  Cd  Cd2  1  0.83346100  0.83346100  0.60188600  1
  Au  Au3  1  0.15817000  0.15817000  0.38881600  1
  Au  Au4  1  0.16737100  0.16737100  0.79459600  1
  Au  Au5  1  0.83952700  0.83952700  0.20830100  1
