# generated using pymatgen
data_Sr8CaY3Cu12(PbO4)8
_symmetry_space_group_name_H-M   'P 1'
_cell_length_a   7.67715600
_cell_length_b   7.68256314
_cell_length_c   16.78970630
_cell_angle_alpha   102.92919986
_cell_angle_beta   102.60846597
_cell_angle_gamma   90.52875017
_symmetry_Int_Tables_number   1
_chemical_formula_structural   Sr8CaY3Cu12(PbO4)8
_chemical_formula_sum   'Sr8 Ca1 Y3 Cu12 Pb8 O32'
_cell_volume   940.12285299
_cell_formula_units_Z   1
loop_
 _symmetry_equiv_pos_site_id
 _symmetry_equiv_pos_as_xyz
  1  'x, y, z'
loop_
 _atom_site_type_symbol
 _atom_site_label
 _atom_site_symmetry_multiplicity
 _atom_site_fract_x
 _atom_site_fract_y
 _atom_site_fract_z
 _atom_site_occupancy
  Sr  Sr0  1  0.10725300  0.10968300  0.21893200  1
  Sr  Sr1  1  0.60839000  0.61109900  0.22136400  1
  Sr  Sr2  1  0.39161000  0.38890100  0.77863600  1
  Sr  Sr3  1  0.89274700  0.89031700  0.78106800  1
  Sr  Sr4  1  0.60984600  0.10916800  0.22083500  1
  Sr  Sr5  1  0.10991800  0.60912500  0.22083500  1
  Sr  Sr6  1  0.89008200  0.39087500  0.77916500  1
  Sr  Sr7  1  0.39015400  0.89083200  0.77916500  1
  Ca  Ca8  1  0.00000000  0.00000000  0.00000000  1
  Y  Y9  1  0.50000000  0.00000000  0.00000000  1
  Y  Y10  1  0.00000000  0.50000000  0.00000000  1
  Y  Y11  1  0.50000000  0.50000000  0.00000000  1
  Cu  Cu12  1  0.30191900  0.30168100  0.10528800  1
  Cu  Cu13  1  0.80346600  0.80323900  0.10526400  1
  Cu  Cu14  1  0.69808100  0.69831900  0.89471200  1
  Cu  Cu15  1  0.19653400  0.19676100  0.89473600  1
  Cu  Cu16  1  0.74999000  0.25002100  0.49999900  1
  Cu  Cu17  1  0.25001000  0.74997900  0.50000100  1
  Cu  Cu18  1  0.30182700  0.80364400  0.10575300  1
  Cu  Cu19  1  0.80307400  0.30230800  0.10569600  1
  Cu  Cu20  1  0.69817300  0.19635600  0.89424700  1
  Cu  Cu21  1  0.19692600  0.69769200  0.89430400  1
  Cu  Cu22  1  0.24994500  0.25000400  0.49997800  1
  Cu  Cu23  1  0.75005500  0.74999600  0.50002200  1
  Pb  Pb24  1  0.44593600  0.94718600  0.38840300  1
  Pb  Pb25  1  0.94602800  0.44689900  0.38844300  1
  Pb  Pb26  1  0.55406400  0.05281400  0.61159700  1
  Pb  Pb27  1  0.05397200  0.55310100  0.61155700  1
  Pb  Pb28  1  0.44153500  0.45114300  0.38863300  1
  Pb  Pb29  1  0.94199900  0.95149300  0.38865400  1
  Pb  Pb30  1  0.55846500  0.54885700  0.61136700  1
  Pb  Pb31  1  0.05800100  0.04850700  0.61134600  1
  O  O32  1  0.54655600  0.79429000  0.09216100  1
  O  O33  1  0.04800800  0.30477000  0.09553400  1
  O  O34  1  0.95199200  0.69523000  0.90446600  1
  O  O35  1  0.45344400  0.20571000  0.90783900  1
  O  O36  1  0.37858800  0.37286200  0.25172300  1
  O  O37  1  0.87720000  0.87149900  0.25179400  1
  O  O38  1  0.62141200  0.62713800  0.74827700  1
  O  O39  1  0.12280000  0.12850100  0.74820600  1
  O  O40  1  0.54555200  0.29733400  0.09142900  1
  O  O41  1  0.04719500  0.79027800  0.09473200  1
  O  O42  1  0.95280500  0.20972200  0.90526800  1
  O  O43  1  0.45444800  0.70266600  0.90857100  1
  O  O44  1  0.79044600  0.04760800  0.09541600  1
  O  O45  1  0.29749700  0.54585200  0.09219100  1
  O  O46  1  0.70250300  0.45414800  0.90780900  1
  O  O47  1  0.20955400  0.95239200  0.90458400  1
  O  O48  1  0.37155300  0.87695100  0.25139000  1
  O  O49  1  0.87009100  0.37848400  0.25143400  1
  O  O50  1  0.62844700  0.12304900  0.74861000  1
  O  O51  1  0.12990900  0.62151600  0.74856600  1
  O  O52  1  0.13432200  0.20941900  0.38686700  1
  O  O53  1  0.63432500  0.70949700  0.38699600  1
  O  O54  1  0.36567500  0.29050300  0.61300400  1
  O  O55  1  0.86567800  0.79058100  0.61313300  1
  O  O56  1  0.30425100  0.04776900  0.09496800  1
  O  O57  1  0.79371200  0.54611100  0.09151800  1
  O  O58  1  0.20628800  0.45388900  0.90848200  1
  O  O59  1  0.69574900  0.95223100  0.90503200  1
  O  O60  1  0.19927600  0.64005400  0.38607000  1
  O  O61  1  0.69926500  0.14000400  0.38606800  1
  O  O62  1  0.30073500  0.85999600  0.61393200  1
  O  O63  1  0.80072400  0.35994600  0.61393000  1
