# generated using pymatgen
data_Sr2Al3Ge
_symmetry_space_group_name_H-M   'P 1'
_cell_length_a   4.41988192
_cell_length_b   4.41988192
_cell_length_c   9.62848600
_cell_angle_alpha   90.00000000
_cell_angle_beta   90.00000000
_cell_angle_gamma   119.99999878
_symmetry_Int_Tables_number   1
_chemical_formula_structural   Sr2Al3Ge
_chemical_formula_sum   'Sr2 Al3 Ge1'
_cell_volume   162.89583273
_cell_formula_units_Z   1
loop_
 _symmetry_equiv_pos_site_id
 _symmetry_equiv_pos_as_xyz
  1  'x, y, z'
loop_
 _atom_site_type_symbol
 _atom_site_label
 _atom_site_symmetry_multiplicity
 _atom_site_fract_x
 _atom_site_fract_y
 _atom_site_fract_z
 _atom_site_occupancy
  Sr  Sr0  1  0.33333300  0.66666700  0.25167200  1
  Sr  Sr1  1  0.33333300  0.66666700  0.74832800  1
  Al  Al2  1  0.66666700  0.33333300  0.50000000  1
  Al  Al3  1  0.00000000  0.00000000  0.00000000  1
  Al  Al4  1  0.00000000  0.00000000  0.50000000  1
  Ge  Ge5  1  0.66666700  0.33333300  0.00000000  1
