# generated using pymatgen
data_SrAl2(Si2O7)3
_symmetry_space_group_name_H-M   'P 1'
_cell_length_a   17.33085800
_cell_length_b   6.97488900
_cell_length_c   7.85079054
_cell_angle_alpha   85.41986311
_cell_angle_beta   90.00000000
_cell_angle_gamma   90.00000000
_symmetry_Int_Tables_number   1
_chemical_formula_structural   SrAl2(Si2O7)3
_chemical_formula_sum   'Sr2 Al4 Si12 O42'
_cell_volume   945.97937889
_cell_formula_units_Z   2
loop_
 _symmetry_equiv_pos_site_id
 _symmetry_equiv_pos_as_xyz
  1  'x, y, z'
loop_
 _atom_site_type_symbol
 _atom_site_label
 _atom_site_symmetry_multiplicity
 _atom_site_fract_x
 _atom_site_fract_y
 _atom_site_fract_z
 _atom_site_occupancy
  Sr  Sr0  1  0.25000000  0.61134200  0.16454400  1
  Sr  Sr1  1  0.75000000  0.38865800  0.83545600  1
  Al  Al2  1  0.05594700  0.59756500  0.19432200  1
  Al  Al3  1  0.55594700  0.40243500  0.80567800  1
  Al  Al4  1  0.94405300  0.40243500  0.80567800  1
  Al  Al5  1  0.44405300  0.59756500  0.19432200  1
  Si  Si6  1  0.05109000  0.08421000  0.65013300  1
  Si  Si7  1  0.55109000  0.91579000  0.34986700  1
  Si  Si8  1  0.94891000  0.91579000  0.34986700  1
  Si  Si9  1  0.44891000  0.08421000  0.65013300  1
  Si  Si10  1  0.08799600  0.68003300  0.81964700  1
  Si  Si11  1  0.58799600  0.31996700  0.18035300  1
  Si  Si12  1  0.91200400  0.31996700  0.18035300  1
  Si  Si13  1  0.41200400  0.68003300  0.81964700  1
  Si  Si14  1  0.15636100  0.43770700  0.53290900  1
  Si  Si15  1  0.65636100  0.56229300  0.46709100  1
  Si  Si16  1  0.84363900  0.56229300  0.46709100  1
  Si  Si17  1  0.34363900  0.43770700  0.53290900  1
  O  O18  1  0.12132300  0.64383700  0.01683600  1
  O  O19  1  0.62132300  0.35616300  0.98316400  1
  O  O20  1  0.87867700  0.35616300  0.98316400  1
  O  O21  1  0.37867700  0.64383700  0.01683600  1
  O  O22  1  0.99989200  0.60826700  0.81272900  1
  O  O23  1  0.49989200  0.39173300  0.18727100  1
  O  O24  1  0.00010800  0.39173300  0.18727100  1
  O  O25  1  0.50010800  0.60826700  0.81272900  1
  O  O26  1  0.00178700  0.79830200  0.22732600  1
  O  O27  1  0.50178700  0.20169800  0.77267400  1
  O  O28  1  0.99821300  0.20169800  0.77267400  1
  O  O29  1  0.49821300  0.79830200  0.22732600  1
  O  O30  1  0.09656000  0.90745900  0.75665500  1
  O  O31  1  0.59656000  0.09254100  0.24334500  1
  O  O32  1  0.90344000  0.09254100  0.24334500  1
  O  O33  1  0.40344000  0.90745900  0.75665500  1
  O  O34  1  0.12833300  0.55064000  0.35401000  1
  O  O35  1  0.62833300  0.44936000  0.64599000  1
  O  O36  1  0.87166700  0.44936000  0.64599000  1
  O  O37  1  0.37166700  0.55064000  0.35401000  1
  O  O38  1  0.14501900  0.55966400  0.69829300  1
  O  O39  1  0.64501800  0.44033600  0.30170700  1
  O  O40  1  0.85498100  0.44033600  0.30170700  1
  O  O41  1  0.35498100  0.55966400  0.69829300  1
  O  O42  1  0.11912800  0.22482000  0.56078100  1
  O  O43  1  0.61912800  0.77518000  0.43921900  1
  O  O44  1  0.88087200  0.77518000  0.43921900  1
  O  O45  1  0.38087200  0.22482000  0.56078100  1
  O  O46  1  0.00000000  0.00000000  0.50000000  1
  O  O47  1  0.50000000  0.00000000  0.50000000  1
  O  O48  1  0.25000000  0.41316400  0.49725400  1
  O  O49  1  0.75000000  0.58683600  0.50274600  1
  O  O50  1  0.25000000  0.12005200  0.85490500  1
  O  O51  1  0.75000000  0.87994800  0.14509500  1
  O  O52  1  0.21443000  0.09970200  0.23763400  1
  O  O53  1  0.71443000  0.90029800  0.76236600  1
  O  O54  1  0.78557000  0.90029800  0.76236600  1
  O  O55  1  0.28557000  0.09970200  0.23763400  1
  O  O56  1  0.25000000  0.28312200  0.90430000  1
  O  O57  1  0.75000000  0.71687800  0.09570000  1
  O  O58  1  0.25000000  0.78276100  0.44326500  1
  O  O59  1  0.75000000  0.21723900  0.55673500  1
