# generated using pymatgen
data_Sr6Tl3Cu3O16
_symmetry_space_group_name_H-M   'P 1'
_cell_length_a   8.39513657
_cell_length_b   8.39513657
_cell_length_c   10.35821491
_cell_angle_alpha   61.40144420
_cell_angle_beta   61.40144420
_cell_angle_gamma   39.38354871
_symmetry_Int_Tables_number   1
_chemical_formula_structural   Sr6Tl3Cu3O16
_chemical_formula_sum   'Sr6 Tl3 Cu3 O16'
_cell_volume   398.87947863
_cell_formula_units_Z   1
loop_
 _symmetry_equiv_pos_site_id
 _symmetry_equiv_pos_as_xyz
  1  'x, y, z'
loop_
 _atom_site_type_symbol
 _atom_site_label
 _atom_site_symmetry_multiplicity
 _atom_site_fract_x
 _atom_site_fract_y
 _atom_site_fract_z
 _atom_site_occupancy
  Sr  Sr0  1  0.26248700  0.26248700  0.70859200  1
  Sr  Sr1  1  0.59841800  0.59841800  0.70444400  1
  Sr  Sr2  1  0.93201800  0.93201800  0.70781400  1
  Sr  Sr3  1  0.40158200  0.40158200  0.29555600  1
  Sr  Sr4  1  0.73751300  0.73751300  0.29140800  1
  Sr  Sr5  1  0.06798200  0.06798200  0.29218600  1
  Tl  Tl6  1  0.68162800  0.68162800  0.00008100  1
  Tl  Tl7  1  0.00000000  0.00000000  0.00000000  1
  Tl  Tl8  1  0.31837200  0.31837200  0.99991900  1
  Cu  Cu9  1  0.50000000  0.50000000  0.50000000  1
  Cu  Cu10  1  0.83335900  0.83335900  0.50094900  1
  Cu  Cu11  1  0.16664100  0.16664100  0.49905100  1
  O  O12  1  0.41202100  0.41202100  0.76688700  1
  O  O13  1  0.74346500  0.74346500  0.76687500  1
  O  O14  1  0.07820400  0.07820400  0.76509700  1
  O  O15  1  0.58797900  0.58797900  0.23311300  1
  O  O16  1  0.92179600  0.92179600  0.23490300  1
  O  O17  1  0.25653500  0.25653500  0.23312500  1
  O  O18  1  0.16702900  0.66538400  0.50078300  1
  O  O19  1  0.50000000  0.00000000  0.50000000  1
  O  O20  1  0.83297100  0.33461600  0.49921700  1
  O  O21  1  0.66538400  0.16702900  0.50078300  1
  O  O22  1  0.00000000  0.50000000  0.50000000  1
  O  O23  1  0.33461600  0.83297100  0.49921700  1
  O  O24  1  0.16918600  0.16918600  0.00030800  1
  O  O25  1  0.83081400  0.83081400  0.99969200  1
  O  O26  1  0.62012300  0.37987700  0.00000000  1
  O  O27  1  0.37987700  0.62012300  0.00000000  1
