# generated using pymatgen
data_Sr2Al3FeO8
_symmetry_space_group_name_H-M   'P 1'
_cell_length_a   9.00122000
_cell_length_b   5.30345400
_cell_length_c   8.56351874
_cell_angle_alpha   86.06659714
_cell_angle_beta   90.00000000
_cell_angle_gamma   90.00000000
_symmetry_Int_Tables_number   1
_chemical_formula_structural   Sr2Al3FeO8
_chemical_formula_sum   'Sr4 Al6 Fe2 O16'
_cell_volume   407.83850767
_cell_formula_units_Z   2
loop_
 _symmetry_equiv_pos_site_id
 _symmetry_equiv_pos_as_xyz
  1  'x, y, z'
loop_
 _atom_site_type_symbol
 _atom_site_label
 _atom_site_symmetry_multiplicity
 _atom_site_fract_x
 _atom_site_fract_y
 _atom_site_fract_z
 _atom_site_occupancy
  Sr  Sr0  1  0.99658800  0.25071700  0.51405200  1
  Sr  Sr1  1  0.49658800  0.74928300  0.48594800  1
  Sr  Sr2  1  0.98613100  0.20056200  0.97048800  1
  Sr  Sr3  1  0.48613100  0.79943800  0.02951200  1
  Al  Al4  1  0.83791100  0.72619500  0.20500800  1
  Al  Al5  1  0.33791100  0.27380500  0.79499200  1
  Al  Al6  1  0.67146800  0.21986900  0.29053800  1
  Al  Al7  1  0.17146800  0.78013100  0.70946200  1
  Al  Al8  1  0.16269400  0.80109600  0.32424400  1
  Al  Al9  1  0.66269400  0.19890400  0.67575600  1
  Fe  Fe10  1  0.82600600  0.71060200  0.80715600  1
  Fe  Fe11  1  0.32600600  0.28939800  0.19284400  1
  O  O12  1  0.31405800  0.61384700  0.26779800  1
  O  O13  1  0.81405800  0.38615300  0.73220200  1
  O  O14  1  0.64967600  0.90555600  0.78961400  1
  O  O15  1  0.14967600  0.09444400  0.21038600  1
  O  O16  1  0.48724300  0.34636900  0.66377000  1
  O  O17  1  0.98724300  0.65363100  0.33623000  1
  O  O18  1  0.89052500  0.63911900  0.01596800  1
  O  O19  1  0.39052500  0.36088100  0.98403200  1
  O  O20  1  0.29511000  0.94545000  0.82650700  1
  O  O21  1  0.79511000  0.05455000  0.17349300  1
  O  O22  1  0.17347400  0.44387900  0.73462400  1
  O  O23  1  0.67347400  0.55612100  0.26537600  1
  O  O24  1  0.21725500  0.88145400  0.51399700  1
  O  O25  1  0.71725500  0.11854600  0.48600300  1
  O  O26  1  0.99076000  0.90663300  0.73413800  1
  O  O27  1  0.49076000  0.09336700  0.26586200  1
