# generated using pymatgen
data_Sr3U6O28
_symmetry_space_group_name_H-M   'P 1'
_cell_length_a   6.92609100
_cell_length_b   9.78168983
_cell_length_c   9.80689500
_cell_angle_alpha   90.47395472
_cell_angle_beta   110.48791852
_cell_angle_gamma   110.52592295
_symmetry_Int_Tables_number   1
_chemical_formula_structural   Sr3U6O28
_chemical_formula_sum   'Sr3 U6 O28'
_cell_volume   576.33241245
_cell_formula_units_Z   1
loop_
 _symmetry_equiv_pos_site_id
 _symmetry_equiv_pos_as_xyz
  1  'x, y, z'
loop_
 _atom_site_type_symbol
 _atom_site_label
 _atom_site_symmetry_multiplicity
 _atom_site_fract_x
 _atom_site_fract_y
 _atom_site_fract_z
 _atom_site_occupancy
  Sr  Sr0  1  0.96897500  0.91220200  0.05370000  1
  Sr  Sr1  1  0.02264300  0.45834600  0.60088200  1
  Sr  Sr2  1  0.33397700  0.26818900  0.40639600  1
  U  U3  1  0.30583000  0.85607400  0.48178600  1
  U  U4  1  0.30682500  0.34151800  0.99651500  1
  U  U5  1  0.66094400  0.17071300  0.80712200  1
  U  U6  1  0.66102400  0.66686300  0.31168000  1
  U  U7  1  0.01603200  0.03427800  0.66083700  1
  U  U8  1  0.01539300  0.51973900  0.17471900  1
  O  O9  1  0.26593800  0.98593000  0.33696500  1
  O  O10  1  0.28964700  0.48104100  0.86652300  1
  O  O11  1  0.67174300  0.29909900  0.65894100  1
  O  O12  1  0.66346500  0.78382000  0.16079900  1
  O  O13  1  0.06246300  0.19748600  0.55107600  1
  O  O14  1  0.01621700  0.66210800  0.04688200  1
  O  O15  1  0.32520600  0.02895400  0.64120700  1
  O  O16  1  0.32522600  0.49794100  0.17225500  1
  O  O17  1  0.41303900  0.72663000  0.36132900  1
  O  O18  1  0.41368200  0.22070900  0.86734400  1
  O  O19  1  0.90744800  0.85484200  0.48377000  1
  O  O20  1  0.90725900  0.34226500  0.99585000  1
  O  O21  1  0.65993500  0.98915300  0.60243300  1
  O  O22  1  0.66004800  0.46295900  0.12843200  1
  O  O23  1  0.99616500  0.68209600  0.32488100  1
  O  O24  1  0.99690100  0.18718700  0.82044000  1
  O  O25  1  0.71508400  0.07779600  0.21730600  1
  O  O26  1  0.43525500  0.48271500  0.62216400  1
  O  O27  1  0.92050000  0.09702600  0.23337200  1
  O  O28  1  0.80011200  0.59714700  0.73765200  1
  O  O29  1  0.69219900  0.15848900  0.30755900  1
  O  O30  1  0.60543000  0.58358500  0.72616300  1
  O  O31  1  0.28723400  0.72391600  0.61925800  1
  O  O32  1  0.26919000  0.19481800  0.12476400  1
  O  O33  1  0.66503400  0.01842100  0.92202600  1
  O  O34  1  0.67469900  0.51803600  0.43884000  1
  O  O35  1  0.01342300  0.90656900  0.80328600  1
  O  O36  1  0.05601500  0.40889000  0.33739900  1
