# generated using pymatgen
data_Sr2CeMn3O9
_symmetry_space_group_name_H-M   'P 1'
_cell_length_a   5.53581417
_cell_length_b   5.53581417
_cell_length_c   13.54969800
_cell_angle_alpha   89.21024971
_cell_angle_beta   89.21024971
_cell_angle_gamma   59.92957020
_symmetry_Int_Tables_number   1
_chemical_formula_structural   Sr2CeMn3O9
_chemical_formula_sum   'Sr4 Ce2 Mn6 O18'
_cell_volume   359.30199290
_cell_formula_units_Z   2
loop_
 _symmetry_equiv_pos_site_id
 _symmetry_equiv_pos_as_xyz
  1  'x, y, z'
loop_
 _atom_site_type_symbol
 _atom_site_label
 _atom_site_symmetry_multiplicity
 _atom_site_fract_x
 _atom_site_fract_y
 _atom_site_fract_z
 _atom_site_occupancy
  Sr  Sr0  1  0.83655600  0.83655600  0.08100000  1
  Sr  Sr1  1  0.16844200  0.16844200  0.41485600  1
  Sr  Sr2  1  0.16344400  0.16344400  0.91900000  1
  Sr  Sr3  1  0.83155800  0.83155800  0.58514400  1
  Ce  Ce4  1  0.48334200  0.48334200  0.74801300  1
  Ce  Ce5  1  0.51665800  0.51665800  0.25198700  1
  Mn  Mn6  1  0.83320000  0.83320000  0.83484900  1
  Mn  Mn7  1  0.16680000  0.16680000  0.16515100  1
  Mn  Mn8  1  0.50000000  0.50000000  0.50000000  1
  Mn  Mn9  1  0.50000000  0.50000000  0.00000000  1
  Mn  Mn10  1  0.83364900  0.83364900  0.33265800  1
  Mn  Mn11  1  0.16635100  0.16635100  0.66734200  1
  O  O12  1  0.64033400  0.14534800  0.92401800  1
  O  O13  1  0.95229700  0.47549100  0.26054600  1
  O  O14  1  0.32248400  0.79923800  0.60626800  1
  O  O15  1  0.85465200  0.35966600  0.07598200  1
  O  O16  1  0.20076200  0.67751600  0.39373200  1
  O  O17  1  0.52450900  0.04770300  0.73945400  1
  O  O18  1  0.14534800  0.64033400  0.92401800  1
  O  O19  1  0.47549100  0.95229700  0.26054600  1
  O  O20  1  0.79923800  0.32248400  0.60626800  1
  O  O21  1  0.35966600  0.85465200  0.07598200  1
  O  O22  1  0.67751600  0.20076200  0.39373200  1
  O  O23  1  0.04770300  0.52450900  0.73945400  1
  O  O24  1  0.63517800  0.63517800  0.87918400  1
  O  O25  1  0.97863600  0.97863600  0.22872500  1
  O  O26  1  0.31426000  0.31426000  0.56543900  1
  O  O27  1  0.36482200  0.36482200  0.12081600  1
  O  O28  1  0.68574000  0.68574000  0.43456100  1
  O  O29  1  0.02136400  0.02136400  0.77127500  1
