# generated using pymatgen
data_Sr(FeS2)2
_symmetry_space_group_name_H-M   'P 1'
_cell_length_a   5.95466363
_cell_length_b   5.95466363
_cell_length_c   5.95466363
_cell_angle_alpha   101.44853544
_cell_angle_beta   101.44853544
_cell_angle_gamma   127.08683288
_symmetry_Int_Tables_number   1
_chemical_formula_structural   Sr(FeS2)2
_chemical_formula_sum   'Sr1 Fe2 S4'
_cell_volume   150.79212677
_cell_formula_units_Z   1
loop_
 _symmetry_equiv_pos_site_id
 _symmetry_equiv_pos_as_xyz
  1  'x, y, z'
loop_
 _atom_site_type_symbol
 _atom_site_label
 _atom_site_symmetry_multiplicity
 _atom_site_fract_x
 _atom_site_fract_y
 _atom_site_fract_z
 _atom_site_occupancy
  Sr  Sr0  1  0.00000000  0.00000000  0.00000000  1
  Fe  Fe1  1  0.50000000  0.00000000  0.50000000  1
  Fe  Fe2  1  0.00000000  0.50000000  0.50000000  1
  S  S3  1  0.59138400  0.40861600  0.50000000  1
  S  S4  1  0.09138400  0.59138400  0.18276800  1
  S  S5  1  0.40861600  0.90861600  0.81723200  1
  S  S6  1  0.90861600  0.09138400  0.50000000  1
