# generated using pymatgen
data_SnTe(PbS)4
_symmetry_space_group_name_H-M   'P 1'
_cell_length_a   17.58300508
_cell_length_b   17.58300508
_cell_length_c   17.58300461
_cell_angle_alpha   14.09911764
_cell_angle_beta   14.09911764
_cell_angle_gamma   14.09911899
_symmetry_Int_Tables_number   1
_chemical_formula_structural   SnTe(PbS)4
_chemical_formula_sum   'Sn1 Te1 Pb4 S4'
_cell_volume   280.76995560
_cell_formula_units_Z   1
loop_
 _symmetry_equiv_pos_site_id
 _symmetry_equiv_pos_as_xyz
  1  'x, y, z'
loop_
 _atom_site_type_symbol
 _atom_site_label
 _atom_site_symmetry_multiplicity
 _atom_site_fract_x
 _atom_site_fract_y
 _atom_site_fract_z
 _atom_site_occupancy
  Sn  Sn0  1  0.59490100  0.59490100  0.59490100  1
  Te  Te1  1  0.29811100  0.29811100  0.29811100  1
  Pb  Pb2  1  0.00395400  0.00395400  0.00395400  1
  Pb  Pb3  1  0.40167000  0.40167000  0.40167000  1
  Pb  Pb4  1  0.80010100  0.80010100  0.80010100  1
  Pb  Pb5  1  0.19876800  0.19876800  0.19876800  1
  S  S6  1  0.70216100  0.70216100  0.70216100  1
  S  S7  1  0.10066200  0.10066200  0.10066200  1
  S  S8  1  0.50021200  0.50021200  0.50021200  1
  S  S9  1  0.89945800  0.89945800  0.89945800  1
