# generated using pymatgen
data_SnTe4Pb3
_symmetry_space_group_name_H-M   'P 1'
_cell_length_a   4.62487500
_cell_length_b   4.62487500
_cell_length_c   13.09755100
_cell_angle_alpha   90.00000000
_cell_angle_beta   90.00000000
_cell_angle_gamma   90.00000000
_symmetry_Int_Tables_number   1
_chemical_formula_structural   SnTe4Pb3
_chemical_formula_sum   'Sn1 Te4 Pb3'
_cell_volume   280.14965802
_cell_formula_units_Z   1
loop_
 _symmetry_equiv_pos_site_id
 _symmetry_equiv_pos_as_xyz
  1  'x, y, z'
loop_
 _atom_site_type_symbol
 _atom_site_label
 _atom_site_symmetry_multiplicity
 _atom_site_fract_x
 _atom_site_fract_y
 _atom_site_fract_z
 _atom_site_occupancy
  Sn  Sn0  1  0.00000000  0.00000000  0.00000000  1
  Te  Te1  1  0.00000000  0.00000000  0.24808000  1
  Te  Te2  1  0.50000000  0.50000000  0.00000000  1
  Te  Te3  1  0.00000000  0.00000000  0.75192000  1
  Te  Te4  1  0.50000000  0.50000000  0.50000000  1
  Pb  Pb5  1  0.50000000  0.50000000  0.75021000  1
  Pb  Pb6  1  0.00000000  0.00000000  0.50000000  1
  Pb  Pb7  1  0.50000000  0.50000000  0.24979000  1
