# generated using pymatgen
data_Sr15Al6(OF24)2
_symmetry_space_group_name_H-M   'P 1'
_cell_length_a   7.40055857
_cell_length_b   7.40055857
_cell_length_c   42.70831929
_cell_angle_alpha   90.00000000
_cell_angle_beta   90.00000000
_cell_angle_gamma   118.22698118
_symmetry_Int_Tables_number   1
_chemical_formula_structural   Sr15Al6(OF24)2
_chemical_formula_sum   'Sr30 Al12 O4 F96'
_cell_volume   2060.90147866
_cell_formula_units_Z   2
loop_
 _symmetry_equiv_pos_site_id
 _symmetry_equiv_pos_as_xyz
  1  'x, y, z'
loop_
 _atom_site_type_symbol
 _atom_site_label
 _atom_site_symmetry_multiplicity
 _atom_site_fract_x
 _atom_site_fract_y
 _atom_site_fract_z
 _atom_site_occupancy
  Sr  Sr0  1  0.25000000  0.75000000  0.01185494  1
  Sr  Sr1  1  0.25000000  0.75000000  0.34472454  1
  Sr  Sr2  1  0.25000000  0.75000000  0.67805661  1
  Sr  Sr3  1  0.75000000  0.25000000  0.17851902  1
  Sr  Sr4  1  0.75000000  0.25000000  0.51178486  1
  Sr  Sr5  1  0.75000000  0.25000000  0.84511463  1
  Sr  Sr6  1  0.75000000  0.25000000  0.32155237  1
  Sr  Sr7  1  0.75000000  0.25000000  0.65488214  1
  Sr  Sr8  1  0.75000000  0.25000000  0.98814698  1
  Sr  Sr9  1  0.25000000  0.75000000  0.15481206  1
  Sr  Sr10  1  0.25000000  0.75000000  0.48860939  1
  Sr  Sr11  1  0.25000000  0.75000000  0.82194246  1
  Sr  Sr12  1  0.75000000  0.75000000  0.04057145  1
  Sr  Sr13  1  0.75000000  0.75000000  0.37400667  1
  Sr  Sr14  1  0.75000000  0.75000000  0.70733718  1
  Sr  Sr15  1  0.75000000  0.75000000  0.20723802  1
  Sr  Sr16  1  0.75000000  0.75000000  0.54054033  1
  Sr  Sr17  1  0.75000000  0.75000000  0.87386822  1
  Sr  Sr18  1  0.25000000  0.25000000  0.29279878  1
  Sr  Sr19  1  0.25000000  0.25000000  0.62612667  1
  Sr  Sr20  1  0.25000000  0.25000000  0.95942798  1
  Sr  Sr21  1  0.25000000  0.25000000  0.12609555  1
  Sr  Sr22  1  0.25000000  0.25000000  0.45932882  1
  Sr  Sr23  1  0.25000000  0.25000000  0.79266033  1
  Sr  Sr24  1  0.75000000  0.25000000  0.08333300  1
  Sr  Sr25  1  0.75000000  0.25000000  0.41666589  1
  Sr  Sr26  1  0.75000000  0.25000000  0.75000111  1
  Sr  Sr27  1  0.25000000  0.75000000  0.24997818  1
  Sr  Sr28  1  0.25000000  0.75000000  0.58333300  1
  Sr  Sr29  1  0.25000000  0.75000000  0.91668882  1
  Al  Al30  1  0.25000000  0.25000000  0.04300853  1
  Al  Al31  1  0.25000000  0.25000000  0.37636894  1
  Al  Al32  1  0.25000000  0.25000000  0.70969745  1
  Al  Al33  1  0.25000000  0.25000000  0.20967616  1
  Al  Al34  1  0.25000000  0.25000000  0.54301239  1
  Al  Al35  1  0.25000000  0.25000000  0.87633338  1
  Al  Al36  1  0.75000000  0.75000000  0.29033362  1
  Al  Al37  1  0.75000000  0.75000000  0.62365461  1
  Al  Al38  1  0.75000000  0.75000000  0.95698984  1
  Al  Al39  1  0.75000000  0.75000000  0.12365847  1
  Al  Al40  1  0.75000000  0.75000000  0.45696855  1
  Al  Al41  1  0.75000000  0.75000000  0.79029806  1
  O  O42  1  0.75000000  0.25000000  0.24999817  1
  O  O43  1  0.75000000  0.25000000  0.58333300  1
  O  O44  1  0.75000000  0.25000000  0.91666883  1
  O  O45  1  0.25000000  0.75000000  0.08333300  1
  F  F46  1  0.37221452  0.53277706  0.04255875  1
  F  F47  1  0.37110704  0.53405333  0.37594648  1
  F  F48  1  0.37111598  0.53407770  0.70928415  1
  F  F49  1  0.96723368  0.12779503  0.20922162  1
  F  F50  1  0.96723094  0.12779124  0.54256831  1
  F  F51  1  0.96724654  0.12779505  0.87589621  1
  F  F52  1  0.53276632  0.37220497  0.20922162  1
  F  F53  1  0.53276906  0.37220876  0.54256831  1
  F  F54  1  0.53275346  0.37220495  0.87589621  1
  F  F55  1  0.12778548  0.96722294  0.04255875  1
  F  F56  1  0.12889296  0.96594667  0.37594648  1
  F  F57  1  0.12888402  0.96592230  0.70928415  1
  F  F58  1  0.62779505  0.46724654  0.29076979  1
  F  F59  1  0.62779124  0.46723094  0.62409869  1
  F  F60  1  0.62779503  0.46723368  0.95744538  1
  F  F61  1  0.03277706  0.87221452  0.12410825  1
  F  F62  1  0.03407770  0.87111598  0.45738285  1
  F  F63  1  0.03405333  0.87110704  0.79071952  1
  F  F64  1  0.46722294  0.62778548  0.12410825  1
  F  F65  1  0.46592230  0.62888402  0.45738285  1
  F  F66  1  0.46594667  0.62889296  0.79071952  1
  F  F67  1  0.87220495  0.03275346  0.29076979  1
  F  F68  1  0.87220876  0.03276906  0.62409869  1
  F  F69  1  0.87220497  0.03276632  0.95744538  1
  F  F70  1  0.88491760  0.49188754  0.03448689  1
  F  F71  1  0.88589596  0.49253219  0.36780271  1
  F  F72  1  0.88588157  0.49252466  0.70113375  1
  F  F73  1  0.00812146  0.61508251  0.20115365  1
  F  F74  1  0.00846111  0.61527633  0.53447046  1
  F  F75  1  0.00845291  0.61526902  0.86780525  1
  F  F76  1  0.49187854  0.88491749  0.20115365  1
  F  F77  1  0.49153889  0.88472367  0.53447046  1
  F  F78  1  0.49154709  0.88473098  0.86780525  1
  F  F79  1  0.61508240  0.00811246  0.03448689  1
  F  F80  1  0.61410404  0.00746781  0.36780271  1
  F  F81  1  0.61411843  0.00747534  0.70113375  1
  F  F82  1  0.11526902  0.50845291  0.29886175  1
  F  F83  1  0.11527633  0.50846111  0.63219554  1
  F  F84  1  0.11508251  0.50812146  0.96551335  1
  F  F85  1  0.99188754  0.38491760  0.13217911  1
  F  F86  1  0.99252466  0.38588157  0.46553325  1
  F  F87  1  0.99253219  0.38589596  0.79886429  1
  F  F88  1  0.50811246  0.11508240  0.13217911  1
  F  F89  1  0.50747534  0.11411843  0.46553325  1
  F  F90  1  0.50746781  0.11410404  0.79886429  1
  F  F91  1  0.38473098  0.99154709  0.29886175  1
  F  F92  1  0.38472367  0.99153889  0.63219554  1
  F  F93  1  0.38491749  0.99187854  0.96551335  1
  F  F94  1  0.08232272  0.25154484  0.07362140  1
  F  F95  1  0.08218255  0.25135560  0.40692892  1
  F  F96  1  0.08217161  0.25134127  0.74026255  1
  F  F97  1  0.24845813  0.41772110  0.24028851  1
  F  F98  1  0.24843486  0.41769616  0.57362520  1
  F  F99  1  0.24844957  0.41771783  0.90695589  1
  F  F100  1  0.25154187  0.08227890  0.24028851  1
  F  F101  1  0.25156514  0.08230384  0.57362520  1
  F  F102  1  0.25155043  0.08228217  0.90695589  1
  F  F103  1  0.41767728  0.24845516  0.07362140  1
  F  F104  1  0.41781745  0.24864440  0.40692892  1
  F  F105  1  0.41782839  0.24865873  0.74026255  1
  F  F106  1  0.91771783  0.74844957  0.25971111  1
  F  F107  1  0.91769616  0.74843486  0.59304080  1
  F  F108  1  0.91772110  0.74845813  0.92637849  1
  F  F109  1  0.75154484  0.58232272  0.09304460  1
  F  F110  1  0.75134127  0.58217161  0.42640445  1
  F  F111  1  0.75135560  0.58218255  0.75973808  1
  F  F112  1  0.74845516  0.91767728  0.09304460  1
  F  F113  1  0.74865873  0.91782839  0.42640445  1
  F  F114  1  0.74864440  0.91781745  0.75973808  1
  F  F115  1  0.58228217  0.75155043  0.25971111  1
  F  F116  1  0.58230384  0.75156514  0.59304080  1
  F  F117  1  0.58227890  0.75154187  0.92637849  1
  F  F118  1  0.07006417  0.23443953  0.01264810  1
  F  F119  1  0.07020062  0.23441842  0.34597617  1
  F  F120  1  0.07017518  0.23443482  0.67931234  1
  F  F121  1  0.26556713  0.42994237  0.17931544  1
  F  F122  1  0.26555312  0.43005526  0.51266913  1
  F  F123  1  0.26556781  0.43002693  0.84600302  1
  F  F124  1  0.23443287  0.07005763  0.17931544  1
  F  F125  1  0.23444688  0.06994474  0.51266913  1
  F  F126  1  0.23443219  0.06997307  0.84600302  1
  F  F127  1  0.42993583  0.26556047  0.01264810  1
  F  F128  1  0.42979938  0.26558158  0.34597617  1
  F  F129  1  0.42982482  0.26556518  0.67931234  1
  F  F130  1  0.93002693  0.76556781  0.32066298  1
  F  F131  1  0.93005526  0.76555312  0.65399787  1
  F  F132  1  0.92994237  0.76556713  0.98735156  1
  F  F133  1  0.73443953  0.57006417  0.15401890  1
  F  F134  1  0.73443482  0.57017518  0.48735466  1
  F  F135  1  0.73441842  0.57020062  0.82068983  1
  F  F136  1  0.76556047  0.92993583  0.15401890  1
  F  F137  1  0.76556518  0.92982482  0.48735466  1
  F  F138  1  0.76558158  0.92979938  0.82068983  1
  F  F139  1  0.56997307  0.73443219  0.32066298  1
  F  F140  1  0.56994474  0.73444688  0.65399787  1
  F  F141  1  0.57005763  0.73443287  0.98735156  1
