# generated using pymatgen
data_Sr2Co(CO)2
_symmetry_space_group_name_H-M   'P 1'
_cell_length_a   3.89658000
_cell_length_b   3.89658000
_cell_length_c   7.08212600
_cell_angle_alpha   90.00000000
_cell_angle_beta   90.00000000
_cell_angle_gamma   90.00000000
_symmetry_Int_Tables_number   1
_chemical_formula_structural   Sr2Co(CO)2
_chemical_formula_sum   'Sr2 Co1 C2 O2'
_cell_volume   107.53029650
_cell_formula_units_Z   1
loop_
 _symmetry_equiv_pos_site_id
 _symmetry_equiv_pos_as_xyz
  1  'x, y, z'
loop_
 _atom_site_type_symbol
 _atom_site_label
 _atom_site_symmetry_multiplicity
 _atom_site_fract_x
 _atom_site_fract_y
 _atom_site_fract_z
 _atom_site_occupancy
  Sr  Sr0  1  0.50000000  0.50000000  0.73365100  1
  Sr  Sr1  1  0.50000000  0.50000000  0.26634900  1
  Co  Co2  1  0.00000000  0.00000000  0.50000000  1
  C  C3  1  0.00000000  0.00000000  0.91075700  1
  C  C4  1  0.00000000  0.00000000  0.08924300  1
  O  O5  1  0.00000000  0.50000000  0.50000000  1
  O  O6  1  0.50000000  0.00000000  0.50000000  1
