# generated using pymatgen
data_SmYCu4
_symmetry_space_group_name_H-M   'P 1'
_cell_length_a   5.51800799
_cell_length_b   5.51800799
_cell_length_c   5.51800799
_cell_angle_alpha   133.59836432
_cell_angle_beta   102.07899328
_cell_angle_gamma   95.80488227
_symmetry_Int_Tables_number   1
_chemical_formula_structural   SmYCu4
_chemical_formula_sum   'Sm1 Y1 Cu4'
_cell_volume   111.60566169
_cell_formula_units_Z   1
loop_
 _symmetry_equiv_pos_site_id
 _symmetry_equiv_pos_as_xyz
  1  'x, y, z'
loop_
 _atom_site_type_symbol
 _atom_site_label
 _atom_site_symmetry_multiplicity
 _atom_site_fract_x
 _atom_site_fract_y
 _atom_site_fract_z
 _atom_site_occupancy
  Sm  Sm0  1  0.45844900  0.45844900  0.00000000  1
  Y  Y1  1  0.03921000  0.53921000  0.50000000  1
  Cu  Cu2  1  0.63955500  0.83734700  0.80220800  1
  Cu  Cu3  1  0.86369600  0.16382300  0.69987300  1
  Cu  Cu4  1  0.46395100  0.16382300  0.30012700  1
  Cu  Cu5  1  0.03513900  0.83734700  0.19779200  1
