# generated using pymatgen
data_Sn4Te5Pb
_symmetry_space_group_name_H-M   'P 1'
_cell_length_a   16.63715195
_cell_length_b   16.63715195
_cell_length_c   16.63715195
_cell_angle_alpha   164.35001771
_cell_angle_beta   164.35001771
_cell_angle_gamma   22.20233082
_symmetry_Int_Tables_number   1
_chemical_formula_structural   Sn4Te5Pb
_chemical_formula_sum   'Sn4 Te5 Pb1'
_cell_volume   335.05367674
_cell_formula_units_Z   1
loop_
 _symmetry_equiv_pos_site_id
 _symmetry_equiv_pos_as_xyz
  1  'x, y, z'
loop_
 _atom_site_type_symbol
 _atom_site_label
 _atom_site_symmetry_multiplicity
 _atom_site_fract_x
 _atom_site_fract_y
 _atom_site_fract_z
 _atom_site_occupancy
  Sn  Sn0  1  0.39998100  0.39998100  0.00000000  1
  Sn  Sn1  1  0.79999400  0.79999400  0.00000000  1
  Sn  Sn2  1  0.20000600  0.20000600  0.00000000  1
  Sn  Sn3  1  0.60001900  0.60001900  0.00000000  1
  Te  Te4  1  0.10059000  0.10059000  0.00000000  1
  Te  Te5  1  0.50000000  0.50000000  0.00000000  1
  Te  Te6  1  0.89941000  0.89941000  0.00000000  1
  Te  Te7  1  0.30003600  0.30003600  0.00000000  1
  Te  Te8  1  0.69996400  0.69996400  0.00000000  1
  Pb  Pb9  1  0.00000000  0.00000000  0.00000000  1
