# generated using pymatgen
data_Ta5CrNiS10
_symmetry_space_group_name_H-M   'P 1'
_cell_length_a   3.33185022
_cell_length_b   3.33185022
_cell_length_c   62.63054500
_cell_angle_alpha   90.00000000
_cell_angle_beta   90.00000000
_cell_angle_gamma   120.00000444
_symmetry_Int_Tables_number   1
_chemical_formula_structural   Ta5CrNiS10
_chemical_formula_sum   'Ta10 Cr2 Ni2 S20'
_cell_volume   602.12650372
_cell_formula_units_Z   2
loop_
 _symmetry_equiv_pos_site_id
 _symmetry_equiv_pos_as_xyz
  1  'x, y, z'
loop_
 _atom_site_type_symbol
 _atom_site_label
 _atom_site_symmetry_multiplicity
 _atom_site_fract_x
 _atom_site_fract_y
 _atom_site_fract_z
 _atom_site_occupancy
  Ta  Ta0  1  0.66666700  0.33333300  0.14963200  1
  Ta  Ta1  1  0.66666700  0.33333300  0.34984700  1
  Ta  Ta2  1  0.66666700  0.33333300  0.54742800  1
  Ta  Ta3  1  0.66666700  0.33333300  0.74760300  1
  Ta  Ta4  1  0.66666700  0.33333300  0.94978300  1
  Ta  Ta5  1  0.66666700  0.33333300  0.05020400  1
  Ta  Ta6  1  0.66666700  0.33333300  0.25030500  1
  Ta  Ta7  1  0.66666700  0.33333300  0.45260600  1
  Ta  Ta8  1  0.66666700  0.33333300  0.65249000  1
  Ta  Ta9  1  0.66666700  0.33333300  0.85008300  1
  Cr  Cr10  1  0.66666700  0.33333300  0.09991300  1
  Cr  Cr11  1  0.66666700  0.33333300  0.30006300  1
  Ni  Ni12  1  0.66666700  0.33333300  0.50011900  1
  Ni  Ni13  1  0.66666700  0.33333300  0.69995600  1
  S  S14  1  0.33333300  0.66666700  0.02530900  1
  S  S15  1  0.33333300  0.66666700  0.22539000  1
  S  S16  1  0.33333300  0.66666700  0.42751400  1
  S  S17  1  0.33333300  0.66666700  0.62740500  1
  S  S18  1  0.33333300  0.66666700  0.82514700  1
  S  S19  1  0.00000000  0.00000000  0.17453800  1
  S  S20  1  0.00000000  0.00000000  0.37477800  1
  S  S21  1  0.00000000  0.00000000  0.57253300  1
  S  S22  1  0.00000000  0.00000000  0.77264500  1
  S  S23  1  0.00000000  0.00000000  0.97476600  1
  S  S24  1  0.00000000  0.00000000  0.12371100  1
  S  S25  1  0.00000000  0.00000000  0.32393800  1
  S  S26  1  0.00000000  0.00000000  0.52238100  1
  S  S27  1  0.00000000  0.00000000  0.72242500  1
  S  S28  1  0.00000000  0.00000000  0.92485800  1
  S  S29  1  0.33333300  0.66666700  0.07616200  1
  S  S30  1  0.33333300  0.66666700  0.27620900  1
  S  S31  1  0.33333300  0.66666700  0.47769300  1
  S  S32  1  0.33333300  0.66666700  0.67763600  1
  S  S33  1  0.33333300  0.66666700  0.87493100  1
