# generated using pymatgen
data_Sm2Ga3Cu
_symmetry_space_group_name_H-M   'P 1'
_cell_length_a   3.73719900
_cell_length_b   4.41769000
_cell_length_c   7.64391000
_cell_angle_alpha   90.00000000
_cell_angle_beta   90.00000000
_cell_angle_gamma   90.00000000
_symmetry_Int_Tables_number   1
_chemical_formula_structural   Sm2Ga3Cu
_chemical_formula_sum   'Sm2 Ga3 Cu1'
_cell_volume   126.19932327
_cell_formula_units_Z   1
loop_
 _symmetry_equiv_pos_site_id
 _symmetry_equiv_pos_as_xyz
  1  'x, y, z'
loop_
 _atom_site_type_symbol
 _atom_site_label
 _atom_site_symmetry_multiplicity
 _atom_site_fract_x
 _atom_site_fract_y
 _atom_site_fract_z
 _atom_site_occupancy
  Sm  Sm0  1  0.00000000  0.50000000  0.00248600  1
  Sm  Sm1  1  0.00000000  0.00000000  0.49755200  1
  Ga  Ga2  1  0.50000000  0.00000000  0.83581000  1
  Ga  Ga3  1  0.50000000  0.00000000  0.17456600  1
  Ga  Ga4  1  0.50000000  0.50000000  0.65830000  1
  Cu  Cu5  1  0.50000000  0.50000000  0.33128600  1
