# generated using pymatgen
data_Sm3YS4
_symmetry_space_group_name_H-M   'P 1'
_cell_length_a   6.96491104
_cell_length_b   6.96491104
_cell_length_c   6.95420213
_cell_angle_alpha   79.60824782
_cell_angle_beta   79.60824782
_cell_angle_gamma   32.80020357
_symmetry_Int_Tables_number   1
_chemical_formula_structural   Sm3YS4
_chemical_formula_sum   'Sm3 Y1 S4'
_cell_volume   179.48582483
_cell_formula_units_Z   1
loop_
 _symmetry_equiv_pos_site_id
 _symmetry_equiv_pos_as_xyz
  1  'x, y, z'
loop_
 _atom_site_type_symbol
 _atom_site_label
 _atom_site_symmetry_multiplicity
 _atom_site_fract_x
 _atom_site_fract_y
 _atom_site_fract_z
 _atom_site_occupancy
  Sm  Sm0  1  0.24838600  0.24838600  0.25388700  1
  Sm  Sm1  1  0.50000000  0.50000000  0.50000000  1
  Sm  Sm2  1  0.75161400  0.75161400  0.74611300  1
  Y  Y3  1  0.00000000  0.00000000  0.00000000  1
  S  S4  1  0.62197600  0.62197600  0.12031000  1
  S  S5  1  0.87685900  0.87685900  0.36846000  1
  S  S6  1  0.12314100  0.12314100  0.63154000  1
  S  S7  1  0.37802400  0.37802400  0.87969000  1
