# generated using pymatgen
data_Sm6Cu8P8O3
_symmetry_space_group_name_H-M   'P 1'
_cell_length_a   13.43096867
_cell_length_b   13.43096867
_cell_length_c   5.55683100
_cell_angle_alpha   90.00000000
_cell_angle_beta   90.00000000
_cell_angle_gamma   156.14637339
_symmetry_Int_Tables_number   1
_chemical_formula_structural   Sm6Cu8P8O3
_chemical_formula_sum   'Sm6 Cu8 P8 O3'
_cell_volume   405.37279879
_cell_formula_units_Z   1
loop_
 _symmetry_equiv_pos_site_id
 _symmetry_equiv_pos_as_xyz
  1  'x, y, z'
loop_
 _atom_site_type_symbol
 _atom_site_label
 _atom_site_symmetry_multiplicity
 _atom_site_fract_x
 _atom_site_fract_y
 _atom_site_fract_z
 _atom_site_occupancy
  Sm  Sm0  1  0.31446900  0.21663300  0.73446400  1
  Sm  Sm1  1  0.78336700  0.68553100  0.26553600  1
  Sm  Sm2  1  0.21663300  0.31446900  0.26553600  1
  Sm  Sm3  1  0.68553100  0.78336700  0.73446400  1
  Sm  Sm4  1  0.50000000  0.00000000  0.24978200  1
  Sm  Sm5  1  0.00000000  0.50000000  0.75021800  1
  Cu  Cu6  1  0.34631300  0.65368700  0.50000000  1
  Cu  Cu7  1  0.84479800  0.15520200  0.00000000  1
  Cu  Cu8  1  0.84607400  0.15392600  0.50000000  1
  Cu  Cu9  1  0.34615300  0.65384700  0.00000000  1
  Cu  Cu10  1  0.15392600  0.84607400  0.50000000  1
  Cu  Cu11  1  0.65384700  0.34615300  0.00000000  1
  Cu  Cu12  1  0.65368700  0.34631300  0.50000000  1
  Cu  Cu13  1  0.15520200  0.84479800  0.00000000  1
  P  P14  1  0.14051000  0.34913500  0.75527000  1
  P  P15  1  0.65086500  0.85949000  0.24473000  1
  P  P16  1  0.34913500  0.14051000  0.24473000  1
  P  P17  1  0.85949000  0.65086500  0.75527000  1
  P  P18  1  0.45719400  0.04370000  0.74904600  1
  P  P19  1  0.95630000  0.54280600  0.25095400  1
  P  P20  1  0.04370000  0.45719400  0.25095400  1
  P  P21  1  0.54280600  0.95630000  0.74904600  1
  O  O22  1  0.50000000  0.50000000  0.50000000  1
  O  O23  1  0.50000000  0.50000000  0.00000000  1
  O  O24  1  0.00000000  0.00000000  0.50000000  1
