# generated using pymatgen
data_Sm2NbInO7
_symmetry_space_group_name_H-M   'P 1'
_cell_length_a   7.53478794
_cell_length_b   7.53478794
_cell_length_c   7.53478794
_cell_angle_alpha   120.96676405
_cell_angle_beta   119.01224802
_cell_angle_gamma   90.02650844
_symmetry_Int_Tables_number   1
_chemical_formula_structural   Sm2NbInO7
_chemical_formula_sum   'Sm4 Nb2 In2 O14'
_cell_volume   302.41898581
_cell_formula_units_Z   2
loop_
 _symmetry_equiv_pos_site_id
 _symmetry_equiv_pos_as_xyz
  1  'x, y, z'
loop_
 _atom_site_type_symbol
 _atom_site_label
 _atom_site_symmetry_multiplicity
 _atom_site_fract_x
 _atom_site_fract_y
 _atom_site_fract_z
 _atom_site_occupancy
  Sm  Sm0  1  0.50000000  0.50000000  0.50000000  1
  Sm  Sm1  1  0.50000000  0.00000000  0.00000000  1
  Sm  Sm2  1  0.50000000  0.50000000  0.00000000  1
  Sm  Sm3  1  0.00000000  0.50000000  0.50000000  1
  Nb  Nb4  1  0.00000000  0.00000000  0.00000000  1
  Nb  Nb5  1  0.50000000  0.00000000  0.50000000  1
  In  In6  1  0.00000000  0.00000000  0.50000000  1
  In  In7  1  0.00000000  0.50000000  0.00000000  1
  O  O8  1  0.37887000  0.62887000  0.75000000  1
  O  O9  1  0.62113000  0.37113000  0.25000000  1
  O  O10  1  0.31195300  0.06195300  0.25000000  1
  O  O11  1  0.89574900  0.64574900  0.25000000  1
  O  O12  1  0.34916300  0.67471900  0.27357800  1
  O  O13  1  0.90114200  0.07558600  0.22642200  1
  O  O14  1  0.34916300  0.07558600  0.67444400  1
  O  O15  1  0.90114200  0.67471900  0.82555600  1
  O  O16  1  0.68804700  0.93804700  0.75000000  1
  O  O17  1  0.10425100  0.35425100  0.75000000  1
  O  O18  1  0.65083700  0.32528100  0.72642200  1
  O  O19  1  0.09885800  0.92441400  0.77357800  1
  O  O20  1  0.65083700  0.92441400  0.32555600  1
  O  O21  1  0.09885800  0.32528100  0.17444400  1
