# generated using pymatgen
data_ScTlF6
_symmetry_space_group_name_H-M   'P 1'
_cell_length_a   5.88775797
_cell_length_b   5.88775797
_cell_length_c   5.88775748
_cell_angle_alpha   56.99850307
_cell_angle_beta   56.99850307
_cell_angle_gamma   56.99850965
_symmetry_Int_Tables_number   1
_chemical_formula_structural   ScTlF6
_chemical_formula_sum   'Sc1 Tl1 F6'
_cell_volume   134.33445377
_cell_formula_units_Z   1
loop_
 _symmetry_equiv_pos_site_id
 _symmetry_equiv_pos_as_xyz
  1  'x, y, z'
loop_
 _atom_site_type_symbol
 _atom_site_label
 _atom_site_symmetry_multiplicity
 _atom_site_fract_x
 _atom_site_fract_y
 _atom_site_fract_z
 _atom_site_occupancy
  Sc  Sc0  1  0.50000000  0.50000000  0.50000000  1
  Tl  Tl1  1  0.00000000  0.00000000  0.00000000  1
  F  F2  1  0.63933500  0.84066300  0.25992600  1
  F  F3  1  0.25992600  0.63933500  0.84066300  1
  F  F4  1  0.84066300  0.25992600  0.63933500  1
  F  F5  1  0.74007400  0.36066500  0.15933700  1
  F  F6  1  0.15933700  0.74007400  0.36066500  1
  F  F7  1  0.36066500  0.15933700  0.74007400  1
