# generated using pymatgen
data_Sm2V(Fe8N)2
_symmetry_space_group_name_H-M   'P 1'
_cell_length_a   6.49710625
_cell_length_b   6.49710625
_cell_length_c   6.56568608
_cell_angle_alpha   83.57513905
_cell_angle_beta   83.57513905
_cell_angle_gamma   82.77565570
_symmetry_Int_Tables_number   1
_chemical_formula_structural   Sm2V(Fe8N)2
_chemical_formula_sum   'Sm2 V1 Fe16 N2'
_cell_volume   271.87760773
_cell_formula_units_Z   1
loop_
 _symmetry_equiv_pos_site_id
 _symmetry_equiv_pos_as_xyz
  1  'x, y, z'
loop_
 _atom_site_type_symbol
 _atom_site_label
 _atom_site_symmetry_multiplicity
 _atom_site_fract_x
 _atom_site_fract_y
 _atom_site_fract_z
 _atom_site_occupancy
  Sm  Sm0  1  0.65865900  0.65865900  0.65848400  1
  Sm  Sm1  1  0.34687000  0.34687000  0.34709800  1
  V  V2  1  0.09134900  0.09134900  0.09246200  1
  Fe  Fe3  1  0.00069600  0.71443800  0.28107600  1
  Fe  Fe4  1  0.28211300  0.99621600  0.71538400  1
  Fe  Fe5  1  0.70779600  0.29163300  0.99932600  1
  Fe  Fe6  1  0.71443800  0.00069600  0.28107600  1
  Fe  Fe7  1  0.29163300  0.70779600  0.99932600  1
  Fe  Fe8  1  0.99621600  0.28211300  0.71538400  1
  Fe  Fe9  1  0.85640800  0.34416100  0.33908300  1
  Fe  Fe10  1  0.34416100  0.85640800  0.33908300  1
  Fe  Fe11  1  0.34284400  0.34284400  0.85512800  1
  Fe  Fe12  1  0.14547000  0.65506600  0.66112200  1
  Fe  Fe13  1  0.65506600  0.14547000  0.66112200  1
  Fe  Fe14  1  0.65757700  0.65757700  0.14383200  1
  Fe  Fe15  1  0.49969800  0.00090100  0.99961200  1
  Fe  Fe16  1  0.00090100  0.49969800  0.99961200  1
  Fe  Fe17  1  0.99902100  0.99902100  0.50096500  1
  Fe  Fe18  1  0.90859900  0.90859900  0.90964800  1
  N  N19  1  0.00007200  0.50041000  0.50058800  1
  N  N20  1  0.50041000  0.00007200  0.50058800  1
