# generated using pymatgen
data_Si6NiMo9
_symmetry_space_group_name_H-M   'P 1'
_cell_length_a   7.22297708
_cell_length_b   7.22297708
_cell_length_c   7.22297708
_cell_angle_alpha   96.69119992
_cell_angle_beta   96.69119992
_cell_angle_gamma   140.08200133
_symmetry_Int_Tables_number   1
_chemical_formula_structural   Si6NiMo9
_chemical_formula_sum   'Si6 Ni1 Mo9'
_cell_volume   227.28626355
_cell_formula_units_Z   1
loop_
 _symmetry_equiv_pos_site_id
 _symmetry_equiv_pos_as_xyz
  1  'x, y, z'
loop_
 _atom_site_type_symbol
 _atom_site_label
 _atom_site_symmetry_multiplicity
 _atom_site_fract_x
 _atom_site_fract_y
 _atom_site_fract_z
 _atom_site_occupancy
  Si  Si0  1  0.61095500  0.93204600  0.00000000  1
  Si  Si1  1  0.93204600  0.61095500  0.00000000  1
  Si  Si2  1  0.06795400  0.06795400  0.67890900  1
  Si  Si3  1  0.38904500  0.38904500  0.32109100  1
  Si  Si4  1  0.50000000  0.00000000  0.50000000  1
  Si  Si5  1  0.00000000  0.50000000  0.50000000  1
  Ni  Ni6  1  0.00000000  0.00000000  0.00000000  1
  Mo  Mo7  1  0.67063000  0.47303900  0.64655900  1
  Mo  Mo8  1  0.82648000  0.02407100  0.35344100  1
  Mo  Mo9  1  0.17352000  0.52696100  0.19759100  1
  Mo  Mo10  1  0.32937000  0.97592900  0.80240900  1
  Mo  Mo11  1  0.97592900  0.32937000  0.80240900  1
  Mo  Mo12  1  0.52696100  0.17352000  0.19759100  1
  Mo  Mo13  1  0.02407100  0.82648000  0.35344100  1
  Mo  Mo14  1  0.47303900  0.67063000  0.64655900  1
  Mo  Mo15  1  0.50000000  0.50000000  0.00000000  1
