# generated using pymatgen
data_ScMn2Ga3S8
_symmetry_space_group_name_H-M   'P 1'
_cell_length_a   3.77468074
_cell_length_b   6.58844368
_cell_length_c   12.50563350
_cell_angle_alpha   90.08598829
_cell_angle_beta   90.01264644
_cell_angle_gamma   90.00831121
_symmetry_Int_Tables_number   1
_chemical_formula_structural   ScMn2Ga3S8
_chemical_formula_sum   'Sc1 Mn2 Ga3 S8'
_cell_volume   311.00563375
_cell_formula_units_Z   1
loop_
 _symmetry_equiv_pos_site_id
 _symmetry_equiv_pos_as_xyz
  1  'x, y, z'
loop_
 _atom_site_type_symbol
 _atom_site_label
 _atom_site_symmetry_multiplicity
 _atom_site_fract_x
 _atom_site_fract_y
 _atom_site_fract_z
 _atom_site_occupancy
  Sc  Sc0  1  0.00007100  0.33387100  0.21015000  1
  Mn  Mn1  1  0.00000300  0.00031700  0.50123400  1
  Mn  Mn2  1  0.49999500  0.49938900  0.50244100  1
  Ga  Ga3  1  0.50002000  0.83426300  0.21499900  1
  Ga  Ga4  1  0.49996700  0.16573700  0.78627900  1
  Ga  Ga5  1  0.99998200  0.66708800  0.78594900  1
  S  S6  1  0.00001800  0.33392200  0.86423300  1
  S  S7  1  0.50002400  0.83323900  0.86441200  1
  S  S8  1  0.49998400  0.14782700  0.12917000  1
  S  S9  1  0.99994900  0.68419700  0.13303600  1
  S  S10  1  0.00005100  0.33398500  0.39829100  1
  S  S11  1  0.50008600  0.83339900  0.39394700  1
  S  S12  1  0.49991800  0.16489300  0.60819600  1
  S  S13  1  0.99993200  0.66787300  0.60766200  1
