# generated using pymatgen
data_Sm3CuSe6
_symmetry_space_group_name_H-M   'P 1'
_cell_length_a   7.21130300
_cell_length_b   7.90938100
_cell_length_c   17.28552300
_cell_angle_alpha   90.00000000
_cell_angle_beta   90.00000000
_cell_angle_gamma   90.00000000
_symmetry_Int_Tables_number   1
_chemical_formula_structural   Sm3CuSe6
_chemical_formula_sum   'Sm12 Cu4 Se24'
_cell_volume   985.91338893
_cell_formula_units_Z   4
loop_
 _symmetry_equiv_pos_site_id
 _symmetry_equiv_pos_as_xyz
  1  'x, y, z'
loop_
 _atom_site_type_symbol
 _atom_site_label
 _atom_site_symmetry_multiplicity
 _atom_site_fract_x
 _atom_site_fract_y
 _atom_site_fract_z
 _atom_site_occupancy
  Sm  Sm0  1  0.26732100  0.94356100  0.24767700  1
  Sm  Sm1  1  0.73267900  0.05643900  0.74767700  1
  Sm  Sm2  1  0.26732100  0.55643900  0.74767700  1
  Sm  Sm3  1  0.73267900  0.44356100  0.24767700  1
  Sm  Sm4  1  0.22755700  0.55636900  0.41230600  1
  Sm  Sm5  1  0.77244300  0.44363100  0.91230600  1
  Sm  Sm6  1  0.23995500  0.93985700  0.59034000  1
  Sm  Sm7  1  0.76004500  0.06014300  0.09034000  1
  Sm  Sm8  1  0.76004500  0.43985700  0.59034000  1
  Sm  Sm9  1  0.23995500  0.56014300  0.09034000  1
  Sm  Sm10  1  0.77244300  0.05636900  0.41230600  1
  Sm  Sm11  1  0.22755700  0.94363100  0.91230600  1
  Cu  Cu12  1  0.39722900  0.20739400  0.47436000  1
  Cu  Cu13  1  0.60277100  0.79260600  0.97436000  1
  Cu  Cu14  1  0.60277100  0.70739400  0.47436000  1
  Cu  Cu15  1  0.39722900  0.29260600  0.97436000  1
  Se  Se16  1  0.06995900  0.24913100  0.49980400  1
  Se  Se17  1  0.93004100  0.75086900  0.99980400  1
  Se  Se18  1  0.93004100  0.74913100  0.49980400  1
  Se  Se19  1  0.06995900  0.25086900  0.99980400  1
  Se  Se20  1  0.07577500  0.25222100  0.32048800  1
  Se  Se21  1  0.92422500  0.74777900  0.82048800  1
  Se  Se22  1  0.07503900  0.24639800  0.67860200  1
  Se  Se23  1  0.92496100  0.75360200  0.17860200  1
  Se  Se24  1  0.92496100  0.74639800  0.67860200  1
  Se  Se25  1  0.07503900  0.25360200  0.17860200  1
  Se  Se26  1  0.92422500  0.75222100  0.32048800  1
  Se  Se27  1  0.07577500  0.24777900  0.82048800  1
  Se  Se28  1  0.38774000  0.90889200  0.41744900  1
  Se  Se29  1  0.61226000  0.09110800  0.91744900  1
  Se  Se30  1  0.38741600  0.59623400  0.57994200  1
  Se  Se31  1  0.61258400  0.40376600  0.07994200  1
  Se  Se32  1  0.61258400  0.09623400  0.57994200  1
  Se  Se33  1  0.38741600  0.90376600  0.07994200  1
  Se  Se34  1  0.61226000  0.40889200  0.41744900  1
  Se  Se35  1  0.38774000  0.59110800  0.91744900  1
  Se  Se36  1  0.37776500  0.59869700  0.25113300  1
  Se  Se37  1  0.62223500  0.40130300  0.75113300  1
  Se  Se38  1  0.37776500  0.90130300  0.75113300  1
  Se  Se39  1  0.62223500  0.09869700  0.25113300  1
