# generated using pymatgen
data_Sm(Fe5Mo)2
_symmetry_space_group_name_H-M   'P 1'
_cell_length_a   4.76578400
_cell_length_b   6.53175564
_cell_length_c   6.53175564
_cell_angle_alpha   97.17786128
_cell_angle_beta   111.39628807
_cell_angle_gamma   68.60371193
_symmetry_Int_Tables_number   1
_chemical_formula_structural   Sm(Fe5Mo)2
_chemical_formula_sum   'Sm1 Fe10 Mo2'
_cell_volume   176.25788167
_cell_formula_units_Z   1
loop_
 _symmetry_equiv_pos_site_id
 _symmetry_equiv_pos_as_xyz
  1  'x, y, z'
loop_
 _atom_site_type_symbol
 _atom_site_label
 _atom_site_symmetry_multiplicity
 _atom_site_fract_x
 _atom_site_fract_y
 _atom_site_fract_z
 _atom_site_occupancy
  Sm  Sm0  1  0.00000000  0.00000000  0.00000000  1
  Fe  Fe1  1  0.50000000  0.00000000  0.50000000  1
  Fe  Fe2  1  0.00000000  0.00000000  0.50000000  1
  Fe  Fe3  1  0.50000000  0.50000000  0.00000000  1
  Fe  Fe4  1  0.00000000  0.50000000  0.00000000  1
  Fe  Fe5  1  0.72122700  0.77877300  0.22122700  1
  Fe  Fe6  1  0.27877300  0.22122700  0.77877300  1
  Fe  Fe7  1  0.50000000  0.77181200  0.77181200  1
  Fe  Fe8  1  0.50000000  0.22818800  0.22818800  1
  Fe  Fe9  1  0.64155400  0.35844600  0.64155400  1
  Fe  Fe10  1  0.35844600  0.64155400  0.35844600  1
  Mo  Mo11  1  0.00000000  0.35924100  0.35924100  1
  Mo  Mo12  1  0.00000000  0.64075900  0.64075900  1
