# generated using pymatgen
data_Sm4Cr3Fe31C4
_symmetry_space_group_name_H-M   'P 1'
_cell_length_a   6.47994913
_cell_length_b   6.48808263
_cell_length_c   12.93369253
_cell_angle_alpha   83.43636800
_cell_angle_beta   83.57641317
_cell_angle_gamma   83.46626391
_symmetry_Int_Tables_number   1
_chemical_formula_structural   Sm4Cr3Fe31C4
_chemical_formula_sum   'Sm4 Cr3 Fe31 C4'
_cell_volume   533.99178293
_cell_formula_units_Z   1
loop_
 _symmetry_equiv_pos_site_id
 _symmetry_equiv_pos_as_xyz
  1  'x, y, z'
loop_
 _atom_site_type_symbol
 _atom_site_label
 _atom_site_symmetry_multiplicity
 _atom_site_fract_x
 _atom_site_fract_y
 _atom_site_fract_z
 _atom_site_occupancy
  Sm  Sm0  1  0.66519200  0.65068100  0.32490700  1
  Sm  Sm1  1  0.66356200  0.64847500  0.82461700  1
  Sm  Sm2  1  0.33789000  0.35133400  0.17538300  1
  Sm  Sm3  1  0.34022700  0.35503600  0.67799400  1
  Cr  Cr4  1  0.91226300  0.91444500  0.95710700  1
  Cr  Cr5  1  0.08582600  0.08626100  0.04355800  1
  Cr  Cr6  1  0.09348300  0.09471900  0.54691600  1
  Fe  Fe7  1  0.99943300  0.00085200  0.24905700  1
  Fe  Fe8  1  0.99998400  0.99995700  0.74962100  1
  Fe  Fe9  1  0.99969000  0.49832900  0.50076800  1
  Fe  Fe10  1  0.00028900  0.49978100  0.99971100  1
  Fe  Fe11  1  0.49979300  0.00037700  0.99937200  1
  Fe  Fe12  1  0.49830500  0.00027000  0.50024200  1
  Fe  Fe13  1  0.85513800  0.34191800  0.17079700  1
  Fe  Fe14  1  0.85552700  0.34024900  0.67151300  1
  Fe  Fe15  1  0.34084200  0.34376500  0.42802800  1
  Fe  Fe16  1  0.33887600  0.34268500  0.92857400  1
  Fe  Fe17  1  0.34032800  0.85749300  0.17075000  1
  Fe  Fe18  1  0.33961000  0.85634600  0.67207100  1
  Fe  Fe19  1  0.14304000  0.65739500  0.32931400  1
  Fe  Fe20  1  0.14353800  0.66004500  0.82842500  1
  Fe  Fe21  1  0.66083700  0.65791500  0.07167000  1
  Fe  Fe22  1  0.66175900  0.65638700  0.57175900  1
  Fe  Fe23  1  0.66038000  0.14388700  0.32867200  1
  Fe  Fe24  1  0.66176500  0.14198500  0.82834500  1
  Fe  Fe25  1  0.28559200  0.71249700  0.49870200  1
  Fe  Fe26  1  0.28898600  0.71440800  0.99783600  1
  Fe  Fe27  1  0.71239500  0.00244300  0.14204500  1
  Fe  Fe28  1  0.71150700  0.00043600  0.64197600  1
  Fe  Fe29  1  0.00052000  0.28100200  0.35850500  1
  Fe  Fe30  1  0.99968200  0.28222200  0.85882500  1
  Fe  Fe31  1  0.28505400  0.99655700  0.35620800  1
  Fe  Fe32  1  0.28691400  0.99852400  0.85752700  1
  Fe  Fe33  1  0.00107900  0.71805000  0.14026600  1
  Fe  Fe34  1  0.00102900  0.71597200  0.64109600  1
  Fe  Fe35  1  0.71158700  0.28462000  0.00209300  1
  Fe  Fe36  1  0.71076300  0.28307300  0.50165100  1
  Fe  Fe37  1  0.90738200  0.90777800  0.45390700  1
  C  C38  1  0.49995800  0.50056700  0.99982400  1
  C  C39  1  0.50005200  0.50044900  0.50019500  1
  C  C40  1  0.50010800  0.00036600  0.25005300  1
  C  C41  1  0.49981500  0.00045100  0.75012100  1
