# generated using pymatgen
data_Sc3InP4
_symmetry_space_group_name_H-M   'P 1'
_cell_length_a   13.93845943
_cell_length_b   13.93845943
_cell_length_c   13.93845945
_cell_angle_alpha   17.30910564
_cell_angle_beta   17.30910564
_cell_angle_gamma   17.30910290
_symmetry_Int_Tables_number   1
_chemical_formula_structural   Sc3InP4
_chemical_formula_sum   'Sc3 In1 P4'
_cell_volume   209.17824305
_cell_formula_units_Z   1
loop_
 _symmetry_equiv_pos_site_id
 _symmetry_equiv_pos_as_xyz
  1  'x, y, z'
loop_
 _atom_site_type_symbol
 _atom_site_label
 _atom_site_symmetry_multiplicity
 _atom_site_fract_x
 _atom_site_fract_y
 _atom_site_fract_z
 _atom_site_occupancy
  Sc  Sc0  1  0.99995500  0.99995500  0.99995500  1
  Sc  Sc1  1  0.75003700  0.75003700  0.75003700  1
  Sc  Sc2  1  0.49963600  0.49963600  0.49963600  1
  In  In3  1  0.25025400  0.25025400  0.25025400  1
  P  P4  1  0.06252800  0.06252800  0.06252800  1
  P  P5  1  0.81262700  0.81262700  0.81262700  1
  P  P6  1  0.56204400  0.56204400  0.56204400  1
  P  P7  1  0.31291900  0.31291900  0.31291900  1
