# generated using pymatgen
data_Sm9In(SiS7)3
_symmetry_space_group_name_H-M   'P 1'
_cell_length_a   11.63311172
_cell_length_b   11.63311172
_cell_length_c   11.63311137
_cell_angle_alpha   98.03117223
_cell_angle_beta   98.03117223
_cell_angle_gamma   98.03117725
_symmetry_Int_Tables_number   1
_chemical_formula_structural   Sm9In(SiS7)3
_chemical_formula_sum   'Sm18 In2 Si6 S42'
_cell_volume   1523.08005011
_cell_formula_units_Z   2
loop_
 _symmetry_equiv_pos_site_id
 _symmetry_equiv_pos_as_xyz
  1  'x, y, z'
loop_
 _atom_site_type_symbol
 _atom_site_label
 _atom_site_symmetry_multiplicity
 _atom_site_fract_x
 _atom_site_fract_y
 _atom_site_fract_z
 _atom_site_occupancy
  Sm  Sm0  1  0.22453600  0.98838400  0.35100600  1
  Sm  Sm1  1  0.56094100  0.33634500  0.68026600  1
  Sm  Sm2  1  0.89916200  0.66387400  0.02856600  1
  Sm  Sm3  1  0.02856600  0.89916200  0.66387400  1
  Sm  Sm4  1  0.35100600  0.22453600  0.98838400  1
  Sm  Sm5  1  0.68026700  0.56094100  0.33634500  1
  Sm  Sm6  1  0.33634500  0.68026700  0.56094100  1
  Sm  Sm7  1  0.66387400  0.02856600  0.89916200  1
  Sm  Sm8  1  0.98838400  0.35100600  0.22453600  1
  Sm  Sm9  1  0.99153100  0.21482300  0.87125200  1
  Sm  Sm10  1  0.32752800  0.56380000  0.19932300  1
  Sm  Sm11  1  0.65167700  0.88798700  0.52488900  1
  Sm  Sm12  1  0.19932300  0.32752800  0.56380000  1
  Sm  Sm13  1  0.52488900  0.65167700  0.88798700  1
  Sm  Sm14  1  0.87125200  0.99153100  0.21482300  1
  Sm  Sm15  1  0.88798700  0.52488900  0.65167700  1
  Sm  Sm16  1  0.21482300  0.87125200  0.99153100  1
  Sm  Sm17  1  0.56380000  0.19932300  0.32752800  1
  In  In18  1  0.77136300  0.77136300  0.77136300  1
  In  In19  1  0.27138000  0.27138000  0.27138000  1
  Si  Si20  1  0.88754500  0.22137100  0.55600100  1
  Si  Si21  1  0.22137100  0.55600100  0.88754500  1
  Si  Si22  1  0.55600100  0.88754500  0.22137100  1
  Si  Si23  1  0.72122100  0.38882800  0.05495400  1
  Si  Si24  1  0.05495400  0.72122100  0.38882800  1
  Si  Si25  1  0.38882800  0.05495400  0.72122100  1
  S  S26  1  0.92932900  0.59790300  0.26750600  1
  S  S27  1  0.26750600  0.92932900  0.59790300  1
  S  S28  1  0.59790300  0.26750600  0.92932900  1
  S  S29  1  0.76765700  0.09726300  0.42977500  1
  S  S30  1  0.09726300  0.42977500  0.76765700  1
  S  S31  1  0.42977500  0.76765700  0.09726300  1
  S  S32  1  0.07716000  0.16338500  0.33000000  1
  S  S33  1  0.40433500  0.49510000  0.66353700  1
  S  S34  1  0.73575900  0.82534300  0.98840700  1
  S  S35  1  0.66353700  0.40433500  0.49510000  1
  S  S36  1  0.98840700  0.73575900  0.82534300  1
  S  S37  1  0.33000000  0.07716000  0.16338500  1
  S  S38  1  0.82534300  0.98840700  0.73575900  1
  S  S39  1  0.16338500  0.33000000  0.07716000  1
  S  S40  1  0.49510000  0.66353700  0.40433500  1
  S  S41  1  0.46369300  0.37429200  0.21123200  1
  S  S42  1  0.80390800  0.71665200  0.55050500  1
  S  S43  1  0.13747900  0.04698200  0.87841200  1
  S  S44  1  0.87841200  0.13747900  0.04698200  1
  S  S45  1  0.21123200  0.46369300  0.37429200  1
  S  S46  1  0.55050500  0.80390800  0.71665200  1
  S  S47  1  0.71665200  0.55050500  0.80390800  1
  S  S48  1  0.04698200  0.87841200  0.13747900  1
  S  S49  1  0.37429200  0.21123200  0.46369300  1
  S  S50  1  0.81593400  0.28929000  0.70677700  1
  S  S51  1  0.14864100  0.62764500  0.03645600  1
  S  S52  1  0.48088700  0.96105700  0.36845200  1
  S  S53  1  0.03645600  0.14864100  0.62764500  1
  S  S54  1  0.36845200  0.48088700  0.96105700  1
  S  S55  1  0.70677700  0.81593400  0.28929000  1
  S  S56  1  0.96105700  0.36845200  0.48088700  1
  S  S57  1  0.28929000  0.70677700  0.81593400  1
  S  S58  1  0.62764500  0.03645600  0.14864100  1
  S  S59  1  0.89242700  0.41597700  0.00357500  1
  S  S60  1  0.22661600  0.74489500  0.33877600  1
  S  S61  1  0.55890000  0.08487800  0.66919000  1
  S  S62  1  0.66919000  0.55890000  0.08487800  1
  S  S63  1  0.00357500  0.89242700  0.41597700  1
  S  S64  1  0.33877600  0.22661600  0.74489500  1
  S  S65  1  0.74489500  0.33877600  0.22661600  1
  S  S66  1  0.08487800  0.66919000  0.55890000  1
  S  S67  1  0.41597700  0.00357500  0.89242700  1
