# generated using pymatgen
data_Sn2Rh
_symmetry_space_group_name_H-M   'P 1'
_cell_length_a   6.74424600
_cell_length_b   6.74424600
_cell_length_c   7.18405924
_cell_angle_alpha   62.00531577
_cell_angle_beta   62.00531577
_cell_angle_gamma   90.00000000
_symmetry_Int_Tables_number   1
_chemical_formula_structural   Sn2Rh
_chemical_formula_sum   'Sn6 Rh3'
_cell_volume   244.38652782
_cell_formula_units_Z   3
loop_
 _symmetry_equiv_pos_site_id
 _symmetry_equiv_pos_as_xyz
  1  'x, y, z'
loop_
 _atom_site_type_symbol
 _atom_site_label
 _atom_site_symmetry_multiplicity
 _atom_site_fract_x
 _atom_site_fract_y
 _atom_site_fract_z
 _atom_site_occupancy
  Sn  Sn0  1  0.80655900  0.30655900  0.38688200  1
  Sn  Sn1  1  0.30655900  0.80655900  0.38688200  1
  Sn  Sn2  1  0.35355900  0.05915700  0.88168600  1
  Sn  Sn3  1  0.76475600  0.05915700  0.88168600  1
  Sn  Sn4  1  0.05915700  0.35355900  0.88168600  1
  Sn  Sn5  1  0.05915700  0.76475600  0.88168600  1
  Rh  Rh6  1  0.25983800  0.25983800  0.48032500  1
  Rh  Rh7  1  0.71411300  0.71411300  0.57177300  1
  Rh  Rh8  1  0.49230200  0.49230200  0.01539500  1
