# generated using pymatgen
data_Sc4Ti3O12
_symmetry_space_group_name_H-M   'P 1'
_cell_length_a   5.92917300
_cell_length_b   6.05648328
_cell_length_c   6.07967175
_cell_angle_alpha   98.97940456
_cell_angle_beta   99.49198074
_cell_angle_gamma   98.93024205
_symmetry_Int_Tables_number   1
_chemical_formula_structural   Sc4Ti3O12
_chemical_formula_sum   'Sc4 Ti3 O12'
_cell_volume   208.99067835
_cell_formula_units_Z   1
loop_
 _symmetry_equiv_pos_site_id
 _symmetry_equiv_pos_as_xyz
  1  'x, y, z'
loop_
 _atom_site_type_symbol
 _atom_site_label
 _atom_site_symmetry_multiplicity
 _atom_site_fract_x
 _atom_site_fract_y
 _atom_site_fract_z
 _atom_site_occupancy
  Sc  Sc0  1  0.30236200  0.61540700  0.13434700  1
  Sc  Sc1  1  0.85695600  0.68027400  0.39138800  1
  Sc  Sc2  1  0.39343000  0.86065700  0.68469600  1
  Sc  Sc3  1  0.69389900  0.38768400  0.86841100  1
  Ti  Ti4  1  0.00243500  0.99592000  0.99004100  1
  Ti  Ti5  1  0.14350500  0.32501200  0.60901100  1
  Ti  Ti6  1  0.61484900  0.14293400  0.31712800  1
  O  O7  1  0.93991400  0.10664400  0.32002600  1
  O  O8  1  0.32294200  0.97116500  0.10488100  1
  O  O9  1  0.08967200  0.31135800  0.92213900  1
  O  O10  1  0.04755900  0.89686300  0.69184200  1
  O  O11  1  0.68809400  0.04933200  0.91187200  1
  O  O12  1  0.92489200  0.68881500  0.06072000  1
  O  O13  1  0.41617800  0.57547100  0.82234500  1
  O  O14  1  0.81897300  0.40398800  0.57563800  1
  O  O15  1  0.57695100  0.83431100  0.41313600  1
  O  O16  1  0.57922700  0.40861300  0.18800400  1
  O  O17  1  0.18169000  0.56136600  0.42892900  1
  O  O18  1  0.40647200  0.18418600  0.56544600  1
