# generated using pymatgen
data_Sm4FeSn8
_symmetry_space_group_name_H-M   'P 1'
_cell_length_a   4.46855700
_cell_length_b   4.52823400
_cell_length_c   16.66107600
_cell_angle_alpha   90.00000000
_cell_angle_beta   90.00000000
_cell_angle_gamma   90.00000000
_symmetry_Int_Tables_number   1
_chemical_formula_structural   Sm4FeSn8
_chemical_formula_sum   'Sm4 Fe1 Sn8'
_cell_volume   337.13140367
_cell_formula_units_Z   1
loop_
 _symmetry_equiv_pos_site_id
 _symmetry_equiv_pos_as_xyz
  1  'x, y, z'
loop_
 _atom_site_type_symbol
 _atom_site_label
 _atom_site_symmetry_multiplicity
 _atom_site_fract_x
 _atom_site_fract_y
 _atom_site_fract_z
 _atom_site_occupancy
  Sm  Sm0  1  0.00000000  0.00000000  0.09758400  1
  Sm  Sm1  1  0.00000000  0.50000000  0.60202300  1
  Sm  Sm2  1  0.50000000  0.50000000  0.39649400  1
  Sm  Sm3  1  0.50000000  0.00000000  0.89956400  1
  Fe  Fe4  1  0.00000000  0.00000000  0.30486400  1
  Sn  Sn5  1  0.00000000  0.00000000  0.45247700  1
  Sn  Sn6  1  0.00000000  0.50000000  0.93744000  1
  Sn  Sn7  1  0.50000000  0.50000000  0.06231800  1
  Sn  Sn8  1  0.50000000  0.00000000  0.57076400  1
  Sn  Sn9  1  0.00000000  0.50000000  0.23940100  1
  Sn  Sn10  1  0.00000000  0.00000000  0.74900300  1
  Sn  Sn11  1  0.50000000  0.00000000  0.23941300  1
  Sn  Sn12  1  0.50000000  0.50000000  0.75165700  1
