# generated using pymatgen
data_Sm4Fe31Co3
_symmetry_space_group_name_H-M   'P 1'
_cell_length_a   6.44697155
_cell_length_b   6.42397329
_cell_length_c   12.86992944
_cell_angle_alpha   82.42166899
_cell_angle_beta   82.75280335
_cell_angle_gamma   82.61164301
_symmetry_Int_Tables_number   1
_chemical_formula_structural   Sm4Fe31Co3
_chemical_formula_sum   'Sm4 Fe31 Co3'
_cell_volume   520.72567028
_cell_formula_units_Z   1
loop_
 _symmetry_equiv_pos_site_id
 _symmetry_equiv_pos_as_xyz
  1  'x, y, z'
loop_
 _atom_site_type_symbol
 _atom_site_label
 _atom_site_symmetry_multiplicity
 _atom_site_fract_x
 _atom_site_fract_y
 _atom_site_fract_z
 _atom_site_occupancy
  Sm  Sm0  1  0.65815000  0.65654400  0.32924800  1
  Sm  Sm1  1  0.65966200  0.65788900  0.82889900  1
  Sm  Sm2  1  0.34069900  0.34137800  0.17098600  1
  Sm  Sm3  1  0.34124900  0.34211300  0.67049200  1
  Fe  Fe4  1  0.29135200  0.70844600  0.00054900  1
  Fe  Fe5  1  0.29463900  0.70577800  0.50019200  1
  Fe  Fe6  1  0.70937000  0.99968200  0.14533100  1
  Fe  Fe7  1  0.70859800  0.99985600  0.64507800  1
  Fe  Fe8  1  0.99923800  0.29306000  0.35362600  1
  Fe  Fe9  1  0.99987800  0.29472300  0.85305400  1
  Fe  Fe10  1  0.28970200  0.00041500  0.35461000  1
  Fe  Fe11  1  0.29160500  0.00116400  0.85406000  1
  Fe  Fe12  1  0.00017000  0.70645900  0.14737700  1
  Fe  Fe13  1  0.00013700  0.70586400  0.64708900  1
  Fe  Fe14  1  0.70723900  0.29332300  0.49959800  1
  Fe  Fe15  1  0.70892400  0.29049500  0.99960200  1
  Fe  Fe16  1  0.99838100  0.00021400  0.25033600  1
  Fe  Fe17  1  0.99916200  0.00091500  0.75008500  1
  Fe  Fe18  1  0.99945000  0.49989200  0.00041000  1
  Fe  Fe19  1  0.00028600  0.49956500  0.50018600  1
  Fe  Fe20  1  0.50054900  0.00019400  0.49927000  1
  Fe  Fe21  1  0.50086900  0.99974300  0.99963600  1
  Fe  Fe22  1  0.90415100  0.90324700  0.45208500  1
  Fe  Fe23  1  0.90419800  0.90360600  0.95186300  1
  Fe  Fe24  1  0.09682100  0.09605600  0.04806100  1
  Fe  Fe25  1  0.09660100  0.09556300  0.54827400  1
  Fe  Fe26  1  0.34194600  0.34308700  0.92251300  1
  Fe  Fe27  1  0.34245300  0.84553500  0.17140300  1
  Fe  Fe28  1  0.34178500  0.84557800  0.67128700  1
  Fe  Fe29  1  0.15852700  0.65744600  0.32929600  1
  Fe  Fe30  1  0.15648900  0.65844400  0.82922900  1
  Fe  Fe31  1  0.65758600  0.65624900  0.07914900  1
  Fe  Fe32  1  0.65861100  0.65737500  0.57904600  1
  Fe  Fe33  1  0.65644600  0.16022900  0.32833000  1
  Fe  Fe34  1  0.65752700  0.15833900  0.82790300  1
  Co  Co35  1  0.84404100  0.34077300  0.17005500  1
  Co  Co36  1  0.84430600  0.34012200  0.66965300  1
  Co  Co37  1  0.33920300  0.34064000  0.42214100  1
