# generated using pymatgen
data_Sc2Fe3Si
_symmetry_space_group_name_H-M   'P 1'
_cell_length_a   4.91962326
_cell_length_b   4.92073296
_cell_length_c   8.07808600
_cell_angle_alpha   90.00000000
_cell_angle_beta   90.00000000
_cell_angle_gamma   60.67777340
_symmetry_Int_Tables_number   1
_chemical_formula_structural   Sc2Fe3Si
_chemical_formula_sum   'Sc4 Fe6 Si2'
_cell_volume   170.50083625
_cell_formula_units_Z   2
loop_
 _symmetry_equiv_pos_site_id
 _symmetry_equiv_pos_as_xyz
  1  'x, y, z'
loop_
 _atom_site_type_symbol
 _atom_site_label
 _atom_site_symmetry_multiplicity
 _atom_site_fract_x
 _atom_site_fract_y
 _atom_site_fract_z
 _atom_site_occupancy
  Sc  Sc0  1  0.33064900  0.33056100  0.55744500  1
  Sc  Sc1  1  0.66825900  0.66829800  0.43452700  1
  Sc  Sc2  1  0.66825900  0.66829800  0.06547300  1
  Sc  Sc3  1  0.33064900  0.33056100  0.94255500  1
  Fe  Fe4  1  0.83186100  0.83183200  0.75000000  1
  Fe  Fe5  1  0.17053100  0.66430400  0.25000000  1
  Fe  Fe6  1  0.66428100  0.17054500  0.25000000  1
  Fe  Fe7  1  0.17072200  0.17074500  0.25000000  1
  Fe  Fe8  1  0.99969100  0.99972400  0.49922200  1
  Fe  Fe9  1  0.99969100  0.99972400  0.00077800  1
  Si  Si10  1  0.83068600  0.33472600  0.75000000  1
  Si  Si11  1  0.33472200  0.83068300  0.75000000  1
