# generated using pymatgen
data_SbAsPd
_symmetry_space_group_name_H-M   'P 1'
_cell_length_a   6.32230700
_cell_length_b   6.32230700
_cell_length_c   6.32230700
_cell_angle_alpha   90.00000000
_cell_angle_beta   90.00000000
_cell_angle_gamma   90.00000000
_symmetry_Int_Tables_number   1
_chemical_formula_structural   SbAsPd
_chemical_formula_sum   'Sb4 As4 Pd4'
_cell_volume   252.71251027
_cell_formula_units_Z   4
loop_
 _symmetry_equiv_pos_site_id
 _symmetry_equiv_pos_as_xyz
  1  'x, y, z'
loop_
 _atom_site_type_symbol
 _atom_site_label
 _atom_site_symmetry_multiplicity
 _atom_site_fract_x
 _atom_site_fract_y
 _atom_site_fract_z
 _atom_site_occupancy
  Sb  Sb0  1  0.88086300  0.11913700  0.61913700  1
  Sb  Sb1  1  0.11913700  0.61913700  0.88086300  1
  Sb  Sb2  1  0.61913700  0.88086300  0.11913700  1
  Sb  Sb3  1  0.38086300  0.38086300  0.38086300  1
  As  As4  1  0.12362100  0.87637900  0.37637900  1
  As  As5  1  0.87637900  0.37637900  0.12362100  1
  As  As6  1  0.37637900  0.12362100  0.87637900  1
  As  As7  1  0.62362100  0.62362100  0.62362100  1
  Pd  Pd8  1  0.50922000  0.49078000  0.99078000  1
  Pd  Pd9  1  0.49078000  0.99078000  0.50922000  1
  Pd  Pd10  1  0.99078000  0.50922000  0.49078000  1
  Pd  Pd11  1  0.00922000  0.00922000  0.00922000  1
