# generated using pymatgen
data_ScTl2Mo15S19
_symmetry_space_group_name_H-M   'P 1'
_cell_length_a   18.92143500
_cell_length_b   9.48219600
_cell_length_c   9.54396348
_cell_angle_alpha   60.73301218
_cell_angle_beta   90.00000000
_cell_angle_gamma   90.00000000
_symmetry_Int_Tables_number   1
_chemical_formula_structural   ScTl2Mo15S19
_chemical_formula_sum   'Sc2 Tl4 Mo30 S38'
_cell_volume   1493.76774694
_cell_formula_units_Z   2
loop_
 _symmetry_equiv_pos_site_id
 _symmetry_equiv_pos_as_xyz
  1  'x, y, z'
loop_
 _atom_site_type_symbol
 _atom_site_label
 _atom_site_symmetry_multiplicity
 _atom_site_fract_x
 _atom_site_fract_y
 _atom_site_fract_z
 _atom_site_occupancy
  Sc  Sc0  1  0.25000000  0.83684300  0.18712500  1
  Sc  Sc1  1  0.75000000  0.16315700  0.81287500  1
  Tl  Tl2  1  0.37247600  0.66579100  0.66925500  1
  Tl  Tl3  1  0.87247600  0.33420900  0.33074500  1
  Tl  Tl4  1  0.62752400  0.33420900  0.33074500  1
  Tl  Tl5  1  0.12752400  0.66579100  0.66925500  1
  Mo  Mo6  1  0.44169100  0.15559000  0.01555200  1
  Mo  Mo7  1  0.43985200  0.82621300  0.15861200  1
  Mo  Mo8  1  0.44088100  0.01325300  0.82910300  1
  Mo  Mo9  1  0.94169100  0.84441000  0.98444800  1
  Mo  Mo10  1  0.93985200  0.17378700  0.84138800  1
  Mo  Mo11  1  0.94088100  0.98674700  0.17089700  1
  Mo  Mo12  1  0.55830900  0.84441000  0.98444800  1
  Mo  Mo13  1  0.56014800  0.17378700  0.84138800  1
  Mo  Mo14  1  0.55911900  0.98674700  0.17089700  1
  Mo  Mo15  1  0.05830900  0.15559000  0.01555200  1
  Mo  Mo16  1  0.06014800  0.82621300  0.15861200  1
  Mo  Mo17  1  0.05911900  0.01325300  0.82910300  1
  Mo  Mo18  1  0.36971300  0.18014100  0.31725800  1
  Mo  Mo19  1  0.36994600  0.50115100  0.18134100  1
  Mo  Mo20  1  0.36874600  0.31717400  0.50252600  1
  Mo  Mo21  1  0.86971300  0.81985900  0.68274200  1
  Mo  Mo22  1  0.86994600  0.49884900  0.81865900  1
  Mo  Mo23  1  0.86874600  0.68282600  0.49747400  1
  Mo  Mo24  1  0.63028700  0.81985900  0.68274200  1
  Mo  Mo25  1  0.63005400  0.49884900  0.81865900  1
  Mo  Mo26  1  0.63125400  0.68282600  0.49747400  1
  Mo  Mo27  1  0.13028700  0.18014100  0.31725800  1
  Mo  Mo28  1  0.13005400  0.50115100  0.18134100  1
  Mo  Mo29  1  0.13125400  0.31717400  0.50252600  1
  Mo  Mo30  1  0.25000000  0.34452900  0.16167400  1
  Mo  Mo31  1  0.25000000  0.48462800  0.34973300  1
  Mo  Mo32  1  0.25000000  0.15902000  0.49242400  1
  Mo  Mo33  1  0.75000000  0.65547100  0.83832600  1
  Mo  Mo34  1  0.75000000  0.51537200  0.65026700  1
  Mo  Mo35  1  0.75000000  0.84098000  0.50757600  1
  S  S36  1  0.44866300  0.96961900  0.31114000  1
  S  S37  1  0.44783900  0.71727700  0.97084300  1
  S  S38  1  0.44941100  0.31079700  0.71892800  1
  S  S39  1  0.94866300  0.03038100  0.68886000  1
  S  S40  1  0.94783900  0.28272300  0.02915700  1
  S  S41  1  0.94941100  0.68920300  0.28107200  1
  S  S42  1  0.55133700  0.03038100  0.68886000  1
  S  S43  1  0.55216100  0.28272300  0.02915700  1
  S  S44  1  0.55058900  0.68920300  0.28107200  1
  S  S45  1  0.05133700  0.96961900  0.31114000  1
  S  S46  1  0.05216100  0.71727700  0.97084300  1
  S  S47  1  0.05058900  0.31079700  0.71892800  1
  S  S48  1  0.36028400  0.02079400  0.61334900  1
  S  S49  1  0.35996100  0.36444100  0.02028600  1
  S  S50  1  0.35914300  0.61830100  0.36652100  1
  S  S51  1  0.86028400  0.97920600  0.38665100  1
  S  S52  1  0.85996100  0.63555900  0.97971400  1
  S  S53  1  0.85914300  0.38169900  0.63347900  1
  S  S54  1  0.63971600  0.97920600  0.38665100  1
  S  S55  1  0.64003900  0.63555900  0.97971400  1
  S  S56  1  0.64085700  0.38169900  0.63347900  1
  S  S57  1  0.13971600  0.02079400  0.61334900  1
  S  S58  1  0.14003900  0.36444100  0.02028600  1
  S  S59  1  0.14085700  0.61830100  0.36652100  1
  S  S60  1  0.34238300  0.00366500  0.99627500  1
  S  S61  1  0.84238300  0.99633500  0.00372500  1
  S  S62  1  0.65761700  0.99633500  0.00372500  1
  S  S63  1  0.15761700  0.00366500  0.99627500  1
  S  S64  1  0.53266300  0.66637200  0.66624900  1
  S  S65  1  0.03266300  0.33362800  0.33375100  1
  S  S66  1  0.46733700  0.33362800  0.33375100  1
  S  S67  1  0.96733700  0.66637200  0.66624900  1
  S  S68  1  0.25000000  0.04458700  0.30443000  1
  S  S69  1  0.25000000  0.64659600  0.05073600  1
  S  S70  1  0.25000000  0.30641000  0.64330900  1
  S  S71  1  0.75000000  0.95541300  0.69557000  1
  S  S72  1  0.75000000  0.35340400  0.94926400  1
  S  S73  1  0.75000000  0.69359000  0.35669100  1
