# generated using pymatgen
data_SbWO7
_symmetry_space_group_name_H-M   'P 1'
_cell_length_a   7.37347049
_cell_length_b   7.37347049
_cell_length_c   7.37347049
_cell_angle_alpha   121.08400550
_cell_angle_beta   119.53832651
_cell_angle_gamma   89.46714572
_symmetry_Int_Tables_number   1
_chemical_formula_structural   SbWO7
_chemical_formula_sum   'Sb2 W2 O14'
_cell_volume   282.05456299
_cell_formula_units_Z   2
loop_
 _symmetry_equiv_pos_site_id
 _symmetry_equiv_pos_as_xyz
  1  'x, y, z'
loop_
 _atom_site_type_symbol
 _atom_site_label
 _atom_site_symmetry_multiplicity
 _atom_site_fract_x
 _atom_site_fract_y
 _atom_site_fract_z
 _atom_site_occupancy
  Sb  Sb0  1  0.50000000  0.00000000  0.00000000  1
  Sb  Sb1  1  0.50000000  0.50000000  0.50000000  1
  W  W2  1  0.50000000  0.00000000  0.50000000  1
  W  W3  1  0.00000000  0.00000000  0.00000000  1
  O  O4  1  0.80660100  0.05660100  0.75000000  1
  O  O5  1  0.42546200  0.67546200  0.75000000  1
  O  O6  1  0.81904900  0.68843000  0.75410900  1
  O  O7  1  0.43432100  0.06494000  0.74589100  1
  O  O8  1  0.81904900  0.06494000  0.13061900  1
  O  O9  1  0.43432100  0.68843000  0.36938100  1
  O  O10  1  0.19339900  0.94339900  0.25000000  1
  O  O11  1  0.57453800  0.32453800  0.25000000  1
  O  O12  1  0.18095100  0.31157000  0.24589100  1
  O  O13  1  0.56567900  0.93506000  0.25410900  1
  O  O14  1  0.18095100  0.93506000  0.86938100  1
  O  O15  1  0.56567900  0.31157000  0.63061900  1
  O  O16  1  0.87399800  0.62399800  0.25000000  1
  O  O17  1  0.12600200  0.37600200  0.75000000  1
