# generated using pymatgen
data_SbPb4
_symmetry_space_group_name_H-M   'P 1'
_cell_length_a   14.27854403
_cell_length_b   14.27854403
_cell_length_c   14.27854344
_cell_angle_alpha   14.32124545
_cell_angle_beta   14.32124545
_cell_angle_gamma   14.32124598
_symmetry_Int_Tables_number   1
_chemical_formula_structural   SbPb4
_chemical_formula_sum   'Sb1 Pb4'
_cell_volume   155.05667953
_cell_formula_units_Z   1
loop_
 _symmetry_equiv_pos_site_id
 _symmetry_equiv_pos_as_xyz
  1  'x, y, z'
loop_
 _atom_site_type_symbol
 _atom_site_label
 _atom_site_symmetry_multiplicity
 _atom_site_fract_x
 _atom_site_fract_y
 _atom_site_fract_z
 _atom_site_occupancy
  Sb  Sb0  1  0.00000000  0.00000000  0.00000000  1
  Pb  Pb1  1  0.60367300  0.60367300  0.60367300  1
  Pb  Pb2  1  0.20018200  0.20018200  0.20018200  1
  Pb  Pb3  1  0.79981800  0.79981800  0.79981800  1
  Pb  Pb4  1  0.39632700  0.39632700  0.39632700  1
