# generated using pymatgen
data_Sb6O13
_symmetry_space_group_name_H-M   'P 1'
_cell_length_a   7.38433242
_cell_length_b   7.38433242
_cell_length_c   7.38433242
_cell_angle_alpha   120.60447532
_cell_angle_beta   120.45532099
_cell_angle_gamma   89.08466329
_symmetry_Int_Tables_number   1
_chemical_formula_structural   Sb6O13
_chemical_formula_sum   'Sb6 O13'
_cell_volume   282.40035879
_cell_formula_units_Z   1
loop_
 _symmetry_equiv_pos_site_id
 _symmetry_equiv_pos_as_xyz
  1  'x, y, z'
loop_
 _atom_site_type_symbol
 _atom_site_label
 _atom_site_symmetry_multiplicity
 _atom_site_fract_x
 _atom_site_fract_y
 _atom_site_fract_z
 _atom_site_occupancy
  Sb  Sb0  1  0.24785800  0.99922200  0.24863600  1
  Sb  Sb1  1  0.75058600  0.99922200  0.75136400  1
  Sb  Sb2  1  0.74778100  0.99730500  0.24952400  1
  Sb  Sb3  1  0.74778100  0.49825700  0.75047600  1
  Sb  Sb4  1  0.24876800  0.51207700  0.26330900  1
  Sb  Sb5  1  0.24876800  0.98545900  0.73669100  1
  O  O6  1  0.42820400  0.92820400  0.50000000  1
  O  O7  1  0.81522500  0.31522500  0.50000000  1
  O  O8  1  0.41662100  0.93227700  0.09180600  1
  O  O9  1  0.84047100  0.32481500  0.90819400  1
  O  O10  1  0.84047100  0.93227700  0.51565600  1
  O  O11  1  0.41662100  0.32481500  0.48434400  1
  O  O12  1  0.06792700  0.06792700  0.00000000  1
  O  O13  1  0.67924400  0.67924400  0.00000000  1
  O  O14  1  0.07881700  0.06003700  0.40536000  1
  O  O15  1  0.65467800  0.67345800  0.59464000  1
  O  O16  1  0.65467800  0.06003700  0.98122000  1
  O  O17  1  0.07881700  0.67345800  0.01878000  1
  O  O18  1  0.16168500  0.66168500  0.50000000  1
