# generated using pymatgen
data_Sb3TeClO6
_symmetry_space_group_name_H-M   'P 1'
_cell_length_a   8.16301413
_cell_length_b   8.16301413
_cell_length_c   9.65927808
_cell_angle_alpha   57.98104775
_cell_angle_beta   57.98104775
_cell_angle_gamma   29.42418375
_symmetry_Int_Tables_number   1
_chemical_formula_structural   Sb3TeClO6
_chemical_formula_sum   'Sb3 Te1 Cl1 O6'
_cell_volume   264.46210322
_cell_formula_units_Z   1
loop_
 _symmetry_equiv_pos_site_id
 _symmetry_equiv_pos_as_xyz
  1  'x, y, z'
loop_
 _atom_site_type_symbol
 _atom_site_label
 _atom_site_symmetry_multiplicity
 _atom_site_fract_x
 _atom_site_fract_y
 _atom_site_fract_z
 _atom_site_occupancy
  Sb  Sb0  1  0.15754200  0.15754200  0.51462000  1
  Sb  Sb1  1  0.15927200  0.15927200  0.14551800  1
  Sb  Sb2  1  0.84116200  0.84116200  0.85690300  1
  Te  Te3  1  0.83762400  0.83762400  0.49238300  1
  Cl  Cl4  1  0.49665800  0.49665800  0.49992500  1
  O  O5  1  0.70851500  0.70851500  0.50957000  1
  O  O6  1  0.30081800  0.30081800  0.48463200  1
  O  O7  1  0.29407800  0.29407800  0.92050700  1
  O  O8  1  0.70681300  0.70681300  0.07661000  1
  O  O9  1  0.77355700  0.77355700  0.72528700  1
  O  O10  1  0.22396200  0.22396200  0.27404600  1
