# generated using pymatgen
data_S3N2O3F
_symmetry_space_group_name_H-M   'P 1'
_cell_length_a   6.31885106
_cell_length_b   7.21880125
_cell_length_c   13.97325400
_cell_angle_alpha   90.00000000
_cell_angle_beta   90.00000000
_cell_angle_gamma   108.44253945
_symmetry_Int_Tables_number   1
_chemical_formula_structural   S3N2O3F
_chemical_formula_sum   'S12 N8 O12 F4'
_cell_volume   604.64828982
_cell_formula_units_Z   4
loop_
 _symmetry_equiv_pos_site_id
 _symmetry_equiv_pos_as_xyz
  1  'x, y, z'
loop_
 _atom_site_type_symbol
 _atom_site_label
 _atom_site_symmetry_multiplicity
 _atom_site_fract_x
 _atom_site_fract_y
 _atom_site_fract_z
 _atom_site_occupancy
  S  S0  1  0.78546000  0.55784500  0.39173800  1
  S  S1  1  0.21454000  0.94215500  0.89173800  1
  S  S2  1  0.21454000  0.44215500  0.60826200  1
  S  S3  1  0.78546000  0.05784500  0.10826200  1
  S  S4  1  0.01031300  0.24939100  0.42199100  1
  S  S5  1  0.98968700  0.25060900  0.92199100  1
  S  S6  1  0.98968700  0.75060900  0.57800900  1
  S  S7  1  0.01031300  0.74939100  0.07800900  1
  S  S8  1  0.39493900  0.34664600  0.15492200  1
  S  S9  1  0.60506100  0.15335400  0.65492200  1
  S  S10  1  0.60506100  0.65335400  0.84507800  1
  S  S11  1  0.39493900  0.84664600  0.34507800  1
  N  N12  1  0.14008000  0.30620300  0.51859400  1
  N  N13  1  0.85992000  0.19379700  0.01859400  1
  N  N14  1  0.85992000  0.69379700  0.48140600  1
  N  N15  1  0.14008000  0.80620300  0.98140600  1
  N  N16  1  0.87049300  0.37740700  0.38435500  1
  N  N17  1  0.12950700  0.12259300  0.88435500  1
  N  N18  1  0.12950700  0.62259300  0.61564500  1
  N  N19  1  0.87049300  0.87740700  0.11564500  1
  O  O20  1  0.62782500  0.41626600  0.18315700  1
  O  O21  1  0.37217500  0.08373400  0.68315700  1
  O  O22  1  0.37217500  0.58373400  0.81684300  1
  O  O23  1  0.62782500  0.91626600  0.31684300  1
  O  O24  1  0.33911000  0.18851500  0.08469700  1
  O  O25  1  0.66089000  0.31148500  0.58469700  1
  O  O26  1  0.66089000  0.81148500  0.91530300  1
  O  O27  1  0.33911000  0.68851500  0.41530300  1
  O  O28  1  0.23085100  0.32850700  0.22972600  1
  O  O29  1  0.76914900  0.17149300  0.72972600  1
  O  O30  1  0.76914900  0.67149300  0.77027400  1
  O  O31  1  0.23085100  0.82850700  0.27027400  1
  F  F32  1  0.36910300  0.53141300  0.09093800  1
  F  F33  1  0.63089700  0.96858700  0.59093800  1
  F  F34  1  0.63089700  0.46858700  0.90906200  1
  F  F35  1  0.36910300  0.03141300  0.40906200  1
