# generated using pymatgen
data_ReSeS
_symmetry_space_group_name_H-M   'P 1'
_cell_length_a   6.51387244
_cell_length_b   7.06851004
_cell_length_c   6.72713518
_cell_angle_alpha   92.73000900
_cell_angle_beta   119.94942342
_cell_angle_gamma   103.32068285
_symmetry_Int_Tables_number   1
_chemical_formula_structural   ReSeS
_chemical_formula_sum   'Re4 Se4 S4'
_cell_volume   256.25322058
_cell_formula_units_Z   4
loop_
 _symmetry_equiv_pos_site_id
 _symmetry_equiv_pos_as_xyz
  1  'x, y, z'
loop_
 _atom_site_type_symbol
 _atom_site_label
 _atom_site_symmetry_multiplicity
 _atom_site_fract_x
 _atom_site_fract_y
 _atom_site_fract_z
 _atom_site_occupancy
  Re  Re0  1  0.75295200  0.49075500  0.31537700  1
  Re  Re1  1  0.24704800  0.50924500  0.68462300  1
  Re  Re2  1  0.29538600  0.49819100  0.28593600  1
  Re  Re3  1  0.70461400  0.50180900  0.71406400  1
  Se  Se4  1  0.48349900  0.21860200  0.37696900  1
  Se  Se5  1  0.51650100  0.78139800  0.62303100  1
  Se  Se6  1  0.50046500  0.71970100  0.11389000  1
  Se  Se7  1  0.49953500  0.28029900  0.88611000  1
  S  S8  1  0.97360400  0.66891700  0.13445600  1
  S  S9  1  0.02639600  0.33108300  0.86554400  1
  S  S10  1  0.99517500  0.26821400  0.34366800  1
  S  S11  1  0.00482500  0.73178600  0.65633200  1
