# generated using pymatgen
data_Li10Zn(PS4)4
_symmetry_space_group_name_H-M   'P 1'
_cell_length_a   10.23602772
_cell_length_b   10.24590798
_cell_length_c   13.99467013
_cell_angle_alpha   107.26757541
_cell_angle_beta   106.97481212
_cell_angle_gamma   101.16577050
_symmetry_Int_Tables_number   1
_chemical_formula_structural   Li10Zn(PS4)4
_chemical_formula_sum   'Li20 Zn2 P8 S32'
_cell_volume   1275.81531082
_cell_formula_units_Z   2
loop_
 _symmetry_equiv_pos_site_id
 _symmetry_equiv_pos_as_xyz
  1  'x, y, z'
loop_
 _atom_site_type_symbol
 _atom_site_label
 _atom_site_symmetry_multiplicity
 _atom_site_fract_x
 _atom_site_fract_y
 _atom_site_fract_z
 _atom_site_occupancy
  Li  Li0  1  0.71647300  0.47193100  0.49396400  1
  Li  Li1  1  0.21687400  0.97206200  0.50156000  1
  Li  Li2  1  0.95400500  0.72173600  0.99764900  1
  Li  Li3  1  0.46991600  0.23262300  0.00229900  1
  Li  Li4  1  0.41782400  0.16047000  0.25058900  1
  Li  Li5  1  0.89872000  0.64709500  0.25055800  1
  Li  Li6  1  0.16164900  0.91148300  0.74866400  1
  Li  Li7  1  0.97654600  0.21222000  0.50039300  1
  Li  Li8  1  0.47581700  0.71394600  0.49532000  1
  Li  Li9  1  0.71986200  0.96702600  0.00235400  1
  Li  Li10  1  0.65153200  0.90121600  0.24933900  1
  Li  Li11  1  0.16230400  0.41305700  0.25388100  1
  Li  Li12  1  0.90898000  0.16032800  0.74876400  1
  Li  Li13  1  0.39785600  0.65403100  0.74249700  1
  Li  Li14  1  0.04765200  0.04644600  0.24338100  1
  Li  Li15  1  0.79665000  0.80285100  0.74258300  1
  Li  Li16  1  0.57138600  0.06378500  0.48937800  1
  Li  Li17  1  0.06791900  0.57114400  0.49216200  1
  Li  Li18  1  0.82508500  0.32435700  0.00156800  1
  Li  Li19  1  0.32181300  0.82606400  0.99370300  1
  Zn  Zn20  1  0.64717300  0.39870600  0.74612500  1
  Zn  Zn21  1  0.22682500  0.47008400  0.00145700  1
  P  P22  1  0.83982000  0.83856100  0.50023300  1
  P  P23  1  0.34539500  0.33710100  0.49980900  1
  P  P24  1  0.09809400  0.09447900  0.00241200  1
  P  P25  1  0.57822800  0.59127900  0.99798100  1
  P  P26  1  0.78693300  0.27792500  0.24975800  1
  P  P27  1  0.27635000  0.78362000  0.24324000  1
  P  P28  1  0.02896700  0.52765100  0.74920400  1
  P  P29  1  0.53239500  0.03499500  0.75101900  1
  S  S30  1  0.50021900  0.27690400  0.44758400  1
  S  S31  1  0.99595900  0.77990700  0.44662100  1
  S  S32  1  0.73031500  0.51899000  0.93786300  1
  S  S33  1  0.24804100  0.03323200  0.94535500  1
  S  S34  1  0.58576200  0.28973700  0.19515400  1
  S  S35  1  0.06821400  0.78946600  0.19131000  1
  S  S36  1  0.81855200  0.54180100  0.69849800  1
  S  S37  1  0.33272800  0.04723800  0.69685700  1
  S  S38  1  0.78064100  0.99373200  0.44632900  1
  S  S39  1  0.28478400  0.49409900  0.45041700  1
  S  S40  1  0.03430800  0.25076300  0.94680700  1
  S  S41  1  0.52290500  0.74359300  0.94000900  1
  S  S42  1  0.79816900  0.07056600  0.19684200  1
  S  S43  1  0.29239100  0.57785600  0.19029000  1
  S  S44  1  0.04212400  0.32899300  0.69683100  1
  S  S45  1  0.54751400  0.83085700  0.69381300  1
  S  S46  1  0.66633800  0.66681500  0.15929400  1
  S  S47  1  0.18353100  0.18102700  0.16727100  1
  S  S48  1  0.93135000  0.93128200  0.66745900  1
  S  S49  1  0.42122200  0.41789300  0.66754400  1
  S  S50  1  0.86488000  0.35589300  0.41677700  1
  S  S51  1  0.35411800  0.85331500  0.40916400  1
  S  S52  1  0.10695200  0.61108400  0.91975900  1
  S  S53  1  0.61367200  0.11426100  0.91734800  1
  S  S54  1  0.16778700  0.16137000  0.44172300  1
  S  S55  1  0.66656600  0.66370700  0.44176500  1
  S  S56  1  0.39902500  0.41105400  0.93158600  1
  S  S57  1  0.91606300  0.92259900  0.94381300  1
  S  S58  1  0.40209200  0.90802900  0.19248900  1
  S  S59  1  0.91441300  0.40389900  0.19900200  1
  S  S60  1  0.66105300  0.16075500  0.69601400  1
  S  S61  1  0.14587500  0.65762200  0.69706200  1
