# generated using pymatgen
data_Rb5Bi4
_symmetry_space_group_name_H-M   'P 1'
_cell_length_a   7.29745008
_cell_length_b   7.29745008
_cell_length_c   12.10316998
_cell_angle_alpha   70.21749089
_cell_angle_beta   70.21749089
_cell_angle_gamma   47.71984471
_symmetry_Int_Tables_number   1
_chemical_formula_structural   Rb5Bi4
_chemical_formula_sum   'Rb5 Bi4'
_cell_volume   443.00567972
_cell_formula_units_Z   1
loop_
 _symmetry_equiv_pos_site_id
 _symmetry_equiv_pos_as_xyz
  1  'x, y, z'
loop_
 _atom_site_type_symbol
 _atom_site_label
 _atom_site_symmetry_multiplicity
 _atom_site_fract_x
 _atom_site_fract_y
 _atom_site_fract_z
 _atom_site_occupancy
  Rb  Rb0  1  0.40186600  0.40186600  0.88897800  1
  Rb  Rb1  1  0.59818100  0.59818100  0.10619900  1
  Rb  Rb2  1  0.75055900  0.75055900  0.66712300  1
  Rb  Rb3  1  0.26103000  0.26103000  0.33096300  1
  Rb  Rb4  1  0.52741700  0.52741700  0.48427300  1
  Bi  Bi5  1  0.04462900  0.04462900  0.67545900  1
  Bi  Bi6  1  0.95406900  0.95406900  0.32564600  1
  Bi  Bi7  1  0.10576200  0.10576200  0.89116200  1
  Bi  Bi8  1  0.89388700  0.89388700  0.10809800  1
