# generated using pymatgen
data_RbPrTiNbO6F
_symmetry_space_group_name_H-M   'P 1'
_cell_length_a   3.86314300
_cell_length_b   3.90104600
_cell_length_c   11.28247500
_cell_angle_alpha   90.00000000
_cell_angle_beta   90.00000000
_cell_angle_gamma   90.00000000
_symmetry_Int_Tables_number   1
_chemical_formula_structural   RbPrTiNbO6F
_chemical_formula_sum   'Rb1 Pr1 Ti1 Nb1 O6 F1'
_cell_volume   170.03026661
_cell_formula_units_Z   1
loop_
 _symmetry_equiv_pos_site_id
 _symmetry_equiv_pos_as_xyz
  1  'x, y, z'
loop_
 _atom_site_type_symbol
 _atom_site_label
 _atom_site_symmetry_multiplicity
 _atom_site_fract_x
 _atom_site_fract_y
 _atom_site_fract_z
 _atom_site_occupancy
  Rb  Rb0  1  0.50000000  0.50000000  0.50454900  1
  Pr  Pr1  1  0.50000000  0.50000000  0.99966900  1
  Ti  Ti2  1  0.00000000  0.00000000  0.79492800  1
  Nb  Nb3  1  0.00000000  0.00000000  0.20430300  1
  O  O4  1  0.00000000  0.00000000  0.64403500  1
  O  O5  1  0.00000000  0.00000000  0.36438900  1
  O  O6  1  0.50000000  0.00000000  0.83525700  1
  O  O7  1  0.50000000  0.00000000  0.16338200  1
  O  O8  1  0.00000000  0.50000000  0.16067400  1
  O  O9  1  0.00000000  0.00000000  0.99681700  1
  F  F10  1  0.00000000  0.50000000  0.83199600  1
