# generated using pymatgen
data_SbPNO5F
_symmetry_space_group_name_H-M   'P 1'
_cell_length_a   6.52355555
_cell_length_b   6.54009650
_cell_length_c   9.20543020
_cell_angle_alpha   69.00400516
_cell_angle_beta   69.05866105
_cell_angle_gamma   89.50321261
_symmetry_Int_Tables_number   1
_chemical_formula_structural   SbPNO5F
_chemical_formula_sum   'Sb2 P2 N2 O10 F2'
_cell_volume   339.22531974
_cell_formula_units_Z   2
loop_
 _symmetry_equiv_pos_site_id
 _symmetry_equiv_pos_as_xyz
  1  'x, y, z'
loop_
 _atom_site_type_symbol
 _atom_site_label
 _atom_site_symmetry_multiplicity
 _atom_site_fract_x
 _atom_site_fract_y
 _atom_site_fract_z
 _atom_site_occupancy
  Sb  Sb0  1  0.79710000  0.79710000  0.40580100  1
  Sb  Sb1  1  0.20290000  0.20290000  0.59419900  1
  P  P2  1  0.75056400  0.25056400  0.49887100  1
  P  P3  1  0.24943600  0.74943600  0.50112900  1
  N  N4  1  0.28402700  0.53354900  0.00000000  1
  N  N5  1  0.71597300  0.46645100  0.00000000  1
  O  O6  1  0.87480700  0.48766800  0.38206300  1
  O  O7  1  0.74313000  0.13026900  0.38206300  1
  O  O8  1  0.48741200  0.74055600  0.38471400  1
  O  O9  1  0.12787500  0.87473000  0.38471400  1
  O  O10  1  0.12519300  0.51233200  0.61793700  1
  O  O11  1  0.25687000  0.86973100  0.61793700  1
  O  O12  1  0.51258800  0.25944400  0.61528600  1
  O  O13  1  0.87212500  0.12527000  0.61528600  1
  O  O14  1  0.65687000  0.63134600  0.00000000  1
  O  O15  1  0.34313000  0.36865400  0.00000000  1
  F  F16  1  0.91666400  0.91666400  0.16667100  1
  F  F17  1  0.08333600  0.08333600  0.83332900  1
