# generated using pymatgen
data_Rb3P4H9O16
_symmetry_space_group_name_H-M   'P 1'
_cell_length_a   6.59224586
_cell_length_b   6.59224586
_cell_length_c   20.16529601
_cell_angle_alpha   86.27222583
_cell_angle_beta   86.27222583
_cell_angle_gamma   71.31512680
_symmetry_Int_Tables_number   1
_chemical_formula_structural   Rb3P4H9O16
_chemical_formula_sum   'Rb6 P8 H18 O32'
_cell_volume   827.48807372
_cell_formula_units_Z   2
loop_
 _symmetry_equiv_pos_site_id
 _symmetry_equiv_pos_as_xyz
  1  'x, y, z'
loop_
 _atom_site_type_symbol
 _atom_site_label
 _atom_site_symmetry_multiplicity
 _atom_site_fract_x
 _atom_site_fract_y
 _atom_site_fract_z
 _atom_site_occupancy
  Rb  Rb0  1  0.90233800  0.46552300  0.78383300  1
  Rb  Rb1  1  0.53509000  0.09781100  0.71711000  1
  Rb  Rb2  1  0.09781100  0.53509000  0.21711000  1
  Rb  Rb3  1  0.46552300  0.90233800  0.28383300  1
  Rb  Rb4  1  0.00380000  0.46088200  0.00681100  1
  Rb  Rb5  1  0.46088200  0.00380000  0.50681100  1
  P  P6  1  0.27016200  0.84088300  0.84823800  1
  P  P7  1  0.15917800  0.72893000  0.65194200  1
  P  P8  1  0.72893000  0.15917800  0.15194300  1
  P  P9  1  0.84088300  0.27016200  0.34823800  1
  P  P10  1  0.62209200  0.21727100  0.90971800  1
  P  P11  1  0.78272000  0.37756300  0.59020300  1
  P  P12  1  0.37756300  0.78272000  0.09020300  1
  P  P13  1  0.21727100  0.62209200  0.40971800  1
  H  H14  1  0.91737900  0.92709600  0.84576900  1
  H  H15  1  0.07194900  0.08273100  0.65442400  1
  H  H16  1  0.08273100  0.07194900  0.15442400  1
  H  H17  1  0.92709600  0.91737900  0.34576900  1
  H  H18  1  0.52837000  0.58116400  0.91817800  1
  H  H19  1  0.41991800  0.47175600  0.58191600  1
  H  H20  1  0.47175600  0.41991800  0.08191600  1
  H  H21  1  0.58116400  0.52837000  0.41817800  1
  H  H22  1  0.35684800  0.64491600  0.75085800  1
  H  H23  1  0.64491600  0.35684800  0.25085800  1
  H  H24  1  0.31389000  0.18281900  0.87992500  1
  H  H25  1  0.81699200  0.68629900  0.61983800  1
  H  H26  1  0.68629900  0.81699200  0.11983800  1
  H  H27  1  0.18281900  0.31389000  0.37992500  1
  H  H28  1  0.68644600  0.11409400  0.01461400  1
  H  H29  1  0.88417600  0.31280700  0.48508200  1
  H  H30  1  0.31280700  0.88417600  0.98508200  1
  H  H31  1  0.11409400  0.68644600  0.51461400  1
  O  O32  1  0.72070500  0.11785300  0.84476800  1
  O  O33  1  0.88290800  0.27869400  0.65504100  1
  O  O34  1  0.27869400  0.88290800  0.15504100  1
  O  O35  1  0.11785300  0.72070500  0.34476800  1
  O  O36  1  0.22525200  0.08361900  0.83666600  1
  O  O37  1  0.91619700  0.77484200  0.66326400  1
  O  O38  1  0.77484200  0.91619700  0.16326400  1
  O  O39  1  0.08361900  0.22525200  0.33666600  1
  O  O40  1  0.37179100  0.27355800  0.91277600  1
  O  O41  1  0.72568400  0.62785900  0.58734500  1
  O  O42  1  0.62785900  0.72568400  0.08734500  1
  O  O43  1  0.27355800  0.37179100  0.41277600  1
  O  O44  1  0.05157200  0.79022300  0.84380800  1
  O  O45  1  0.20976600  0.94874700  0.65547800  1
  O  O46  1  0.94874700  0.20976600  0.15547800  1
  O  O47  1  0.79022300  0.05157200  0.34380800  1
  O  O48  1  0.42916300  0.70863900  0.79432500  1
  O  O49  1  0.29084600  0.57052500  0.70560300  1
  O  O50  1  0.57052500  0.29084600  0.20560300  1
  O  O51  1  0.70863900  0.42916300  0.29432500  1
  O  O52  1  0.66856700  0.43093800  0.92118600  1
  O  O53  1  0.56911000  0.33091800  0.57887500  1
  O  O54  1  0.33091800  0.56911000  0.07887500  1
  O  O55  1  0.43093800  0.66856700  0.42118600  1
  O  O56  1  0.72416200  0.05380000  0.96854600  1
  O  O57  1  0.94624700  0.27658800  0.53113300  1
  O  O58  1  0.27658800  0.94624700  0.03113300  1
  O  O59  1  0.05380000  0.72416200  0.46854600  1
  O  O60  1  0.36642300  0.76277600  0.91693300  1
  O  O61  1  0.23814200  0.63489300  0.58282400  1
  O  O62  1  0.63489300  0.23814200  0.08282500  1
  O  O63  1  0.76277600  0.36642300  0.41693300  1
