# generated using pymatgen
data_Rb2ZnI4
_symmetry_space_group_name_H-M   'P 1'
_cell_length_a   7.86265770
_cell_length_b   8.41218100
_cell_length_c   10.59912414
_cell_angle_alpha   90.00000000
_cell_angle_beta   109.72890919
_cell_angle_gamma   90.00000000
_symmetry_Int_Tables_number   1
_chemical_formula_structural   Rb2ZnI4
_chemical_formula_sum   'Rb4 Zn2 I8'
_cell_volume   659.89702727
_cell_formula_units_Z   2
loop_
 _symmetry_equiv_pos_site_id
 _symmetry_equiv_pos_as_xyz
  1  'x, y, z'
loop_
 _atom_site_type_symbol
 _atom_site_label
 _atom_site_symmetry_multiplicity
 _atom_site_fract_x
 _atom_site_fract_y
 _atom_site_fract_z
 _atom_site_occupancy
  Rb  Rb0  1  0.30500100  0.74972500  0.96344000  1
  Rb  Rb1  1  0.69499900  0.24972500  0.03656000  1
  Rb  Rb2  1  0.20299600  0.74951300  0.41428100  1
  Rb  Rb3  1  0.79700400  0.24951300  0.58571900  1
  Zn  Zn4  1  0.69704300  0.75121400  0.78416100  1
  Zn  Zn5  1  0.30295700  0.25121400  0.21583900  1
  I  I6  1  0.48384500  0.49965500  0.72293200  1
  I  I7  1  0.51615500  0.99965500  0.27706800  1
  I  I8  1  0.51984400  0.50201100  0.27831800  1
  I  I9  1  0.48015600  0.00201100  0.72168200  1
  I  I10  1  0.86635000  0.76224800  0.04731900  1
  I  I11  1  0.13365000  0.26224800  0.95268100  1
  I  I12  1  0.91987500  0.76023400  0.64607000  1
  I  I13  1  0.08012500  0.26023400  0.35393000  1
