# generated using pymatgen
data_Rb3H(SeO4)2
_symmetry_space_group_name_H-M   'P 1'
_cell_length_a   6.10417985
_cell_length_b   6.10417985
_cell_length_c   8.35938316
_cell_angle_alpha   71.84193614
_cell_angle_beta   71.84193614
_cell_angle_gamma   61.46409329
_symmetry_Int_Tables_number   1
_chemical_formula_structural   Rb3H(SeO4)2
_chemical_formula_sum   'Rb3 H1 Se2 O8'
_cell_volume   255.02221135
_cell_formula_units_Z   1
loop_
 _symmetry_equiv_pos_site_id
 _symmetry_equiv_pos_as_xyz
  1  'x, y, z'
loop_
 _atom_site_type_symbol
 _atom_site_label
 _atom_site_symmetry_multiplicity
 _atom_site_fract_x
 _atom_site_fract_y
 _atom_site_fract_z
 _atom_site_occupancy
  Rb  Rb0  1  0.00000000  0.00000000  0.00000000  1
  Rb  Rb1  1  0.79987000  0.79987000  0.60797600  1
  Rb  Rb2  1  0.20013000  0.20013000  0.39202400  1
  H  H3  1  0.50000000  0.50000000  0.00000000  1
  Se  Se4  1  0.57716900  0.57716900  0.23503300  1
  Se  Se5  1  0.42283100  0.42283100  0.76496700  1
  O  O6  1  0.27584200  0.27584200  0.73285700  1
  O  O7  1  0.29178700  0.73560700  0.69126400  1
  O  O8  1  0.73560700  0.29178700  0.69126400  1
  O  O9  1  0.72415800  0.72415800  0.26714300  1
  O  O10  1  0.70821300  0.26439300  0.30873600  1
  O  O11  1  0.26439300  0.70821300  0.30873600  1
  O  O12  1  0.61236400  0.61236400  0.01494200  1
  O  O13  1  0.38763600  0.38763600  0.98505800  1
