# generated using pymatgen
data_Rb2U2O7
_symmetry_space_group_name_H-M   'P 1'
_cell_length_a   4.05694100
_cell_length_b   7.02385500
_cell_length_c   7.50966968
_cell_angle_alpha   71.95346130
_cell_angle_beta   90.00000000
_cell_angle_gamma   90.00000000
_symmetry_Int_Tables_number   1
_chemical_formula_structural   Rb2U2O7
_chemical_formula_sum   'Rb2 U2 O7'
_cell_volume   203.46354786
_cell_formula_units_Z   1
loop_
 _symmetry_equiv_pos_site_id
 _symmetry_equiv_pos_as_xyz
  1  'x, y, z'
loop_
 _atom_site_type_symbol
 _atom_site_label
 _atom_site_symmetry_multiplicity
 _atom_site_fract_x
 _atom_site_fract_y
 _atom_site_fract_z
 _atom_site_occupancy
  Rb  Rb0  1  0.00000000  0.50082800  0.50367400  1
  Rb  Rb1  1  0.50000000  0.00040400  0.49949500  1
  U  U2  1  0.00000000  0.98096800  0.00136000  1
  U  U3  1  0.50000000  0.51199000  0.01101700  1
  O  O4  1  0.50000000  0.58366200  0.74451900  1
  O  O5  1  0.00000000  0.09011000  0.74051400  1
  O  O6  1  0.50000000  0.42154300  0.27812100  1
  O  O7  1  0.00000000  0.89935200  0.26234800  1
  O  O8  1  0.50000000  0.84798500  0.97860400  1
  O  O9  1  0.00000000  0.61290900  0.02353200  1
  O  O10  1  0.50000000  0.19525000  0.02181600  1
