# generated using pymatgen
data_Sm4V20(CuO4)15
_symmetry_space_group_name_H-M   'P 1'
_cell_length_a   12.28109886
_cell_length_b   12.28109886
_cell_length_c   12.28109912
_cell_angle_alpha   50.53238986
_cell_angle_beta   50.53238986
_cell_angle_gamma   50.53238675
_symmetry_Int_Tables_number   1
_chemical_formula_structural   Sm4V20(CuO4)15
_chemical_formula_sum   'Sm4 V20 Cu15 O60'
_cell_volume   1017.12843489
_cell_formula_units_Z   1
loop_
 _symmetry_equiv_pos_site_id
 _symmetry_equiv_pos_as_xyz
  1  'x, y, z'
loop_
 _atom_site_type_symbol
 _atom_site_label
 _atom_site_symmetry_multiplicity
 _atom_site_fract_x
 _atom_site_fract_y
 _atom_site_fract_z
 _atom_site_occupancy
  Sm  Sm0  1  0.80094600  0.80094600  0.80094600  1
  Sm  Sm1  1  0.60075400  0.60075400  0.60075400  1
  Sm  Sm2  1  0.39924600  0.39924600  0.39924600  1
  Sm  Sm3  1  0.19905400  0.19905400  0.19905400  1
  V  V4  1  0.90235000  0.90235000  0.90235000  1
  V  V5  1  0.09765000  0.09765000  0.09765000  1
  V  V6  1  0.30006000  0.30006000  0.30006000  1
  V  V7  1  0.69994000  0.69994000  0.69994000  1
  V  V8  1  0.50000000  0.50000000  0.50000000  1
  V  V9  1  0.19089900  0.71261500  0.19425000  1
  V  V10  1  0.40081400  0.89775500  0.40251200  1
  V  V11  1  0.59918600  0.10224500  0.59748800  1
  V  V12  1  0.00000000  0.50000000  0.00000000  1
  V  V13  1  0.80910100  0.28738500  0.80575000  1
  V  V14  1  0.19425000  0.19089900  0.71261500  1
  V  V15  1  0.40251200  0.40081400  0.89775500  1
  V  V16  1  0.59748800  0.59918600  0.10224500  1
  V  V17  1  0.00000000  0.00000000  0.50000000  1
  V  V18  1  0.80575000  0.80910100  0.28738500  1
  V  V19  1  0.28738500  0.80575000  0.80910100  1
  V  V20  1  0.50000000  0.00000000  0.00000000  1
  V  V21  1  0.71261500  0.19425000  0.19089900  1
  V  V22  1  0.10224500  0.59748800  0.59918600  1
  V  V23  1  0.89775500  0.40251200  0.40081400  1
  Cu  Cu24  1  0.50000000  0.00000000  0.50000000  1
  Cu  Cu25  1  0.69973600  0.20060300  0.70040500  1
  Cu  Cu26  1  0.89819500  0.40200100  0.90030100  1
  Cu  Cu27  1  0.30026400  0.79939700  0.29959500  1
  Cu  Cu28  1  0.10180500  0.59799900  0.09969900  1
  Cu  Cu29  1  0.09969900  0.10180500  0.59799900  1
  Cu  Cu30  1  0.29959500  0.30026400  0.79939700  1
  Cu  Cu31  1  0.50000000  0.50000000  0.00000000  1
  Cu  Cu32  1  0.90030100  0.89819500  0.40200100  1
  Cu  Cu33  1  0.70040500  0.69973600  0.20060300  1
  Cu  Cu34  1  0.40200100  0.90030100  0.89819500  1
  Cu  Cu35  1  0.59799900  0.09969900  0.10180500  1
  Cu  Cu36  1  0.79939700  0.29959500  0.30026400  1
  Cu  Cu37  1  0.20060300  0.70040500  0.69973600  1
  Cu  Cu38  1  0.00000000  0.50000000  0.50000000  1
  O  O39  1  0.19616200  0.38007300  0.67113900  1
  O  O40  1  0.99947200  0.17922800  0.46989400  1
  O  O41  1  0.79078300  0.97618900  0.28564200  1
  O  O42  1  0.59921500  0.77476100  0.07539200  1
  O  O43  1  0.39956800  0.57541800  0.87647500  1
  O  O44  1  0.00052800  0.82077200  0.53010600  1
  O  O45  1  0.80383800  0.61992700  0.32886100  1
  O  O46  1  0.60043200  0.42458200  0.12352500  1
  O  O47  1  0.40078500  0.22523900  0.92460800  1
  O  O48  1  0.20921700  0.02381100  0.71435800  1
  O  O49  1  0.08460800  0.89604300  0.21251400  1
  O  O50  1  0.88395400  0.70071700  0.00461800  1
  O  O51  1  0.68234600  0.50776100  0.80278400  1
  O  O52  1  0.48088600  0.30333000  0.60422300  1
  O  O53  1  0.28246900  0.10933500  0.40061300  1
  O  O54  1  0.11604600  0.29928300  0.99538200  1
  O  O55  1  0.91539200  0.10395700  0.78748600  1
  O  O56  1  0.71753100  0.89066500  0.59938700  1
  O  O57  1  0.51911400  0.69667000  0.39577700  1
  O  O58  1  0.31765400  0.49223900  0.19721600  1
  O  O59  1  0.12352500  0.60043200  0.42458200  1
  O  O60  1  0.92460800  0.40078500  0.22523900  1
  O  O61  1  0.71435800  0.20921700  0.02381100  1
  O  O62  1  0.53010600  0.00052800  0.82077200  1
  O  O63  1  0.32886100  0.80383800  0.61992700  1
  O  O64  1  0.07539200  0.59921500  0.77476100  1
  O  O65  1  0.87647500  0.39956800  0.57541800  1
  O  O66  1  0.67113900  0.19616200  0.38007300  1
  O  O67  1  0.46989400  0.99947200  0.17922800  1
  O  O68  1  0.28564200  0.79078300  0.97618900  1
  O  O69  1  0.39577700  0.51911400  0.69667000  1
  O  O70  1  0.19721600  0.31765400  0.49223900  1
  O  O71  1  0.99538200  0.11604600  0.29928300  1
  O  O72  1  0.78748600  0.91539200  0.10395700  1
  O  O73  1  0.59938700  0.71753100  0.89066500  1
  O  O74  1  0.80278400  0.68234600  0.50776100  1
  O  O75  1  0.60422300  0.48088600  0.30333000  1
  O  O76  1  0.40061300  0.28246900  0.10933500  1
  O  O77  1  0.21251400  0.08460800  0.89604300  1
  O  O78  1  0.00461800  0.88395400  0.70071700  1
  O  O79  1  0.30333000  0.60422300  0.48088600  1
  O  O80  1  0.10933500  0.40061300  0.28246900  1
  O  O81  1  0.89604300  0.21251400  0.08460800  1
  O  O82  1  0.70071700  0.00461800  0.88395400  1
  O  O83  1  0.50776100  0.80278400  0.68234600  1
  O  O84  1  0.89066500  0.59938700  0.71753100  1
  O  O85  1  0.69667000  0.39577700  0.51911400  1
  O  O86  1  0.49223900  0.19721600  0.31765400  1
  O  O87  1  0.29928300  0.99538200  0.11604600  1
  O  O88  1  0.10395700  0.78748600  0.91539200  1
  O  O89  1  0.97618900  0.28564200  0.79078300  1
  O  O90  1  0.77476100  0.07539200  0.59921500  1
  O  O91  1  0.57541800  0.87647500  0.39956800  1
  O  O92  1  0.38007300  0.67113900  0.19616200  1
  O  O93  1  0.17922800  0.46989400  0.99947200  1
  O  O94  1  0.22523900  0.92460800  0.40078500  1
  O  O95  1  0.02381100  0.71435800  0.20921700  1
  O  O96  1  0.82077200  0.53010600  0.00052800  1
  O  O97  1  0.61992700  0.32886100  0.80383800  1
  O  O98  1  0.42458200  0.12352500  0.60043200  1
