# generated using pymatgen
data_Rb2Cu(ClF)2
_symmetry_space_group_name_H-M   'P 1'
_cell_length_a   5.10002325
_cell_length_b   5.09999214
_cell_length_c   7.57468638
_cell_angle_alpha   109.67756694
_cell_angle_beta   109.67769187
_cell_angle_gamma   89.98646350
_symmetry_Int_Tables_number   1
_chemical_formula_structural   Rb2Cu(ClF)2
_chemical_formula_sum   'Rb2 Cu1 Cl2 F2'
_cell_volume   173.25086509
_cell_formula_units_Z   1
loop_
 _symmetry_equiv_pos_site_id
 _symmetry_equiv_pos_as_xyz
  1  'x, y, z'
loop_
 _atom_site_type_symbol
 _atom_site_label
 _atom_site_symmetry_multiplicity
 _atom_site_fract_x
 _atom_site_fract_y
 _atom_site_fract_z
 _atom_site_occupancy
  Rb  Rb0  1  0.65362800  0.65362800  0.30725700  1
  Rb  Rb1  1  0.34637200  0.34637200  0.69274300  1
  Cu  Cu2  1  0.00000000  0.00000000  0.00000000  1
  Cl  Cl3  1  0.50000000  0.00000000  0.00000000  1
  Cl  Cl4  1  0.00000000  0.50000000  0.00000000  1
  F  F5  1  0.85661400  0.85661400  0.71322900  1
  F  F6  1  0.14338600  0.14338600  0.28677100  1
