# generated using pymatgen
data_PrSO
_symmetry_space_group_name_H-M   'P 1'
_cell_length_a   7.02099515
_cell_length_b   7.02099515
_cell_length_c   7.02099515
_cell_angle_alpha   147.56867835
_cell_angle_beta   141.25588100
_cell_angle_gamma   51.39237430
_symmetry_Int_Tables_number   1
_chemical_formula_structural   PrSO
_chemical_formula_sum   'Pr2 S2 O2'
_cell_volume   115.55201473
_cell_formula_units_Z   2
loop_
 _symmetry_equiv_pos_site_id
 _symmetry_equiv_pos_as_xyz
  1  'x, y, z'
loop_
 _atom_site_type_symbol
 _atom_site_label
 _atom_site_symmetry_multiplicity
 _atom_site_fract_x
 _atom_site_fract_y
 _atom_site_fract_z
 _atom_site_occupancy
  Pr  Pr0  1  0.66333700  0.66333700  0.00000000  1
  Pr  Pr1  1  0.33666300  0.33666300  0.00000000  1
  S  S2  1  0.22215900  0.00000000  0.22215900  1
  S  S3  1  0.77784100  0.00000000  0.77784100  1
  O  O4  1  0.76678900  0.26678900  0.50000000  1
  O  O5  1  0.23321100  0.73321100  0.50000000  1
