# generated using pymatgen
data_PrTh
_symmetry_space_group_name_H-M   'P 1'
_cell_length_a   6.36664830
_cell_length_b   6.36664830
_cell_length_c   6.36664879
_cell_angle_alpha   32.88408786
_cell_angle_beta   32.88408786
_cell_angle_gamma   32.88408653
_symmetry_Int_Tables_number   1
_chemical_formula_structural   PrTh
_chemical_formula_sum   'Pr1 Th1'
_cell_volume   67.68693032
_cell_formula_units_Z   1
loop_
 _symmetry_equiv_pos_site_id
 _symmetry_equiv_pos_as_xyz
  1  'x, y, z'
loop_
 _atom_site_type_symbol
 _atom_site_label
 _atom_site_symmetry_multiplicity
 _atom_site_fract_x
 _atom_site_fract_y
 _atom_site_fract_z
 _atom_site_occupancy
  Pr  Pr0  1  0.00000000  0.00000000  0.00000000  1
  Th  Th1  1  0.50000000  0.50000000  0.50000000  1
