# generated using pymatgen
data_Rb2BaBr4
_symmetry_space_group_name_H-M   'P 1'
_cell_length_a   8.82575666
_cell_length_b   8.82575666
_cell_length_c   8.82575666
_cell_angle_alpha   110.02228477
_cell_angle_beta   110.02228477
_cell_angle_gamma   108.37462632
_symmetry_Int_Tables_number   1
_chemical_formula_structural   Rb2BaBr4
_chemical_formula_sum   'Rb4 Ba2 Br8'
_cell_volume   529.07215180
_cell_formula_units_Z   2
loop_
 _symmetry_equiv_pos_site_id
 _symmetry_equiv_pos_as_xyz
  1  'x, y, z'
loop_
 _atom_site_type_symbol
 _atom_site_label
 _atom_site_symmetry_multiplicity
 _atom_site_fract_x
 _atom_site_fract_y
 _atom_site_fract_z
 _atom_site_occupancy
  Rb  Rb0  1  0.37500000  0.50610600  0.63110600  1
  Rb  Rb1  1  0.87500000  0.74389400  0.36889400  1
  Rb  Rb2  1  0.49389400  0.12500000  0.86889400  1
  Rb  Rb3  1  0.25610600  0.62500000  0.13110600  1
  Ba  Ba4  1  0.75000000  0.25000000  0.50000000  1
  Ba  Ba5  1  0.00000000  0.00000000  0.00000000  1
  Br  Br6  1  0.97375100  0.35882200  0.24947600  1
  Br  Br7  1  0.10934600  0.72427600  0.75052400  1
  Br  Br8  1  0.64065400  0.89117800  0.11492900  1
  Br  Br9  1  0.77624900  0.52572400  0.88507100  1
  Br  Br10  1  0.10882200  0.22375100  0.74947600  1
  Br  Br11  1  0.47427600  0.35934600  0.25052400  1
  Br  Br12  1  0.64117800  0.89065400  0.61492900  1
  Br  Br13  1  0.27572400  0.02624900  0.38507100  1
