# generated using pymatgen
data_Rb2V6CdCu9O26
_symmetry_space_group_name_H-M   'P 1'
_cell_length_a   6.25166700
_cell_length_b   8.37870069
_cell_length_c   10.99345675
_cell_angle_alpha   97.66877341
_cell_angle_beta   90.00000000
_cell_angle_gamma   90.00000000
_symmetry_Int_Tables_number   1
_chemical_formula_structural   Rb2V6CdCu9O26
_chemical_formula_sum   'Rb2 V6 Cd1 Cu9 O26'
_cell_volume   570.69624387
_cell_formula_units_Z   1
loop_
 _symmetry_equiv_pos_site_id
 _symmetry_equiv_pos_as_xyz
  1  'x, y, z'
loop_
 _atom_site_type_symbol
 _atom_site_label
 _atom_site_symmetry_multiplicity
 _atom_site_fract_x
 _atom_site_fract_y
 _atom_site_fract_z
 _atom_site_occupancy
  Rb  Rb0  1  0.25000000  0.98934500  0.60776100  1
  Rb  Rb1  1  0.75000000  0.01658100  0.39642100  1
  V  V2  1  0.25000000  0.03557600  0.20397900  1
  V  V3  1  0.75000000  0.97102700  0.79100200  1
  V  V4  1  0.25000000  0.32100900  0.88184300  1
  V  V5  1  0.75000000  0.67827300  0.11747700  1
  V  V6  1  0.25000000  0.37038000  0.50299800  1
  V  V7  1  0.75000000  0.62245100  0.50195600  1
  Cd  Cd8  1  0.25000000  0.69514900  0.36019000  1
  Cu  Cu9  1  0.25000000  0.89483800  0.89539100  1
  Cu  Cu10  1  0.75000000  0.10364700  0.10242600  1
  Cu  Cu11  1  0.25000000  0.64348400  0.05822800  1
  Cu  Cu12  1  0.75000000  0.35525800  0.93748000  1
  Cu  Cu13  1  0.50426900  0.39281900  0.22566800  1
  Cu  Cu14  1  0.99947600  0.60418500  0.77351800  1
  Cu  Cu15  1  0.50052400  0.60418500  0.77351800  1
  Cu  Cu16  1  0.99573100  0.39281900  0.22566800  1
  Cu  Cu17  1  0.75000000  0.30165200  0.63548600  1
  O  O18  1  0.25000000  0.65676400  0.87667200  1
  O  O19  1  0.75000000  0.34285100  0.11723700  1
  O  O20  1  0.25000000  0.41187200  0.03380300  1
  O  O21  1  0.75000000  0.58736700  0.96511200  1
  O  O22  1  0.25000000  0.53595200  0.61037700  1
  O  O23  1  0.75000000  0.46774400  0.38527100  1
  O  O24  1  0.25000000  0.42332600  0.33589800  1
  O  O25  1  0.75000000  0.54356600  0.66287500  1
  O  O26  1  0.48020300  0.15834800  0.20856700  1
  O  O27  1  0.97529800  0.84145700  0.78559200  1
  O  O28  1  0.52470200  0.84145700  0.78559200  1
  O  O29  1  0.01979700  0.15834800  0.20856700  1
  O  O30  1  0.49082900  0.37828300  0.80895400  1
  O  O31  1  0.99071400  0.62302100  0.19210900  1
  O  O32  1  0.50928600  0.62302100  0.19210900  1
  O  O33  1  0.00917100  0.37828300  0.80895400  1
  O  O34  1  0.25000000  0.95144600  0.33657600  1
  O  O35  1  0.75000000  0.07661300  0.66728800  1
  O  O36  1  0.25000000  0.87953600  0.07750500  1
  O  O37  1  0.75000000  0.11979000  0.92174700  1
  O  O38  1  0.25000000  0.11746100  0.88270700  1
  O  O39  1  0.75000000  0.88107500  0.11641000  1
  O  O40  1  0.47604100  0.26222400  0.52926500  1
  O  O41  1  0.96668700  0.74264600  0.48526700  1
  O  O42  1  0.53331300  0.74264600  0.48526700  1
  O  O43  1  0.02395900  0.26222400  0.52926500  1
