# generated using pymatgen
data_Ni7Sn8
_symmetry_space_group_name_H-M   'P 1'
_cell_length_a   4.08843300
_cell_length_b   5.25806693
_cell_length_c   12.46215900
_cell_angle_alpha   79.13053099
_cell_angle_beta   90.00000000
_cell_angle_gamma   90.00000000
_symmetry_Int_Tables_number   1
_chemical_formula_structural   Ni7Sn8
_chemical_formula_sum   'Ni7 Sn8'
_cell_volume   263.09585831
_cell_formula_units_Z   1
loop_
 _symmetry_equiv_pos_site_id
 _symmetry_equiv_pos_as_xyz
  1  'x, y, z'
loop_
 _atom_site_type_symbol
 _atom_site_label
 _atom_site_symmetry_multiplicity
 _atom_site_fract_x
 _atom_site_fract_y
 _atom_site_fract_z
 _atom_site_occupancy
  Ni  Ni0  1  0.50000000  0.37226700  0.29101300  1
  Ni  Ni1  1  0.00000000  0.87341900  0.78567600  1
  Ni  Ni2  1  0.00000000  0.12658100  0.21432400  1
  Ni  Ni3  1  0.50000000  0.62773300  0.70898700  1
  Ni  Ni4  1  0.00000000  0.00000000  0.00000000  1
  Ni  Ni5  1  0.50000000  0.50000000  0.50000000  1
  Ni  Ni6  1  0.00000000  0.50000000  0.00000000  1
  Sn  Sn7  1  0.50000000  0.85760700  0.33183000  1
  Sn  Sn8  1  0.00000000  0.35350000  0.81671100  1
  Sn  Sn9  1  0.00000000  0.64650000  0.18328900  1
  Sn  Sn10  1  0.50000000  0.14239300  0.66817000  1
  Sn  Sn11  1  0.50000000  0.22069800  0.07961300  1
  Sn  Sn12  1  0.00000000  0.74249600  0.56966100  1
  Sn  Sn13  1  0.00000000  0.25750400  0.43033900  1
  Sn  Sn14  1  0.50000000  0.77930200  0.92038700  1
