# generated using pymatgen
data_Pr2Ge7
_symmetry_space_group_name_H-M   'P 1'
_cell_length_a   4.11191700
_cell_length_b   4.30227500
_cell_length_c   11.76765596
_cell_angle_alpha   90.00000000
_cell_angle_beta   79.93806027
_cell_angle_gamma   90.00000000
_symmetry_Int_Tables_number   1
_chemical_formula_structural   Pr2Ge7
_chemical_formula_sum   'Pr2 Ge7'
_cell_volume   204.97499395
_cell_formula_units_Z   1
loop_
 _symmetry_equiv_pos_site_id
 _symmetry_equiv_pos_as_xyz
  1  'x, y, z'
loop_
 _atom_site_type_symbol
 _atom_site_label
 _atom_site_symmetry_multiplicity
 _atom_site_fract_x
 _atom_site_fract_y
 _atom_site_fract_z
 _atom_site_occupancy
  Pr  Pr0  1  0.66879300  0.50000000  0.66241400  1
  Pr  Pr1  1  0.33425500  0.50000000  0.33149000  1
  Ge  Ge2  1  0.04715500  0.50000000  0.90569000  1
  Ge  Ge3  1  0.93640000  0.50000000  0.12719900  1
  Ge  Ge4  1  0.79555900  0.00000000  0.40888100  1
  Ge  Ge5  1  0.22835100  0.00000000  0.54329700  1
  Ge  Ge6  1  0.54334800  0.00000000  0.91330500  1
  Ge  Ge7  1  0.43292100  0.00000000  0.13415800  1
  Ge  Ge8  1  0.11601700  0.00000000  0.76796600  1
