# generated using pymatgen
data_Pr2ScNbO7
_symmetry_space_group_name_H-M   'P 1'
_cell_length_a   7.56656850
_cell_length_b   7.56656850
_cell_length_c   7.56656850
_cell_angle_alpha   120.48140725
_cell_angle_beta   119.51348676
_cell_angle_gamma   90.00646574
_symmetry_Int_Tables_number   1
_chemical_formula_structural   Pr2ScNbO7
_chemical_formula_sum   'Pr4 Sc2 Nb2 O14'
_cell_volume   306.30912417
_cell_formula_units_Z   2
loop_
 _symmetry_equiv_pos_site_id
 _symmetry_equiv_pos_as_xyz
  1  'x, y, z'
loop_
 _atom_site_type_symbol
 _atom_site_label
 _atom_site_symmetry_multiplicity
 _atom_site_fract_x
 _atom_site_fract_y
 _atom_site_fract_z
 _atom_site_occupancy
  Pr  Pr0  1  0.50000000  0.50000000  0.50000000  1
  Pr  Pr1  1  0.50000000  0.00000000  0.00000000  1
  Pr  Pr2  1  0.50000000  0.50000000  0.00000000  1
  Pr  Pr3  1  0.00000000  0.50000000  0.50000000  1
  Sc  Sc4  1  0.00000000  0.00000000  0.50000000  1
  Sc  Sc5  1  0.00000000  0.50000000  0.00000000  1
  Nb  Nb6  1  0.00000000  0.00000000  0.00000000  1
  Nb  Nb7  1  0.50000000  0.00000000  0.50000000  1
  O  O8  1  0.32034400  0.07034400  0.25000000  1
  O  O9  1  0.90803800  0.65803800  0.25000000  1
  O  O10  1  0.33908600  0.67841700  0.26599100  1
  O  O11  1  0.91242500  0.07309500  0.23400900  1
  O  O12  1  0.33908600  0.07309500  0.66067000  1
  O  O13  1  0.91242500  0.67841700  0.83933000  1
  O  O14  1  0.67965600  0.92965600  0.75000000  1
  O  O15  1  0.09196200  0.34196200  0.75000000  1
  O  O16  1  0.66091400  0.32158300  0.73400900  1
  O  O17  1  0.08757500  0.92690500  0.76599100  1
  O  O18  1  0.66091400  0.92690500  0.33933000  1
  O  O19  1  0.08757500  0.32158300  0.16067000  1
  O  O20  1  0.37717100  0.62717100  0.75000000  1
  O  O21  1  0.62282900  0.37282900  0.25000000  1
