# generated using pymatgen
data_Rb3Ge7HO20
_symmetry_space_group_name_H-M   'P 1'
_cell_length_a   7.86425379
_cell_length_b   7.86425379
_cell_length_c   7.86425342
_cell_angle_alpha   89.52796486
_cell_angle_beta   89.52796486
_cell_angle_gamma   89.52795919
_symmetry_Int_Tables_number   1
_chemical_formula_structural   Rb3Ge7HO20
_chemical_formula_sum   'Rb3 Ge7 H1 O20'
_cell_volume   486.32720356
_cell_formula_units_Z   1
loop_
 _symmetry_equiv_pos_site_id
 _symmetry_equiv_pos_as_xyz
  1  'x, y, z'
loop_
 _atom_site_type_symbol
 _atom_site_label
 _atom_site_symmetry_multiplicity
 _atom_site_fract_x
 _atom_site_fract_y
 _atom_site_fract_z
 _atom_site_occupancy
  Rb  Rb0  1  0.98609900  0.47687400  0.98609900  1
  Rb  Rb1  1  0.98609900  0.98609900  0.47687400  1
  Rb  Rb2  1  0.47687400  0.98609900  0.98609900  1
  Ge  Ge3  1  0.98280400  0.48771100  0.48771100  1
  Ge  Ge4  1  0.48771100  0.98280400  0.48771100  1
  Ge  Ge5  1  0.48771100  0.48771100  0.98280400  1
  Ge  Ge6  1  0.35237200  0.35237200  0.35237200  1
  Ge  Ge7  1  0.32585300  0.63736400  0.63736400  1
  Ge  Ge8  1  0.63736400  0.63736400  0.32585300  1
  Ge  Ge9  1  0.63736400  0.32585300  0.63736400  1
  H  H10  1  0.54883700  0.54883700  0.54883700  1
  O  O11  1  0.82033200  0.82033200  0.82033200  1
  O  O12  1  0.79565400  0.22981900  0.22981900  1
  O  O13  1  0.22981900  0.22981900  0.79565400  1
  O  O14  1  0.22981900  0.79565400  0.22981900  1
  O  O15  1  0.11818800  0.36082000  0.36082000  1
  O  O16  1  0.36082000  0.11818800  0.36082000  1
  O  O17  1  0.36082000  0.36082000  0.11818800  1
  O  O18  1  0.09767300  0.62389300  0.62389300  1
  O  O19  1  0.34603600  0.86769200  0.62161800  1
  O  O20  1  0.34603600  0.62161800  0.86769200  1
  O  O21  1  0.86769200  0.62161800  0.34603600  1
  O  O22  1  0.62161800  0.86769200  0.34603600  1
  O  O23  1  0.62389300  0.62389300  0.09767300  1
  O  O24  1  0.86769200  0.34603600  0.62161800  1
  O  O25  1  0.62389300  0.09767300  0.62389300  1
  O  O26  1  0.62161800  0.34603600  0.86769200  1
  O  O27  1  0.61992900  0.61992900  0.61992900  1
  O  O28  1  0.60870500  0.38198800  0.38198800  1
  O  O29  1  0.38198800  0.38198800  0.60870500  1
  O  O30  1  0.38198800  0.60870500  0.38198800  1
