# generated using pymatgen
data_C
_symmetry_space_group_name_H-M   'P 1'
_cell_length_a   9.18666900
_cell_length_b   10.20196700
_cell_length_c   14.64883900
_cell_angle_alpha   90.00000000
_cell_angle_beta   90.00000000
_cell_angle_gamma   90.00000000
_symmetry_Int_Tables_number   1
_chemical_formula_structural   C
_chemical_formula_sum   C120
_cell_volume   1372.91986543
_cell_formula_units_Z   120
loop_
 _symmetry_equiv_pos_site_id
 _symmetry_equiv_pos_as_xyz
  1  'x, y, z'
loop_
 _atom_site_type_symbol
 _atom_site_label
 _atom_site_symmetry_multiplicity
 _atom_site_fract_x
 _atom_site_fract_y
 _atom_site_fract_z
 _atom_site_occupancy
  C  C0  1  0.42112900  0.16218500  0.46748700  1
  C  C1  1  0.42112900  0.83781500  0.53251300  1
  C  C2  1  0.58774000  0.93990100  0.96451200  1
  C  C3  1  0.58774000  0.06009900  0.03548800  1
  C  C4  1  0.91226000  0.43990100  0.53548800  1
  C  C5  1  0.91226000  0.56009900  0.46451200  1
  C  C6  1  0.41226000  0.06009900  0.03548800  1
  C  C7  1  0.41226000  0.93990100  0.96451200  1
  C  C8  1  0.08774000  0.56009900  0.46451200  1
  C  C9  1  0.08774000  0.43990100  0.53548800  1
  C  C10  1  0.66771000  0.96622900  0.87478800  1
  C  C11  1  0.66771000  0.03377100  0.12521200  1
  C  C12  1  0.83229000  0.46622900  0.62521200  1
  C  C13  1  0.83229000  0.53377100  0.37478800  1
  C  C14  1  0.33229000  0.03377100  0.12521200  1
  C  C15  1  0.33229000  0.96622900  0.87478800  1
  C  C16  1  0.16771000  0.53377100  0.37478800  1
  C  C17  1  0.16771000  0.46622900  0.62521200  1
  C  C18  1  0.66746900  0.81675100  0.99705900  1
  C  C19  1  0.66746900  0.18324900  0.00294100  1
  C  C20  1  0.83253100  0.31675100  0.50294100  1
  C  C21  1  0.83253100  0.68324900  0.49705900  1
  C  C22  1  0.33253100  0.18324900  0.00294100  1
  C  C23  1  0.33253100  0.81675100  0.99705900  1
  C  C24  1  0.16746900  0.68324900  0.49705900  1
  C  C25  1  0.16746900  0.31675100  0.50294100  1
  C  C26  1  0.92376300  0.21831800  0.82109400  1
  C  C27  1  0.92376300  0.78168200  0.17890600  1
  C  C28  1  0.57623700  0.71831800  0.67890600  1
  C  C29  1  0.57623700  0.28168200  0.32109400  1
  C  C30  1  0.07623700  0.78168200  0.17890600  1
  C  C31  1  0.07623700  0.21831800  0.82109400  1
  C  C32  1  0.42376300  0.28168200  0.32109400  1
  C  C33  1  0.42376300  0.71831800  0.67890600  1
  C  C34  1  0.00000000  0.78338300  0.80936700  1
  C  C35  1  0.00000000  0.21661700  0.19063300  1
  C  C36  1  0.50000000  0.28338300  0.69063300  1
  C  C37  1  0.50000000  0.71661700  0.30936700  1
  C  C38  1  0.00000000  0.69422900  0.88188600  1
  C  C39  1  0.00000000  0.30577100  0.11811400  1
  C  C40  1  0.50000000  0.19422900  0.61811400  1
  C  C41  1  0.50000000  0.80577100  0.38188600  1
  C  C42  1  0.87285400  0.86349500  0.79160200  1
  C  C43  1  0.87285400  0.13650500  0.20839800  1
  C  C44  1  0.62714600  0.36349500  0.70839800  1
  C  C45  1  0.62714600  0.63650500  0.29160200  1
  C  C46  1  0.12714600  0.13650500  0.20839800  1
  C  C47  1  0.12714600  0.86349500  0.79160200  1
  C  C48  1  0.37285400  0.63650500  0.29160200  1
  C  C49  1  0.37285400  0.36349500  0.70839800  1
  C  C50  1  0.87261000  0.68190700  0.93971500  1
  C  C51  1  0.87261000  0.31809300  0.06028500  1
  C  C52  1  0.62739000  0.18190700  0.56028500  1
  C  C53  1  0.62739000  0.81809300  0.43971500  1
  C  C54  1  0.12739000  0.31809300  0.06028500  1
  C  C55  1  0.12739000  0.68190700  0.93971500  1
  C  C56  1  0.37261000  0.81809300  0.43971500  1
  C  C57  1  0.37261000  0.18190700  0.56028500  1
  C  C58  1  0.84484000  0.10244300  0.79203800  1
  C  C59  1  0.84484000  0.89755700  0.20796200  1
  C  C60  1  0.65516000  0.60244300  0.70796200  1
  C  C61  1  0.65516000  0.39755700  0.29203800  1
  C  C62  1  0.15516000  0.89755700  0.20796200  1
  C  C63  1  0.15516000  0.10244300  0.79203800  1
  C  C64  1  0.34484000  0.39755700  0.29203800  1
  C  C65  1  0.34484000  0.60244300  0.70796200  1
  C  C66  1  0.84481300  0.72173600  0.10406300  1
  C  C67  1  0.84481300  0.27826400  0.89593700  1
  C  C68  1  0.65518700  0.22173600  0.39593700  1
  C  C69  1  0.65518700  0.77826400  0.60406300  1
  C  C70  1  0.15518700  0.27826400  0.89593700  1
  C  C71  1  0.15518700  0.72173600  0.10406300  1
  C  C72  1  0.34481300  0.77826400  0.60406300  1
  C  C73  1  0.34481300  0.22173600  0.39593700  1
  C  C74  1  0.71682900  0.08930900  0.84886800  1
  C  C75  1  0.71682900  0.91069100  0.15113200  1
  C  C76  1  0.78317100  0.58930900  0.65113200  1
  C  C77  1  0.78317100  0.41069100  0.34886800  1
  C  C78  1  0.28317100  0.91069100  0.15113200  1
  C  C79  1  0.28317100  0.08930900  0.84886800  1
  C  C80  1  0.21682900  0.41069100  0.34886800  1
  C  C81  1  0.21682900  0.58930900  0.65113200  1
  C  C82  1  0.71670300  0.80004800  0.08585000  1
  C  C83  1  0.71670300  0.19995200  0.91415000  1
  C  C84  1  0.78329700  0.30004800  0.41415000  1
  C  C85  1  0.78329700  0.69995200  0.58585000  1
  C  C86  1  0.28329700  0.19995200  0.91415000  1
  C  C87  1  0.28329700  0.80004800  0.08585000  1
  C  C88  1  0.21670300  0.69995200  0.58585000  1
  C  C89  1  0.21670300  0.30004800  0.41415000  1
  C  C90  1  0.75016700  0.85300100  0.84811900  1
  C  C91  1  0.75016700  0.14699900  0.15188100  1
  C  C92  1  0.74983300  0.35300100  0.65188100  1
  C  C93  1  0.74983300  0.64699900  0.34811900  1
  C  C94  1  0.24983300  0.14699900  0.15188100  1
  C  C95  1  0.24983300  0.85300100  0.84811900  1
  C  C96  1  0.25016700  0.64699900  0.34811900  1
  C  C97  1  0.25016700  0.35300100  0.65188100  1
  C  C98  1  0.74988800  0.76042200  0.92347400  1
  C  C99  1  0.74988800  0.23957800  0.07652600  1
  C  C100  1  0.75011200  0.26042200  0.57652600  1
  C  C101  1  0.75011200  0.73957800  0.42347400  1
  C  C102  1  0.25011200  0.23957800  0.07652600  1
  C  C103  1  0.25011200  0.76042200  0.92347400  1
  C  C104  1  0.24988800  0.73957800  0.42347400  1
  C  C105  1  0.24988800  0.26042200  0.57652600  1
  C  C106  1  0.92108000  0.99148300  0.76253400  1
  C  C107  1  0.92108000  0.00851700  0.23746600  1
  C  C108  1  0.57892000  0.49148300  0.73746600  1
  C  C109  1  0.57892000  0.50851700  0.26253400  1
  C  C110  1  0.07892000  0.00851700  0.23746600  1
  C  C111  1  0.07892000  0.99148300  0.76253400  1
  C  C112  1  0.42108000  0.50851700  0.26253400  1
  C  C113  1  0.42108000  0.49148300  0.73746600  1
  C  C114  1  0.92112900  0.66218500  0.03251300  1
  C  C115  1  0.92112900  0.33781500  0.96748700  1
  C  C116  1  0.57887100  0.16218500  0.46748700  1
  C  C117  1  0.57887100  0.83781500  0.53251300  1
  C  C118  1  0.07887100  0.33781500  0.96748700  1
  C  C119  1  0.07887100  0.66218500  0.03251300  1
