# generated using pymatgen
data_Pr5S2N3Cl2
_symmetry_space_group_name_H-M   'P 1'
_cell_length_a   8.23598693
_cell_length_b   8.23598693
_cell_length_c   17.09847179
_cell_angle_alpha   78.43679883
_cell_angle_beta   78.43679883
_cell_angle_gamma   28.69374659
_symmetry_Int_Tables_number   1
_chemical_formula_structural   Pr5S2N3Cl2
_chemical_formula_sum   'Pr10 S4 N6 Cl4'
_cell_volume   544.80979631
_cell_formula_units_Z   2
loop_
 _symmetry_equiv_pos_site_id
 _symmetry_equiv_pos_as_xyz
  1  'x, y, z'
loop_
 _atom_site_type_symbol
 _atom_site_label
 _atom_site_symmetry_multiplicity
 _atom_site_fract_x
 _atom_site_fract_y
 _atom_site_fract_z
 _atom_site_occupancy
  Pr  Pr0  1  0.23562600  0.23562600  0.20562300  1
  Pr  Pr1  1  0.76437400  0.76437400  0.79437700  1
  Pr  Pr2  1  0.48239400  0.48239400  0.16404600  1
  Pr  Pr3  1  0.51760600  0.51760600  0.83595400  1
  Pr  Pr4  1  0.42566800  0.42566800  0.59486600  1
  Pr  Pr5  1  0.57433200  0.57433200  0.40513400  1
  Pr  Pr6  1  0.14130000  0.14130000  0.57467300  1
  Pr  Pr7  1  0.85870000  0.85870000  0.42532700  1
  Pr  Pr8  1  0.11370800  0.11370800  0.96870200  1
  Pr  Pr9  1  0.88629200  0.88629200  0.03129800  1
  S  S10  1  0.04206700  0.04206700  0.29068000  1
  S  S11  1  0.95793300  0.95793300  0.70932000  1
  S  S12  1  0.21242200  0.21242200  0.40496500  1
  S  S13  1  0.78757800  0.78757800  0.59503500  1
  N  N14  1  0.00607800  0.00607800  0.08983400  1
  N  N15  1  0.99392200  0.99392200  0.91016600  1
  N  N16  1  0.35193900  0.35193900  0.11006200  1
  N  N17  1  0.64806100  0.64806100  0.88993800  1
  N  N18  1  0.42519700  0.42519700  0.45446400  1
  N  N19  1  0.57480300  0.57480300  0.54553600  1
  Cl  Cl20  1  0.16564500  0.16564500  0.73959400  1
  Cl  Cl21  1  0.83435500  0.83435500  0.26040600  1
  Cl  Cl22  1  0.31952000  0.31952000  0.89518100  1
  Cl  Cl23  1  0.68048000  0.68048000  0.10481900  1
