# generated using pymatgen
data_NiRu
_symmetry_space_group_name_H-M   'P 1'
_cell_length_a   2.65253192
_cell_length_b   2.65253192
_cell_length_c   4.14103400
_cell_angle_alpha   90.00000000
_cell_angle_beta   90.00000000
_cell_angle_gamma   119.99999792
_symmetry_Int_Tables_number   1
_chemical_formula_structural   NiRu
_chemical_formula_sum   'Ni1 Ru1'
_cell_volume   25.23252276
_cell_formula_units_Z   1
loop_
 _symmetry_equiv_pos_site_id
 _symmetry_equiv_pos_as_xyz
  1  'x, y, z'
loop_
 _atom_site_type_symbol
 _atom_site_label
 _atom_site_symmetry_multiplicity
 _atom_site_fract_x
 _atom_site_fract_y
 _atom_site_fract_z
 _atom_site_occupancy
  Ni  Ni0  1  0.66666700  0.33333300  0.50000000  1
  Ru  Ru1  1  0.33333300  0.66666700  0.00000000  1
