# generated using pymatgen
data_RbNbSiO5
_symmetry_space_group_name_H-M   'P 1'
_cell_length_a   21.07528855
_cell_length_b   21.07528855
_cell_length_c   10.41516666
_cell_angle_alpha   75.70108393
_cell_angle_beta   75.70108393
_cell_angle_gamma   28.61190993
_symmetry_Int_Tables_number   1
_chemical_formula_structural   RbNbSiO5
_chemical_formula_sum   'Rb16 Nb16 Si16 O80'
_cell_volume   2142.14329810
_cell_formula_units_Z   16
loop_
 _symmetry_equiv_pos_site_id
 _symmetry_equiv_pos_as_xyz
  1  'x, y, z'
loop_
 _atom_site_type_symbol
 _atom_site_label
 _atom_site_symmetry_multiplicity
 _atom_site_fract_x
 _atom_site_fract_y
 _atom_site_fract_z
 _atom_site_occupancy
  Rb  Rb0  1  0.99018500  0.39937300  0.55510300  1
  Rb  Rb1  1  0.74014800  0.14945000  0.30537400  1
  Rb  Rb2  1  0.60062700  0.00981500  0.44489700  1
  Rb  Rb3  1  0.85055000  0.25985200  0.69462600  1
  Rb  Rb4  1  0.79516800  0.70475500  0.76322100  1
  Rb  Rb5  1  0.29524500  0.20483200  0.23677900  1
  Rb  Rb6  1  0.53202900  0.46797100  0.00000000  1
  Rb  Rb7  1  0.05839400  0.94160600  0.50000000  1
  Rb  Rb8  1  0.09771900  0.50689000  0.94794000  1
  Rb  Rb9  1  0.34778700  0.75681700  0.19752100  1
  Rb  Rb10  1  0.49311000  0.90228100  0.05206000  1
  Rb  Rb11  1  0.24318300  0.65221300  0.80247900  1
  Rb  Rb12  1  0.62678200  0.62502600  0.39975100  1
  Rb  Rb13  1  0.89550000  0.85630700  0.07973500  1
  Rb  Rb14  1  0.14369300  0.10450000  0.92026500  1
  Rb  Rb15  1  0.37497400  0.37321800  0.60024900  1
  Nb  Nb16  1  0.96010900  0.60467900  0.33270700  1
  Nb  Nb17  1  0.19484000  0.36862300  0.60227300  1
  Nb  Nb18  1  0.96156600  0.10187300  0.10106000  1
  Nb  Nb19  1  0.69336300  0.37145000  0.33578700  1
  Nb  Nb20  1  0.63137700  0.80516000  0.39772700  1
  Nb  Nb21  1  0.39532100  0.03989100  0.66729300  1
  Nb  Nb22  1  0.89812700  0.03843300  0.89894000  1
  Nb  Nb23  1  0.62855000  0.30663700  0.66421300  1
  Nb  Nb24  1  0.87560000  0.55200600  0.15389800  1
  Nb  Nb25  1  0.14372200  0.28526300  0.91880200  1
  Nb  Nb26  1  0.14214400  0.78550400  0.15199900  1
  Nb  Nb27  1  0.37718700  0.55176000  0.41878100  1
  Nb  Nb28  1  0.71473700  0.85627800  0.08119800  1
  Nb  Nb29  1  0.44799400  0.12440000  0.84610200  1
  Nb  Nb30  1  0.21449600  0.85785600  0.84800100  1
  Nb  Nb31  1  0.44824000  0.62281300  0.58121900  1
  Si  Si32  1  0.76501200  0.90716100  0.76414500  1
  Si  Si33  1  0.49720600  0.17495100  0.06324700  1
  Si  Si34  1  0.53077800  0.64142300  0.79813000  1
  Si  Si35  1  0.23166200  0.94047200  0.53037000  1
  Si  Si36  1  0.82504900  0.50279400  0.93675300  1
  Si  Si37  1  0.09283900  0.23498800  0.23585500  1
  Si  Si38  1  0.35857700  0.46922200  0.20187000  1
  Si  Si39  1  0.05952800  0.76833800  0.46963000  1
  Si  Si40  1  0.61352200  0.72094000  0.71841300  1
  Si  Si41  1  0.31118800  0.02334300  0.44771400  1
  Si  Si42  1  0.57693500  0.25755900  0.98370600  1
  Si  Si43  1  0.84761100  0.98688700  0.68131400  1
  Si  Si44  1  0.97665700  0.68881200  0.55228600  1
  Si  Si45  1  0.27906000  0.38647800  0.28158700  1
  Si  Si46  1  0.74244100  0.42306500  0.01629400  1
  Si  Si47  1  0.01311300  0.15238900  0.31868600  1
  O  O48  1  0.81412900  0.81905900  0.90346400  1
  O  O49  1  0.40915600  0.22335600  0.96407800  1
  O  O50  1  0.39191900  0.74063700  0.88607100  1
  O  O51  1  0.33193100  0.80121700  0.48113300  1
  O  O52  1  0.77664400  0.59084400  0.03592200  1
  O  O53  1  0.18094100  0.18587100  0.09653600  1
  O  O54  1  0.25936300  0.60808100  0.11392900  1
  O  O55  1  0.19878300  0.66806900  0.51886700  1
  O  O56  1  0.06172900  0.47132300  0.48347800  1
  O  O57  1  0.81175200  0.22130300  0.23348100  1
  O  O58  1  0.52867700  0.93827100  0.51652200  1
  O  O59  1  0.77869700  0.18824800  0.76651900  1
  O  O60  1  0.56518000  0.97486100  0.97993900  1
  O  O61  1  0.31513800  0.72490200  0.72997900  1
  O  O62  1  0.02513900  0.43482000  0.02006100  1
  O  O63  1  0.27509800  0.68486200  0.27002100  1
  O  O64  1  0.51849000  0.85821500  0.76528500  1
  O  O65  1  0.44889500  0.92715800  0.35828600  1
  O  O66  1  0.52997600  0.34675300  0.84648400  1
  O  O67  1  0.93694500  0.93909600  0.77755300  1
  O  O68  1  0.07284200  0.55110500  0.64171400  1
  O  O69  1  0.14178500  0.48151000  0.23471500  1
  O  O70  1  0.65324700  0.47002400  0.15351600  1
  O  O71  1  0.06090400  0.06305500  0.22244700  1
  O  O72  1  0.79606700  0.70443200  0.05550000  1
  O  O73  1  0.29556800  0.20393300  0.94450000  1
  O  O74  1  0.23917800  0.76082200  0.00000000  1
  O  O75  1  0.35066800  0.64933200  0.50000000  1
  O  O76  1  0.72252200  0.67231100  0.28671400  1
  O  O77  1  0.26211000  0.13253400  0.81891800  1
  O  O78  1  0.00842700  0.88639000  0.03253700  1
  O  O79  1  0.47623800  0.41842100  0.57229400  1
  O  O80  1  0.86746600  0.73789000  0.18108200  1
  O  O81  1  0.32768900  0.27747800  0.71328600  1
  O  O82  1  0.11361000  0.99157300  0.96746300  1
  O  O83  1  0.58157900  0.52376200  0.42770600  1
  O  O84  1  0.79483800  0.70566600  0.42868400  1
  O  O85  1  0.29433400  0.20516200  0.57131600  1
  O  O86  1  0.86604200  0.13395800  0.00000000  1
  O  O87  1  0.72390100  0.27609900  0.50000000  1
  O  O88  1  0.83448400  0.81886400  0.63943100  1
  O  O89  1  0.40925300  0.24401700  0.20727500  1
  O  O90  1  0.65575900  0.49751400  0.88596300  1
  O  O91  1  0.08799400  0.06535000  0.46074000  1
  O  O92  1  0.75598300  0.59074700  0.79272500  1
  O  O93  1  0.18113600  0.16551600  0.36056900  1
  O  O94  1  0.50248600  0.34424100  0.11403700  1
  O  O95  1  0.93465000  0.91200600  0.53926000  1
  O  O96  1  0.60555900  0.04362100  0.74951300  1
  O  O97  1  0.63446100  0.01519500  0.10101400  1
  O  O98  1  0.54591600  0.60376700  0.66083100  1
  O  O99  1  0.19391600  0.95522600  0.68977800  1
  O  O100  1  0.98480500  0.36553900  0.89898600  1
  O  O101  1  0.95637900  0.39444100  0.25048700  1
  O  O102  1  0.39623300  0.45408400  0.33916900  1
  O  O103  1  0.04477400  0.80608400  0.31022200  1
  O  O104  1  0.61260500  0.89719400  0.24419200  1
  O  O105  1  0.48705500  0.02266200  0.74610900  1
  O  O106  1  0.05105800  0.95868300  0.80782600  1
  O  O107  1  0.54920100  0.46057300  0.68231100  1
  O  O108  1  0.97733800  0.51294500  0.25389100  1
  O  O109  1  0.10280600  0.38739500  0.75580800  1
  O  O110  1  0.04131700  0.94894200  0.19217400  1
  O  O111  1  0.53942700  0.45079900  0.31768900  1
  O  O112  1  0.93666000  0.70312700  0.41921900  1
  O  O113  1  0.29398500  0.34654700  0.44087400  1
  O  O114  1  0.87668300  0.26382600  0.00127700  1
  O  O115  1  0.85431300  0.28550400  0.35857900  1
  O  O116  1  0.65345300  0.70601500  0.55912600  1
  O  O117  1  0.29687300  0.06334000  0.58078100  1
  O  O118  1  0.73617400  0.12331700  0.99872300  1
  O  O119  1  0.71449600  0.14568700  0.64142100  1
  O  O120  1  0.77751500  0.46923400  0.00630900  1
  O  O121  1  0.06044500  0.18627400  0.24587500  1
  O  O122  1  0.28895200  0.45780100  0.23552200  1
  O  O123  1  0.04940200  0.69731600  0.51848400  1
  O  O124  1  0.54219900  0.71104800  0.76447800  1
  O  O125  1  0.30268400  0.95059800  0.48151600  1
  O  O126  1  0.53076600  0.22248500  0.99369100  1
  O  O127  1  0.81372600  0.93955500  0.75412500  1
