# generated using pymatgen
data_Pr4AlFe33
_symmetry_space_group_name_H-M   'P 1'
_cell_length_a   6.49843361
_cell_length_b   6.49843361
_cell_length_c   13.02522582
_cell_angle_alpha   82.82700846
_cell_angle_beta   82.82700846
_cell_angle_gamma   82.85056997
_symmetry_Int_Tables_number   1
_chemical_formula_structural   Pr4AlFe33
_chemical_formula_sum   'Pr4 Al1 Fe33'
_cell_volume   538.15316035
_cell_formula_units_Z   1
loop_
 _symmetry_equiv_pos_site_id
 _symmetry_equiv_pos_as_xyz
  1  'x, y, z'
loop_
 _atom_site_type_symbol
 _atom_site_label
 _atom_site_symmetry_multiplicity
 _atom_site_fract_x
 _atom_site_fract_y
 _atom_site_fract_z
 _atom_site_occupancy
  Pr  Pr0  1  0.34670400  0.34670400  0.67193300  1
  Pr  Pr1  1  0.34204900  0.34204900  0.17163100  1
  Pr  Pr2  1  0.65803700  0.65803700  0.82848300  1
  Pr  Pr3  1  0.65592900  0.65592900  0.32974800  1
  Al  Al4  1  0.09521100  0.09521100  0.54765300  1
  Fe  Fe5  1  0.71380700  0.28558900  0.50044800  1
  Fe  Fe6  1  0.71232400  0.28771300  0.99989700  1
  Fe  Fe7  1  0.28801800  0.00041000  0.85563300  1
  Fe  Fe8  1  0.28600700  0.99983100  0.35703600  1
  Fe  Fe9  1  0.00086100  0.71396500  0.64261600  1
  Fe  Fe10  1  0.00043100  0.71173000  0.14441600  1
  Fe  Fe11  1  0.71396500  0.00086100  0.64261600  1
  Fe  Fe12  1  0.71173000  0.00043100  0.14441600  1
  Fe  Fe13  1  0.00041000  0.28801800  0.85563300  1
  Fe  Fe14  1  0.99983100  0.28600700  0.35703600  1
  Fe  Fe15  1  0.28771300  0.71232400  0.99989700  1
  Fe  Fe16  1  0.28558900  0.71380700  0.50044800  1
  Fe  Fe17  1  0.00024100  0.00024100  0.75031400  1
  Fe  Fe18  1  0.99950600  0.99950600  0.24991000  1
  Fe  Fe19  1  0.00012100  0.50007600  0.50003200  1
  Fe  Fe20  1  0.99944000  0.50003700  0.00000800  1
  Fe  Fe21  1  0.50003700  0.99944000  0.00000800  1
  Fe  Fe22  1  0.50007600  0.00012100  0.50003200  1
  Fe  Fe23  1  0.65928800  0.65928800  0.57632200  1
  Fe  Fe24  1  0.65947200  0.65947200  0.07709900  1
  Fe  Fe25  1  0.65897500  0.15380400  0.82932100  1
  Fe  Fe26  1  0.65787400  0.15222400  0.32979100  1
  Fe  Fe27  1  0.15380400  0.65897500  0.82932100  1
  Fe  Fe28  1  0.15222400  0.65787400  0.32979100  1
  Fe  Fe29  1  0.34031200  0.34031200  0.92324300  1
  Fe  Fe30  1  0.34093800  0.34093800  0.42308300  1
  Fe  Fe31  1  0.34286400  0.84601800  0.67020600  1
  Fe  Fe32  1  0.34212800  0.84646800  0.17055000  1
  Fe  Fe33  1  0.84601800  0.34286400  0.67020600  1
  Fe  Fe34  1  0.84646800  0.34212800  0.17055000  1
  Fe  Fe35  1  0.09647400  0.09647400  0.04847100  1
  Fe  Fe36  1  0.90375900  0.90375900  0.95210800  1
  Fe  Fe37  1  0.90136500  0.90136500  0.45009100  1
