# generated using pymatgen
data_Rb2PtI5O2
_symmetry_space_group_name_H-M   'P 1'
_cell_length_a   8.00177837
_cell_length_b   8.00177837
_cell_length_c   12.14590600
_cell_angle_alpha   90.00000000
_cell_angle_beta   90.00000000
_cell_angle_gamma   113.90850002
_symmetry_Int_Tables_number   1
_chemical_formula_structural   Rb2PtI5O2
_chemical_formula_sum   'Rb4 Pt2 I10 O4'
_cell_volume   710.95357746
_cell_formula_units_Z   2
loop_
 _symmetry_equiv_pos_site_id
 _symmetry_equiv_pos_as_xyz
  1  'x, y, z'
loop_
 _atom_site_type_symbol
 _atom_site_label
 _atom_site_symmetry_multiplicity
 _atom_site_fract_x
 _atom_site_fract_y
 _atom_site_fract_z
 _atom_site_occupancy
  Rb  Rb0  1  0.46664500  0.91154700  0.26014100  1
  Rb  Rb1  1  0.08845300  0.53335500  0.76014100  1
  Rb  Rb2  1  0.53335500  0.08845300  0.76014100  1
  Rb  Rb3  1  0.91154700  0.46664500  0.26014100  1
  Pt  Pt4  1  0.97074500  0.97074500  0.53133100  1
  Pt  Pt5  1  0.02925500  0.02925500  0.03133100  1
  I  I6  1  0.27540800  0.27540800  0.48296600  1
  I  I7  1  0.67321800  0.67321800  0.59191900  1
  I  I8  1  0.32678200  0.32678200  0.09191900  1
  I  I9  1  0.72459200  0.72459200  0.98296600  1
  I  I10  1  0.15560700  0.76037400  0.50724200  1
  I  I11  1  0.23962600  0.84439300  0.00724200  1
  I  I12  1  0.76037400  0.15560700  0.50724200  1
  I  I13  1  0.84439300  0.23962600  0.00724200  1
  I  I14  1  0.94476200  0.94476200  0.26587900  1
  I  I15  1  0.05523800  0.05523800  0.76587900  1
  O  O16  1  0.46576000  0.25124100  0.18331900  1
  O  O17  1  0.74875900  0.53424000  0.68331900  1
  O  O18  1  0.53424000  0.74875900  0.68331900  1
  O  O19  1  0.25124100  0.46576000  0.18331900  1
