# generated using pymatgen
data_Rh2Au2N10Cl12O
_symmetry_space_group_name_H-M   'P 1'
_cell_length_a   8.47858700
_cell_length_b   8.41534601
_cell_length_c   11.59236550
_cell_angle_alpha   93.98956924
_cell_angle_beta   90.00000000
_cell_angle_gamma   59.75109813
_symmetry_Int_Tables_number   1
_chemical_formula_structural   Rh2Au2N10Cl12O
_chemical_formula_sum   'Rh2 Au2 N10 Cl12 O1'
_cell_volume   712.18076716
_cell_formula_units_Z   1
loop_
 _symmetry_equiv_pos_site_id
 _symmetry_equiv_pos_as_xyz
  1  'x, y, z'
loop_
 _atom_site_type_symbol
 _atom_site_label
 _atom_site_symmetry_multiplicity
 _atom_site_fract_x
 _atom_site_fract_y
 _atom_site_fract_z
 _atom_site_occupancy
  Rh  Rh0  1  0.73673300  0.51871700  0.79372800  1
  Rh  Rh1  1  0.25545000  0.48128300  0.20627200  1
  Au  Au2  1  0.01516600  0.00000000  0.00000000  1
  Au  Au3  1  0.49893400  0.00000000  0.50000000  1
  N  N4  1  0.56551600  0.61578600  0.69650600  1
  N  N5  1  0.87484800  0.63563000  0.76351500  1
  N  N6  1  0.51047900  0.36437000  0.23648500  1
  N  N7  1  0.18130300  0.38421400  0.30349400  1
  N  N8  1  0.63650100  0.60329100  0.95105200  1
  N  N9  1  0.23979200  0.39670900  0.04894800  1
  N  N10  1  0.63135500  0.32523000  0.80747200  1
  N  N11  1  0.96982400  0.28498800  0.78084900  1
  N  N12  1  0.25481200  0.71501200  0.21915100  1
  N  N13  1  0.95658500  0.67477000  0.19252800  1
  Cl  Cl14  1  0.65169900  0.68085800  0.49478400  1
  Cl  Cl15  1  0.33255700  0.31914200  0.50521600  1
  Cl  Cl16  1  0.77211800  0.54942600  0.05904700  1
  Cl  Cl17  1  0.32154400  0.45057400  0.94095300  1
  Cl  Cl18  1  0.28594400  0.00000000  0.00000000  1
  Cl  Cl19  1  0.74624500  0.00000000  0.00000000  1
  Cl  Cl20  1  0.50723200  0.98731000  0.29964700  1
  Cl  Cl21  1  0.49454200  0.01269000  0.70035300  1
  Cl  Cl22  1  0.89252400  0.19285600  0.47892500  1
  Cl  Cl23  1  0.08538000  0.80714400  0.52107500  1
  Cl  Cl24  1  0.08190300  0.91883400  0.23614600  1
  Cl  Cl25  1  0.00073700  0.08116600  0.76385400  1
  O  O26  1  0.87827700  0.00000000  0.50000000  1
