# generated using pymatgen
data_Pr6Al3Fe11
_symmetry_space_group_name_H-M   'P 1'
_cell_length_a   13.05710897
_cell_length_b   13.05710897
_cell_length_c   13.05710897
_cell_angle_alpha   143.88657706
_cell_angle_beta   143.88657706
_cell_angle_gamma   51.99693300
_symmetry_Int_Tables_number   1
_chemical_formula_structural   Pr6Al3Fe11
_chemical_formula_sum   'Pr12 Al6 Fe22'
_cell_volume   768.90590290
_cell_formula_units_Z   2
loop_
 _symmetry_equiv_pos_site_id
 _symmetry_equiv_pos_as_xyz
  1  'x, y, z'
loop_
 _atom_site_type_symbol
 _atom_site_label
 _atom_site_symmetry_multiplicity
 _atom_site_fract_x
 _atom_site_fract_y
 _atom_site_fract_z
 _atom_site_occupancy
  Pr  Pr0  1  0.48079600  0.98079600  0.83223400  1
  Pr  Pr1  1  0.14856100  0.64856100  0.16776600  1
  Pr  Pr2  1  0.98079600  0.14856100  0.50000000  1
  Pr  Pr3  1  0.64856100  0.48079600  0.50000000  1
  Pr  Pr4  1  0.52262700  0.02262700  0.16315800  1
  Pr  Pr5  1  0.85946900  0.35946900  0.83684200  1
  Pr  Pr6  1  0.02262700  0.85946900  0.50000000  1
  Pr  Pr7  1  0.35946900  0.52262700  0.50000000  1
  Pr  Pr8  1  0.60590600  0.60590600  0.00000000  1
  Pr  Pr9  1  0.10590600  0.10590600  0.00000000  1
  Pr  Pr10  1  0.39426900  0.39426900  0.00000000  1
  Pr  Pr11  1  0.89426900  0.89426900  0.00000000  1
  Al  Al12  1  0.25028300  0.25028300  0.00000000  1
  Al  Al13  1  0.75028300  0.75028300  0.00000000  1
  Al  Al14  1  0.21133300  0.71133300  0.73709400  1
  Al  Al15  1  0.97424000  0.47424000  0.26290600  1
  Al  Al16  1  0.71133300  0.97424000  0.50000000  1
  Al  Al17  1  0.47424000  0.21133300  0.50000000  1
  Fe  Fe18  1  0.62072200  0.12072200  0.85846000  1
  Fe  Fe19  1  0.26226200  0.76226200  0.14154000  1
  Fe  Fe20  1  0.12072200  0.26226200  0.50000000  1
  Fe  Fe21  1  0.76226200  0.62072200  0.50000000  1
  Fe  Fe22  1  0.37980800  0.87980800  0.14843100  1
  Fe  Fe23  1  0.73137700  0.23137700  0.85156900  1
  Fe  Fe24  1  0.87980800  0.73137700  0.50000000  1
  Fe  Fe25  1  0.23137700  0.37980800  0.50000000  1
  Fe  Fe26  1  0.56748500  0.70985800  0.27919500  1
  Fe  Fe27  1  0.43066200  0.28829000  0.72080500  1
  Fe  Fe28  1  0.06748500  0.78829000  0.85762700  1
  Fe  Fe29  1  0.93066200  0.20985800  0.14237300  1
  Fe  Fe30  1  0.28829000  0.56748500  0.85762700  1
  Fe  Fe31  1  0.70985800  0.43066200  0.14237300  1
  Fe  Fe32  1  0.20985800  0.06748500  0.27919500  1
  Fe  Fe33  1  0.78829000  0.93066200  0.72080500  1
  Fe  Fe34  1  0.49879100  0.99879100  0.50000000  1
  Fe  Fe35  1  0.99879100  0.49879100  0.50000000  1
  Fe  Fe36  1  0.79405000  0.29405000  0.27483900  1
  Fe  Fe37  1  0.01921000  0.51921000  0.72516100  1
  Fe  Fe38  1  0.29405000  0.01921000  0.50000000  1
  Fe  Fe39  1  0.51921000  0.79405000  0.50000000  1
