# generated using pymatgen
data_PNO
_symmetry_space_group_name_H-M   'P 1'
_cell_length_a   7.10074489
_cell_length_b   7.10074489
_cell_length_c   8.64067673
_cell_angle_alpha   54.88974927
_cell_angle_beta   54.88974927
_cell_angle_gamma   39.69423736
_symmetry_Int_Tables_number   1
_chemical_formula_structural   PNO
_chemical_formula_sum   'P6 N6 O6'
_cell_volume   220.17528799
_cell_formula_units_Z   6
loop_
 _symmetry_equiv_pos_site_id
 _symmetry_equiv_pos_as_xyz
  1  'x, y, z'
loop_
 _atom_site_type_symbol
 _atom_site_label
 _atom_site_symmetry_multiplicity
 _atom_site_fract_x
 _atom_site_fract_y
 _atom_site_fract_z
 _atom_site_occupancy
  P  P0  1  0.60374000  0.06149100  0.66700100  1
  P  P1  1  0.91858700  0.41028600  0.83591000  1
  P  P2  1  0.41028600  0.91858700  0.33591000  1
  P  P3  1  0.06149100  0.60374000  0.16700100  1
  P  P4  1  0.02172500  0.97675400  0.75158900  1
  P  P5  1  0.97675400  0.02172500  0.25158900  1
  N  N6  1  0.65411300  0.76259100  0.78410800  1
  N  N7  1  0.76259100  0.65411300  0.28410800  1
  N  N8  1  0.72550000  0.13408600  0.43971900  1
  N  N9  1  0.88300500  0.25863100  0.05739500  1
  N  N10  1  0.25863100  0.88300500  0.55739500  1
  N  N11  1  0.13408600  0.72550000  0.93971900  1
  O  O12  1  0.70128300  0.10788600  0.76429400  1
  O  O13  1  0.91307800  0.28564400  0.73354300  1
  O  O14  1  0.28564400  0.91307800  0.23354300  1
  O  O15  1  0.10788600  0.70128300  0.26429400  1
  O  O16  1  0.24009700  0.34150400  0.71644200  1
  O  O17  1  0.34150400  0.24009700  0.21644200  1
