# generated using pymatgen
data_Rb2YbTi(PO4)3
_symmetry_space_group_name_H-M   'P 1'
_cell_length_a   10.37016800
_cell_length_b   10.37016800
_cell_length_c   10.37016800
_cell_angle_alpha   90.00000000
_cell_angle_beta   90.00000000
_cell_angle_gamma   90.00000000
_symmetry_Int_Tables_number   1
_chemical_formula_structural   Rb2YbTi(PO4)3
_chemical_formula_sum   'Rb8 Yb4 Ti4 P12 O48'
_cell_volume   1115.21185248
_cell_formula_units_Z   4
loop_
 _symmetry_equiv_pos_site_id
 _symmetry_equiv_pos_as_xyz
  1  'x, y, z'
loop_
 _atom_site_type_symbol
 _atom_site_label
 _atom_site_symmetry_multiplicity
 _atom_site_fract_x
 _atom_site_fract_y
 _atom_site_fract_z
 _atom_site_occupancy
  Rb  Rb0  1  0.42321200  0.57678800  0.07678800  1
  Rb  Rb1  1  0.92321200  0.92321200  0.92321200  1
  Rb  Rb2  1  0.07678800  0.42321200  0.57678800  1
  Rb  Rb3  1  0.57678800  0.07678800  0.42321200  1
  Rb  Rb4  1  0.21011100  0.78988900  0.28988900  1
  Rb  Rb5  1  0.71011100  0.71011100  0.71011100  1
  Rb  Rb6  1  0.28988900  0.21011100  0.78988900  1
  Rb  Rb7  1  0.78988900  0.28988900  0.21011100  1
  Yb  Yb8  1  0.58370800  0.91629200  0.08370800  1
  Yb  Yb9  1  0.91629200  0.08370800  0.58370800  1
  Yb  Yb10  1  0.41629200  0.41629200  0.41629200  1
  Yb  Yb11  1  0.08370800  0.58370800  0.91629200  1
  Ti  Ti12  1  0.85647700  0.64352300  0.35647700  1
  Ti  Ti13  1  0.64352300  0.35647700  0.85647700  1
  Ti  Ti14  1  0.14352300  0.14352300  0.14352300  1
  Ti  Ti15  1  0.35647700  0.85647700  0.64352300  1
  P  P16  1  0.54739800  0.74186700  0.38727900  1
  P  P17  1  0.61272100  0.04739800  0.75813300  1
  P  P18  1  0.24186700  0.11272100  0.45260200  1
  P  P19  1  0.04739800  0.75813300  0.61272100  1
  P  P20  1  0.11272100  0.45260200  0.24186700  1
  P  P21  1  0.74186700  0.38727900  0.54739800  1
  P  P22  1  0.45260200  0.24186700  0.11272100  1
  P  P23  1  0.38727900  0.54739800  0.74186700  1
  P  P24  1  0.75813300  0.61272100  0.04739800  1
  P  P25  1  0.95260200  0.25813300  0.88727900  1
  P  P26  1  0.88727900  0.95260200  0.25813300  1
  P  P27  1  0.25813300  0.88727900  0.95260200  1
  O  O28  1  0.48186500  0.79592200  0.51350000  1
  O  O29  1  0.48650000  0.98186500  0.70407800  1
  O  O30  1  0.29592200  0.98650000  0.51813500  1
  O  O31  1  0.98186500  0.70407800  0.48650000  1
  O  O32  1  0.98650000  0.51813500  0.29592200  1
  O  O33  1  0.79592200  0.51350000  0.48186500  1
  O  O34  1  0.51813500  0.29592200  0.98650000  1
  O  O35  1  0.51350000  0.48186500  0.79592200  1
  O  O36  1  0.70407800  0.48650000  0.98186500  1
  O  O37  1  0.01813500  0.20407800  0.01350000  1
  O  O38  1  0.01350000  0.01813500  0.20407800  1
  O  O39  1  0.20407800  0.01350000  0.01813500  1
  O  O40  1  0.52059200  0.83873300  0.27988800  1
  O  O41  1  0.72011200  0.02059200  0.66126700  1
  O  O42  1  0.33873300  0.22011200  0.47940800  1
  O  O43  1  0.02059200  0.66126700  0.72011200  1
  O  O44  1  0.22011200  0.47940800  0.33873300  1
  O  O45  1  0.83873300  0.27988800  0.52059200  1
  O  O46  1  0.47940800  0.33873300  0.22011200  1
  O  O47  1  0.27988800  0.52059200  0.83873300  1
  O  O48  1  0.66126700  0.72011200  0.02059200  1
  O  O49  1  0.97940800  0.16126700  0.77988800  1
  O  O50  1  0.77988800  0.97940800  0.16126700  1
  O  O51  1  0.16126700  0.77988800  0.97940800  1
  O  O52  1  0.49224700  0.61009000  0.35530300  1
  O  O53  1  0.64469700  0.99224700  0.88991000  1
  O  O54  1  0.11008900  0.14469700  0.50775300  1
  O  O55  1  0.99224700  0.88991000  0.64469700  1
  O  O56  1  0.14469700  0.50775300  0.11008900  1
  O  O57  1  0.61009000  0.35530300  0.49224700  1
  O  O58  1  0.50775300  0.11008900  0.14469700  1
  O  O59  1  0.35530300  0.49224700  0.61009000  1
  O  O60  1  0.88991000  0.64469700  0.99224700  1
  O  O61  1  0.00775300  0.38991000  0.85530300  1
  O  O62  1  0.85530300  0.00775300  0.38991000  1
  O  O63  1  0.38991000  0.85530300  0.00775300  1
  O  O64  1  0.69688100  0.73477300  0.41433900  1
  O  O65  1  0.58566100  0.19688100  0.76522700  1
  O  O66  1  0.23477300  0.08566100  0.30311900  1
  O  O67  1  0.19688100  0.76522700  0.58566100  1
  O  O68  1  0.08566100  0.30311900  0.23477300  1
  O  O69  1  0.73477300  0.41433900  0.69688100  1
  O  O70  1  0.30311900  0.23477300  0.08566100  1
  O  O71  1  0.41433900  0.69688100  0.73477300  1
  O  O72  1  0.76522700  0.58566100  0.19688100  1
  O  O73  1  0.80311900  0.26522700  0.91433900  1
  O  O74  1  0.91433900  0.80311900  0.26522700  1
  O  O75  1  0.26522700  0.91433900  0.80311900  1
