# generated using pymatgen
data_Pb3IF5
_symmetry_space_group_name_H-M   'P 1'
_cell_length_a   4.32810451
_cell_length_b   4.32810451
_cell_length_c   22.87699800
_cell_angle_alpha   90.00000000
_cell_angle_beta   90.00000000
_cell_angle_gamma   120.27728607
_symmetry_Int_Tables_number   1
_chemical_formula_structural   Pb3IF5
_chemical_formula_sum   'Pb6 I2 F10'
_cell_volume   370.08789442
_cell_formula_units_Z   2
loop_
 _symmetry_equiv_pos_site_id
 _symmetry_equiv_pos_as_xyz
  1  'x, y, z'
loop_
 _atom_site_type_symbol
 _atom_site_label
 _atom_site_symmetry_multiplicity
 _atom_site_fract_x
 _atom_site_fract_y
 _atom_site_fract_z
 _atom_site_occupancy
  Pb  Pb0  1  0.32463400  0.67536600  0.63513800  1
  Pb  Pb1  1  0.67323000  0.32677000  0.35394300  1
  Pb  Pb2  1  0.32677000  0.67323000  0.85394300  1
  Pb  Pb3  1  0.67536600  0.32463400  0.13513800  1
  Pb  Pb4  1  0.99633400  0.00366600  0.50923600  1
  Pb  Pb5  1  0.00366600  0.99633400  0.00923600  1
  I  I6  1  0.34165500  0.65834500  0.25478500  1
  I  I7  1  0.65834500  0.34165500  0.75478500  1
  F  F8  1  0.33315700  0.66684300  0.52846100  1
  F  F9  1  0.67079500  0.32920500  0.45614200  1
  F  F10  1  0.32920500  0.67079500  0.95614200  1
  F  F11  1  0.66684300  0.33315700  0.02846100  1
  F  F12  1  0.99682800  0.00317200  0.62544500  1
  F  F13  1  0.00590700  0.99409300  0.38074500  1
  F  F14  1  0.99409300  0.00590700  0.88074500  1
  F  F15  1  0.00317200  0.99682800  0.12544500  1
  F  F16  1  0.66745900  0.33254100  0.58610600  1
  F  F17  1  0.33254100  0.66745900  0.08610600  1
