# generated using pymatgen
data_Pr12Si5Se28
_symmetry_space_group_name_H-M   'P 1'
_cell_length_a   10.69982000
_cell_length_b   12.15141707
_cell_length_c   12.29051213
_cell_angle_alpha   119.59501998
_cell_angle_beta   115.79972502
_cell_angle_gamma   89.99405891
_symmetry_Int_Tables_number   1
_chemical_formula_structural   Pr12Si5Se28
_chemical_formula_sum   'Pr12 Si5 Se28'
_cell_volume   1202.97609830
_cell_formula_units_Z   1
loop_
 _symmetry_equiv_pos_site_id
 _symmetry_equiv_pos_as_xyz
  1  'x, y, z'
loop_
 _atom_site_type_symbol
 _atom_site_label
 _atom_site_symmetry_multiplicity
 _atom_site_fract_x
 _atom_site_fract_y
 _atom_site_fract_z
 _atom_site_occupancy
  Pr  Pr0  1  0.12507700  0.30566400  0.34734600  1
  Pr  Pr1  1  0.13031400  0.79627200  0.36560200  1
  Pr  Pr2  1  0.63570400  0.49482200  0.76231500  1
  Pr  Pr3  1  0.65258000  0.02119000  0.77959500  1
  Pr  Pr4  1  0.23229700  0.54916900  0.86923700  1
  Pr  Pr5  1  0.22418500  0.06936500  0.87544400  1
  Pr  Pr6  1  0.86379100  0.69577100  0.63293200  1
  Pr  Pr7  1  0.87897900  0.19173600  0.65444000  1
  Pr  Pr8  1  0.34690000  0.47817200  0.22438800  1
  Pr  Pr9  1  0.36516600  0.99353100  0.23049700  1
  Pr  Pr10  1  0.77692900  0.42637600  0.12247400  1
  Pr  Pr11  1  0.76694100  0.94526000  0.13311500  1
  Si  Si12  1  0.33699500  0.74791900  0.66929100  1
  Si  Si13  1  0.32986800  0.24552700  0.66469900  1
  Si  Si14  1  0.66719800  0.33315700  0.33351400  1
  Si  Si15  1  0.66632400  0.83143500  0.33334000  1
  Si  Si16  1  0.99967600  0.73625000  0.00052700  1
  Se  Se17  1  0.33346600  0.56044600  0.66630700  1
  Se  Se18  1  0.33400400  0.06104600  0.66743300  1
  Se  Se19  1  0.65975200  0.63944400  0.32079100  1
  Se  Se20  1  0.67389500  0.15297000  0.34597400  1
  Se  Se21  1  0.47803200  0.93633800  0.89502700  1
  Se  Se22  1  0.48024100  0.43243600  0.89185800  1
  Se  Se23  1  0.11297500  0.78681300  0.59906400  1
  Se  Se24  1  0.10175600  0.27479300  0.57453900  1
  Se  Se25  1  0.42657200  0.75263000  0.53048600  1
  Se  Se26  1  0.40041300  0.24302100  0.51116800  1
  Se  Se27  1  0.52336500  0.29424400  0.10822200  1
  Se  Se28  1  0.52071900  0.79118500  0.10512200  1
  Se  Se29  1  0.89425200  0.44859700  0.41822900  1
  Se  Se30  1  0.89261800  0.94495500  0.41233300  1
  Se  Se31  1  0.58605400  0.48013200  0.47983400  1
  Se  Se32  1  0.58286500  0.97593200  0.47571700  1
  Se  Se33  1  0.23453200  0.70124800  0.15284300  1
  Se  Se34  1  0.25950000  0.19718000  0.16595700  1
  Se  Se35  1  0.84767000  0.66588200  0.08144300  1
  Se  Se36  1  0.83460900  0.16053100  0.09364000  1
  Se  Se37  1  0.90712400  0.98436500  0.74073700  1
  Se  Se38  1  0.91762700  0.50822200  0.76560000  1
  Se  Se39  1  0.74022000  0.28196000  0.83052800  1
  Se  Se40  1  0.77120200  0.77487500  0.85599000  1
  Se  Se41  1  0.16879700  0.32144700  0.90807600  1
  Se  Se42  1  0.14194000  0.80396800  0.91495600  1
  Se  Se43  1  0.08384800  0.95926800  0.22703300  1
  Se  Se44  1  0.09303000  0.49945800  0.26233500  1
