# generated using pymatgen
data_Pb12BrCl7O8
_symmetry_space_group_name_H-M   'P 1'
_cell_length_a   5.93870500
_cell_length_b   9.79589700
_cell_length_c   12.09774710
_cell_angle_alpha   89.90366829
_cell_angle_beta   90.00000000
_cell_angle_gamma   90.00000000
_symmetry_Int_Tables_number   1
_chemical_formula_structural   Pb12BrCl7O8
_chemical_formula_sum   'Pb12 Br1 Cl7 O8'
_cell_volume   703.78474705
_cell_formula_units_Z   1
loop_
 _symmetry_equiv_pos_site_id
 _symmetry_equiv_pos_as_xyz
  1  'x, y, z'
loop_
 _atom_site_type_symbol
 _atom_site_label
 _atom_site_symmetry_multiplicity
 _atom_site_fract_x
 _atom_site_fract_y
 _atom_site_fract_z
 _atom_site_occupancy
  Pb  Pb0  1  0.50000000  0.29307400  0.93578500  1
  Pb  Pb1  1  0.50000000  0.20701300  0.43808600  1
  Pb  Pb2  1  0.00000000  0.70838500  0.06096500  1
  Pb  Pb3  1  0.00000000  0.79319500  0.56203400  1
  Pb  Pb4  1  0.50000000  0.87279600  0.21799500  1
  Pb  Pb5  1  0.50000000  0.63398800  0.71703400  1
  Pb  Pb6  1  0.00000000  0.13367300  0.78306100  1
  Pb  Pb7  1  0.00000000  0.36639500  0.28353000  1
  Pb  Pb8  1  0.50000000  0.92044700  0.91974900  1
  Pb  Pb9  1  0.50000000  0.57992100  0.42039000  1
  Pb  Pb10  1  0.00000000  0.08055600  0.08034400  1
  Pb  Pb11  1  0.00000000  0.42028900  0.58077400  1
  Br  Br12  1  0.50000000  0.57241700  0.13204200  1
  Cl  Cl13  1  0.50000000  0.19025000  0.19091100  1
  Cl  Cl14  1  0.50000000  0.30829200  0.69010000  1
  Cl  Cl15  1  0.00000000  0.80849500  0.80947500  1
  Cl  Cl16  1  0.00000000  0.69223700  0.30999100  1
  Cl  Cl17  1  0.50000000  0.91648600  0.63481900  1
  Cl  Cl18  1  0.00000000  0.41660100  0.86513800  1
  Cl  Cl19  1  0.00000000  0.08300700  0.36523300  1
  O  O20  1  0.24553200  0.88912200  0.08055100  1
  O  O21  1  0.75527000  0.61261700  0.58044900  1
  O  O22  1  0.74537900  0.11218800  0.91976400  1
  O  O23  1  0.25498400  0.38731400  0.42050700  1
  O  O24  1  0.25462100  0.11218800  0.91976400  1
  O  O25  1  0.74501600  0.38731400  0.42050700  1
  O  O26  1  0.75446800  0.88912200  0.08055100  1
  O  O27  1  0.24473000  0.61261700  0.58044900  1
