# generated using pymatgen
data_Nd4Si5
_symmetry_space_group_name_H-M   'P 1'
_cell_length_a   12.68203521
_cell_length_b   12.68203521
_cell_length_c   3.94827600
_cell_angle_alpha   90.00000000
_cell_angle_beta   90.00000000
_cell_angle_gamma   160.43125696
_symmetry_Int_Tables_number   1
_chemical_formula_structural   Nd4Si5
_chemical_formula_sum   'Nd4 Si5'
_cell_volume   212.69109536
_cell_formula_units_Z   1
loop_
 _symmetry_equiv_pos_site_id
 _symmetry_equiv_pos_as_xyz
  1  'x, y, z'
loop_
 _atom_site_type_symbol
 _atom_site_label
 _atom_site_symmetry_multiplicity
 _atom_site_fract_x
 _atom_site_fract_y
 _atom_site_fract_z
 _atom_site_occupancy
  Nd  Nd0  1  0.42971700  0.57028300  0.50000000  1
  Nd  Nd1  1  0.57000500  0.42999500  0.00000000  1
  Nd  Nd2  1  0.70094100  0.29905900  0.50000000  1
  Nd  Nd3  1  0.29763700  0.70236300  0.00000000  1
  Si  Si4  1  0.82937500  0.17062500  0.50000000  1
  Si  Si5  1  0.17072200  0.82927800  0.00000000  1
  Si  Si6  1  0.11279400  0.88720600  0.50000000  1
  Si  Si7  1  0.88828500  0.11171500  0.00000000  1
  Si  Si8  1  0.01852400  0.98147600  0.50000000  1
