# generated using pymatgen
data_Pr2InCuS5
_symmetry_space_group_name_H-M   'P 1'
_cell_length_a   3.92997900
_cell_length_b   11.57028500
_cell_length_c   16.79560200
_cell_angle_alpha   90.00000000
_cell_angle_beta   90.00000000
_cell_angle_gamma   90.00000000
_symmetry_Int_Tables_number   1
_chemical_formula_structural   Pr2InCuS5
_chemical_formula_sum   'Pr8 In4 Cu4 S20'
_cell_volume   763.71243349
_cell_formula_units_Z   4
loop_
 _symmetry_equiv_pos_site_id
 _symmetry_equiv_pos_as_xyz
  1  'x, y, z'
loop_
 _atom_site_type_symbol
 _atom_site_label
 _atom_site_symmetry_multiplicity
 _atom_site_fract_x
 _atom_site_fract_y
 _atom_site_fract_z
 _atom_site_occupancy
  Pr  Pr0  1  0.25000000  0.13466700  0.40663300  1
  Pr  Pr1  1  0.25000000  0.63466700  0.09336700  1
  Pr  Pr2  1  0.75000000  0.86533300  0.59336700  1
  Pr  Pr3  1  0.75000000  0.36533300  0.90663300  1
  Pr  Pr4  1  0.25000000  0.47788100  0.32094500  1
  Pr  Pr5  1  0.25000000  0.97788100  0.17905500  1
  Pr  Pr6  1  0.75000000  0.52211900  0.67905500  1
  Pr  Pr7  1  0.75000000  0.02211900  0.82094500  1
  In  In8  1  0.25000000  0.19649500  0.64083200  1
  In  In9  1  0.25000000  0.69649500  0.85916800  1
  In  In10  1  0.75000000  0.80350500  0.35916800  1
  In  In11  1  0.75000000  0.30350500  0.14083200  1
  Cu  Cu12  1  0.25000000  0.58714100  0.49797800  1
  Cu  Cu13  1  0.25000000  0.08714100  0.00202200  1
  Cu  Cu14  1  0.75000000  0.41285900  0.50202200  1
  Cu  Cu15  1  0.75000000  0.91285900  0.99797800  1
  S  S16  1  0.25000000  0.68330600  0.61533600  1
  S  S17  1  0.25000000  0.18330600  0.88466400  1
  S  S18  1  0.75000000  0.31669400  0.38466400  1
  S  S19  1  0.75000000  0.81669400  0.11533600  1
  S  S20  1  0.25000000  0.40133300  0.57584600  1
  S  S21  1  0.25000000  0.90133300  0.92415400  1
  S  S22  1  0.75000000  0.59866700  0.42415400  1
  S  S23  1  0.75000000  0.09866700  0.07584600  1
  S  S24  1  0.25000000  0.48813700  0.80603000  1
  S  S25  1  0.25000000  0.98813700  0.69397000  1
  S  S26  1  0.75000000  0.51186300  0.19397000  1
  S  S27  1  0.75000000  0.01186300  0.30603000  1
  S  S28  1  0.25000000  0.88715100  0.46224700  1
  S  S29  1  0.25000000  0.38715100  0.03775300  1
  S  S30  1  0.75000000  0.11284900  0.53775300  1
  S  S31  1  0.75000000  0.61284900  0.96224700  1
  S  S32  1  0.25000000  0.73645900  0.26968500  1
  S  S33  1  0.25000000  0.23645900  0.23031500  1
  S  S34  1  0.75000000  0.26354100  0.73031500  1
  S  S35  1  0.75000000  0.76354100  0.76968500  1
