# generated using pymatgen
data_Pr3(Ni9Ge4)4
_symmetry_space_group_name_H-M   'P 1'
_cell_length_a   8.32693300
_cell_length_b   8.32693300
_cell_length_c   11.11222400
_cell_angle_alpha   90.00000000
_cell_angle_beta   90.00000000
_cell_angle_gamma   90.00000000
_symmetry_Int_Tables_number   1
_chemical_formula_structural   Pr3(Ni9Ge4)4
_chemical_formula_sum   'Pr3 Ni36 Ge16'
_cell_volume   770.49731180
_cell_formula_units_Z   1
loop_
 _symmetry_equiv_pos_site_id
 _symmetry_equiv_pos_as_xyz
  1  'x, y, z'
loop_
 _atom_site_type_symbol
 _atom_site_label
 _atom_site_symmetry_multiplicity
 _atom_site_fract_x
 _atom_site_fract_y
 _atom_site_fract_z
 _atom_site_occupancy
  Pr  Pr0  1  0.00000000  0.00000000  0.50000000  1
  Pr  Pr1  1  0.00000000  0.00000000  0.00000000  1
  Pr  Pr2  1  0.50000000  0.50000000  0.50000000  1
  Ni  Ni3  1  0.31542800  0.81922900  0.13132800  1
  Ni  Ni4  1  0.81734400  0.31761300  0.63104400  1
  Ni  Ni5  1  0.68457200  0.18077100  0.13132800  1
  Ni  Ni6  1  0.18265600  0.68238700  0.63104400  1
  Ni  Ni7  1  0.18077100  0.31542800  0.13132800  1
  Ni  Ni8  1  0.68238700  0.81734400  0.63104400  1
  Ni  Ni9  1  0.81922900  0.68457200  0.13132800  1
  Ni  Ni10  1  0.31761300  0.18265600  0.63104400  1
  Ni  Ni11  1  0.18077100  0.68457200  0.86867200  1
  Ni  Ni12  1  0.68238700  0.18265600  0.36895600  1
  Ni  Ni13  1  0.81922900  0.31542800  0.86867200  1
  Ni  Ni14  1  0.31761300  0.81734400  0.36895600  1
  Ni  Ni15  1  0.31542800  0.18077100  0.86867200  1
  Ni  Ni16  1  0.81734400  0.68238700  0.36895600  1
  Ni  Ni17  1  0.68457200  0.81922900  0.86867200  1
  Ni  Ni18  1  0.18265600  0.31761300  0.36895600  1
  Ni  Ni19  1  0.00000000  0.50000000  0.25017000  1
  Ni  Ni20  1  0.50000000  0.00000000  0.74983000  1
  Ni  Ni21  1  0.50000000  0.00000000  0.25017000  1
  Ni  Ni22  1  0.00000000  0.50000000  0.74983000  1
  Ni  Ni23  1  0.11203700  0.61498700  0.07031000  1
  Ni  Ni24  1  0.61306100  0.11530100  0.57097300  1
  Ni  Ni25  1  0.88796300  0.38501300  0.07031000  1
  Ni  Ni26  1  0.38693900  0.88469900  0.57097300  1
  Ni  Ni27  1  0.38501300  0.11203700  0.07031000  1
  Ni  Ni28  1  0.88469900  0.61306100  0.57097300  1
  Ni  Ni29  1  0.61498700  0.88796300  0.07031000  1
  Ni  Ni30  1  0.11530100  0.38693900  0.57097300  1
  Ni  Ni31  1  0.38501300  0.88796300  0.92969000  1
  Ni  Ni32  1  0.88469900  0.38693900  0.42902700  1
  Ni  Ni33  1  0.61498700  0.11203700  0.92969000  1
  Ni  Ni34  1  0.11530100  0.61306100  0.42902700  1
  Ni  Ni35  1  0.11203700  0.38501300  0.92969000  1
  Ni  Ni36  1  0.61306100  0.88469900  0.42902700  1
  Ni  Ni37  1  0.88796300  0.61498700  0.92969000  1
  Ni  Ni38  1  0.38693900  0.11530100  0.42902700  1
  Ge  Ge39  1  0.55504700  0.71555900  0.24514500  1
  Ge  Ge40  1  0.05601100  0.21772400  0.74917000  1
  Ge  Ge41  1  0.44495300  0.28444100  0.24514500  1
  Ge  Ge42  1  0.94398900  0.78227600  0.74917000  1
  Ge  Ge43  1  0.94398900  0.21772400  0.25083000  1
  Ge  Ge44  1  0.44495300  0.71555900  0.75485500  1
  Ge  Ge45  1  0.55504700  0.28444100  0.75485500  1
  Ge  Ge46  1  0.05601100  0.78227600  0.25083000  1
  Ge  Ge47  1  0.71555900  0.44495300  0.24514500  1
  Ge  Ge48  1  0.21772400  0.94398900  0.74917000  1
  Ge  Ge49  1  0.78227600  0.05601100  0.74917000  1
  Ge  Ge50  1  0.28444100  0.55504700  0.24514500  1
  Ge  Ge51  1  0.71555900  0.55504700  0.75485500  1
  Ge  Ge52  1  0.21772400  0.05601100  0.25083000  1
  Ge  Ge53  1  0.78227600  0.94398900  0.25083000  1
  Ge  Ge54  1  0.28444100  0.44495300  0.75485500  1
