# generated using pymatgen
data_NdY3(Mo4O15)2
_symmetry_space_group_name_H-M   'P 1'
_cell_length_a   6.95908700
_cell_length_b   9.80008964
_cell_length_c   10.80074631
_cell_angle_alpha   89.95930357
_cell_angle_beta   74.52268438
_cell_angle_gamma   89.93854206
_symmetry_Int_Tables_number   1
_chemical_formula_structural   NdY3(Mo4O15)2
_chemical_formula_sum   'Nd1 Y3 Mo8 O30'
_cell_volume   709.89472901
_cell_formula_units_Z   1
loop_
 _symmetry_equiv_pos_site_id
 _symmetry_equiv_pos_as_xyz
  1  'x, y, z'
loop_
 _atom_site_type_symbol
 _atom_site_label
 _atom_site_symmetry_multiplicity
 _atom_site_fract_x
 _atom_site_fract_y
 _atom_site_fract_z
 _atom_site_occupancy
  Nd  Nd0  1  0.21326900  0.97679500  0.72175500  1
  Y  Y1  1  0.79097700  0.47730200  0.77629700  1
  Y  Y2  1  0.79077500  0.02291500  0.27587900  1
  Y  Y3  1  0.21024300  0.52382500  0.22364500  1
  Mo  Mo4  1  0.08025500  0.25847000  0.99047300  1
  Mo  Mo5  1  0.91617700  0.75481100  0.50899300  1
  Mo  Mo6  1  0.91660400  0.74082700  0.01332200  1
  Mo  Mo7  1  0.07846900  0.24597900  0.48660500  1
  Mo  Mo8  1  0.61827600  0.09801100  0.84622500  1
  Mo  Mo9  1  0.38113800  0.59203300  0.65568400  1
  Mo  Mo10  1  0.38050400  0.90424400  0.15612500  1
  Mo  Mo11  1  0.61955600  0.40402300  0.34359800  1
  O  O12  1  0.97525700  0.37323900  0.89827600  1
  O  O13  1  0.01947100  0.87221800  0.59894100  1
  O  O14  1  0.02245700  0.62502400  0.10396600  1
  O  O15  1  0.97421700  0.12680200  0.39733600  1
  O  O16  1  0.61268700  0.27863400  0.85233000  1
  O  O17  1  0.39362600  0.77236400  0.64504800  1
  O  O18  1  0.38738800  0.72348200  0.14833200  1
  O  O19  1  0.61258400  0.22310100  0.35145700  1
  O  O20  1  0.87442400  0.05885000  0.81942600  1
  O  O21  1  0.12316200  0.55608100  0.68513200  1
  O  O22  1  0.12352400  0.94353800  0.18529100  1
  O  O23  1  0.87629900  0.44299300  0.31541000  1
  O  O24  1  0.21791300  0.35003700  0.08181500  1
  O  O25  1  0.77838600  0.84774300  0.41791200  1
  O  O26  1  0.78028100  0.65077000  0.91954700  1
  O  O27  1  0.22201700  0.15757900  0.57591500  1
  O  O28  1  0.55891700  0.02994200  0.70845300  1
  O  O29  1  0.45064400  0.52620000  0.79079600  1
  O  O30  1  0.45044500  0.97242600  0.29048200  1
  O  O31  1  0.55010900  0.47242300  0.20940000  1
  O  O32  1  0.24694400  0.13939300  0.88506100  1
  O  O33  1  0.75751900  0.63458200  0.61777200  1
  O  O34  1  0.75670400  0.86363900  0.11904300  1
  O  O35  1  0.24143400  0.36547700  0.37990300  1
  O  O36  1  0.88465800  0.16666200  0.10127200  1
  O  O37  1  0.11481700  0.66568800  0.39838300  1
  O  O38  1  0.11540900  0.82967400  0.90398900  1
  O  O39  1  0.88345600  0.33461300  0.60060100  1
  O  O40  1  0.49892900  0.99933300  0.00046500  1
  O  O41  1  0.50007900  0.49825800  0.49964600  1
