# generated using pymatgen
data_Nd3Ti4O12
_symmetry_space_group_name_H-M   'P 1'
_cell_length_a   5.52245454
_cell_length_b   5.52245454
_cell_length_c   7.75256700
_cell_angle_alpha   90.00000000
_cell_angle_beta   90.00000000
_cell_angle_gamma   91.09583580
_symmetry_Int_Tables_number   1
_chemical_formula_structural   Nd3Ti4O12
_chemical_formula_sum   'Nd3 Ti4 O12'
_cell_volume   236.39070157
_cell_formula_units_Z   1
loop_
 _symmetry_equiv_pos_site_id
 _symmetry_equiv_pos_as_xyz
  1  'x, y, z'
loop_
 _atom_site_type_symbol
 _atom_site_label
 _atom_site_symmetry_multiplicity
 _atom_site_fract_x
 _atom_site_fract_y
 _atom_site_fract_z
 _atom_site_occupancy
  Nd  Nd0  1  0.25831700  0.74168300  0.00000000  1
  Nd  Nd1  1  0.75002700  0.24997300  0.00000000  1
  Nd  Nd2  1  0.25380300  0.74619700  0.50000000  1
  Ti  Ti3  1  0.25146900  0.24855800  0.74299300  1
  Ti  Ti4  1  0.75144200  0.74853100  0.74299300  1
  Ti  Ti5  1  0.75144200  0.74853100  0.25700700  1
  Ti  Ti6  1  0.25146900  0.24855800  0.25700700  1
  O  O7  1  0.49023600  0.99148100  0.76489200  1
  O  O8  1  0.00851900  0.50976400  0.23510800  1
  O  O9  1  0.49023600  0.99148100  0.23510800  1
  O  O10  1  0.00851900  0.50976400  0.76489200  1
  O  O11  1  0.48334700  0.51665300  0.70999800  1
  O  O12  1  0.48334700  0.51665300  0.29000200  1
  O  O13  1  0.21397000  0.19291900  0.50000000  1
  O  O14  1  0.80708100  0.78603000  0.50000000  1
  O  O15  1  0.99850300  0.00149700  0.80990400  1
  O  O16  1  0.99850300  0.00149700  0.19009600  1
  O  O17  1  0.30933500  0.30056500  0.00000000  1
  O  O18  1  0.69943500  0.69066500  0.00000000  1
