# generated using pymatgen
data_NbVRe
_symmetry_space_group_name_H-M   'P 1'
_cell_length_a   6.95639672
_cell_length_b   6.76042459
_cell_length_c   2.75612451
_cell_angle_alpha   82.43171309
_cell_angle_beta   74.44265568
_cell_angle_gamma   23.12563123
_symmetry_Int_Tables_number   1
_chemical_formula_structural   NbVRe
_chemical_formula_sum   'Nb1 V1 Re1'
_cell_volume   46.72342446
_cell_formula_units_Z   1
loop_
 _symmetry_equiv_pos_site_id
 _symmetry_equiv_pos_as_xyz
  1  'x, y, z'
loop_
 _atom_site_type_symbol
 _atom_site_label
 _atom_site_symmetry_multiplicity
 _atom_site_fract_x
 _atom_site_fract_y
 _atom_site_fract_z
 _atom_site_occupancy
  Nb  Nb0  1  0.00104900  0.00104900  0.99895100  1
  V  V1  1  0.67270200  0.67270200  0.32729800  1
  Re  Re2  1  0.32624900  0.32624900  0.67375100  1
