# generated using pymatgen
data_Nb5(SeS)2
_symmetry_space_group_name_H-M   'P 1'
_cell_length_a   7.10327425
_cell_length_b   7.10327425
_cell_length_c   9.72785428
_cell_angle_alpha   48.23659214
_cell_angle_beta   48.23659214
_cell_angle_gamma   27.50747244
_symmetry_Int_Tables_number   1
_chemical_formula_structural   Nb5(SeS)2
_chemical_formula_sum   'Nb5 Se2 S2'
_cell_volume   165.00638670
_cell_formula_units_Z   1
loop_
 _symmetry_equiv_pos_site_id
 _symmetry_equiv_pos_as_xyz
  1  'x, y, z'
loop_
 _atom_site_type_symbol
 _atom_site_label
 _atom_site_symmetry_multiplicity
 _atom_site_fract_x
 _atom_site_fract_y
 _atom_site_fract_z
 _atom_site_occupancy
  Nb  Nb0  1  0.00000000  0.00000000  0.00000000  1
  Nb  Nb1  1  0.37207400  0.37207400  0.92573100  1
  Nb  Nb2  1  0.62792600  0.62792600  0.07426900  1
  Nb  Nb3  1  0.69891300  0.69891300  0.67874500  1
  Nb  Nb4  1  0.30108700  0.30108700  0.32125500  1
  Se  Se5  1  0.94363200  0.94363200  0.34491400  1
  Se  Se6  1  0.05636800  0.05636800  0.65508600  1
  S  S7  1  0.26611500  0.26611500  0.79612000  1
  S  S8  1  0.73388500  0.73388500  0.20388000  1
