# generated using pymatgen
data_Nd2NbGaO7
_symmetry_space_group_name_H-M   'P 1'
_cell_length_a   7.44451157
_cell_length_b   7.44451157
_cell_length_c   7.44451157
_cell_angle_alpha   120.84688899
_cell_angle_beta   119.34750207
_cell_angle_gamma   89.83665376
_symmetry_Int_Tables_number   1
_chemical_formula_structural   Nd2NbGaO7
_chemical_formula_sum   'Nd4 Nb2 Ga2 O14'
_cell_volume   291.24597812
_cell_formula_units_Z   2
loop_
 _symmetry_equiv_pos_site_id
 _symmetry_equiv_pos_as_xyz
  1  'x, y, z'
loop_
 _atom_site_type_symbol
 _atom_site_label
 _atom_site_symmetry_multiplicity
 _atom_site_fract_x
 _atom_site_fract_y
 _atom_site_fract_z
 _atom_site_occupancy
  Nd  Nd0  1  0.50000000  0.50000000  0.50000000  1
  Nd  Nd1  1  0.50000000  0.00000000  0.00000000  1
  Nd  Nd2  1  0.50000000  0.50000000  0.00000000  1
  Nd  Nd3  1  0.00000000  0.50000000  0.50000000  1
  Nb  Nb4  1  0.00000000  0.00000000  0.00000000  1
  Nb  Nb5  1  0.50000000  0.00000000  0.50000000  1
  Ga  Ga6  1  0.00000000  0.00000000  0.50000000  1
  Ga  Ga7  1  0.00000000  0.50000000  0.00000000  1
  O  O8  1  0.32798400  0.07798400  0.25000000  1
  O  O9  1  0.92089700  0.67089700  0.25000000  1
  O  O10  1  0.33052300  0.67489100  0.25368700  1
  O  O11  1  0.92120500  0.07683700  0.24631300  1
  O  O12  1  0.33052300  0.07683700  0.65563200  1
  O  O13  1  0.92120500  0.67489100  0.84436800  1
  O  O14  1  0.67201600  0.92201600  0.75000000  1
  O  O15  1  0.07910300  0.32910300  0.75000000  1
  O  O16  1  0.66947700  0.32510900  0.74631300  1
  O  O17  1  0.07879500  0.92316300  0.75368700  1
  O  O18  1  0.66947700  0.92316300  0.34436800  1
  O  O19  1  0.07879500  0.32510900  0.15563200  1
  O  O20  1  0.37601400  0.62601400  0.75000000  1
  O  O21  1  0.62398600  0.37398600  0.25000000  1
