# generated using pymatgen
data_NbNi3
_symmetry_space_group_name_H-M   'P 1'
_cell_length_a   2.69430307
_cell_length_b   2.69159400
_cell_length_c   8.30575300
_cell_angle_alpha   90.00000000
_cell_angle_beta   90.00000000
_cell_angle_gamma   60.03328004
_symmetry_Int_Tables_number   1
_chemical_formula_structural   NbNi3
_chemical_formula_sum   'Nb1 Ni3'
_cell_volume   52.18085429
_cell_formula_units_Z   1
loop_
 _symmetry_equiv_pos_site_id
 _symmetry_equiv_pos_as_xyz
  1  'x, y, z'
loop_
 _atom_site_type_symbol
 _atom_site_label
 _atom_site_symmetry_multiplicity
 _atom_site_fract_x
 _atom_site_fract_y
 _atom_site_fract_z
 _atom_site_occupancy
  Nb  Nb0  1  0.33333100  0.33333400  0.37500000  1
  Ni  Ni1  1  0.33333800  0.33333100  0.87500000  1
  Ni  Ni2  1  0.66666500  0.66666700  0.11091000  1
  Ni  Ni3  1  0.66666500  0.66666700  0.63909000  1
