# generated using pymatgen
data_In2Co(SO)2
_symmetry_space_group_name_H-M   'P 1'
_cell_length_a   9.00011545
_cell_length_b   9.00011545
_cell_length_c   9.00011545
_cell_angle_alpha   154.67129847
_cell_angle_beta   154.67129847
_cell_angle_gamma   36.12461194
_symmetry_Int_Tables_number   1
_chemical_formula_structural   In2Co(SO)2
_chemical_formula_sum   'In2 Co1 S2 O2'
_cell_volume   133.25796983
_cell_formula_units_Z   1
loop_
 _symmetry_equiv_pos_site_id
 _symmetry_equiv_pos_as_xyz
  1  'x, y, z'
loop_
 _atom_site_type_symbol
 _atom_site_label
 _atom_site_symmetry_multiplicity
 _atom_site_fract_x
 _atom_site_fract_y
 _atom_site_fract_z
 _atom_site_occupancy
  In  In0  1  0.25000000  0.75000000  0.50000000  1
  In  In1  1  0.75000000  0.25000000  0.50000000  1
  Co  Co2  1  0.00000000  0.00000000  0.00000000  1
  S  S3  1  0.86547000  0.86547000  0.00000000  1
  S  S4  1  0.13453000  0.13453000  0.00000000  1
  O  O5  1  0.00000000  0.50000000  0.50000000  1
  O  O6  1  0.50000000  0.00000000  0.50000000  1
