# generated using pymatgen
data_NbMoN2
_symmetry_space_group_name_H-M   'P 1'
_cell_length_a   5.32156257
_cell_length_b   5.32156257
_cell_length_c   5.32156324
_cell_angle_alpha   34.33371161
_cell_angle_beta   34.33371161
_cell_angle_gamma   34.33371374
_symmetry_Int_Tables_number   1
_chemical_formula_structural   NbMoN2
_chemical_formula_sum   'Nb1 Mo1 N2'
_cell_volume   42.75604946
_cell_formula_units_Z   1
loop_
 _symmetry_equiv_pos_site_id
 _symmetry_equiv_pos_as_xyz
  1  'x, y, z'
loop_
 _atom_site_type_symbol
 _atom_site_label
 _atom_site_symmetry_multiplicity
 _atom_site_fract_x
 _atom_site_fract_y
 _atom_site_fract_z
 _atom_site_occupancy
  Nb  Nb0  1  0.50000000  0.50000000  0.50000000  1
  Mo  Mo1  1  0.00000000  0.00000000  0.00000000  1
  N  N2  1  0.25099100  0.25099100  0.25099100  1
  N  N3  1  0.74900900  0.74900900  0.74900900  1
