# generated using pymatgen
data_Nb6TlSe8
_symmetry_space_group_name_H-M   'P 1'
_cell_length_a   10.21363802
_cell_length_b   10.21363802
_cell_length_c   3.50300700
_cell_angle_alpha   90.00000000
_cell_angle_beta   90.00000000
_cell_angle_gamma   120.00000015
_symmetry_Int_Tables_number   1
_chemical_formula_structural   Nb6TlSe8
_chemical_formula_sum   'Nb6 Tl1 Se8'
_cell_volume   316.47000983
_cell_formula_units_Z   1
loop_
 _symmetry_equiv_pos_site_id
 _symmetry_equiv_pos_as_xyz
  1  'x, y, z'
loop_
 _atom_site_type_symbol
 _atom_site_label
 _atom_site_symmetry_multiplicity
 _atom_site_fract_x
 _atom_site_fract_y
 _atom_site_fract_z
 _atom_site_occupancy
  Nb  Nb0  1  0.10628600  0.61859000  0.25106800  1
  Nb  Nb1  1  0.51230400  0.89371400  0.25106800  1
  Nb  Nb2  1  0.38141000  0.48769600  0.25106800  1
  Nb  Nb3  1  0.89371400  0.38141000  0.74893200  1
  Nb  Nb4  1  0.48769600  0.10628600  0.74893200  1
  Nb  Nb5  1  0.61859000  0.51230400  0.74893200  1
  Tl  Tl6  1  0.00000000  0.00000000  0.50000000  1
  Se  Se7  1  0.28137400  0.94002100  0.24721300  1
  Se  Se8  1  0.65864700  0.71862600  0.24721300  1
  Se  Se9  1  0.05997900  0.34135300  0.24721300  1
  Se  Se10  1  0.71862600  0.05997900  0.75278700  1
  Se  Se11  1  0.34135300  0.28137400  0.75278700  1
  Se  Se12  1  0.94002100  0.65864700  0.75278700  1
  Se  Se13  1  0.66666700  0.33333300  0.24982000  1
  Se  Se14  1  0.33333300  0.66666700  0.75018000  1
