# generated using pymatgen
data_Nb6ZnS8
_symmetry_space_group_name_H-M   'P 1'
_cell_length_a   9.67927522
_cell_length_b   9.67927522
_cell_length_c   3.38883200
_cell_angle_alpha   90.00000000
_cell_angle_beta   90.00000000
_cell_angle_gamma   119.99999464
_symmetry_Int_Tables_number   1
_chemical_formula_structural   Nb6ZnS8
_chemical_formula_sum   'Nb6 Zn1 S8'
_cell_volume   274.95800726
_cell_formula_units_Z   1
loop_
 _symmetry_equiv_pos_site_id
 _symmetry_equiv_pos_as_xyz
  1  'x, y, z'
loop_
 _atom_site_type_symbol
 _atom_site_label
 _atom_site_symmetry_multiplicity
 _atom_site_fract_x
 _atom_site_fract_y
 _atom_site_fract_z
 _atom_site_occupancy
  Nb  Nb0  1  0.11458700  0.62819100  0.24957100  1
  Nb  Nb1  1  0.51360300  0.88541300  0.24957100  1
  Nb  Nb2  1  0.37180900  0.48639700  0.24957100  1
  Nb  Nb3  1  0.88541300  0.37180900  0.75042900  1
  Nb  Nb4  1  0.48639700  0.11458700  0.75042900  1
  Nb  Nb5  1  0.62819100  0.51360300  0.75042900  1
  Zn  Zn6  1  0.00000000  0.00000000  0.50000000  1
  S  S7  1  0.66666700  0.33333300  0.24995000  1
  S  S8  1  0.33333300  0.66666700  0.75005000  1
  S  S9  1  0.28767700  0.94313500  0.25073400  1
  S  S10  1  0.65545800  0.71232300  0.25073400  1
  S  S11  1  0.05686500  0.34454200  0.25073400  1
  S  S12  1  0.71232300  0.05686500  0.74926600  1
  S  S13  1  0.34454200  0.28767700  0.74926600  1
  S  S14  1  0.94313500  0.65545800  0.74926600  1
