# generated using pymatgen
data_Nb3WSe8
_symmetry_space_group_name_H-M   'P 1'
_cell_length_a   6.94442549
_cell_length_b   6.94442549
_cell_length_c   11.96121144
_cell_angle_alpha   81.71406059
_cell_angle_beta   81.71406059
_cell_angle_gamma   28.71977585
_symmetry_Int_Tables_number   1
_chemical_formula_structural   Nb3WSe8
_chemical_formula_sum   'Nb3 W1 Se8'
_cell_volume   274.09776387
_cell_formula_units_Z   1
loop_
 _symmetry_equiv_pos_site_id
 _symmetry_equiv_pos_as_xyz
  1  'x, y, z'
loop_
 _atom_site_type_symbol
 _atom_site_label
 _atom_site_symmetry_multiplicity
 _atom_site_fract_x
 _atom_site_fract_y
 _atom_site_fract_z
 _atom_site_occupancy
  Nb  Nb0  1  0.99987500  0.99987500  0.99816300  1
  Nb  Nb1  1  0.50000800  0.50000800  0.24978800  1
  Nb  Nb2  1  0.99994400  0.99994400  0.50337400  1
  W  W3  1  0.49985700  0.49985700  0.74914900  1
  Se  Se4  1  0.62633500  0.62633500  0.56517700  1
  Se  Se5  1  0.12470800  0.12470800  0.80938800  1
  Se  Se6  1  0.62740600  0.62740600  0.06158000  1
  Se  Se7  1  0.12720900  0.12720900  0.31263200  1
  Se  Se8  1  0.87238300  0.87238300  0.35513900  1
  Se  Se9  1  0.37321700  0.37321700  0.60734400  1
  Se  Se10  1  0.87488600  0.87488600  0.85103400  1
  Se  Se11  1  0.37217100  0.37217100  0.10423100  1
