# generated using pymatgen
data_Nb4C3
_symmetry_space_group_name_H-M   'P 1'
_cell_length_a   10.44535665
_cell_length_b   10.44535665
_cell_length_c   10.44535695
_cell_angle_alpha   17.38739157
_cell_angle_beta   17.38739157
_cell_angle_gamma   17.38739008
_symmetry_Int_Tables_number   1
_chemical_formula_structural   Nb4C3
_chemical_formula_sum   'Nb4 C3'
_cell_volume   88.81183326
_cell_formula_units_Z   1
loop_
 _symmetry_equiv_pos_site_id
 _symmetry_equiv_pos_as_xyz
  1  'x, y, z'
loop_
 _atom_site_type_symbol
 _atom_site_label
 _atom_site_symmetry_multiplicity
 _atom_site_fract_x
 _atom_site_fract_y
 _atom_site_fract_z
 _atom_site_occupancy
  Nb  Nb0  1  0.62304500  0.62304500  0.62304500  1
  Nb  Nb1  1  0.37695500  0.37695500  0.37695500  1
  Nb  Nb2  1  0.87575900  0.87575900  0.87575900  1
  Nb  Nb3  1  0.12424100  0.12424100  0.12424100  1
  C  C4  1  0.75257400  0.75257400  0.75257400  1
  C  C5  1  0.00000000  0.00000000  0.00000000  1
  C  C6  1  0.24742600  0.24742600  0.24742600  1
