# generated using pymatgen
data_Nd2MnCrO6
_symmetry_space_group_name_H-M   'P 1'
_cell_length_a   5.77534200
_cell_length_b   5.53672300
_cell_length_c   9.40742946
_cell_angle_alpha   54.36610440
_cell_angle_beta   90.00000000
_cell_angle_gamma   90.00000000
_symmetry_Int_Tables_number   1
_chemical_formula_structural   Nd2MnCrO6
_chemical_formula_sum   'Nd4 Mn2 Cr2 O12'
_cell_volume   244.49038634
_cell_formula_units_Z   2
loop_
 _symmetry_equiv_pos_site_id
 _symmetry_equiv_pos_as_xyz
  1  'x, y, z'
loop_
 _atom_site_type_symbol
 _atom_site_label
 _atom_site_symmetry_multiplicity
 _atom_site_fract_x
 _atom_site_fract_y
 _atom_site_fract_z
 _atom_site_occupancy
  Nd  Nd0  1  0.56062100  0.73533800  0.75023600  1
  Nd  Nd1  1  0.06062100  0.26466200  0.74976400  1
  Nd  Nd2  1  0.43937900  0.26466200  0.24976400  1
  Nd  Nd3  1  0.93937900  0.73533800  0.25023600  1
  Mn  Mn4  1  0.50000000  0.00000000  0.00000000  1
  Mn  Mn5  1  0.00000000  0.00000000  0.50000000  1
  Cr  Cr6  1  0.50000000  0.50000000  0.50000000  1
  Cr  Cr7  1  0.00000000  0.50000000  0.00000000  1
  O  O8  1  0.80502500  0.25761300  0.95010600  1
  O  O9  1  0.30502500  0.74238700  0.54989400  1
  O  O10  1  0.20487400  0.34807300  0.45300300  1
  O  O11  1  0.70487400  0.65192700  0.04699700  1
  O  O12  1  0.19497500  0.74238700  0.04989400  1
  O  O13  1  0.69497500  0.25761300  0.45010600  1
  O  O14  1  0.79512600  0.65192700  0.54699700  1
  O  O15  1  0.29512600  0.34807300  0.95300300  1
  O  O16  1  0.97208200  0.84997900  0.74399300  1
  O  O17  1  0.47208200  0.15002100  0.75600700  1
  O  O18  1  0.02791800  0.15002100  0.25600700  1
  O  O19  1  0.52791800  0.84997900  0.24399300  1
