# generated using pymatgen
data_Nd2NbInO7
_symmetry_space_group_name_H-M   'P 1'
_cell_length_a   7.59639976
_cell_length_b   7.59639976
_cell_length_c   7.59639976
_cell_angle_alpha   120.94938802
_cell_angle_beta   119.16585328
_cell_angle_gamma   89.90717887
_symmetry_Int_Tables_number   1
_chemical_formula_structural   Nd2NbInO7
_chemical_formula_sum   'Nd4 Nb2 In2 O14'
_cell_volume   309.59761917
_cell_formula_units_Z   2
loop_
 _symmetry_equiv_pos_site_id
 _symmetry_equiv_pos_as_xyz
  1  'x, y, z'
loop_
 _atom_site_type_symbol
 _atom_site_label
 _atom_site_symmetry_multiplicity
 _atom_site_fract_x
 _atom_site_fract_y
 _atom_site_fract_z
 _atom_site_occupancy
  Nd  Nd0  1  0.50000000  0.50000000  0.50000000  1
  Nd  Nd1  1  0.50000000  0.00000000  0.00000000  1
  Nd  Nd2  1  0.50000000  0.50000000  0.00000000  1
  Nd  Nd3  1  0.00000000  0.50000000  0.50000000  1
  Nb  Nb4  1  0.00000000  0.00000000  0.00000000  1
  Nb  Nb5  1  0.50000000  0.00000000  0.50000000  1
  In  In6  1  0.00000000  0.00000000  0.50000000  1
  In  In7  1  0.00000000  0.50000000  0.00000000  1
  O  O8  1  0.31118400  0.06118400  0.25000000  1
  O  O9  1  0.89900500  0.64900500  0.25000000  1
  O  O10  1  0.34795000  0.67725400  0.27369200  1
  O  O11  1  0.90356200  0.07425800  0.22630800  1
  O  O12  1  0.34795000  0.07425800  0.67069600  1
  O  O13  1  0.90356200  0.67725400  0.82930400  1
  O  O14  1  0.68881600  0.93881600  0.75000000  1
  O  O15  1  0.10099500  0.35099500  0.75000000  1
  O  O16  1  0.65205000  0.32274600  0.72630800  1
  O  O17  1  0.09643800  0.92574200  0.77369200  1
  O  O18  1  0.65205000  0.92574200  0.32930400  1
  O  O19  1  0.09643800  0.32274600  0.17069600  1
  O  O20  1  0.37738300  0.62738300  0.75000000  1
  O  O21  1  0.62261700  0.37261700  0.25000000  1
