# generated using pymatgen
data_Nb3SnH2
_symmetry_space_group_name_H-M   'P 1'
_cell_length_a   5.45698127
_cell_length_b   5.45698127
_cell_length_c   5.46481400
_cell_angle_alpha   90.00000000
_cell_angle_beta   90.00000000
_cell_angle_gamma   90.20139151
_symmetry_Int_Tables_number   1
_chemical_formula_structural   Nb3SnH2
_chemical_formula_sum   'Nb6 Sn2 H4'
_cell_volume   162.73374839
_cell_formula_units_Z   2
loop_
 _symmetry_equiv_pos_site_id
 _symmetry_equiv_pos_as_xyz
  1  'x, y, z'
loop_
 _atom_site_type_symbol
 _atom_site_label
 _atom_site_symmetry_multiplicity
 _atom_site_fract_x
 _atom_site_fract_y
 _atom_site_fract_z
 _atom_site_occupancy
  Nb  Nb0  1  0.74604100  0.99316900  0.75000000  1
  Nb  Nb1  1  0.99316900  0.74604100  0.25000000  1
  Nb  Nb2  1  0.50627300  0.50627300  0.50000000  1
  Nb  Nb3  1  0.25257500  0.99430800  0.75000000  1
  Nb  Nb4  1  0.99430800  0.25257500  0.25000000  1
  Nb  Nb5  1  0.50627300  0.50627300  0.00000000  1
  Sn  Sn6  1  0.50124600  0.99913400  0.25000000  1
  Sn  Sn7  1  0.99913400  0.50124600  0.75000000  1
  H  H8  1  0.99969500  0.99969500  0.50000000  1
  H  H9  1  0.25130900  0.50028100  0.25000000  1
  H  H10  1  0.50028100  0.25130900  0.75000000  1
  H  H11  1  0.99969500  0.99969500  0.00000000  1
