# generated using pymatgen
data_Nb5V(FeSe10)2
_symmetry_space_group_name_H-M   'P 1'
_cell_length_a   3.52697900
_cell_length_b   9.39559560
_cell_length_c   18.89116218
_cell_angle_alpha   86.17015368
_cell_angle_beta   90.00000000
_cell_angle_gamma   90.00000000
_symmetry_Int_Tables_number   1
_chemical_formula_structural   Nb5V(FeSe10)2
_chemical_formula_sum   'Nb5 V1 Fe2 Se20'
_cell_volume   624.61860997
_cell_formula_units_Z   1
loop_
 _symmetry_equiv_pos_site_id
 _symmetry_equiv_pos_as_xyz
  1  'x, y, z'
loop_
 _atom_site_type_symbol
 _atom_site_label
 _atom_site_symmetry_multiplicity
 _atom_site_fract_x
 _atom_site_fract_y
 _atom_site_fract_z
 _atom_site_occupancy
  Nb  Nb0  1  0.75000000  0.40706200  0.31683600  1
  Nb  Nb1  1  0.75000000  0.90564000  0.81764500  1
  Nb  Nb2  1  0.25000000  0.09649600  0.18050800  1
  Nb  Nb3  1  0.25000000  0.59649300  0.68110700  1
  Nb  Nb4  1  0.25000000  0.08887100  0.45756800  1
  V  V5  1  0.25000000  0.59437000  0.95591700  1
  Fe  Fe6  1  0.75000000  0.39818800  0.04854800  1
  Fe  Fe7  1  0.75000000  0.90141700  0.54892900  1
  Se  Se8  1  0.25000000  0.57911800  0.37811800  1
  Se  Se9  1  0.25000000  0.07713800  0.87902000  1
  Se  Se10  1  0.75000000  0.92339700  0.12029100  1
  Se  Se11  1  0.75000000  0.42418600  0.62059200  1
  Se  Se12  1  0.25000000  0.19574400  0.31547800  1
  Se  Se13  1  0.25000000  0.69387800  0.81780800  1
  Se  Se14  1  0.75000000  0.30904600  0.17653800  1
  Se  Se15  1  0.75000000  0.80829500  0.67708900  1
  Se  Se16  1  0.25000000  0.58454300  0.25227000  1
  Se  Se17  1  0.25000000  0.08425000  0.75310300  1
  Se  Se18  1  0.75000000  0.91767500  0.24603900  1
  Se  Se19  1  0.75000000  0.41800300  0.74658400  1
  Se  Se20  1  0.75000000  0.30568200  0.45589500  1
  Se  Se21  1  0.75000000  0.79673700  0.95503500  1
  Se  Se22  1  0.25000000  0.21774700  0.04473700  1
  Se  Se23  1  0.25000000  0.71828600  0.54464300  1
  Se  Se24  1  0.75000000  0.91077000  0.42025600  1
  Se  Se25  1  0.75000000  0.42460500  0.92295900  1
  Se  Se26  1  0.25000000  0.56204000  0.07978900  1
  Se  Se27  1  0.25000000  0.06032000  0.58669800  1
