# generated using pymatgen
data_Nb3Au
_symmetry_space_group_name_H-M   'P 1'
_cell_length_a   2.82569240
_cell_length_b   2.82569240
_cell_length_c   9.31466500
_cell_angle_alpha   90.00000000
_cell_angle_beta   90.00000000
_cell_angle_gamma   103.14780752
_symmetry_Int_Tables_number   1
_chemical_formula_structural   Nb3Au
_chemical_formula_sum   'Nb3 Au1'
_cell_volume   72.42370909
_cell_formula_units_Z   1
loop_
 _symmetry_equiv_pos_site_id
 _symmetry_equiv_pos_as_xyz
  1  'x, y, z'
loop_
 _atom_site_type_symbol
 _atom_site_label
 _atom_site_symmetry_multiplicity
 _atom_site_fract_x
 _atom_site_fract_y
 _atom_site_fract_z
 _atom_site_occupancy
  Nb  Nb0  1  0.50000000  0.50000000  0.75067300  1
  Nb  Nb1  1  0.00000000  0.00000000  0.50000000  1
  Nb  Nb2  1  0.50000000  0.50000000  0.24932700  1
  Au  Au3  1  0.00000000  0.00000000  0.00000000  1
