# generated using pymatgen
data_Nd4Fe28BC
_symmetry_space_group_name_H-M   'P 1'
_cell_length_a   8.79813818
_cell_length_b   8.79813818
_cell_length_c   12.08435200
_cell_angle_alpha   90.00000000
_cell_angle_beta   90.00000000
_cell_angle_gamma   90.07015972
_symmetry_Int_Tables_number   1
_chemical_formula_structural   Nd4Fe28BC
_chemical_formula_sum   'Nd8 Fe56 B2 C2'
_cell_volume   935.41557818
_cell_formula_units_Z   2
loop_
 _symmetry_equiv_pos_site_id
 _symmetry_equiv_pos_as_xyz
  1  'x, y, z'
loop_
 _atom_site_type_symbol
 _atom_site_label
 _atom_site_symmetry_multiplicity
 _atom_site_fract_x
 _atom_site_fract_y
 _atom_site_fract_z
 _atom_site_occupancy
  Nd  Nd0  1  0.23252600  0.23252600  0.50000000  1
  Nd  Nd1  1  0.76747400  0.76747400  0.50000000  1
  Nd  Nd2  1  0.73566700  0.26433300  0.00000000  1
  Nd  Nd3  1  0.26433300  0.73566700  0.00000000  1
  Nd  Nd4  1  0.35807100  0.64192900  0.50000000  1
  Nd  Nd5  1  0.64192900  0.35807100  0.50000000  1
  Nd  Nd6  1  0.85700700  0.85700700  0.00000000  1
  Nd  Nd7  1  0.14299300  0.14299300  0.00000000  1
  Fe  Fe8  1  0.18284600  0.18284600  0.25379400  1
  Fe  Fe9  1  0.81715400  0.81715400  0.25379400  1
  Fe  Fe10  1  0.68206700  0.31793300  0.75475000  1
  Fe  Fe11  1  0.31793300  0.68206700  0.75475000  1
  Fe  Fe12  1  0.81715400  0.81715400  0.74620600  1
  Fe  Fe13  1  0.18284600  0.18284600  0.74620600  1
  Fe  Fe14  1  0.31793300  0.68206700  0.24525000  1
  Fe  Fe15  1  0.68206700  0.31793300  0.24525000  1
  Fe  Fe16  1  0.40214200  0.40214200  0.29269000  1
  Fe  Fe17  1  0.59785800  0.59785800  0.29269000  1
  Fe  Fe18  1  0.90210100  0.09789900  0.79574100  1
  Fe  Fe19  1  0.09789900  0.90210100  0.79574100  1
  Fe  Fe20  1  0.59785800  0.59785800  0.70731000  1
  Fe  Fe21  1  0.40214200  0.40214200  0.70731000  1
  Fe  Fe22  1  0.09789900  0.90210100  0.20425900  1
  Fe  Fe23  1  0.90210100  0.09789900  0.20425900  1
  Fe  Fe24  1  0.46293100  0.14059900  0.32296700  1
  Fe  Fe25  1  0.53706900  0.85940100  0.32296700  1
  Fe  Fe26  1  0.96334300  0.36098500  0.82416200  1
  Fe  Fe27  1  0.03665700  0.63901500  0.82416200  1
  Fe  Fe28  1  0.53706900  0.85940100  0.67703300  1
  Fe  Fe29  1  0.46293100  0.14059900  0.67703300  1
  Fe  Fe30  1  0.03665700  0.63901500  0.17583800  1
  Fe  Fe31  1  0.96334300  0.36098500  0.17583800  1
  Fe  Fe32  1  0.85940100  0.53706900  0.32296700  1
  Fe  Fe33  1  0.14059900  0.46293100  0.32296700  1
  Fe  Fe34  1  0.63901500  0.03665700  0.82416200  1
  Fe  Fe35  1  0.36098500  0.96334300  0.82416200  1
  Fe  Fe36  1  0.14059900  0.46293100  0.67703300  1
  Fe  Fe37  1  0.85940100  0.53706900  0.67703300  1
  Fe  Fe38  1  0.36098500  0.96334300  0.17583800  1
  Fe  Fe39  1  0.63901500  0.03665700  0.17583800  1
  Fe  Fe40  1  0.50000000  0.50000000  0.10731500  1
  Fe  Fe41  1  0.00000000  0.00000000  0.61427100  1
  Fe  Fe42  1  0.50000000  0.50000000  0.89268500  1
  Fe  Fe43  1  0.00000000  0.00000000  0.38572900  1
  Fe  Fe44  1  0.27570600  0.93295900  0.37275400  1
  Fe  Fe45  1  0.72429400  0.06704100  0.37275400  1
  Fe  Fe46  1  0.77388000  0.56703600  0.87786700  1
  Fe  Fe47  1  0.22612000  0.43296400  0.87786700  1
  Fe  Fe48  1  0.72429400  0.06704100  0.62724600  1
  Fe  Fe49  1  0.27570600  0.93295900  0.62724600  1
  Fe  Fe50  1  0.22612000  0.43296400  0.12213300  1
  Fe  Fe51  1  0.77388000  0.56703600  0.12213300  1
  Fe  Fe52  1  0.06704100  0.72429400  0.37275400  1
  Fe  Fe53  1  0.93295900  0.27570600  0.37275400  1
  Fe  Fe54  1  0.43296400  0.22612000  0.87786700  1
  Fe  Fe55  1  0.56703600  0.77388000  0.87786700  1
  Fe  Fe56  1  0.93295900  0.27570600  0.62724600  1
  Fe  Fe57  1  0.06704100  0.72429400  0.62724600  1
  Fe  Fe58  1  0.56703600  0.77388000  0.12213300  1
  Fe  Fe59  1  0.43296400  0.22612000  0.12213300  1
  Fe  Fe60  1  0.50000000  0.00000000  0.50000000  1
  Fe  Fe61  1  0.00000000  0.50000000  0.00000000  1
  Fe  Fe62  1  0.00000000  0.50000000  0.50000000  1
  Fe  Fe63  1  0.50000000  0.00000000  0.00000000  1
  B  B64  1  0.12477100  0.87522900  0.50000000  1
  B  B65  1  0.87522900  0.12477100  0.50000000  1
  C  C66  1  0.62511300  0.62511300  0.00000000  1
  C  C67  1  0.37488700  0.37488700  0.00000000  1
