# generated using pymatgen
data_Nb3MoSe8
_symmetry_space_group_name_H-M   'P 1'
_cell_length_a   3.44652900
_cell_length_b   5.97467300
_cell_length_c   13.62738355
_cell_angle_alpha   80.92058131
_cell_angle_beta   90.00000000
_cell_angle_gamma   90.00000000
_symmetry_Int_Tables_number   1
_chemical_formula_structural   Nb3MoSe8
_chemical_formula_sum   'Nb3 Mo1 Se8'
_cell_volume   277.09756668
_cell_formula_units_Z   1
loop_
 _symmetry_equiv_pos_site_id
 _symmetry_equiv_pos_as_xyz
  1  'x, y, z'
loop_
 _atom_site_type_symbol
 _atom_site_label
 _atom_site_symmetry_multiplicity
 _atom_site_fract_x
 _atom_site_fract_y
 _atom_site_fract_z
 _atom_site_occupancy
  Nb  Nb0  1  0.00000000  0.66733400  0.50111700  1
  Nb  Nb1  1  0.50000000  0.67210600  0.00099400  1
  Nb  Nb2  1  0.50000000  0.16652700  0.50158200  1
  Mo  Mo3  1  0.00000000  0.16082200  0.00131800  1
  Se  Se4  1  0.50000000  0.28443500  0.12341900  1
  Se  Se5  1  0.50000000  0.78666700  0.62821400  1
  Se  Se6  1  0.00000000  0.79210500  0.12682500  1
  Se  Se7  1  0.00000000  0.28761000  0.62784500  1
  Se  Se8  1  0.00000000  0.88300500  0.87498000  1
  Se  Se9  1  0.50000000  0.87877200  0.37417800  1
  Se  Se10  1  0.50000000  0.37114000  0.87897400  1
  Se  Se11  1  0.00000000  0.37807800  0.37455300  1
