# generated using pymatgen
data_Nd12Si5Se28
_symmetry_space_group_name_H-M   'P 1'
_cell_length_a   10.61353400
_cell_length_b   12.13300308
_cell_length_c   12.21137729
_cell_angle_alpha   119.74706657
_cell_angle_beta   115.75455327
_cell_angle_gamma   90.00637984
_symmetry_Int_Tables_number   1
_chemical_formula_structural   Nd12Si5Se28
_chemical_formula_sum   'Nd12 Si5 Se28'
_cell_volume   1181.95780461
_cell_formula_units_Z   1
loop_
 _symmetry_equiv_pos_site_id
 _symmetry_equiv_pos_as_xyz
  1  'x, y, z'
loop_
 _atom_site_type_symbol
 _atom_site_label
 _atom_site_symmetry_multiplicity
 _atom_site_fract_x
 _atom_site_fract_y
 _atom_site_fract_z
 _atom_site_occupancy
  Nd  Nd0  1  0.76596800  0.21818800  0.63433900  1
  Nd  Nd1  1  0.77932700  0.70705700  0.65223800  1
  Nd  Nd2  1  0.87125500  0.99109600  0.21905800  1
  Nd  Nd3  1  0.87198400  0.51894200  0.23650500  1
  Nd  Nd4  1  0.34908300  0.94434900  0.12624500  1
  Nd  Nd5  1  0.36316800  0.46618600  0.13226700  1
  Nd  Nd6  1  0.22329900  0.82181800  0.34575600  1
  Nd  Nd7  1  0.22971300  0.31792800  0.36750900  1
  Nd  Nd8  1  0.13590100  0.02053700  0.77045600  1
  Nd  Nd9  1  0.12425300  0.53580800  0.77701900  1
  Nd  Nd10  1  0.63346000  0.06736900  0.86522900  1
  Nd  Nd11  1  0.65427800  0.58633200  0.87600100  1
  Si  Si12  1  0.66752900  0.26500600  0.33008400  1
  Si  Si13  1  0.66544500  0.76815800  0.33602900  1
  Si  Si14  1  0.33328200  0.67969800  0.66612600  1
  Si  Si15  1  0.33330900  0.18149300  0.66681200  1
  Si  Si16  1  0.99916400  0.28053500  0.99968100  1
  Se  Se17  1  0.66657400  0.45344900  0.33269700  1
  Se  Se18  1  0.66702500  0.95368500  0.33356400  1
  Se  Se19  1  0.33908900  0.37465500  0.67945400  1
  Se  Se20  1  0.32753300  0.86096500  0.65364900  1
  Se  Se21  1  0.09509800  0.81903000  0.83568200  1
  Se  Se22  1  0.08359700  0.31506500  0.84659700  1
  Se  Se23  1  0.74128800  0.85384000  0.90496200  1
  Se  Se24  1  0.76345200  0.34945300  0.91666600  1
  Se  Se25  1  0.15272000  0.50983000  0.23719200  1
  Se  Se26  1  0.16476900  0.03080100  0.25903900  1
  Se  Se27  1  0.91377200  0.24136200  0.14358800  1
  Se  Se28  1  0.90870800  0.73174000  0.16772400  1
  Se  Se29  1  0.22792700  0.21330000  0.08662300  1
  Se  Se30  1  0.26029600  0.69379600  0.09307500  1
  Se  Se31  1  0.83237600  0.51543800  0.73799000  1
  Se  Se32  1  0.85731100  0.05659400  0.77191800  1
  Se  Se33  1  0.58180800  0.07556700  0.10334600  1
  Se  Se34  1  0.58702800  0.58007300  0.10645700  1
  Se  Se35  1  0.51323100  0.22681300  0.40224200  1
  Se  Se36  1  0.52717700  0.73892300  0.42704100  1
  Se  Se37  1  0.89748100  0.26043300  0.46947100  1
  Se  Se38  1  0.89127800  0.77011100  0.48932200  1
  Se  Se39  1  0.41665200  0.71955100  0.89392100  1
  Se  Se40  1  0.41643700  0.22191400  0.89620900  1
  Se  Se41  1  0.47649400  0.56334700  0.58081900  1
  Se  Se42  1  0.48077200  0.06706100  0.58604100  1
  Se  Se43  1  0.10451600  0.53250000  0.51996100  1
  Se  Se44  1  0.10517400  0.03620200  0.52339800  1
