# generated using pymatgen
data_Nb3Fe(Se4S)2
_symmetry_space_group_name_H-M   'P 1'
_cell_length_a   3.50080000
_cell_length_b   9.41967600
_cell_length_c   10.11270167
_cell_angle_alpha   66.74805664
_cell_angle_beta   90.00000000
_cell_angle_gamma   90.00000000
_symmetry_Int_Tables_number   1
_chemical_formula_structural   Nb3Fe(Se4S)2
_chemical_formula_sum   'Nb3 Fe1 Se8 S2'
_cell_volume   306.39449888
_cell_formula_units_Z   1
loop_
 _symmetry_equiv_pos_site_id
 _symmetry_equiv_pos_as_xyz
  1  'x, y, z'
loop_
 _atom_site_type_symbol
 _atom_site_label
 _atom_site_symmetry_multiplicity
 _atom_site_fract_x
 _atom_site_fract_y
 _atom_site_fract_z
 _atom_site_occupancy
  Nb  Nb0  1  0.00000000  0.27895600  0.64100600  1
  Nb  Nb1  1  0.50000000  0.72305500  0.36800100  1
  Nb  Nb2  1  0.00000000  0.54150100  0.07935600  1
  Fe  Fe3  1  0.50000000  0.45524700  0.90166400  1
  Se  Se4  1  0.50000000  0.04524000  0.76102500  1
  Se  Se5  1  0.00000000  0.95589800  0.24672600  1
  Se  Se6  1  0.50000000  0.48659800  0.64751800  1
  Se  Se7  1  0.00000000  0.51086600  0.36901600  1
  Se  Se8  1  0.50000000  0.16739300  0.50749400  1
  Se  Se9  1  0.00000000  0.83623400  0.50057800  1
  Se  Se10  1  0.00000000  0.26540400  0.91464900  1
  Se  Se11  1  0.50000000  0.75627800  0.08497600  1
  S  S12  1  0.00000000  0.63091600  0.83219400  1
  S  S13  1  0.50000000  0.34641300  0.14579400  1
