# generated using pymatgen
data_NaLaNb2O7
_symmetry_space_group_name_H-M   'P 1'
_cell_length_a   3.93106900
_cell_length_b   3.93106900
_cell_length_c   11.18403110
_cell_angle_alpha   79.87800305
_cell_angle_beta   79.87800305
_cell_angle_gamma   90.00000000
_symmetry_Int_Tables_number   1
_chemical_formula_structural   NaLaNb2O7
_chemical_formula_sum   'Na1 La1 Nb2 O7'
_cell_volume   167.40707379
_cell_formula_units_Z   1
loop_
 _symmetry_equiv_pos_site_id
 _symmetry_equiv_pos_as_xyz
  1  'x, y, z'
loop_
 _atom_site_type_symbol
 _atom_site_label
 _atom_site_symmetry_multiplicity
 _atom_site_fract_x
 _atom_site_fract_y
 _atom_site_fract_z
 _atom_site_occupancy
  Na  Na0  1  0.75000000  0.25000000  0.50000000  1
  La  La1  1  0.00000000  0.00000000  0.00000000  1
  Nb  Nb2  1  0.39345700  0.39345700  0.21308600  1
  Nb  Nb3  1  0.60654300  0.60654300  0.78691400  1
  O  O4  1  0.58643100  0.08643100  0.82713700  1
  O  O5  1  0.08565200  0.58565200  0.82869500  1
  O  O6  1  0.41434800  0.91434800  0.17130500  1
  O  O7  1  0.91356900  0.41356900  0.17286300  1
  O  O8  1  0.31004800  0.31004800  0.37990500  1
  O  O9  1  0.68995200  0.68995200  0.62009500  1
  O  O10  1  0.50000000  0.50000000  0.00000000  1
