# generated using pymatgen
data_NaYb3Ti2(SbO7)2
_symmetry_space_group_name_H-M   'P 1'
_cell_length_a   7.26802124
_cell_length_b   7.26802124
_cell_length_c   7.23138670
_cell_angle_alpha   60.71788757
_cell_angle_beta   60.71788757
_cell_angle_gamma   60.53585039
_symmetry_Int_Tables_number   1
_chemical_formula_structural   NaYb3Ti2(SbO7)2
_chemical_formula_sum   'Na1 Yb3 Ti2 Sb2 O14'
_cell_volume   274.11488147
_cell_formula_units_Z   1
loop_
 _symmetry_equiv_pos_site_id
 _symmetry_equiv_pos_as_xyz
  1  'x, y, z'
loop_
 _atom_site_type_symbol
 _atom_site_label
 _atom_site_symmetry_multiplicity
 _atom_site_fract_x
 _atom_site_fract_y
 _atom_site_fract_z
 _atom_site_occupancy
  Na  Na0  1  0.00000000  0.00000000  0.00000000  1
  Yb  Yb1  1  0.00000000  0.00000000  0.50000000  1
  Yb  Yb2  1  0.50000000  0.00000000  0.00000000  1
  Yb  Yb3  1  0.00000000  0.50000000  0.00000000  1
  Ti  Ti4  1  0.50000000  0.50000000  0.50000000  1
  Ti  Ti5  1  0.50000000  0.50000000  0.00000000  1
  Sb  Sb6  1  0.00000000  0.50000000  0.50000000  1
  Sb  Sb7  1  0.50000000  0.00000000  0.50000000  1
  O  O8  1  0.56910200  0.56910200  0.18191900  1
  O  O9  1  0.17060700  0.17060700  0.57373400  1
  O  O10  1  0.17725300  0.57504400  0.57667700  1
  O  O11  1  0.56446600  0.17896900  0.17484500  1
  O  O12  1  0.17896900  0.56446600  0.17484500  1
  O  O13  1  0.57504400  0.17725300  0.57667700  1
  O  O14  1  0.43089800  0.43089800  0.81808100  1
  O  O15  1  0.82939300  0.82939300  0.42626600  1
  O  O16  1  0.82274700  0.42495600  0.42332300  1
  O  O17  1  0.43553400  0.82103100  0.82515500  1
  O  O18  1  0.82103100  0.43553400  0.82515500  1
  O  O19  1  0.42495600  0.82274700  0.42332300  1
  O  O20  1  0.86825800  0.86825800  0.87031100  1
  O  O21  1  0.13174200  0.13174200  0.12968900  1
