# generated using pymatgen
data_NaZrScO4
_symmetry_space_group_name_H-M   'P 1'
_cell_length_a   3.22065800
_cell_length_b   9.65670300
_cell_length_c   11.37387600
_cell_angle_alpha   90.00000000
_cell_angle_beta   90.00000000
_cell_angle_gamma   90.00000000
_symmetry_Int_Tables_number   1
_chemical_formula_structural   NaZrScO4
_chemical_formula_sum   'Na4 Zr4 Sc4 O16'
_cell_volume   353.73820969
_cell_formula_units_Z   4
loop_
 _symmetry_equiv_pos_site_id
 _symmetry_equiv_pos_as_xyz
  1  'x, y, z'
loop_
 _atom_site_type_symbol
 _atom_site_label
 _atom_site_symmetry_multiplicity
 _atom_site_fract_x
 _atom_site_fract_y
 _atom_site_fract_z
 _atom_site_occupancy
  Na  Na0  1  0.50000000  0.25554200  0.89929300  1
  Na  Na1  1  0.50000000  0.75554200  0.10070700  1
  Na  Na2  1  0.00000000  0.74370400  0.59971200  1
  Na  Na3  1  0.00000000  0.24370400  0.40028800  1
  Zr  Zr4  1  0.00000000  0.56775700  0.36135300  1
  Zr  Zr5  1  0.00000000  0.06775700  0.63864700  1
  Zr  Zr6  1  0.00000000  0.57993300  0.85578900  1
  Zr  Zr7  1  0.00000000  0.07993300  0.14421100  1
  Sc  Sc8  1  0.50000000  0.43129600  0.13824600  1
  Sc  Sc9  1  0.50000000  0.93129600  0.86175400  1
  Sc  Sc10  1  0.50000000  0.42131500  0.64276000  1
  Sc  Sc11  1  0.50000000  0.92131500  0.35724000  1
  O  O12  1  0.50000000  0.20541900  0.59563400  1
  O  O13  1  0.50000000  0.70541900  0.40436600  1
  O  O14  1  0.00000000  0.79242700  0.90300100  1
  O  O15  1  0.00000000  0.29242700  0.09699900  1
  O  O16  1  0.50000000  0.11717400  0.26632800  1
  O  O17  1  0.50000000  0.61717400  0.73367200  1
  O  O18  1  0.00000000  0.88670300  0.23403200  1
  O  O19  1  0.00000000  0.38670300  0.76596800  1
  O  O20  1  0.50000000  0.42638700  0.32505400  1
  O  O21  1  0.50000000  0.92638700  0.67494600  1
  O  O22  1  0.00000000  0.57216400  0.17732800  1
  O  O23  1  0.00000000  0.07216400  0.82267200  1
  O  O24  1  0.50000000  0.02051000  0.03425500  1
  O  O25  1  0.50000000  0.52051000  0.96574500  1
  O  O26  1  0.00000000  0.97966800  0.46768200  1
  O  O27  1  0.00000000  0.47966800  0.53231800  1
