# generated using pymatgen
data_NaLaZr2O6
_symmetry_space_group_name_H-M   'P 1'
_cell_length_a   5.81018820
_cell_length_b   5.81018820
_cell_length_c   5.81018820
_cell_angle_alpha   120.17605532
_cell_angle_beta   119.18878157
_cell_angle_gamma   90.55305934
_symmetry_Int_Tables_number   1
_chemical_formula_structural   NaLaZr2O6
_chemical_formula_sum   'Na1 La1 Zr2 O6'
_cell_volume   139.33929273
_cell_formula_units_Z   1
loop_
 _symmetry_equiv_pos_site_id
 _symmetry_equiv_pos_as_xyz
  1  'x, y, z'
loop_
 _atom_site_type_symbol
 _atom_site_label
 _atom_site_symmetry_multiplicity
 _atom_site_fract_x
 _atom_site_fract_y
 _atom_site_fract_z
 _atom_site_occupancy
  Na  Na0  1  0.00000000  0.50867100  0.50867100  1
  La  La1  1  0.50000000  0.97677800  0.47677800  1
  Zr  Zr2  1  0.75274700  0.74962200  0.99687500  1
  Zr  Zr3  1  0.24725300  0.24412900  0.99687500  1
  O  O4  1  0.93254400  0.95316800  0.49983400  1
  O  O5  1  0.06745600  0.56729100  0.02062400  1
  O  O6  1  0.45333400  0.95316800  0.02062400  1
  O  O7  1  0.54666600  0.56729100  0.49983400  1
  O  O8  1  0.00000000  0.09425400  0.09425400  1
  O  O9  1  0.50000000  0.38562900  0.88562900  1
