# generated using pymatgen
data_NaLaScSbO6
_symmetry_space_group_name_H-M   'P 1'
_cell_length_a   5.70402700
_cell_length_b   5.68707600
_cell_length_c   9.80458884
_cell_angle_alpha   54.72140937
_cell_angle_beta   90.00000000
_cell_angle_gamma   90.00000000
_symmetry_Int_Tables_number   1
_chemical_formula_structural   NaLaScSbO6
_chemical_formula_sum   'Na2 La2 Sc2 Sb2 O12'
_cell_volume   259.64396177
_cell_formula_units_Z   2
loop_
 _symmetry_equiv_pos_site_id
 _symmetry_equiv_pos_as_xyz
  1  'x, y, z'
loop_
 _atom_site_type_symbol
 _atom_site_label
 _atom_site_symmetry_multiplicity
 _atom_site_fract_x
 _atom_site_fract_y
 _atom_site_fract_z
 _atom_site_occupancy
  Na  Na0  1  0.24567400  0.25655300  0.74974900  1
  Na  Na1  1  0.75432600  0.25655300  0.24974900  1
  La  La2  1  0.26033300  0.73515800  0.25014400  1
  La  La3  1  0.73966700  0.73515800  0.75014400  1
  Sc  Sc4  1  0.24899000  0.99647700  0.50226300  1
  Sc  Sc5  1  0.75101000  0.99647700  0.00226300  1
  Sb  Sb6  1  0.75134700  0.50049700  0.49893200  1
  Sb  Sb7  1  0.24865300  0.50049700  0.99893200  1
  O  O8  1  0.75483500  0.16282300  0.74169000  1
  O  O9  1  0.24516500  0.16282300  0.24169000  1
  O  O10  1  0.74275500  0.82530900  0.25618400  1
  O  O11  1  0.25724500  0.82530900  0.75618400  1
  O  O12  1  0.98005700  0.70934800  0.54841800  1
  O  O13  1  0.01994300  0.70934800  0.04841800  1
  O  O14  1  0.50792000  0.30129400  0.45260200  1
  O  O15  1  0.49208000  0.30129400  0.95260200  1
  O  O16  1  0.50156700  0.69138700  0.54788600  1
  O  O17  1  0.49843300  0.69138700  0.04788600  1
  O  O18  1  0.01123500  0.32115400  0.45213200  1
  O  O19  1  0.98876500  0.32115400  0.95213200  1
