# generated using pymatgen
data_Nb12Sn3Sb
_symmetry_space_group_name_H-M   'P 1'
_cell_length_a   5.32166700
_cell_length_b   5.33528800
_cell_length_c   10.64233800
_cell_angle_alpha   90.00000000
_cell_angle_beta   90.00000000
_cell_angle_gamma   90.00000000
_symmetry_Int_Tables_number   1
_chemical_formula_structural   Nb12Sn3Sb
_chemical_formula_sum   'Nb12 Sn3 Sb1'
_cell_volume   302.16392351
_cell_formula_units_Z   1
loop_
 _symmetry_equiv_pos_site_id
 _symmetry_equiv_pos_as_xyz
  1  'x, y, z'
loop_
 _atom_site_type_symbol
 _atom_site_label
 _atom_site_symmetry_multiplicity
 _atom_site_fract_x
 _atom_site_fract_y
 _atom_site_fract_z
 _atom_site_occupancy
  Nb  Nb0  1  0.00000000  0.50000000  0.37745400  1
  Nb  Nb1  1  0.00000000  0.50000000  0.87854300  1
  Nb  Nb2  1  0.50000000  0.24479700  0.00000000  1
  Nb  Nb3  1  0.50000000  0.24623300  0.50000000  1
  Nb  Nb4  1  0.75478800  0.00000000  0.25068900  1
  Nb  Nb5  1  0.75478800  0.00000000  0.74931100  1
  Nb  Nb6  1  0.00000000  0.50000000  0.12145700  1
  Nb  Nb7  1  0.00000000  0.50000000  0.62254600  1
  Nb  Nb8  1  0.50000000  0.75520300  0.00000000  1
  Nb  Nb9  1  0.50000000  0.75376700  0.50000000  1
  Nb  Nb10  1  0.24521200  0.00000000  0.25068900  1
  Nb  Nb11  1  0.24521200  0.00000000  0.74931100  1
  Sn  Sn12  1  0.50000000  0.50000000  0.25005600  1
  Sn  Sn13  1  0.50000000  0.50000000  0.74994400  1
  Sn  Sn14  1  0.00000000  0.00000000  0.00000000  1
  Sb  Sb15  1  0.00000000  0.00000000  0.50000000  1
