# generated using pymatgen
data_Nb2SiTe4
_symmetry_space_group_name_H-M   'P 1'
_cell_length_a   4.65436428
_cell_length_b   6.28764790
_cell_length_c   7.67358385
_cell_angle_alpha   98.82046368
_cell_angle_beta   71.79487255
_cell_angle_gamma   94.66002373
_symmetry_Int_Tables_number   1
_chemical_formula_structural   Nb2SiTe4
_chemical_formula_sum   'Nb2 Si1 Te4'
_cell_volume   210.67068821
_cell_formula_units_Z   1
loop_
 _symmetry_equiv_pos_site_id
 _symmetry_equiv_pos_as_xyz
  1  'x, y, z'
loop_
 _atom_site_type_symbol
 _atom_site_label
 _atom_site_symmetry_multiplicity
 _atom_site_fract_x
 _atom_site_fract_y
 _atom_site_fract_z
 _atom_site_occupancy
  Nb  Nb0  1  0.24653400  0.86062100  0.00017400  1
  Nb  Nb1  1  0.75346600  0.13937900  0.99982600  1
  Si  Si2  1  0.50000000  0.50000000  0.00000000  1
  Te  Te3  1  0.61315700  0.83065900  0.24983400  1
  Te  Te4  1  0.86300100  0.75121800  0.74987600  1
  Te  Te5  1  0.38684300  0.16934100  0.75016600  1
  Te  Te6  1  0.13699800  0.24878200  0.25012400  1
