# generated using pymatgen
data_Na6Ca3U2O12
_symmetry_space_group_name_H-M   'P 1'
_cell_length_a   10.77698811
_cell_length_b   10.77698811
_cell_length_c   5.91323917
_cell_angle_alpha   79.71832118
_cell_angle_beta   79.71832118
_cell_angle_gamma   143.41825413
_symmetry_Int_Tables_number   1
_chemical_formula_structural   Na6Ca3U2O12
_chemical_formula_sum   'Na6 Ca3 U2 O12'
_cell_volume   336.66390725
_cell_formula_units_Z   1
loop_
 _symmetry_equiv_pos_site_id
 _symmetry_equiv_pos_as_xyz
  1  'x, y, z'
loop_
 _atom_site_type_symbol
 _atom_site_label
 _atom_site_symmetry_multiplicity
 _atom_site_fract_x
 _atom_site_fract_y
 _atom_site_fract_z
 _atom_site_occupancy
  Na  Na0  1  0.12374000  0.87626000  0.50000000  1
  Na  Na1  1  0.86953100  0.13046900  0.00000000  1
  Na  Na2  1  0.95696800  0.04303200  0.50000000  1
  Na  Na3  1  0.28811000  0.71189000  0.50000000  1
  Na  Na4  1  0.03662200  0.96337800  0.00000000  1
  Na  Na5  1  0.71958100  0.28041900  0.00000000  1
  Ca  Ca6  1  0.45771000  0.54229000  0.50000000  1
  Ca  Ca7  1  0.20944900  0.79055100  0.00000000  1
  Ca  Ca8  1  0.54357300  0.45642700  0.00000000  1
  U  U9  1  0.62726300  0.37273700  0.50000000  1
  U  U10  1  0.37357700  0.62642300  0.00000000  1
  O  O11  1  0.93121500  0.54589800  0.48278500  1
  O  O12  1  0.75891200  0.65894700  0.51474400  1
  O  O13  1  0.34105300  0.24108800  0.48525600  1
  O  O14  1  0.45410200  0.06878500  0.51721500  1
  O  O15  1  0.09977100  0.50263100  0.97160000  1
  O  O16  1  0.23481500  0.32985100  0.99071600  1
  O  O17  1  0.67014900  0.76518500  0.00928400  1
  O  O18  1  0.49736900  0.90022900  0.02840000  1
  O  O19  1  0.84387300  0.59291600  0.06165400  1
  O  O20  1  0.40708400  0.15612700  0.93834600  1
  O  O21  1  0.18299700  0.42024500  0.41953900  1
  O  O22  1  0.57975500  0.81700300  0.58046100  1
