# generated using pymatgen
data_NaY9(Si3O13)2
_symmetry_space_group_name_H-M   'P 1'
_cell_length_a   9.45356436
_cell_length_b   9.45356436
_cell_length_c   6.83414000
_cell_angle_alpha   90.00000000
_cell_angle_beta   90.00000000
_cell_angle_gamma   120.00000254
_symmetry_Int_Tables_number   1
_chemical_formula_structural   NaY9(Si3O13)2
_chemical_formula_sum   'Na1 Y9 Si6 O26'
_cell_volume   528.93908862
_cell_formula_units_Z   1
loop_
 _symmetry_equiv_pos_site_id
 _symmetry_equiv_pos_as_xyz
  1  'x, y, z'
loop_
 _atom_site_type_symbol
 _atom_site_label
 _atom_site_symmetry_multiplicity
 _atom_site_fract_x
 _atom_site_fract_y
 _atom_site_fract_z
 _atom_site_occupancy
  Na  Na0  1  0.66666700  0.33333300  0.49625200  1
  Y  Y1  1  0.56706100  0.90150200  0.74892000  1
  Y  Y2  1  0.09849800  0.66555900  0.74892000  1
  Y  Y3  1  0.33444100  0.43293900  0.74892000  1
  Y  Y4  1  0.09495200  0.43244200  0.25044900  1
  Y  Y5  1  0.56755800  0.66251000  0.25044900  1
  Y  Y6  1  0.33749000  0.90504800  0.25044900  1
  Y  Y7  1  0.00000000  0.00000000  0.99797000  1
  Y  Y8  1  0.00000000  0.00000000  0.50104200  1
  Y  Y9  1  0.66666700  0.33333300  0.00194100  1
  Si  Si10  1  0.70617000  0.63821600  0.74947500  1
  Si  Si11  1  0.36178400  0.06795400  0.74947500  1
  Si  Si12  1  0.93204600  0.29383000  0.74947500  1
  Si  Si13  1  0.96252300  0.69320200  0.24717000  1
  Si  Si14  1  0.30679800  0.26932100  0.24717000  1
  Si  Si15  1  0.73067900  0.03747700  0.24717000  1
  O  O16  1  0.58248800  0.57830100  0.94023300  1
  O  O17  1  0.42169900  0.00418700  0.94023300  1
  O  O18  1  0.99581300  0.41751200  0.94023300  1
  O  O19  1  0.08296200  0.75961700  0.44065000  1
  O  O20  1  0.24038300  0.32334500  0.44065000  1
  O  O21  1  0.67665500  0.91703800  0.44065000  1
  O  O22  1  0.08841400  0.76573800  0.05818500  1
  O  O23  1  0.23426200  0.32267600  0.05818500  1
  O  O24  1  0.67732400  0.91158600  0.05818500  1
  O  O25  1  0.57937000  0.58610400  0.56396500  1
  O  O26  1  0.41389600  0.99326700  0.56396500  1
  O  O27  1  0.00673300  0.42063000  0.56396500  1
  O  O28  1  0.86386500  0.79746000  0.25007400  1
  O  O29  1  0.20254000  0.06640500  0.25007400  1
  O  O30  1  0.93359500  0.13613500  0.25007400  1
  O  O31  1  0.81111100  0.54465700  0.76380100  1
  O  O32  1  0.45534300  0.26645400  0.76380100  1
  O  O33  1  0.73354600  0.18888900  0.76380100  1
  O  O34  1  0.33333300  0.66666700  0.75383500  1
  O  O35  1  0.33333300  0.66666700  0.25061200  1
  O  O36  1  0.82655400  0.83802300  0.74861500  1
  O  O37  1  0.16197700  0.98853100  0.74861500  1
  O  O38  1  0.01146900  0.17344600  0.74861500  1
  O  O39  1  0.85166000  0.49791800  0.23791700  1
  O  O40  1  0.50208200  0.35374200  0.23791700  1
  O  O41  1  0.64625800  0.14834000  0.23791700  1
