# generated using pymatgen
data_Pr9Ni24Sn49
_symmetry_space_group_name_H-M   'P 1'
_cell_length_a   10.37861138
_cell_length_b   10.37861138
_cell_length_c   17.13860271
_cell_angle_alpha   89.81398480
_cell_angle_beta   89.81398480
_cell_angle_gamma   70.66197628
_symmetry_Int_Tables_number   1
_chemical_formula_structural   Pr9Ni24Sn49
_chemical_formula_sum   'Pr9 Ni24 Sn49'
_cell_volume   1741.92657795
_cell_formula_units_Z   1
loop_
 _symmetry_equiv_pos_site_id
 _symmetry_equiv_pos_as_xyz
  1  'x, y, z'
loop_
 _atom_site_type_symbol
 _atom_site_label
 _atom_site_symmetry_multiplicity
 _atom_site_fract_x
 _atom_site_fract_y
 _atom_site_fract_z
 _atom_site_occupancy
  Pr  Pr0  1  0.75087400  0.24933800  0.75048700  1
  Pr  Pr1  1  0.24912600  0.75066200  0.24951300  1
  Pr  Pr2  1  0.00000000  0.50000000  0.00000000  1
  Pr  Pr3  1  0.50000000  0.00000000  0.50000000  1
  Pr  Pr4  1  0.00000000  0.50000000  0.50000000  1
  Pr  Pr5  1  0.50000000  0.00000000  0.00000000  1
  Pr  Pr6  1  0.24933800  0.75087400  0.75048700  1
  Pr  Pr7  1  0.75066200  0.24912600  0.24951300  1
  Pr  Pr8  1  0.00000000  0.00000000  0.00000000  1
  Ni  Ni9  1  0.74175800  0.09686000  0.58011800  1
  Ni  Ni10  1  0.24132400  0.59811400  0.08022000  1
  Ni  Ni11  1  0.75867600  0.40188600  0.91978000  1
  Ni  Ni12  1  0.25824200  0.90314000  0.41988200  1
  Ni  Ni13  1  0.09686000  0.74175800  0.58011800  1
  Ni  Ni14  1  0.59811400  0.24132400  0.08022000  1
  Ni  Ni15  1  0.40188600  0.75867600  0.91978000  1
  Ni  Ni16  1  0.90314000  0.25824200  0.41988200  1
  Ni  Ni17  1  0.67843800  0.00001200  0.83941700  1
  Ni  Ni18  1  0.17882700  0.50080400  0.33908500  1
  Ni  Ni19  1  0.82117300  0.49919600  0.66091500  1
  Ni  Ni20  1  0.32156200  0.99998800  0.16058300  1
  Ni  Ni21  1  0.49919600  0.82117300  0.66091500  1
  Ni  Ni22  1  0.99998800  0.32156200  0.16058300  1
  Ni  Ni23  1  0.00001200  0.67843800  0.83941700  1
  Ni  Ni24  1  0.50080400  0.17882700  0.33908500  1
  Ni  Ni25  1  0.24025600  0.24025600  0.92054200  1
  Ni  Ni26  1  0.74049700  0.74049700  0.42012200  1
  Ni  Ni27  1  0.25950300  0.25950300  0.57987800  1
  Ni  Ni28  1  0.75974400  0.75974400  0.07945800  1
  Ni  Ni29  1  0.41903900  0.41903900  0.74074900  1
  Ni  Ni30  1  0.91939500  0.91939500  0.23984200  1
  Ni  Ni31  1  0.08060500  0.08060500  0.76015800  1
  Ni  Ni32  1  0.58096100  0.58096100  0.25925100  1
  Sn  Sn33  1  0.50421400  0.25223400  0.62249700  1
  Sn  Sn34  1  0.00135600  0.73827600  0.13001900  1
  Sn  Sn35  1  0.99864400  0.26172400  0.86998100  1
  Sn  Sn36  1  0.49578600  0.74776600  0.37750300  1
  Sn  Sn37  1  0.25223400  0.50421400  0.62249700  1
  Sn  Sn38  1  0.73827600  0.00135600  0.13001900  1
  Sn  Sn39  1  0.26172400  0.99864400  0.86998100  1
  Sn  Sn40  1  0.74776600  0.49578600  0.37750300  1
  Sn  Sn41  1  0.67982100  0.19036800  0.93557200  1
  Sn  Sn42  1  0.19178300  0.68300200  0.43688100  1
  Sn  Sn43  1  0.80821700  0.31699800  0.56311900  1
  Sn  Sn44  1  0.32017900  0.80963200  0.06442800  1
  Sn  Sn45  1  0.31699800  0.80821700  0.56311900  1
  Sn  Sn46  1  0.80963200  0.32017900  0.06442800  1
  Sn  Sn47  1  0.19036800  0.67982100  0.93557200  1
  Sn  Sn48  1  0.68300200  0.19178300  0.43688100  1
  Sn  Sn49  1  0.68313800  0.68313800  0.55859400  1
  Sn  Sn50  1  0.19486100  0.19486100  0.06382200  1
  Sn  Sn51  1  0.80513900  0.80513900  0.93617800  1
  Sn  Sn52  1  0.31686200  0.31686200  0.44140600  1
  Sn  Sn53  1  0.55939300  0.55939300  0.68578400  1
  Sn  Sn54  1  0.06339700  0.06339700  0.19364200  1
  Sn  Sn55  1  0.93660300  0.93660300  0.80635800  1
  Sn  Sn56  1  0.44060700  0.44060700  0.31421600  1
  Sn  Sn57  1  0.81216100  0.55609900  0.81428700  1
  Sn  Sn58  1  0.31397300  0.05753400  0.31608000  1
  Sn  Sn59  1  0.68602700  0.94246600  0.68392000  1
  Sn  Sn60  1  0.18783900  0.44390100  0.18571300  1
  Sn  Sn61  1  0.55609900  0.81216100  0.81428700  1
  Sn  Sn62  1  0.05753400  0.31397300  0.31608000  1
  Sn  Sn63  1  0.94246600  0.68602700  0.68392000  1
  Sn  Sn64  1  0.44390100  0.18783900  0.18571300  1
  Sn  Sn65  1  0.05568200  0.31605800  0.68429200  1
  Sn  Sn66  1  0.55517700  0.81682200  0.18731400  1
  Sn  Sn67  1  0.44482300  0.18317800  0.81268600  1
  Sn  Sn68  1  0.94431800  0.68394200  0.31570800  1
  Sn  Sn69  1  0.18317800  0.44482300  0.81268600  1
  Sn  Sn70  1  0.68394200  0.94431800  0.31570800  1
  Sn  Sn71  1  0.31605800  0.05568200  0.68429200  1
  Sn  Sn72  1  0.81682200  0.55517700  0.18731400  1
  Sn  Sn73  1  0.12955100  0.12955100  0.50137500  1
  Sn  Sn74  1  0.62771000  0.62771000  0.00231200  1
  Sn  Sn75  1  0.37229000  0.37229000  0.99768800  1
  Sn  Sn76  1  0.87044900  0.87044900  0.49862500  1
  Sn  Sn77  1  0.00115000  0.00115000  0.62971500  1
  Sn  Sn78  1  0.49967500  0.49967500  0.13098700  1
  Sn  Sn79  1  0.50032500  0.50032500  0.86901300  1
  Sn  Sn80  1  0.99885000  0.99885000  0.37028500  1
  Sn  Sn81  1  0.50000000  0.50000000  0.50000000  1
