# generated using pymatgen
data_Pb3BrF5
_symmetry_space_group_name_H-M   'P 1'
_cell_length_a   5.47148651
_cell_length_b   5.47148651
_cell_length_c   11.28562259
_cell_angle_alpha   89.99426479
_cell_angle_beta   79.96109037
_cell_angle_gamma   129.80995425
_symmetry_Int_Tables_number   1
_chemical_formula_structural   Pb3BrF5
_chemical_formula_sum   'Pb3 Br1 F5'
_cell_volume   252.75866949
_cell_formula_units_Z   1
loop_
 _symmetry_equiv_pos_site_id
 _symmetry_equiv_pos_as_xyz
  1  'x, y, z'
loop_
 _atom_site_type_symbol
 _atom_site_label
 _atom_site_symmetry_multiplicity
 _atom_site_fract_x
 _atom_site_fract_y
 _atom_site_fract_z
 _atom_site_occupancy
  Pb  Pb0  1  0.45177400  0.85274600  0.69548100  1
  Pb  Pb1  1  0.55773400  0.15661700  0.28564800  1
  Pb  Pb2  1  0.95303900  0.10326000  0.94370100  1
  Br  Br3  1  0.26510400  0.48797500  0.24692100  1
  F  F4  1  0.20285900  0.04582300  0.75131800  1
  F  F5  1  0.51026700  0.00372200  0.48601200  1
  F  F6  1  0.41680600  0.67491600  0.90827800  1
  F  F7  1  0.68147000  0.24597800  0.07255200  1
  F  F8  1  0.90094700  0.31896300  0.78008900  1
