# generated using pymatgen
data_Na8Al3Ga3Si6(ClO12)2
_symmetry_space_group_name_H-M   'P 1'
_cell_length_a   9.01574726
_cell_length_b   9.01574726
_cell_length_c   9.01574632
_cell_angle_alpha   90.01074797
_cell_angle_beta   90.01074797
_cell_angle_gamma   90.01074898
_symmetry_Int_Tables_number   1
_chemical_formula_structural   Na8Al3Ga3Si6(ClO12)2
_chemical_formula_sum   'Na8 Al3 Ga3 Si6 Cl2 O24'
_cell_volume   732.83316883
_cell_formula_units_Z   1
loop_
 _symmetry_equiv_pos_site_id
 _symmetry_equiv_pos_as_xyz
  1  'x, y, z'
loop_
 _atom_site_type_symbol
 _atom_site_label
 _atom_site_symmetry_multiplicity
 _atom_site_fract_x
 _atom_site_fract_y
 _atom_site_fract_z
 _atom_site_occupancy
  Na  Na0  1  0.32434400  0.32434400  0.32434400  1
  Na  Na1  1  0.32346400  0.67635100  0.67512800  1
  Na  Na2  1  0.67512800  0.32346400  0.67635100  1
  Na  Na3  1  0.67635100  0.67512800  0.32346400  1
  Na  Na4  1  0.17554300  0.82476000  0.17666100  1
  Na  Na5  1  0.82476000  0.17666100  0.17554300  1
  Na  Na6  1  0.82375600  0.82375600  0.82375600  1
  Na  Na7  1  0.17666100  0.17554300  0.82476000  1
  Al  Al8  1  0.50046500  0.99961300  0.75000300  1
  Al  Al9  1  0.99961300  0.75000300  0.50046500  1
  Al  Al10  1  0.75000300  0.50046500  0.99961300  1
  Ga  Ga11  1  0.25000400  0.50041900  0.99981600  1
  Ga  Ga12  1  0.50041900  0.99981600  0.25000400  1
  Ga  Ga13  1  0.99981600  0.25000400  0.50041900  1
  Si  Si14  1  0.25001900  0.99822000  0.50244000  1
  Si  Si15  1  0.99822000  0.50244000  0.25001900  1
  Si  Si16  1  0.50244000  0.25001900  0.99822000  1
  Si  Si17  1  0.99758200  0.50174300  0.75001600  1
  Si  Si18  1  0.50174300  0.75001600  0.99758200  1
  Si  Si19  1  0.75001600  0.99758200  0.50174300  1
  Cl  Cl20  1  0.50010400  0.50010400  0.50010400  1
  Cl  Cl21  1  0.99988400  0.99988400  0.99988400  1
  O  O22  1  0.34500400  0.06854000  0.36335800  1
  O  O23  1  0.06854000  0.36335800  0.34500400  1
  O  O24  1  0.36335800  0.34500400  0.06854000  1
  O  O25  1  0.35351100  0.93461100  0.63823700  1
  O  O26  1  0.06161500  0.63911500  0.64903300  1
  O  O27  1  0.36467900  0.65244300  0.92720000  1
  O  O28  1  0.64903300  0.06161500  0.63911500  1
  O  O29  1  0.92720000  0.36467900  0.65244300  1
  O  O30  1  0.63823700  0.35351100  0.93461100  1
  O  O31  1  0.65244300  0.92720000  0.36467900  1
  O  O32  1  0.93461100  0.63823700  0.35351100  1
  O  O33  1  0.63911500  0.64903300  0.06161500  1
  O  O34  1  0.13549300  0.57262600  0.15243000  1
  O  O35  1  0.14891400  0.86055000  0.43855600  1
  O  O36  1  0.43129900  0.84496100  0.13643800  1
  O  O37  1  0.86055000  0.43855600  0.14891400  1
  O  O38  1  0.84496100  0.13643800  0.43129900  1
  O  O39  1  0.57262600  0.15243000  0.13549300  1
  O  O40  1  0.86207200  0.56556800  0.85341100  1
  O  O41  1  0.85341100  0.86207200  0.56556800  1
  O  O42  1  0.56556800  0.85341100  0.86207200  1
  O  O43  1  0.13643800  0.43129900  0.84496100  1
  O  O44  1  0.15243000  0.13549300  0.57262600  1
  O  O45  1  0.43855600  0.14891400  0.86055000  1
