# generated using pymatgen
data_NiH8C4(NO2)3
_symmetry_space_group_name_H-M   'P 1'
_cell_length_a   8.47727200
_cell_length_b   8.78838300
_cell_length_c   11.92025700
_cell_angle_alpha   90.00000000
_cell_angle_beta   89.99994893
_cell_angle_gamma   90.00000000
_symmetry_Int_Tables_number   1
_chemical_formula_structural   NiH8C4(NO2)3
_chemical_formula_sum   'Ni4 H32 C16 N12 O24'
_cell_volume   888.07718341
_cell_formula_units_Z   4
loop_
 _symmetry_equiv_pos_site_id
 _symmetry_equiv_pos_as_xyz
  1  'x, y, z'
loop_
 _atom_site_type_symbol
 _atom_site_label
 _atom_site_symmetry_multiplicity
 _atom_site_fract_x
 _atom_site_fract_y
 _atom_site_fract_z
 _atom_site_occupancy
  Ni  Ni0  1  0.24905600  0.25022300  0.74921600  1
  Ni  Ni1  1  0.25094200  0.24977900  0.24921500  1
  Ni  Ni2  1  0.75094300  0.75022200  0.24921500  1
  Ni  Ni3  1  0.74905600  0.74977600  0.74921700  1
  H  H4  1  0.24254900  0.32906600  0.99674700  1
  H  H5  1  0.25745100  0.17093400  0.49674700  1
  H  H6  1  0.74254900  0.67093400  0.99674700  1
  H  H7  1  0.75745100  0.82906600  0.49674700  1
  H  H8  1  0.08016000  0.74960700  0.88194100  1
  H  H9  1  0.42206800  0.75811500  0.12064000  1
  H  H10  1  0.07793200  0.74188500  0.62064000  1
  H  H11  1  0.41984000  0.75039300  0.38194000  1
  H  H12  1  0.92206800  0.24188500  0.12064000  1
  H  H13  1  0.58016000  0.25039300  0.88194100  1
  H  H14  1  0.91984000  0.24960700  0.38194100  1
  H  H15  1  0.57793200  0.25811500  0.62064000  1
  H  H16  1  0.90896000  0.07239000  0.78935600  1
  H  H17  1  0.59758500  0.07173700  0.20970600  1
  H  H18  1  0.90241500  0.42826300  0.70970600  1
  H  H19  1  0.59104100  0.42761000  0.28935600  1
  H  H20  1  0.09758500  0.92826300  0.20970600  1
  H  H21  1  0.40896000  0.92761000  0.78935600  1
  H  H22  1  0.09104100  0.57239000  0.28935600  1
  H  H23  1  0.40241500  0.57173800  0.70970600  1
  H  H24  1  0.17443400  0.92954900  0.91427800  1
  H  H25  1  0.32822700  0.93524200  0.08348300  1
  H  H26  1  0.17177300  0.56475800  0.58348300  1
  H  H27  1  0.32556600  0.57045100  0.41427800  1
  H  H28  1  0.82822700  0.06475800  0.08348300  1
  H  H29  1  0.67443400  0.07045100  0.91427800  1
  H  H30  1  0.82556600  0.42954900  0.41427800  1
  H  H31  1  0.67177300  0.43524200  0.58348300  1
  H  H32  1  0.33105900  0.54052000  0.05000100  1
  H  H33  1  0.16894200  0.95947900  0.55000100  1
  H  H34  1  0.83105800  0.45948000  0.05000100  1
  H  H35  1  0.66894200  0.04052100  0.55000100  1
  C  C36  1  0.97986200  0.01482300  0.72375400  1
  C  C37  1  0.52254300  0.01654200  0.27447500  1
  C  C38  1  0.97745800  0.48345800  0.77447500  1
  C  C39  1  0.52013700  0.48517700  0.22375400  1
  C  C40  1  0.02254300  0.98345800  0.27447500  1
  C  C41  1  0.47986300  0.98517700  0.72375400  1
  C  C42  1  0.02013700  0.51482300  0.22375400  1
  C  C43  1  0.47745800  0.51654200  0.77447500  1
  C  C44  1  0.24809000  0.20375800  0.99810300  1
  C  C45  1  0.25191000  0.29624300  0.49810300  1
  C  C46  1  0.74809000  0.79624200  0.99810300  1
  C  C47  1  0.75191000  0.70375800  0.49810300  1
  C  C48  1  0.24946000  0.74330500  0.00211800  1
  C  C49  1  0.25054000  0.75669600  0.50211800  1
  C  C50  1  0.74946000  0.25669500  0.00211800  1
  C  C51  1  0.75054000  0.24330500  0.50211800  1
  N  N52  1  0.23256400  0.59051400  0.01358200  1
  N  N53  1  0.26743400  0.90948500  0.51358200  1
  N  N54  1  0.73256500  0.40948500  0.01358200  1
  N  N55  1  0.76743500  0.09051500  0.51358200  1
  N  N56  1  0.15952100  0.81429800  0.92690800  1
  N  N57  1  0.34532100  0.81978300  0.07160200  1
  N  N58  1  0.15467900  0.68021800  0.57160200  1
  N  N59  1  0.34047900  0.68570300  0.42690900  1
  N  N60  1  0.84532100  0.18021700  0.07160200  1
  N  N61  1  0.65952100  0.18570300  0.92690800  1
  N  N62  1  0.84048000  0.31429700  0.42690800  1
  N  N63  1  0.65467900  0.31978300  0.57160200  1
  O  O64  1  0.93774100  0.88282700  0.69248400  1
  O  O65  1  0.56323500  0.88436000  0.30732600  1
  O  O66  1  0.93676400  0.61564000  0.80732500  1
  O  O67  1  0.56226000  0.61717300  0.19248400  1
  O  O68  1  0.06323600  0.11564000  0.30732600  1
  O  O69  1  0.43774000  0.11717300  0.69248400  1
  O  O70  1  0.06226000  0.38282700  0.19248500  1
  O  O71  1  0.43676400  0.38436000  0.80732500  1
  O  O72  1  0.24330900  0.13394700  0.90449700  1
  O  O73  1  0.25750800  0.13626800  0.09248700  1
  O  O74  1  0.24249200  0.36373200  0.59248600  1
  O  O75  1  0.25669100  0.36605300  0.40449800  1
  O  O76  1  0.75750800  0.86373200  0.09248700  1
  O  O77  1  0.74331000  0.86605300  0.90449700  1
  O  O78  1  0.75669000  0.63394700  0.40449800  1
  O  O79  1  0.74249200  0.63626800  0.59248700  1
  O  O80  1  0.09934400  0.08340300  0.68452200  1
  O  O81  1  0.40300500  0.08704800  0.31007300  1
  O  O82  1  0.09699500  0.41295100  0.81007200  1
  O  O83  1  0.40065600  0.41659600  0.18452300  1
  O  O84  1  0.90300500  0.91295100  0.31007300  1
  O  O85  1  0.59934400  0.91659700  0.68452200  1
  O  O86  1  0.90065600  0.58340400  0.18452300  1
  O  O87  1  0.59699500  0.58704900  0.81007200  1
