# generated using pymatgen
data_NaAl3P2(HO3)4
_symmetry_space_group_name_H-M   'P 1'
_cell_length_a   10.23591200
_cell_length_b   7.17124400
_cell_length_c   11.34528256
_cell_angle_alpha   82.58380236
_cell_angle_beta   90.00000000
_cell_angle_gamma   90.00000000
_symmetry_Int_Tables_number   1
_chemical_formula_structural   NaAl3P2(HO3)4
_chemical_formula_sum   'Na4 Al12 P8 H16 O48'
_cell_volume   825.82510328
_cell_formula_units_Z   4
loop_
 _symmetry_equiv_pos_site_id
 _symmetry_equiv_pos_as_xyz
  1  'x, y, z'
loop_
 _atom_site_type_symbol
 _atom_site_label
 _atom_site_symmetry_multiplicity
 _atom_site_fract_x
 _atom_site_fract_y
 _atom_site_fract_z
 _atom_site_occupancy
  Na  Na0  1  0.57536300  0.71559200  0.55401800  1
  Na  Na1  1  0.92508800  0.21357200  0.05343500  1
  Na  Na2  1  0.42508800  0.78642800  0.94656500  1
  Na  Na3  1  0.07536300  0.28440800  0.44598200  1
  Al  Al4  1  0.56767300  0.24145700  0.51336000  1
  Al  Al5  1  0.93211500  0.74291600  0.01246800  1
  Al  Al6  1  0.43211500  0.25708400  0.98753200  1
  Al  Al7  1  0.06767300  0.75854300  0.48664000  1
  Al  Al8  1  0.71985500  0.18776900  0.29368400  1
  Al  Al9  1  0.77905400  0.68969100  0.79286700  1
  Al  Al10  1  0.27905400  0.31030900  0.20713300  1
  Al  Al11  1  0.21985500  0.81223100  0.70631600  1
  Al  Al12  1  0.75385700  0.31621600  0.70975600  1
  Al  Al13  1  0.74510800  0.81899900  0.20911500  1
  Al  Al14  1  0.24510800  0.18100100  0.79088500  1
  Al  Al15  1  0.25385700  0.68378400  0.29024400  1
  P  P16  1  0.81205000  0.51324500  0.43084800  1
  P  P17  1  0.68773400  0.01174000  0.92947800  1
  P  P18  1  0.18773400  0.98826000  0.07052200  1
  P  P19  1  0.31205000  0.48675500  0.56915200  1
  P  P20  1  0.82755700  0.99591100  0.56261000  1
  P  P21  1  0.67201000  0.49621900  0.06203400  1
  P  P22  1  0.17201000  0.50378100  0.93796600  1
  P  P23  1  0.32755700  0.00408900  0.43739000  1
  H  H24  1  0.54451200  0.91980900  0.29913500  1
  H  H25  1  0.95503400  0.41983400  0.79906100  1
  H  H26  1  0.45503400  0.58016600  0.20093900  1
  H  H27  1  0.04451200  0.08019100  0.70086500  1
  H  H28  1  0.90854700  0.99361300  0.32080900  1
  H  H29  1  0.59323800  0.49215200  0.82178200  1
  H  H30  1  0.09323800  0.50784800  0.17821800  1
  H  H31  1  0.40854700  0.00638700  0.67919100  1
  H  H32  1  0.51220000  0.38772200  0.31551700  1
  H  H33  1  0.98780000  0.88800800  0.81537300  1
  H  H34  1  0.48780000  0.11199200  0.18462700  1
  H  H35  1  0.01220000  0.61227800  0.68448300  1
  H  H36  1  0.52960400  0.21533100  0.72699900  1
  H  H37  1  0.02960400  0.78466900  0.27300100  1
  H  H38  1  0.89759100  0.55570400  0.21396700  1
  H  H39  1  0.39759100  0.44429600  0.78603300  1
  O  O40  1  0.72195200  0.43210500  0.53728200  1
  O  O41  1  0.77886500  0.93174600  0.03815700  1
  O  O42  1  0.27886500  0.06825400  0.96184300  1
  O  O43  1  0.22195200  0.56789500  0.46271800  1
  O  O44  1  0.94682300  0.56684000  0.47617100  1
  O  O45  1  0.55319300  0.06730200  0.97570500  1
  O  O46  1  0.05319300  0.93269800  0.02429500  1
  O  O47  1  0.44682300  0.43316000  0.52382900  1
  O  O48  1  0.71331000  0.06925800  0.47617100  1
  O  O49  1  0.78681200  0.56790900  0.97612700  1
  O  O50  1  0.28681200  0.43209100  0.02387300  1
  O  O51  1  0.21331000  0.93074200  0.52382900  1
  O  O52  1  0.73879200  0.68312600  0.36414900  1
  O  O53  1  0.76147400  0.18302900  0.86509900  1
  O  O54  1  0.26147400  0.81697100  0.13490100  1
  O  O55  1  0.23879200  0.31687400  0.63585100  1
  O  O56  1  0.78036700  0.81464600  0.63738200  1
  O  O57  1  0.72020800  0.31596100  0.13758100  1
  O  O58  1  0.22020800  0.68403900  0.86241900  1
  O  O59  1  0.28036700  0.18535400  0.36261800  1
  O  O60  1  0.60098500  0.18894500  0.67320600  1
  O  O61  1  0.90035200  0.68662000  0.17545100  1
  O  O62  1  0.40035200  0.31338000  0.82454900  1
  O  O63  1  0.10098500  0.81105500  0.32679400  1
  O  O64  1  0.84969700  0.02533100  0.25284600  1
  O  O65  1  0.64975400  0.52614300  0.75263700  1
  O  O66  1  0.14975400  0.47385700  0.24736300  1
  O  O67  1  0.34969700  0.97466900  0.74715400  1
  O  O68  1  0.84138500  0.35952600  0.34824200  1
  O  O69  1  0.65966300  0.85494900  0.85140400  1
  O  O70  1  0.15966300  0.14505100  0.14859600  1
  O  O71  1  0.34138500  0.64047400  0.65175800  1
  O  O72  1  0.88656300  0.48090200  0.74692500  1
  O  O73  1  0.61278500  0.98103700  0.24709500  1
  O  O74  1  0.11278500  0.01896300  0.75290500  1
  O  O75  1  0.38656300  0.51909800  0.25307500  1
  O  O76  1  0.86786300  0.14818000  0.64160200  1
  O  O77  1  0.63176900  0.64786400  0.14167200  1
  O  O78  1  0.13176900  0.35213600  0.85832800  1
  O  O79  1  0.36786300  0.85182000  0.35839800  1
  O  O80  1  0.57975900  0.30083100  0.35358500  1
  O  O81  1  0.92040100  0.80042800  0.85326100  1
  O  O82  1  0.42040100  0.19957200  0.14673900  1
  O  O83  1  0.07975900  0.69916900  0.64641500  1
  O  O84  1  0.94794900  0.96015900  0.48507500  1
  O  O85  1  0.55128900  0.46001600  0.98467600  1
  O  O86  1  0.05128900  0.53998400  0.01532400  1
  O  O87  1  0.44794900  0.03984100  0.51492500  1
