# generated using pymatgen
data_Na5H7(Se2O9)2
_symmetry_space_group_name_H-M   'P 1'
_cell_length_a   6.07046979
_cell_length_b   7.46686268
_cell_length_c   10.03984333
_cell_angle_alpha   102.68323939
_cell_angle_beta   99.19690728
_cell_angle_gamma   100.01459436
_symmetry_Int_Tables_number   1
_chemical_formula_structural   Na5H7(Se2O9)2
_chemical_formula_sum   'Na5 H7 Se4 O18'
_cell_volume   427.82382616
_cell_formula_units_Z   1
loop_
 _symmetry_equiv_pos_site_id
 _symmetry_equiv_pos_as_xyz
  1  'x, y, z'
loop_
 _atom_site_type_symbol
 _atom_site_label
 _atom_site_symmetry_multiplicity
 _atom_site_fract_x
 _atom_site_fract_y
 _atom_site_fract_z
 _atom_site_occupancy
  Na  Na0  1  0.65503400  0.74106900  0.18951600  1
  Na  Na1  1  0.34615500  0.25797100  0.80678400  1
  Na  Na2  1  0.00023300  0.00059600  0.99985700  1
  Na  Na3  1  0.13596700  0.17632300  0.39994100  1
  Na  Na4  1  0.86875600  0.82257000  0.60545000  1
  H  H5  1  0.95285600  0.32397400  0.91684100  1
  H  H6  1  0.04999800  0.67770400  0.07951200  1
  H  H7  1  0.14570700  0.38836400  0.05445700  1
  H  H8  1  0.85413900  0.60937000  0.94377100  1
  H  H9  1  0.28819000  0.56086200  0.62106700  1
  H  H10  1  0.71273000  0.43785600  0.38186900  1
  H  H11  1  0.50039800  0.98464100  0.49822800  1
  Se  Se12  1  0.41413000  0.79876900  0.82591900  1
  Se  Se13  1  0.58647400  0.20167700  0.17571900  1
  Se  Se14  1  0.24857300  0.69278200  0.37435600  1
  Se  Se15  1  0.74817600  0.30622600  0.62711100  1
  O  O16  1  0.41367700  0.77317400  0.98390600  1
  O  O17  1  0.58569900  0.22784400  0.01780200  1
  O  O18  1  0.66895500  0.87518700  0.79502300  1
  O  O19  1  0.33132800  0.12550600  0.20685500  1
  O  O20  1  0.09423400  0.29574400  0.96403800  1
  O  O21  1  0.90612700  0.70320100  0.03389200  1
  O  O22  1  0.21999600  0.91548600  0.77400600  1
  O  O23  1  0.78002600  0.08392800  0.22690200  1
  O  O24  1  0.05571300  0.82308700  0.40022300  1
  O  O25  1  0.94575700  0.17916500  0.60246500  1
  O  O26  1  0.51723600  0.83955800  0.44844100  1
  O  O27  1  0.48540700  0.15958900  0.55814800  1
  O  O28  1  0.31317600  0.56302100  0.72435700  1
  O  O29  1  0.68828900  0.43687000  0.27811700  1
  O  O30  1  0.23190400  0.51994000  0.45393600  1
  O  O31  1  0.76904900  0.47990000  0.54680600  1
  O  O32  1  0.25998000  0.61696200  0.20792200  1
  O  O33  1  0.74893200  0.38908400  0.79576000  1
