# generated using pymatgen
data_NaPrTiNbO6F
_symmetry_space_group_name_H-M   'P 1'
_cell_length_a   7.37994881
_cell_length_b   7.37994881
_cell_length_c   7.37994881
_cell_angle_alpha   121.12603239
_cell_angle_beta   117.90606299
_cell_angle_gamma   90.86258318
_symmetry_Int_Tables_number   1
_chemical_formula_structural   NaPrTiNbO6F
_chemical_formula_sum   'Na2 Pr2 Ti2 Nb2 O12 F2'
_cell_volume   285.98019541
_cell_formula_units_Z   2
loop_
 _symmetry_equiv_pos_site_id
 _symmetry_equiv_pos_as_xyz
  1  'x, y, z'
loop_
 _atom_site_type_symbol
 _atom_site_label
 _atom_site_symmetry_multiplicity
 _atom_site_fract_x
 _atom_site_fract_y
 _atom_site_fract_z
 _atom_site_occupancy
  Na  Na0  1  0.00000000  0.00000000  0.50000000  1
  Na  Na1  1  0.00000000  0.50000000  0.00000000  1
  Pr  Pr2  1  0.00000000  0.00000000  0.00000000  1
  Pr  Pr3  1  0.50000000  0.00000000  0.50000000  1
  Ti  Ti4  1  0.50000000  0.50000000  0.50000000  1
  Ti  Ti5  1  0.50000000  0.00000000  0.00000000  1
  Nb  Nb6  1  0.50000000  0.50000000  0.00000000  1
  Nb  Nb7  1  0.00000000  0.50000000  0.50000000  1
  O  O8  1  0.42206100  0.17206100  0.25000000  1
  O  O9  1  0.81569000  0.56569000  0.25000000  1
  O  O10  1  0.43767900  0.58143700  0.26510900  1
  O  O11  1  0.81632800  0.17257100  0.23489100  1
  O  O12  1  0.43767900  0.17257100  0.85624200  1
  O  O13  1  0.81632800  0.58143700  0.64375800  1
  O  O14  1  0.57793900  0.82793900  0.75000000  1
  O  O15  1  0.18431000  0.43431000  0.75000000  1
  O  O16  1  0.56232100  0.41856300  0.73489100  1
  O  O17  1  0.18367200  0.82742900  0.76510900  1
  O  O18  1  0.56232100  0.82742900  0.14375800  1
  O  O19  1  0.18367200  0.41856300  0.35624200  1
  F  F20  1  0.11982200  0.86982200  0.25000000  1
  F  F21  1  0.88017800  0.13017800  0.75000000  1
