# generated using pymatgen
data_NaTi5(NCl)5
_symmetry_space_group_name_H-M   'P 1'
_cell_length_a   5.21790100
_cell_length_b   9.47050067
_cell_length_c   12.45463306
_cell_angle_alpha   69.82599680
_cell_angle_beta   87.56463731
_cell_angle_gamma   86.86692720
_symmetry_Int_Tables_number   1
_chemical_formula_structural   NaTi5(NCl)5
_chemical_formula_sum   'Na2 Ti10 N10 Cl10'
_cell_volume   576.65405426
_cell_formula_units_Z   2
loop_
 _symmetry_equiv_pos_site_id
 _symmetry_equiv_pos_as_xyz
  1  'x, y, z'
loop_
 _atom_site_type_symbol
 _atom_site_label
 _atom_site_symmetry_multiplicity
 _atom_site_fract_x
 _atom_site_fract_y
 _atom_site_fract_z
 _atom_site_occupancy
  Na  Na0  1  0.00200200  0.73555900  0.74377900  1
  Na  Na1  1  0.99799800  0.26444100  0.25622100  1
  Ti  Ti2  1  0.94290700  0.15413200  0.92248100  1
  Ti  Ti3  1  0.14272900  0.75253400  0.32438000  1
  Ti  Ti4  1  0.54147800  0.95445400  0.12269400  1
  Ti  Ti5  1  0.34235400  0.35297800  0.72526300  1
  Ti  Ti6  1  0.74198900  0.55629800  0.52098600  1
  Ti  Ti7  1  0.85727100  0.24746600  0.67562000  1
  Ti  Ti8  1  0.05709300  0.84586800  0.07751900  1
  Ti  Ti9  1  0.45852200  0.04554600  0.87730600  1
  Ti  Ti10  1  0.25801100  0.44370200  0.47901400  1
  Ti  Ti11  1  0.65764600  0.64702200  0.27473700  1
  N  N12  1  0.15543800  0.16450200  0.78433000  1
  N  N13  1  0.35474200  0.76426200  0.18514100  1
  N  N14  1  0.75536300  0.96400500  0.98441200  1
  N  N15  1  0.55508600  0.36565400  0.58515600  1
  N  N16  1  0.95484100  0.56325400  0.38458000  1
  N  N17  1  0.64525800  0.23573800  0.81485900  1
  N  N18  1  0.84456200  0.83549800  0.21567000  1
  N  N19  1  0.24463700  0.03599500  0.01558800  1
  N  N20  1  0.04515900  0.43674600  0.61542000  1
  N  N21  1  0.44491400  0.63434600  0.41484400  1
  Cl  Cl22  1  0.51959000  0.61356000  0.69137500  1
  Cl  Cl23  1  0.92104600  0.80788800  0.49177700  1
  Cl  Cl24  1  0.32638500  0.00766100  0.29239300  1
  Cl  Cl25  1  0.71364700  0.21216000  0.08766000  1
  Cl  Cl26  1  0.11879000  0.41192000  0.88804000  1
  Cl  Cl27  1  0.07895400  0.19211200  0.50822300  1
  Cl  Cl28  1  0.48041000  0.38644000  0.30862500  1
  Cl  Cl29  1  0.88121000  0.58808000  0.11196000  1
  Cl  Cl30  1  0.28635300  0.78784000  0.91234000  1
  Cl  Cl31  1  0.67361500  0.99233900  0.70760700  1
