# generated using pymatgen
data_NaSb(OF2)2
_symmetry_space_group_name_H-M   'P 1'
_cell_length_a   5.44946083
_cell_length_b   5.44946083
_cell_length_c   9.87083083
_cell_angle_alpha   89.71971504
_cell_angle_beta   89.71971504
_cell_angle_gamma   119.38802966
_symmetry_Int_Tables_number   1
_chemical_formula_structural   NaSb(OF2)2
_chemical_formula_sum   'Na2 Sb2 O4 F8'
_cell_volume   255.39726124
_cell_formula_units_Z   2
loop_
 _symmetry_equiv_pos_site_id
 _symmetry_equiv_pos_as_xyz
  1  'x, y, z'
loop_
 _atom_site_type_symbol
 _atom_site_label
 _atom_site_symmetry_multiplicity
 _atom_site_fract_x
 _atom_site_fract_y
 _atom_site_fract_z
 _atom_site_occupancy
  Na  Na0  1  0.00400800  0.98855300  0.49836500  1
  Na  Na1  1  0.98855300  0.00400800  0.99836500  1
  Sb  Sb2  1  0.32775900  0.65145400  0.25017200  1
  Sb  Sb3  1  0.65145400  0.32775900  0.75017200  1
  O  O4  1  0.61381500  0.98423100  0.34877200  1
  O  O5  1  0.98423100  0.61381500  0.84877200  1
  O  O6  1  0.99424800  0.37650800  0.65720300  1
  O  O7  1  0.37650800  0.99424800  0.15720300  1
  F  F8  1  0.03225900  0.64956400  0.36355500  1
  F  F9  1  0.32416400  0.36466700  0.36627700  1
  F  F10  1  0.64956400  0.03225900  0.86355500  1
  F  F11  1  0.36466700  0.32416400  0.86627700  1
  F  F12  1  0.37297100  0.04732400  0.63320200  1
  F  F13  1  0.65351500  0.61871600  0.63260700  1
  F  F14  1  0.04732400  0.37297100  0.13320200  1
  F  F15  1  0.61871600  0.65351500  0.13260700  1
