# generated using pymatgen
data_Na8Zr3Ti3Mn2Si8(O17F)2
_symmetry_space_group_name_H-M   'P 1'
_cell_length_a   5.59540900
_cell_length_b   7.14603259
_cell_length_c   18.24198815
_cell_angle_alpha   90.21877773
_cell_angle_beta   94.53955387
_cell_angle_gamma   90.16487919
_symmetry_Int_Tables_number   1
_chemical_formula_structural   Na8Zr3Ti3Mn2Si8(O17F)2
_chemical_formula_sum   'Na8 Zr3 Ti3 Mn2 Si8 O34 F2'
_cell_volume   727.10824666
_cell_formula_units_Z   1
loop_
 _symmetry_equiv_pos_site_id
 _symmetry_equiv_pos_as_xyz
  1  'x, y, z'
loop_
 _atom_site_type_symbol
 _atom_site_label
 _atom_site_symmetry_multiplicity
 _atom_site_fract_x
 _atom_site_fract_y
 _atom_site_fract_z
 _atom_site_occupancy
  Na  Na0  1  0.63258800  0.61061300  0.42682600  1
  Na  Na1  1  0.87465000  0.61633100  0.06779200  1
  Na  Na2  1  0.36887500  0.38520400  0.56874800  1
  Na  Na3  1  0.13161400  0.38933200  0.92705000  1
  Na  Na4  1  0.74528500  0.84125500  0.24991400  1
  Na  Na5  1  0.24522600  0.15953500  0.75308300  1
  Na  Na6  1  0.25441700  0.60904200  0.25050200  1
  Na  Na7  1  0.75273000  0.38999500  0.75196100  1
  Zr  Zr8  1  0.62154200  0.12419100  0.42209600  1
  Zr  Zr9  1  0.88247300  0.11877000  0.07222100  1
  Zr  Zr10  1  0.37883900  0.87808000  0.57432600  1
  Ti  Ti11  1  0.24129800  0.11103900  0.24811400  1
  Ti  Ti12  1  0.73681800  0.89069400  0.75065700  1
  Ti  Ti13  1  0.12208700  0.87442400  0.92031800  1
  Mn  Mn14  1  0.74501700  0.36024100  0.25103200  1
  Mn  Mn15  1  0.24555400  0.63726900  0.75261200  1
  Si  Si16  1  0.11380900  0.38758300  0.39568700  1
  Si  Si17  1  0.38808200  0.38636000  0.10376200  1
  Si  Si18  1  0.88753200  0.61286500  0.60655600  1
  Si  Si19  1  0.61234600  0.61755400  0.89640900  1
  Si  Si20  1  0.11583700  0.84251200  0.39584700  1
  Si  Si21  1  0.38085700  0.84209900  0.10255200  1
  Si  Si22  1  0.88281600  0.15722300  0.60575700  1
  Si  Si23  1  0.61110800  0.15444000  0.89775200  1
  O  O24  1  0.35157500  0.90843700  0.45029300  1
  O  O25  1  0.14718400  0.90545700  0.04879600  1
  O  O26  1  0.64728500  0.09301600  0.55222800  1
  O  O27  1  0.85384700  0.08744100  0.94776200  1
  O  O28  1  0.13662200  0.91740700  0.31198500  1
  O  O29  1  0.35522100  0.91836900  0.18676900  1
  O  O30  1  0.86098400  0.07957700  0.68954400  1
  O  O31  1  0.63325700  0.08786200  0.81184200  1
  O  O32  1  0.35972300  0.32210300  0.44149300  1
  O  O33  1  0.14164100  0.32449800  0.05732100  1
  O  O34  1  0.64186400  0.67624800  0.56064000  1
  O  O35  1  0.86502800  0.68851900  0.93839100  1
  O  O36  1  0.87928600  0.32714800  0.43779700  1
  O  O37  1  0.62709600  0.32608800  0.06393800  1
  O  O38  1  0.12589200  0.67081400  0.56587600  1
  O  O39  1  0.36953200  0.69052100  0.93325500  1
  O  O40  1  0.55102700  0.13174600  0.31206300  1
  O  O41  1  0.94239000  0.14102800  0.18753200  1
  O  O42  1  0.44259100  0.86050200  0.68969500  1
  O  O43  1  0.04770000  0.87014400  0.82092800  1
  O  O44  1  0.08682200  0.31202100  0.31008800  1
  O  O45  1  0.40923500  0.30959800  0.18928300  1
  O  O46  1  0.91451400  0.69238100  0.69225400  1
  O  O47  1  0.58731700  0.68225200  0.80926300  1
  O  O48  1  0.13373300  0.61565700  0.39074800  1
  O  O49  1  0.37692800  0.61453000  0.11072400  1
  O  O50  1  0.87555300  0.38461000  0.61370700  1
  O  O51  1  0.61781800  0.38615700  0.89704600  1
  O  O52  1  0.86014900  0.90162300  0.42380100  1
  O  O53  1  0.64086000  0.90232300  0.07754700  1
  O  O54  1  0.14012600  0.09628300  0.57906500  1
  O  O55  1  0.35192000  0.08288400  0.92152400  1
  O  O56  1  0.63078600  0.54753400  0.30341200  1
  O  O57  1  0.12984900  0.44939300  0.80338900  1
  F  F58  1  0.89589400  0.56730700  0.18912000  1
  F  F59  1  0.39735200  0.43187100  0.68930700  1
