# generated using pymatgen
data_NaSm9Si6(SO12)2
_symmetry_space_group_name_H-M   'P 1'
_cell_length_a   9.89191106
_cell_length_b   9.89191106
_cell_length_c   6.77186300
_cell_angle_alpha   90.00000000
_cell_angle_beta   90.00000000
_cell_angle_gamma   119.99999372
_symmetry_Int_Tables_number   1
_chemical_formula_structural   NaSm9Si6(SO12)2
_chemical_formula_sum   'Na1 Sm9 Si6 S2 O24'
_cell_volume   573.85111321
_cell_formula_units_Z   1
loop_
 _symmetry_equiv_pos_site_id
 _symmetry_equiv_pos_as_xyz
  1  'x, y, z'
loop_
 _atom_site_type_symbol
 _atom_site_label
 _atom_site_symmetry_multiplicity
 _atom_site_fract_x
 _atom_site_fract_y
 _atom_site_fract_z
 _atom_site_occupancy
  Na  Na0  1  0.33333300  0.66666700  0.49335600  1
  Sm  Sm1  1  0.00000000  0.00000000  0.99630900  1
  Sm  Sm2  1  0.00000000  0.00000000  0.50322100  1
  Sm  Sm3  1  0.33333300  0.66666700  0.00794600  1
  Sm  Sm4  1  0.41423700  0.32191500  0.25079200  1
  Sm  Sm5  1  0.90767900  0.58576300  0.25079200  1
  Sm  Sm6  1  0.67808500  0.09232100  0.25079200  1
  Sm  Sm7  1  0.92152100  0.35260800  0.74779200  1
  Sm  Sm8  1  0.43108700  0.07847900  0.74779200  1
  Sm  Sm9  1  0.64739200  0.56891300  0.74779200  1
  Si  Si10  1  0.25642500  0.95471200  0.24713200  1
  Si  Si11  1  0.69828700  0.74357500  0.24713200  1
  Si  Si12  1  0.04528800  0.30171300  0.24713200  1
  Si  Si13  1  0.08026400  0.71654900  0.75069400  1
  Si  Si14  1  0.63628600  0.91973600  0.75069400  1
  Si  Si15  1  0.28345100  0.36371400  0.75069400  1
  S  S16  1  0.66666700  0.33333300  0.49231500  1
  S  S17  1  0.66666700  0.33333300  0.00100200  1
  O  O18  1  0.06155500  0.86169200  0.24986900  1
  O  O19  1  0.80013700  0.93844500  0.24986900  1
  O  O20  1  0.13830800  0.19986300  0.24986900  1
  O  O21  1  0.27146800  0.81114400  0.75921000  1
  O  O22  1  0.53967600  0.72853200  0.75921000  1
  O  O23  1  0.18885600  0.46032400  0.75921000  1
  O  O24  1  0.33110500  0.84306200  0.23950700  1
  O  O25  1  0.51195700  0.66889500  0.23950700  1
  O  O26  1  0.15693800  0.48804300  0.23950700  1
  O  O27  1  0.01156300  0.83700000  0.74980900  1
  O  O28  1  0.82543700  0.98843700  0.74980900  1
  O  O29  1  0.16300000  0.17456300  0.74980900  1
  O  O30  1  0.30443100  0.06923700  0.44357400  1
  O  O31  1  0.76480700  0.69556900  0.44357400  1
  O  O32  1  0.93076300  0.23519300  0.44357400  1
  O  O33  1  0.02463400  0.59858200  0.94427000  1
  O  O34  1  0.57394800  0.97536600  0.94427000  1
  O  O35  1  0.40141800  0.42605200  0.94427000  1
  O  O36  1  0.01043000  0.59483200  0.56402400  1
  O  O37  1  0.58440200  0.98957000  0.56402400  1
  O  O38  1  0.40516800  0.41559800  0.56402400  1
  O  O39  1  0.30369800  0.07414300  0.05527300  1
  O  O40  1  0.77044500  0.69630200  0.05527300  1
  O  O41  1  0.92585700  0.22955500  0.05527300  1
