# generated using pymatgen
data_Na5Fe3Ag2(As2O7)4
_symmetry_space_group_name_H-M   'P 1'
_cell_length_a   6.69675818
_cell_length_b   6.69675818
_cell_length_c   29.26266475
_cell_angle_alpha   86.90893321
_cell_angle_beta   86.90893321
_cell_angle_gamma   81.25618322
_symmetry_Int_Tables_number   1
_chemical_formula_structural   Na5Fe3Ag2(As2O7)4
_chemical_formula_sum   'Na10 Fe6 Ag4 As16 O56'
_cell_volume   1293.80016009
_cell_formula_units_Z   2
loop_
 _symmetry_equiv_pos_site_id
 _symmetry_equiv_pos_as_xyz
  1  'x, y, z'
loop_
 _atom_site_type_symbol
 _atom_site_label
 _atom_site_symmetry_multiplicity
 _atom_site_fract_x
 _atom_site_fract_y
 _atom_site_fract_z
 _atom_site_occupancy
  Na  Na0  1  0.09776000  0.33802300  0.94770900  1
  Na  Na1  1  0.66197700  0.90224000  0.55229100  1
  Na  Na2  1  0.90224000  0.66197700  0.05229100  1
  Na  Na3  1  0.33802300  0.09776000  0.44770900  1
  Na  Na4  1  0.52887200  0.47112800  0.75000000  1
  Na  Na5  1  0.47112800  0.52887200  0.25000000  1
  Na  Na6  1  0.32508000  0.10190700  0.84827600  1
  Na  Na7  1  0.89809300  0.67492000  0.65172400  1
  Na  Na8  1  0.67492000  0.89809300  0.15172400  1
  Na  Na9  1  0.10190700  0.32508000  0.34827600  1
  Fe  Fe10  1  0.66157800  0.70519100  0.93653500  1
  Fe  Fe11  1  0.29480900  0.33842200  0.56346500  1
  Fe  Fe12  1  0.33842200  0.29480900  0.06346500  1
  Fe  Fe13  1  0.70519100  0.66157800  0.43653500  1
  Fe  Fe14  1  0.13247700  0.86752300  0.75000000  1
  Fe  Fe15  1  0.86752300  0.13247700  0.25000000  1
  Ag  Ag16  1  0.83905300  0.11533100  0.85508400  1
  Ag  Ag17  1  0.88466900  0.16094700  0.64491600  1
  Ag  Ag18  1  0.16094700  0.88466900  0.14491600  1
  Ag  Ag19  1  0.11533100  0.83905300  0.35508400  1
  As  As20  1  0.38281200  0.79191700  0.03556300  1
  As  As21  1  0.20808300  0.61718800  0.46443700  1
  As  As22  1  0.61718800  0.20808300  0.96443700  1
  As  As23  1  0.79191700  0.38281200  0.53556300  1
  As  As24  1  0.15475800  0.82411500  0.94267700  1
  As  As25  1  0.17588500  0.84524200  0.55732300  1
  As  As26  1  0.84524200  0.17588500  0.05732300  1
  As  As27  1  0.82411500  0.15475800  0.44267700  1
  As  As28  1  0.01153500  0.39382200  0.74798500  1
  As  As29  1  0.60617800  0.98846500  0.75201500  1
  As  As30  1  0.98846500  0.60617800  0.25201500  1
  As  As31  1  0.39382200  0.01153500  0.24798500  1
  As  As32  1  0.95079300  0.60912400  0.84016300  1
  As  As33  1  0.39087600  0.04920700  0.65983700  1
  As  As34  1  0.04920700  0.39087600  0.15983700  1
  As  As35  1  0.60912400  0.95079300  0.34016300  1
  O  O36  1  0.10420800  0.41926200  0.86546200  1
  O  O37  1  0.58073800  0.89579200  0.63453800  1
  O  O38  1  0.89579200  0.58073800  0.13453800  1
  O  O39  1  0.41926200  0.10420800  0.36546200  1
  O  O40  1  0.84123300  0.49745000  0.79388700  1
  O  O41  1  0.50255000  0.15876700  0.70611300  1
  O  O42  1  0.15876700  0.50255000  0.20611300  1
  O  O43  1  0.49745000  0.84123300  0.29388700  1
  O  O44  1  0.27338600  0.60229300  0.06282600  1
  O  O45  1  0.39770700  0.72661400  0.43717400  1
  O  O46  1  0.72661400  0.39770700  0.93717400  1
  O  O47  1  0.60229300  0.27338600  0.56282600  1
  O  O48  1  0.37404600  0.67495100  0.92642000  1
  O  O49  1  0.32504900  0.62595400  0.57358000  1
  O  O50  1  0.62595400  0.32504900  0.07358000  1
  O  O51  1  0.67495100  0.37404600  0.42642000  1
  O  O52  1  0.19845700  0.91433200  0.99772400  1
  O  O53  1  0.08566800  0.80154300  0.50227600  1
  O  O54  1  0.80154300  0.08566800  0.00227600  1
  O  O55  1  0.91433200  0.19845700  0.49772400  1
  O  O56  1  0.09883200  0.03666200  0.90944900  1
  O  O57  1  0.96333800  0.90116800  0.59055100  1
  O  O58  1  0.90116800  0.96333800  0.09055100  1
  O  O59  1  0.03666200  0.09883200  0.40944900  1
  O  O60  1  0.85407400  0.39942300  0.70419800  1
  O  O61  1  0.60057700  0.14592600  0.79580200  1
  O  O62  1  0.14592600  0.60057700  0.29580200  1
  O  O63  1  0.39942300  0.85407400  0.20419800  1
  O  O64  1  0.60535800  0.71642800  0.00587900  1
  O  O65  1  0.28357200  0.39464200  0.49412100  1
  O  O66  1  0.39464200  0.28357200  0.99412100  1
  O  O67  1  0.71642800  0.60535800  0.50587900  1
  O  O68  1  0.06474100  0.80722400  0.81621200  1
  O  O69  1  0.19277600  0.93525900  0.68378800  1
  O  O70  1  0.93525900  0.19277600  0.18378800  1
  O  O71  1  0.80722400  0.06474100  0.31621200  1
  O  O72  1  0.18361100  0.55842700  0.73936500  1
  O  O73  1  0.44157300  0.81638900  0.76063500  1
  O  O74  1  0.81638900  0.44157300  0.26063500  1
  O  O75  1  0.55842700  0.18361100  0.23936500  1
  O  O76  1  0.11790600  0.16029500  0.76871000  1
  O  O77  1  0.83970500  0.88209400  0.73129000  1
  O  O78  1  0.88209400  0.83970500  0.23129000  1
  O  O79  1  0.16029500  0.11790600  0.26871000  1
  O  O80  1  0.40184100  0.97562600  0.07299600  1
  O  O81  1  0.02437400  0.59815900  0.42700400  1
  O  O82  1  0.59815900  0.02437400  0.92700400  1
  O  O83  1  0.97562600  0.40184100  0.57299600  1
  O  O84  1  0.96299900  0.68391800  0.95401500  1
  O  O85  1  0.31608200  0.03700100  0.54598500  1
  O  O86  1  0.03700100  0.31608200  0.04598500  1
  O  O87  1  0.68391800  0.96299900  0.45401500  1
  O  O88  1  0.73838200  0.71908200  0.86966400  1
  O  O89  1  0.28091800  0.26161800  0.63033600  1
  O  O90  1  0.26161800  0.28091800  0.13033600  1
  O  O91  1  0.71908200  0.73838200  0.36966400  1
