# generated using pymatgen
data_NaNdTi2O6
_symmetry_space_group_name_H-M   'P 1'
_cell_length_a   5.47245800
_cell_length_b   5.50854500
_cell_length_c   7.73527100
_cell_angle_alpha   90.00000000
_cell_angle_beta   90.00000000
_cell_angle_gamma   90.00000000
_symmetry_Int_Tables_number   1
_chemical_formula_structural   NaNdTi2O6
_chemical_formula_sum   'Na2 Nd2 Ti4 O12'
_cell_volume   233.18191909
_cell_formula_units_Z   2
loop_
 _symmetry_equiv_pos_site_id
 _symmetry_equiv_pos_as_xyz
  1  'x, y, z'
loop_
 _atom_site_type_symbol
 _atom_site_label
 _atom_site_symmetry_multiplicity
 _atom_site_fract_x
 _atom_site_fract_y
 _atom_site_fract_z
 _atom_site_occupancy
  Na  Na0  1  0.49708500  0.76545300  0.50000000  1
  Na  Na1  1  0.99708500  0.23454700  0.00000000  1
  Nd  Nd2  1  0.00953500  0.28415400  0.50000000  1
  Nd  Nd3  1  0.50953500  0.71584600  0.00000000  1
  Ti  Ti4  1  0.50196400  0.24500000  0.75081800  1
  Ti  Ti5  1  0.00196400  0.75500000  0.25081800  1
  Ti  Ti6  1  0.50196400  0.24500000  0.24918200  1
  Ti  Ti7  1  0.00196400  0.75500000  0.74918200  1
  O  O8  1  0.27222500  0.52378300  0.71367600  1
  O  O9  1  0.21596500  0.03331500  0.28906400  1
  O  O10  1  0.71596500  0.96668500  0.21093600  1
  O  O11  1  0.77222500  0.47621700  0.78632400  1
  O  O12  1  0.71596500  0.96668500  0.78906400  1
  O  O13  1  0.77222500  0.47621700  0.21367600  1
  O  O14  1  0.27222500  0.52378300  0.28632400  1
  O  O15  1  0.21596500  0.03331500  0.71093600  1
  O  O16  1  0.57745700  0.23936900  0.50000000  1
  O  O17  1  0.93561500  0.73641000  0.50000000  1
  O  O18  1  0.43561500  0.26359000  0.00000000  1
  O  O19  1  0.07745700  0.76063100  0.00000000  1
