# generated using pymatgen
data_NaNdNb4O12
_symmetry_space_group_name_H-M   'P 1'
_cell_length_a   8.95208483
_cell_length_b   8.95208483
_cell_length_c   8.95208483
_cell_angle_alpha   143.40772671
_cell_angle_beta   143.40772671
_cell_angle_gamma   52.71387512
_symmetry_Int_Tables_number   1
_chemical_formula_structural   NaNdNb4O12
_chemical_formula_sum   'Na1 Nd1 Nb4 O12'
_cell_volume   253.41016268
_cell_formula_units_Z   1
loop_
 _symmetry_equiv_pos_site_id
 _symmetry_equiv_pos_as_xyz
  1  'x, y, z'
loop_
 _atom_site_type_symbol
 _atom_site_label
 _atom_site_symmetry_multiplicity
 _atom_site_fract_x
 _atom_site_fract_y
 _atom_site_fract_z
 _atom_site_occupancy
  Na  Na0  1  0.00000000  0.00000000  0.00000000  1
  Nd  Nd1  1  0.50000000  0.50000000  0.00000000  1
  Nb  Nb2  1  0.62897200  0.12897200  0.50000000  1
  Nb  Nb3  1  0.12897200  0.62897200  0.50000000  1
  Nb  Nb4  1  0.87102800  0.37102800  0.50000000  1
  Nb  Nb5  1  0.37102800  0.87102800  0.50000000  1
  O  O6  1  0.85575700  0.85575700  0.48353400  1
  O  O7  1  0.37222300  0.37222300  0.51646600  1
  O  O8  1  0.14424300  0.14424300  0.51646600  1
  O  O9  1  0.62777700  0.62777700  0.48353400  1
  O  O10  1  0.37222300  0.85575700  0.00000000  1
  O  O11  1  0.85575700  0.37222300  0.00000000  1
  O  O12  1  0.62777700  0.14424300  0.00000000  1
  O  O13  1  0.14424300  0.62777700  0.00000000  1
  O  O14  1  0.75000000  0.25000000  0.50000000  1
  O  O15  1  0.25000000  0.75000000  0.50000000  1
  O  O16  1  0.50000000  0.00000000  0.50000000  1
  O  O17  1  0.00000000  0.50000000  0.50000000  1
