# generated using pymatgen
data_Nb12InSn3
_symmetry_space_group_name_H-M   'P 1'
_cell_length_a   5.32621300
_cell_length_b   5.36289400
_cell_length_c   10.60827200
_cell_angle_alpha   90.00000000
_cell_angle_beta   90.00000000
_cell_angle_gamma   90.00000000
_symmetry_Int_Tables_number   1
_chemical_formula_structural   Nb12InSn3
_chemical_formula_sum   'Nb12 In1 Sn3'
_cell_volume   303.01378756
_cell_formula_units_Z   1
loop_
 _symmetry_equiv_pos_site_id
 _symmetry_equiv_pos_as_xyz
  1  'x, y, z'
loop_
 _atom_site_type_symbol
 _atom_site_label
 _atom_site_symmetry_multiplicity
 _atom_site_fract_x
 _atom_site_fract_y
 _atom_site_fract_z
 _atom_site_occupancy
  Nb  Nb0  1  0.00000000  0.50000000  0.12825400  1
  Nb  Nb1  1  0.00000000  0.50000000  0.62935500  1
  Nb  Nb2  1  0.50000000  0.24383500  0.74891800  1
  Nb  Nb3  1  0.50000000  0.24383500  0.25108200  1
  Nb  Nb4  1  0.75217000  0.00000000  0.00000000  1
  Nb  Nb5  1  0.74813000  0.00000000  0.50000000  1
  Nb  Nb6  1  0.00000000  0.50000000  0.87174600  1
  Nb  Nb7  1  0.00000000  0.50000000  0.37064500  1
  Nb  Nb8  1  0.50000000  0.75616500  0.74891800  1
  Nb  Nb9  1  0.50000000  0.75616500  0.25108200  1
  Nb  Nb10  1  0.24783000  0.00000000  0.00000000  1
  Nb  Nb11  1  0.25187000  0.00000000  0.50000000  1
  In  In12  1  0.50000000  0.50000000  0.00000000  1
  Sn  Sn13  1  0.50000000  0.50000000  0.50000000  1
  Sn  Sn14  1  0.00000000  0.00000000  0.74984600  1
  Sn  Sn15  1  0.00000000  0.00000000  0.25015400  1
