# generated using pymatgen
data_NaErTi2O6
_symmetry_space_group_name_H-M   'P 1'
_cell_length_a   5.31039500
_cell_length_b   5.52733100
_cell_length_c   7.61137400
_cell_angle_alpha   90.00000000
_cell_angle_beta   90.00000000
_cell_angle_gamma   90.00000000
_symmetry_Int_Tables_number   1
_chemical_formula_structural   NaErTi2O6
_chemical_formula_sum   'Na2 Er2 Ti4 O12'
_cell_volume   223.41141607
_cell_formula_units_Z   2
loop_
 _symmetry_equiv_pos_site_id
 _symmetry_equiv_pos_as_xyz
  1  'x, y, z'
loop_
 _atom_site_type_symbol
 _atom_site_label
 _atom_site_symmetry_multiplicity
 _atom_site_fract_x
 _atom_site_fract_y
 _atom_site_fract_z
 _atom_site_occupancy
  Na  Na0  1  0.49383200  0.71387300  0.50000000  1
  Na  Na1  1  0.99383200  0.28612700  0.00000000  1
  Er  Er2  1  0.01874100  0.17850900  0.50000000  1
  Er  Er3  1  0.51874100  0.82149100  0.00000000  1
  Ti  Ti4  1  0.51215800  0.26388300  0.75281000  1
  Ti  Ti5  1  0.01215800  0.73611700  0.25281000  1
  Ti  Ti6  1  0.51215800  0.26388300  0.24719000  1
  Ti  Ti7  1  0.01215800  0.73611700  0.74719000  1
  O  O8  1  0.18912600  0.44415000  0.69546600  1
  O  O9  1  0.27843600  0.96426700  0.29238800  1
  O  O10  1  0.77843600  0.03573300  0.20761200  1
  O  O11  1  0.68912600  0.55585000  0.80453400  1
  O  O12  1  0.77843600  0.03573300  0.79238800  1
  O  O13  1  0.68912600  0.55585000  0.19546600  1
  O  O14  1  0.18912600  0.44415000  0.30453400  1
  O  O15  1  0.27843600  0.96426700  0.70761200  1
  O  O16  1  0.92113900  0.77758000  0.50000000  1
  O  O17  1  0.60684800  0.27523700  0.50000000  1
  O  O18  1  0.10684800  0.72476300  0.00000000  1
  O  O19  1  0.42113900  0.22242000  0.00000000  1
