# generated using pymatgen
data_NaFeSnO4
_symmetry_space_group_name_H-M   'P 1'
_cell_length_a   3.12111900
_cell_length_b   9.45848900
_cell_length_c   11.15064700
_cell_angle_alpha   90.00000000
_cell_angle_beta   90.00000000
_cell_angle_gamma   90.00000000
_symmetry_Int_Tables_number   1
_chemical_formula_structural   NaFeSnO4
_chemical_formula_sum   'Na4 Fe4 Sn4 O16'
_cell_volume   329.17902761
_cell_formula_units_Z   4
loop_
 _symmetry_equiv_pos_site_id
 _symmetry_equiv_pos_as_xyz
  1  'x, y, z'
loop_
 _atom_site_type_symbol
 _atom_site_label
 _atom_site_symmetry_multiplicity
 _atom_site_fract_x
 _atom_site_fract_y
 _atom_site_fract_z
 _atom_site_occupancy
  Na  Na0  1  0.00000000  0.75708200  0.09908900  1
  Na  Na1  1  0.00000000  0.25708200  0.90091100  1
  Na  Na2  1  0.50000000  0.24091400  0.40391000  1
  Na  Na3  1  0.50000000  0.74091400  0.59609000  1
  Fe  Fe4  1  0.00000000  0.41920000  0.64451300  1
  Fe  Fe5  1  0.00000000  0.91920000  0.35548700  1
  Fe  Fe6  1  0.00000000  0.43479000  0.13599400  1
  Fe  Fe7  1  0.00000000  0.93479000  0.86400600  1
  Sn  Sn8  1  0.50000000  0.58365100  0.85299400  1
  Sn  Sn9  1  0.50000000  0.08365100  0.14700600  1
  Sn  Sn10  1  0.50000000  0.56264900  0.36244200  1
  Sn  Sn11  1  0.50000000  0.06264900  0.63755800  1
  O  O12  1  0.00000000  0.41896900  0.32250300  1
  O  O13  1  0.00000000  0.91896900  0.67749700  1
  O  O14  1  0.50000000  0.57395900  0.17499600  1
  O  O15  1  0.50000000  0.07395900  0.82500400  1
  O  O16  1  0.00000000  0.20670400  0.59540700  1
  O  O17  1  0.00000000  0.70670400  0.40459300  1
  O  O18  1  0.50000000  0.79699700  0.90460400  1
  O  O19  1  0.50000000  0.29699700  0.09539600  1
  O  O20  1  0.00000000  0.52251900  0.96705800  1
  O  O21  1  0.00000000  0.02251900  0.03294200  1
  O  O22  1  0.50000000  0.47860700  0.53609100  1
  O  O23  1  0.50000000  0.97860700  0.46390900  1
  O  O24  1  0.00000000  0.11888700  0.27094700  1
  O  O25  1  0.00000000  0.61888700  0.72905300  1
  O  O26  1  0.50000000  0.88507100  0.23527400  1
  O  O27  1  0.50000000  0.38507100  0.76472600  1
