# generated using pymatgen
data_NaCaAlSi2O7
_symmetry_space_group_name_H-M   'P 1'
_cell_length_a   7.70878839
_cell_length_b   7.70878839
_cell_length_c   5.10815900
_cell_angle_alpha   90.00000000
_cell_angle_beta   90.00000000
_cell_angle_gamma   90.16342789
_symmetry_Int_Tables_number   1
_chemical_formula_structural   NaCaAlSi2O7
_chemical_formula_sum   'Na2 Ca2 Al2 Si4 O14'
_cell_volume   303.55325100
_cell_formula_units_Z   2
loop_
 _symmetry_equiv_pos_site_id
 _symmetry_equiv_pos_as_xyz
  1  'x, y, z'
loop_
 _atom_site_type_symbol
 _atom_site_label
 _atom_site_symmetry_multiplicity
 _atom_site_fract_x
 _atom_site_fract_y
 _atom_site_fract_z
 _atom_site_occupancy
  Na  Na0  1  0.34136900  0.34136900  0.48509100  1
  Na  Na1  1  0.65863100  0.65863100  0.48509100  1
  Ca  Ca2  1  0.83554700  0.16445300  0.51266000  1
  Ca  Ca3  1  0.16445300  0.83554700  0.51266000  1
  Al  Al4  1  0.50000000  0.00000000  0.99924500  1
  Al  Al5  1  0.00000000  0.50000000  0.99924500  1
  Si  Si6  1  0.14172500  0.14172500  0.04599400  1
  Si  Si7  1  0.64281300  0.35718700  0.95452700  1
  Si  Si8  1  0.85827500  0.85827500  0.04599400  1
  Si  Si9  1  0.35718700  0.64281300  0.95452700  1
  O  O10  1  0.13478400  0.13478400  0.73252300  1
  O  O11  1  0.65361500  0.34638500  0.26727000  1
  O  O12  1  0.86521600  0.86521600  0.73252300  1
  O  O13  1  0.34638500  0.65361500  0.26727000  1
  O  O14  1  0.50000000  0.50000000  0.84305500  1
  O  O15  1  0.00000000  0.00000000  0.18223900  1
  O  O16  1  0.41070100  0.82828600  0.80894100  1
  O  O17  1  0.91796000  0.67504600  0.18608000  1
  O  O18  1  0.58929900  0.17171400  0.80894100  1
  O  O19  1  0.08204000  0.32495400  0.18608000  1
  O  O20  1  0.32495400  0.08204000  0.18608000  1
  O  O21  1  0.82828600  0.41070100  0.80894100  1
  O  O22  1  0.67504600  0.91796000  0.18608000  1
  O  O23  1  0.17171400  0.58929900  0.80894100  1
