# generated using pymatgen
data_NaNbWO6
_symmetry_space_group_name_H-M   'P 1'
_cell_length_a   7.42701893
_cell_length_b   7.42701893
_cell_length_c   7.42701893
_cell_angle_alpha   120.12802758
_cell_angle_beta   119.88475943
_cell_angle_gamma   89.98905562
_symmetry_Int_Tables_number   1
_chemical_formula_structural   NaNbWO6
_chemical_formula_sum   'Na2 Nb2 W2 O12'
_cell_volume   289.65709243
_cell_formula_units_Z   2
loop_
 _symmetry_equiv_pos_site_id
 _symmetry_equiv_pos_as_xyz
  1  'x, y, z'
loop_
 _atom_site_type_symbol
 _atom_site_label
 _atom_site_symmetry_multiplicity
 _atom_site_fract_x
 _atom_site_fract_y
 _atom_site_fract_z
 _atom_site_occupancy
  Na  Na0  1  0.00000000  0.50000000  0.50000000  1
  Na  Na1  1  0.50000000  0.50000000  0.00000000  1
  Nb  Nb2  1  0.00000000  0.50000000  0.00000000  1
  Nb  Nb3  1  0.00000000  0.00000000  0.50000000  1
  W  W4  1  0.50000000  0.00000000  0.50000000  1
  W  W5  1  0.00000000  0.00000000  0.00000000  1
  O  O6  1  0.31705300  0.06555800  0.62436800  1
  O  O7  1  0.31705300  0.69268500  0.25149500  1
  O  O8  1  0.30654400  0.05654400  0.25000000  1
  O  O9  1  0.94119000  0.69268500  0.87563200  1
  O  O10  1  0.94119000  0.06555800  0.24850500  1
  O  O11  1  0.92896500  0.67896500  0.25000000  1
  O  O12  1  0.68294700  0.93444200  0.37563200  1
  O  O13  1  0.68294700  0.30731500  0.74850500  1
  O  O14  1  0.69345600  0.94345600  0.75000000  1
  O  O15  1  0.05881000  0.30731500  0.12436800  1
  O  O16  1  0.05881000  0.93444200  0.75149500  1
  O  O17  1  0.07103500  0.32103500  0.75000000  1
