# generated using pymatgen
data_NaSi2H7O8
_symmetry_space_group_name_H-M   'P 1'
_cell_length_a   5.00640900
_cell_length_b   7.41333900
_cell_length_c   20.44137600
_cell_angle_alpha   90.00000000
_cell_angle_beta   90.00000000
_cell_angle_gamma   90.00000000
_symmetry_Int_Tables_number   1
_chemical_formula_structural   NaSi2H7O8
_chemical_formula_sum   'Na4 Si8 H28 O32'
_cell_volume   758.66546206
_cell_formula_units_Z   4
loop_
 _symmetry_equiv_pos_site_id
 _symmetry_equiv_pos_as_xyz
  1  'x, y, z'
loop_
 _atom_site_type_symbol
 _atom_site_label
 _atom_site_symmetry_multiplicity
 _atom_site_fract_x
 _atom_site_fract_y
 _atom_site_fract_z
 _atom_site_occupancy
  Na  Na0  1  0.50074100  0.75274800  0.51953700  1
  Na  Na1  1  0.99925900  0.25274800  0.98046300  1
  Na  Na2  1  0.50074100  0.25274800  0.48046300  1
  Na  Na3  1  0.99925900  0.75274800  0.01953700  1
  Si  Si4  1  0.95474900  0.45750700  0.29059500  1
  Si  Si5  1  0.54525100  0.95750700  0.20940500  1
  Si  Si6  1  0.45633000  0.53845300  0.20318900  1
  Si  Si7  1  0.04367000  0.03845300  0.29681100  1
  Si  Si8  1  0.04367000  0.53845300  0.70318900  1
  Si  Si9  1  0.45633000  0.03845300  0.79681100  1
  Si  Si10  1  0.54525100  0.45750700  0.79059500  1
  Si  Si11  1  0.95474900  0.95750700  0.70940500  1
  H  H12  1  0.32504600  0.54921700  0.39459500  1
  H  H13  1  0.17495400  0.04921700  0.10540500  1
  H  H14  1  0.82379100  0.44869300  0.10343800  1
  H  H15  1  0.67620900  0.94869300  0.39656200  1
  H  H16  1  0.67620900  0.44869300  0.60343800  1
  H  H17  1  0.82379100  0.94869300  0.89656200  1
  H  H18  1  0.17495400  0.54921700  0.89459500  1
  H  H19  1  0.32504600  0.04921700  0.60540500  1
  H  H20  1  0.64051600  0.55815300  0.39544600  1
  H  H21  1  0.85948400  0.05815300  0.10455400  1
  H  H22  1  0.14070600  0.43895800  0.10307000  1
  H  H23  1  0.35929400  0.93895800  0.39693000  1
  H  H24  1  0.35929400  0.43895800  0.60307000  1
  H  H25  1  0.14070600  0.93895800  0.89693000  1
  H  H26  1  0.85948400  0.55815300  0.89544600  1
  H  H27  1  0.64051600  0.05815300  0.60455400  1
  H  H28  1  0.00227200  0.83255400  0.45165800  1
  H  H29  1  0.49772800  0.33255400  0.04834200  1
  H  H30  1  0.49819600  0.13809900  0.02334700  1
  H  H31  1  0.00180400  0.63809900  0.47665300  1
  H  H32  1  0.00180400  0.13809900  0.52334700  1
  H  H33  1  0.49819600  0.63809900  0.97665300  1
  H  H34  1  0.49772800  0.83255400  0.95165800  1
  H  H35  1  0.00227200  0.33255400  0.54834200  1
  H  H36  1  0.99764300  0.72977900  0.35247400  1
  H  H37  1  0.50235700  0.22977900  0.14752600  1
  H  H38  1  0.50235700  0.72977900  0.85247400  1
  H  H39  1  0.99764300  0.22977900  0.64752600  1
  O  O40  1  0.00121000  0.76230000  0.49270800  1
  O  O41  1  0.49879000  0.26230000  0.00729200  1
  O  O42  1  0.00121000  0.26230000  0.50729200  1
  O  O43  1  0.49879000  0.76230000  0.99270800  1
  O  O44  1  0.51553600  0.46751900  0.57553100  1
  O  O45  1  0.98446400  0.96751900  0.92446900  1
  O  O46  1  0.01627400  0.53104500  0.92291200  1
  O  O47  1  0.48372600  0.03104500  0.57708800  1
  O  O48  1  0.48372600  0.53104500  0.42291200  1
  O  O49  1  0.01627400  0.03104500  0.07708800  1
  O  O50  1  0.98446400  0.46751900  0.07553100  1
  O  O51  1  0.51553600  0.96751900  0.42446900  1
  O  O52  1  0.00104100  0.25102700  0.31503900  1
  O  O53  1  0.49895900  0.75102700  0.18496100  1
  O  O54  1  0.00104100  0.75102700  0.68496100  1
  O  O55  1  0.49895900  0.25102700  0.81503900  1
  O  O56  1  0.15052100  0.51262400  0.23030000  1
  O  O57  1  0.34947900  0.01262400  0.26970000  1
  O  O58  1  0.64861000  0.48026900  0.26461300  1
  O  O59  1  0.85139000  0.98026900  0.23538700  1
  O  O60  1  0.85139000  0.48026900  0.76461300  1
  O  O61  1  0.64861000  0.98026900  0.73538700  1
  O  O62  1  0.34947900  0.51262400  0.73030000  1
  O  O63  1  0.15052100  0.01262400  0.76970000  1
  O  O64  1  0.99919100  0.58396600  0.35563300  1
  O  O65  1  0.50080900  0.08396600  0.14436700  1
  O  O66  1  0.50118200  0.41598900  0.13841800  1
  O  O67  1  0.99881800  0.91598900  0.36158200  1
  O  O68  1  0.99881800  0.41598900  0.63841800  1
  O  O69  1  0.50118200  0.91598900  0.86158200  1
  O  O70  1  0.50080900  0.58396600  0.85563300  1
  O  O71  1  0.99919100  0.08396600  0.64436700  1
