# generated using pymatgen
data_Ca3Ti2(SiO4)3
_symmetry_space_group_name_H-M   'P 1'
_cell_length_a   10.62958888
_cell_length_b   10.62958888
_cell_length_c   10.62958888
_cell_angle_alpha   109.47122063
_cell_angle_beta   109.47122063
_cell_angle_gamma   109.47122063
_symmetry_Int_Tables_number   1
_chemical_formula_structural   Ca3Ti2(SiO4)3
_chemical_formula_sum   'Ca12 Ti8 Si12 O48'
_cell_volume   924.54384560
_cell_formula_units_Z   4
loop_
 _symmetry_equiv_pos_site_id
 _symmetry_equiv_pos_as_xyz
  1  'x, y, z'
loop_
 _atom_site_type_symbol
 _atom_site_label
 _atom_site_symmetry_multiplicity
 _atom_site_fract_x
 _atom_site_fract_y
 _atom_site_fract_z
 _atom_site_occupancy
  Ca  Ca0  1  0.75000000  0.12500000  0.37500000  1
  Ca  Ca1  1  0.25000000  0.37500000  0.12500000  1
  Ca  Ca2  1  0.12500000  0.25000000  0.37500000  1
  Ca  Ca3  1  0.37500000  0.75000000  0.12500000  1
  Ca  Ca4  1  0.75000000  0.62500000  0.87500000  1
  Ca  Ca5  1  0.12500000  0.37500000  0.75000000  1
  Ca  Ca6  1  0.62500000  0.87500000  0.75000000  1
  Ca  Ca7  1  0.25000000  0.87500000  0.62500000  1
  Ca  Ca8  1  0.87500000  0.62500000  0.25000000  1
  Ca  Ca9  1  0.62500000  0.25000000  0.87500000  1
  Ca  Ca10  1  0.87500000  0.75000000  0.62500000  1
  Ca  Ca11  1  0.37500000  0.12500000  0.25000000  1
  Ti  Ti12  1  0.00000000  0.00000000  0.00000000  1
  Ti  Ti13  1  0.50000000  0.00000000  0.00000000  1
  Ti  Ti14  1  0.00000000  0.50000000  0.00000000  1
  Ti  Ti15  1  0.50000000  0.50000000  0.00000000  1
  Ti  Ti16  1  0.00000000  0.50000000  0.50000000  1
  Ti  Ti17  1  0.50000000  0.00000000  0.50000000  1
  Ti  Ti18  1  0.50000000  0.50000000  0.50000000  1
  Ti  Ti19  1  0.00000000  0.00000000  0.50000000  1
  Si  Si20  1  0.12500000  0.87500000  0.25000000  1
  Si  Si21  1  0.87500000  0.12500000  0.75000000  1
  Si  Si22  1  0.25000000  0.62500000  0.37500000  1
  Si  Si23  1  0.37500000  0.25000000  0.62500000  1
  Si  Si24  1  0.75000000  0.87500000  0.12500000  1
  Si  Si25  1  0.12500000  0.75000000  0.87500000  1
  Si  Si26  1  0.37500000  0.62500000  0.75000000  1
  Si  Si27  1  0.62500000  0.75000000  0.37500000  1
  Si  Si28  1  0.87500000  0.25000000  0.12500000  1
  Si  Si29  1  0.25000000  0.12500000  0.87500000  1
  Si  Si30  1  0.75000000  0.37500000  0.62500000  1
  Si  Si31  1  0.62500000  0.37500000  0.25000000  1
  O  O32  1  0.49208400  0.38377600  0.29582700  1
  O  O33  1  0.30374300  0.89169200  0.00791600  1
  O  O34  1  0.60830800  0.91205100  0.11622400  1
  O  O35  1  0.58794900  0.19625700  0.20417300  1
  O  O36  1  0.11622400  0.00791600  0.20417300  1
  O  O37  1  0.19625700  0.20417300  0.58794900  1
  O  O38  1  0.19625700  0.49208400  0.60830800  1
  O  O39  1  0.20417300  0.58794900  0.19625700  1
  O  O40  1  0.38377600  0.58794900  0.89169200  1
  O  O41  1  0.91205100  0.29582700  0.30374300  1
  O  O42  1  0.29582700  0.30374300  0.91205100  1
  O  O43  1  0.20417300  0.11622400  0.00791600  1
  O  O44  1  0.49208400  0.60830800  0.19625700  1
  O  O45  1  0.89169200  0.38377600  0.58794900  1
  O  O46  1  0.00791600  0.20417300  0.11622400  1
  O  O47  1  0.60830800  0.19625700  0.49208400  1
  O  O48  1  0.58794900  0.89169200  0.38377600  1
  O  O49  1  0.00791600  0.30374300  0.89169200  1
  O  O50  1  0.91205100  0.11622400  0.60830800  1
  O  O51  1  0.61622400  0.41205100  0.10830800  1
  O  O52  1  0.11622400  0.60830800  0.91205100  1
  O  O53  1  0.29582700  0.49208400  0.38377600  1
  O  O54  1  0.89169200  0.00791600  0.30374300  1
  O  O55  1  0.30374300  0.91205100  0.29582700  1
  O  O56  1  0.50791600  0.61622400  0.70417300  1
  O  O57  1  0.69625700  0.10830800  0.99208400  1
  O  O58  1  0.39169200  0.08794900  0.88377600  1
  O  O59  1  0.41205100  0.80374300  0.79582700  1
  O  O60  1  0.88377600  0.99208400  0.79582700  1
  O  O61  1  0.80374300  0.79582700  0.41205100  1
  O  O62  1  0.80374300  0.50791600  0.39169200  1
  O  O63  1  0.79582700  0.41205100  0.80374300  1
  O  O64  1  0.69625700  0.08794900  0.70417300  1
  O  O65  1  0.10830800  0.99208400  0.69625700  1
  O  O66  1  0.70417300  0.50791600  0.61622400  1
  O  O67  1  0.61622400  0.70417300  0.50791600  1
  O  O68  1  0.88377600  0.39169200  0.08794900  1
  O  O69  1  0.08794900  0.88377600  0.39169200  1
  O  O70  1  0.99208400  0.69625700  0.10830800  1
  O  O71  1  0.41205100  0.10830800  0.61622400  1
  O  O72  1  0.39169200  0.80374300  0.50791600  1
  O  O73  1  0.99208400  0.79582700  0.88377600  1
  O  O74  1  0.10830800  0.61622400  0.41205100  1
  O  O75  1  0.50791600  0.39169200  0.80374300  1
  O  O76  1  0.79582700  0.88377600  0.99208400  1
  O  O77  1  0.70417300  0.69625700  0.08794900  1
  O  O78  1  0.08794900  0.70417300  0.69625700  1
  O  O79  1  0.38377600  0.29582700  0.49208400  1
