# generated using pymatgen
data_P3H10N3O8
_symmetry_space_group_name_H-M   'P 1'
_cell_length_a   7.10117602
_cell_length_b   10.25577569
_cell_length_c   15.78388900
_cell_angle_alpha   90.00000000
_cell_angle_beta   90.00000000
_cell_angle_gamma   93.99775060
_symmetry_Int_Tables_number   1
_chemical_formula_structural   P3H10N3O8
_chemical_formula_sum   'P12 H40 N12 O32'
_cell_volume   1146.71314596
_cell_formula_units_Z   4
loop_
 _symmetry_equiv_pos_site_id
 _symmetry_equiv_pos_as_xyz
  1  'x, y, z'
loop_
 _atom_site_type_symbol
 _atom_site_label
 _atom_site_symmetry_multiplicity
 _atom_site_fract_x
 _atom_site_fract_y
 _atom_site_fract_z
 _atom_site_occupancy
  P  P0  1  0.72568200  0.30367700  0.85331800  1
  P  P1  1  0.27431800  0.19632300  0.35331800  1
  P  P2  1  0.27431800  0.69632300  0.14668200  1
  P  P3  1  0.72568200  0.80367700  0.64668200  1
  P  P4  1  0.01588200  0.25743800  0.72077200  1
  P  P5  1  0.98411800  0.24256200  0.22077200  1
  P  P6  1  0.98411800  0.74256200  0.27922800  1
  P  P7  1  0.01588200  0.75743800  0.77922800  1
  P  P8  1  0.62046800  0.29136500  0.67012600  1
  P  P9  1  0.37953200  0.20863500  0.17012600  1
  P  P10  1  0.37953200  0.70863500  0.32987400  1
  P  P11  1  0.62046800  0.79136500  0.82987400  1
  H  H12  1  0.34000100  0.13287600  0.00854700  1
  H  H13  1  0.65999900  0.36712400  0.50854700  1
  H  H14  1  0.65999900  0.86712400  0.99145300  1
  H  H15  1  0.34000100  0.63287600  0.49145300  1
  H  H16  1  0.85795900  0.18820100  0.59960100  1
  H  H17  1  0.14204100  0.31179900  0.09960100  1
  H  H18  1  0.14204100  0.81179900  0.40039900  1
  H  H19  1  0.85795900  0.68820100  0.90039900  1
  H  H20  1  0.18062100  0.43681100  0.68272900  1
  H  H21  1  0.81937900  0.06318900  0.18272900  1
  H  H22  1  0.81937900  0.56318900  0.31727100  1
  H  H23  1  0.18062100  0.93681100  0.81727100  1
  H  H24  1  0.36590700  0.15808800  0.68823100  1
  H  H25  1  0.63409300  0.34191200  0.18823100  1
  H  H26  1  0.63409300  0.84191200  0.31176900  1
  H  H27  1  0.36590700  0.65808800  0.81176900  1
  H  H28  1  0.07966000  0.42219300  0.93773100  1
  H  H29  1  0.92034000  0.07780700  0.43773100  1
  H  H30  1  0.92034000  0.57780700  0.06226900  1
  H  H31  1  0.07966000  0.92219300  0.56226900  1
  H  H32  1  0.61360400  0.46433800  0.76542600  1
  H  H33  1  0.38639600  0.03566200  0.26542600  1
  H  H34  1  0.38639600  0.53566200  0.23457400  1
  H  H35  1  0.61360400  0.96433800  0.73457400  1
  H  H36  1  0.93982100  0.14427800  0.84127600  1
  H  H37  1  0.06017900  0.35572200  0.34127600  1
  H  H38  1  0.06017900  0.85572200  0.15872400  1
  H  H39  1  0.93982100  0.64427800  0.65872400  1
  H  H40  1  0.25683800  0.25228700  0.95681600  1
  H  H41  1  0.74316200  0.24771300  0.45681600  1
  H  H42  1  0.74316200  0.74771300  0.04318400  1
  H  H43  1  0.25683800  0.75228700  0.54318400  1
  H  H44  1  0.23741900  0.47566000  0.00212500  1
  H  H45  1  0.76258100  0.02434000  0.50212500  1
  H  H46  1  0.76258100  0.52434000  0.99787500  1
  H  H47  1  0.23741900  0.97566000  0.49787500  1
  H  H48  1  0.45491000  0.17569000  0.91406000  1
  H  H49  1  0.54509000  0.32431000  0.41406000  1
  H  H50  1  0.54509000  0.82431000  0.08594000  1
  H  H51  1  0.45491000  0.67569000  0.58594000  1
  N  N52  1  0.64280700  0.36794900  0.76320800  1
  N  N53  1  0.35719300  0.13205100  0.26320800  1
  N  N54  1  0.35719300  0.63205100  0.23679200  1
  N  N55  1  0.64280700  0.86794900  0.73679200  1
  N  N56  1  0.84070300  0.24971700  0.64989200  1
  N  N57  1  0.15929700  0.25028300  0.14989200  1
  N  N58  1  0.15929700  0.75028300  0.35010800  1
  N  N59  1  0.84070300  0.74971700  0.85010800  1
  N  N60  1  0.92016700  0.23370800  0.81585900  1
  N  N61  1  0.07983300  0.26629200  0.31585900  1
  N  N62  1  0.07983300  0.76629200  0.18414100  1
  N  N63  1  0.92016700  0.73370800  0.68414100  1
  O  O64  1  0.60380400  0.18318000  0.88121000  1
  O  O65  1  0.39619600  0.31682000  0.38121000  1
  O  O66  1  0.39619600  0.81682000  0.11879000  1
  O  O67  1  0.60380400  0.68318000  0.61879000  1
  O  O68  1  0.09554200  0.40585600  0.72826000  1
  O  O69  1  0.90445800  0.09414400  0.22826000  1
  O  O70  1  0.90445800  0.59414400  0.27174000  1
  O  O71  1  0.09554200  0.90585600  0.77174000  1
  O  O72  1  0.54354500  0.37678900  0.60403100  1
  O  O73  1  0.45645500  0.12321100  0.10403100  1
  O  O74  1  0.45645500  0.62321100  0.39596900  1
  O  O75  1  0.54354500  0.87678900  0.89596900  1
  O  O76  1  0.15607200  0.16259000  0.69732100  1
  O  O77  1  0.84392800  0.33741000  0.19732100  1
  O  O78  1  0.84392800  0.83741000  0.30267900  1
  O  O79  1  0.15607200  0.66259000  0.80267900  1
  O  O80  1  0.51063700  0.15445700  0.68371900  1
  O  O81  1  0.48936300  0.34554300  0.18371900  1
  O  O82  1  0.48936300  0.84554300  0.31628100  1
  O  O83  1  0.51063700  0.65445700  0.81628100  1
  O  O84  1  0.30079800  0.16074700  0.95049100  1
  O  O85  1  0.69920200  0.33925300  0.45049100  1
  O  O86  1  0.69920200  0.83925300  0.04950900  1
  O  O87  1  0.30079800  0.66074700  0.54950900  1
  O  O88  1  0.77295500  0.41198900  0.91449400  1
  O  O89  1  0.22704500  0.08801100  0.41449400  1
  O  O90  1  0.22704500  0.58801100  0.08550600  1
  O  O91  1  0.77295500  0.91198900  0.58550600  1
  O  O92  1  0.19708500  0.40052900  0.96523100  1
  O  O93  1  0.80291500  0.09947100  0.46523100  1
  O  O94  1  0.80291500  0.59947100  0.03476900  1
  O  O95  1  0.19708500  0.90052900  0.53476900  1
