# generated using pymatgen
data_Na4TiP2O9
_symmetry_space_group_name_H-M   'P 1'
_cell_length_a   8.66428106
_cell_length_b   8.66428106
_cell_length_c   7.61464600
_cell_angle_alpha   90.00000000
_cell_angle_beta   90.00000000
_cell_angle_gamma   131.75532573
_symmetry_Int_Tables_number   1
_chemical_formula_structural   Na4TiP2O9
_chemical_formula_sum   'Na8 Ti2 P4 O18'
_cell_volume   426.43316727
_cell_formula_units_Z   2
loop_
 _symmetry_equiv_pos_site_id
 _symmetry_equiv_pos_as_xyz
  1  'x, y, z'
loop_
 _atom_site_type_symbol
 _atom_site_label
 _atom_site_symmetry_multiplicity
 _atom_site_fract_x
 _atom_site_fract_y
 _atom_site_fract_z
 _atom_site_occupancy
  Na  Na0  1  0.00000000  0.50000000  0.00000000  1
  Na  Na1  1  0.50000000  0.00000000  0.00000000  1
  Na  Na2  1  0.25000000  0.25000000  0.50000000  1
  Na  Na3  1  0.75000000  0.75000000  0.50000000  1
  Na  Na4  1  0.88649400  0.11350600  0.23585200  1
  Na  Na5  1  0.11350600  0.88649400  0.76414800  1
  Na  Na6  1  0.38649400  0.61350600  0.76414800  1
  Na  Na7  1  0.61350600  0.38649400  0.23585200  1
  Ti  Ti8  1  0.00000000  0.50000000  0.50000000  1
  Ti  Ti9  1  0.50000000  0.00000000  0.50000000  1
  P  P10  1  0.38027800  0.61972200  0.24088400  1
  P  P11  1  0.61972200  0.38027800  0.75911600  1
  P  P12  1  0.88027800  0.11972200  0.75911600  1
  P  P13  1  0.11972200  0.88027800  0.24088400  1
  O  O14  1  0.35535300  0.64464700  0.04704800  1
  O  O15  1  0.64464700  0.35535300  0.95295200  1
  O  O16  1  0.85535300  0.14464700  0.95295200  1
  O  O17  1  0.14464700  0.85535300  0.04704800  1
  O  O18  1  0.84278200  0.52374600  0.67345800  1
  O  O19  1  0.52374600  0.84278200  0.32654200  1
  O  O20  1  0.97625400  0.65721800  0.32654200  1
  O  O21  1  0.65721800  0.97625400  0.67345800  1
  O  O22  1  0.15721800  0.47625400  0.32654200  1
  O  O23  1  0.47625400  0.15721800  0.67345800  1
  O  O24  1  0.02374600  0.34278200  0.67345800  1
  O  O25  1  0.34278200  0.02374600  0.32654200  1
  O  O26  1  0.47414000  0.52586000  0.29024700  1
  O  O27  1  0.52586000  0.47414000  0.70975300  1
  O  O28  1  0.97414000  0.02586000  0.70975300  1
  O  O29  1  0.02586000  0.97414000  0.29024700  1
  O  O30  1  0.25000000  0.75000000  0.59250300  1
  O  O31  1  0.75000000  0.25000000  0.40749700  1
