# generated using pymatgen
data_Na5CoCO5
_symmetry_space_group_name_H-M   'P 1'
_cell_length_a   4.95631700
_cell_length_b   4.52410400
_cell_length_c   8.33986100
_cell_angle_alpha   90.00000000
_cell_angle_beta   90.00000000
_cell_angle_gamma   90.00000000
_symmetry_Int_Tables_number   1
_chemical_formula_structural   Na5CoCO5
_chemical_formula_sum   'Na5 Co1 C1 O5'
_cell_volume   187.00381555
_cell_formula_units_Z   1
loop_
 _symmetry_equiv_pos_site_id
 _symmetry_equiv_pos_as_xyz
  1  'x, y, z'
loop_
 _atom_site_type_symbol
 _atom_site_label
 _atom_site_symmetry_multiplicity
 _atom_site_fract_x
 _atom_site_fract_y
 _atom_site_fract_z
 _atom_site_occupancy
  Na  Na0  1  0.50451300  0.00000000  0.77638900  1
  Na  Na1  1  0.99292500  0.50000000  0.76222700  1
  Na  Na2  1  0.50451300  0.00000000  0.22361100  1
  Na  Na3  1  0.99292500  0.50000000  0.23777300  1
  Na  Na4  1  0.98632800  0.00000000  0.50000000  1
  Co  Co5  1  0.00437200  0.00000000  0.00000000  1
  C  C6  1  0.42613600  0.50000000  0.50000000  1
  O  O7  1  0.00539200  0.00000000  0.78767700  1
  O  O8  1  0.00539200  0.00000000  0.21232300  1
  O  O9  1  0.16311300  0.50000000  0.50000000  1
  O  O10  1  0.55469600  0.50000000  0.63684400  1
  O  O11  1  0.55469600  0.50000000  0.36315600  1
