# generated using pymatgen
data_Na5BrCl4
_symmetry_space_group_name_H-M   'P 1'
_cell_length_a   16.80297953
_cell_length_b   16.80297953
_cell_length_c   16.80297922
_cell_angle_alpha   13.92591811
_cell_angle_beta   13.92591811
_cell_angle_gamma   13.92591999
_symmetry_Int_Tables_number   1
_chemical_formula_structural   Na5BrCl4
_chemical_formula_sum   'Na5 Br1 Cl4'
_cell_volume   239.14192103
_cell_formula_units_Z   1
loop_
 _symmetry_equiv_pos_site_id
 _symmetry_equiv_pos_as_xyz
  1  'x, y, z'
loop_
 _atom_site_type_symbol
 _atom_site_label
 _atom_site_symmetry_multiplicity
 _atom_site_fract_x
 _atom_site_fract_y
 _atom_site_fract_z
 _atom_site_occupancy
  Na  Na0  1  0.60017700  0.60017700  0.60017700  1
  Na  Na1  1  0.00000000  0.00000000  0.00000000  1
  Na  Na2  1  0.39982300  0.39982300  0.39982300  1
  Na  Na3  1  0.20180900  0.20180900  0.20180900  1
  Na  Na4  1  0.79819100  0.79819100  0.79819100  1
  Br  Br5  1  0.50000000  0.50000000  0.50000000  1
  Cl  Cl6  1  0.09931400  0.09931400  0.09931400  1
  Cl  Cl7  1  0.69997100  0.69997100  0.69997100  1
  Cl  Cl8  1  0.30002900  0.30002900  0.30002900  1
  Cl  Cl9  1  0.90068600  0.90068600  0.90068600  1
