# generated using pymatgen
data_NaP4(W3O11)4
_symmetry_space_group_name_H-M   'P 1'
_cell_length_a   5.42369000
_cell_length_b   6.72135333
_cell_length_c   24.20260450
_cell_angle_alpha   90.30835193
_cell_angle_beta   90.02299634
_cell_angle_gamma   90.06502445
_symmetry_Int_Tables_number   1
_chemical_formula_structural   NaP4(W3O11)4
_chemical_formula_sum   'Na1 P4 W12 O44'
_cell_volume   882.28131882
_cell_formula_units_Z   1
loop_
 _symmetry_equiv_pos_site_id
 _symmetry_equiv_pos_as_xyz
  1  'x, y, z'
loop_
 _atom_site_type_symbol
 _atom_site_label
 _atom_site_symmetry_multiplicity
 _atom_site_fract_x
 _atom_site_fract_y
 _atom_site_fract_z
 _atom_site_occupancy
  Na  Na0  1  0.77027600  0.39435800  0.72397000  1
  P  P1  1  0.26266100  0.38386300  0.79650000  1
  P  P2  1  0.23689500  0.61681400  0.29659200  1
  P  P3  1  0.76212300  0.11737000  0.20394000  1
  P  P4  1  0.73610200  0.88572700  0.70419900  1
  W  W5  1  0.24910200  0.58751300  0.65908600  1
  W  W6  1  0.25394400  0.42107600  0.16169900  1
  W  W7  1  0.74598500  0.92148300  0.33931400  1
  W  W8  1  0.75446900  0.07276400  0.84054600  1
  W  W9  1  0.24445000  0.91972100  0.53092100  1
  W  W10  1  0.25543700  0.08485500  0.03263500  1
  W  W11  1  0.74642500  0.58961300  0.46829800  1
  W  W12  1  0.75484100  0.41157400  0.96960200  1
  W  W13  1  0.25789600  0.73938700  0.90458700  1
  W  W14  1  0.24287400  0.25920200  0.40318100  1
  W  W15  1  0.75520000  0.75626700  0.09764900  1
  W  W16  1  0.74825400  0.24977300  0.59565000  1
  O  O17  1  0.04155500  0.24659400  0.80913100  1
  O  O18  1  0.45632700  0.75502400  0.30869100  1
  O  O19  1  0.54405300  0.25579100  0.19035000  1
  O  O20  1  0.94433800  0.73787500  0.69299200  1
  O  O21  1  0.96670100  0.23295400  0.00257000  1
  O  O22  1  0.53347400  0.76734100  0.50136700  1
  O  O23  1  0.46434100  0.26627600  0.99782200  1
  O  O24  1  0.03814800  0.73227000  0.49635800  1
  O  O25  1  0.46702400  0.09514800  0.56981600  1
  O  O26  1  0.03363200  0.90263400  0.07040600  1
  O  O27  1  0.96502500  0.40224200  0.42834000  1
  O  O28  1  0.53566000  0.59714700  0.92948700  1
  O  O29  1  0.74418100  0.41472200  0.53534400  1
  O  O30  1  0.75513200  0.58691700  0.03666900  1
  O  O31  1  0.24289700  0.08900100  0.46271900  1
  O  O32  1  0.25735300  0.91203200  0.96395400  1
  O  O33  1  0.01402400  0.38479700  0.63266200  1
  O  O34  1  0.48391500  0.60376600  0.13297600  1
  O  O35  1  0.51664800  0.10309200  0.36658500  1
  O  O36  1  0.98393800  0.89467800  0.86788000  1
  O  O37  1  0.74804800  0.07557800  0.66980200  1
  O  O38  1  0.75728900  0.93035700  0.16666900  1
  O  O39  1  0.24353800  0.42908000  0.33228000  1
  O  O40  1  0.25709000  0.57025500  0.83361800  1
  O  O41  1  0.51624300  0.27883300  0.80177900  1
  O  O42  1  0.98804000  0.72498800  0.30236000  1
  O  O43  1  0.01059600  0.22694800  0.19651300  1
  O  O44  1  0.48603100  0.78028800  0.70009200  1
  O  O45  1  0.95992300  0.06437100  0.56324500  1
  O  O46  1  0.53556800  0.93089900  0.06506600  1
  O  O47  1  0.46622500  0.43171600  0.43449800  1
  O  O48  1  0.03403200  0.56781500  0.93563600  1
  O  O49  1  0.23478100  0.44451500  0.73560400  1
  O  O50  1  0.25951900  0.55212400  0.23496600  1
  O  O51  1  0.73990700  0.05336300  0.26434800  1
  O  O52  1  0.76168300  0.95151000  0.76616800  1
  O  O53  1  0.52672600  0.41620500  0.64019300  1
  O  O54  1  0.98654500  0.57714400  0.13838400  1
  O  O55  1  0.01539200  0.07563000  0.36059300  1
  O  O56  1  0.48255600  0.92378500  0.86160500  1
  O  O57  1  0.74966000  0.23848300  0.90077100  1
  O  O58  1  0.74988900  0.76204600  0.39998300  1
  O  O59  1  0.25137700  0.26113200  0.09985400  1
  O  O60  1  0.24704400  0.74327300  0.59848400  1
