# generated using pymatgen
data_Na4ZnCd(SiO3)4
_symmetry_space_group_name_H-M   'P 1'
_cell_length_a   5.23291658
_cell_length_b   5.23291658
_cell_length_c   11.57744408
_cell_angle_alpha   77.54666082
_cell_angle_beta   77.54666082
_cell_angle_gamma   92.54813337
_symmetry_Int_Tables_number   1
_chemical_formula_structural   Na4ZnCd(SiO3)4
_chemical_formula_sum   'Na4 Zn1 Cd1 Si4 O12'
_cell_volume   300.90861818
_cell_formula_units_Z   1
loop_
 _symmetry_equiv_pos_site_id
 _symmetry_equiv_pos_as_xyz
  1  'x, y, z'
loop_
 _atom_site_type_symbol
 _atom_site_label
 _atom_site_symmetry_multiplicity
 _atom_site_fract_x
 _atom_site_fract_y
 _atom_site_fract_z
 _atom_site_occupancy
  Na  Na0  1  0.35648600  0.32374100  0.35504700  1
  Na  Na1  1  0.67625900  0.64351400  0.64495300  1
  Na  Na2  1  0.44926200  0.92607400  0.15902900  1
  Na  Na3  1  0.07392600  0.55073800  0.84097100  1
  Zn  Zn4  1  0.23776100  0.76223900  0.50000000  1
  Cd  Cd5  1  0.48843500  0.51156500  0.00000000  1
  Si  Si6  1  0.83111300  0.90479800  0.33468400  1
  Si  Si7  1  0.09520200  0.16888700  0.66531600  1
  Si  Si8  1  0.92122600  0.48509000  0.17511200  1
  Si  Si9  1  0.51491000  0.07877400  0.82488800  1
  O  O10  1  0.61616700  0.86718000  0.46204000  1
  O  O11  1  0.13282000  0.38383300  0.53796000  1
  O  O12  1  0.87282400  0.57524900  0.03952300  1
  O  O13  1  0.42475100  0.12717600  0.96047700  1
  O  O14  1  0.75958900  0.66442400  0.26715300  1
  O  O15  1  0.33557600  0.24041100  0.73284700  1
  O  O16  1  0.77605500  0.17833300  0.23889600  1
  O  O17  1  0.82166700  0.22394500  0.76110400  1
  O  O18  1  0.13464300  0.91861400  0.34646700  1
  O  O19  1  0.08138600  0.86535700  0.65353300  1
  O  O20  1  0.23099800  0.50505700  0.17742300  1
  O  O21  1  0.49494300  0.76900200  0.82257700  1
