# generated using pymatgen
data_Na4FeNi(PO4)3
_symmetry_space_group_name_H-M   'P 1'
_cell_length_a   8.86880803
_cell_length_b   8.86880803
_cell_length_c   8.86880830
_cell_angle_alpha   60.69155040
_cell_angle_beta   60.69155040
_cell_angle_gamma   60.69155288
_symmetry_Int_Tables_number   1
_chemical_formula_structural   Na4FeNi(PO4)3
_chemical_formula_sum   'Na8 Fe2 Ni2 P6 O24'
_cell_volume   500.96507536
_cell_formula_units_Z   2
loop_
 _symmetry_equiv_pos_site_id
 _symmetry_equiv_pos_as_xyz
  1  'x, y, z'
loop_
 _atom_site_type_symbol
 _atom_site_label
 _atom_site_symmetry_multiplicity
 _atom_site_fract_x
 _atom_site_fract_y
 _atom_site_fract_z
 _atom_site_occupancy
  Na  Na0  1  0.49801300  0.49801300  0.49801300  1
  Na  Na1  1  0.99801300  0.99801300  0.99801300  1
  Na  Na2  1  0.74407300  0.11660700  0.38612400  1
  Na  Na3  1  0.38612400  0.74407300  0.11660700  1
  Na  Na4  1  0.11660700  0.38612400  0.74407300  1
  Na  Na5  1  0.88612400  0.61660700  0.24407300  1
  Na  Na6  1  0.24407300  0.88612400  0.61660700  1
  Na  Na7  1  0.61660700  0.24407300  0.88612400  1
  Fe  Fe8  1  0.64913600  0.64913600  0.64913600  1
  Fe  Fe9  1  0.14913600  0.14913600  0.14913600  1
  Ni  Ni10  1  0.35151400  0.35151400  0.35151400  1
  Ni  Ni11  1  0.85151400  0.85151400  0.85151400  1
  P  P12  1  0.75175400  0.45538600  0.04577500  1
  P  P13  1  0.04577500  0.75175400  0.45538600  1
  P  P14  1  0.45538600  0.04577500  0.75175400  1
  P  P15  1  0.54577500  0.95538600  0.25175400  1
  P  P16  1  0.25175400  0.54577500  0.95538600  1
  P  P17  1  0.95538600  0.25175400  0.54577500  1
  O  O18  1  0.11973600  0.28879500  0.51832500  1
  O  O19  1  0.51832500  0.11973600  0.28879500  1
  O  O20  1  0.28879500  0.51832500  0.11973600  1
  O  O21  1  0.01832500  0.78879500  0.61973600  1
  O  O22  1  0.61973600  0.01832500  0.78879500  1
  O  O23  1  0.78879500  0.61973600  0.01832500  1
  O  O24  1  0.87587200  0.71603100  0.48412300  1
  O  O25  1  0.48412300  0.87587200  0.71603100  1
  O  O26  1  0.71603100  0.48412300  0.87587200  1
  O  O27  1  0.98412300  0.21603100  0.37587200  1
  O  O28  1  0.37587200  0.98412300  0.21603100  1
  O  O29  1  0.21603100  0.37587200  0.98412300  1
  O  O30  1  0.22411900  0.58731100  0.43024900  1
  O  O31  1  0.43024900  0.22411900  0.58731100  1
  O  O32  1  0.58731100  0.43024900  0.22411900  1
  O  O33  1  0.93024900  0.08731100  0.72411900  1
  O  O34  1  0.72411900  0.93024900  0.08731100  1
  O  O35  1  0.08731100  0.72411900  0.93024900  1
  O  O36  1  0.77384400  0.41964000  0.56363800  1
  O  O37  1  0.56363800  0.77384400  0.41964000  1
  O  O38  1  0.41964000  0.56363800  0.77384400  1
  O  O39  1  0.06363800  0.91964000  0.27384400  1
  O  O40  1  0.27384400  0.06363800  0.91964000  1
  O  O41  1  0.91964000  0.27384400  0.06363800  1
