# generated using pymatgen
data_NdCd6
_symmetry_space_group_name_H-M   'P 1'
_cell_length_a   13.80089371
_cell_length_b   13.80089371
_cell_length_c   13.80089371
_cell_angle_alpha   110.35186426
_cell_angle_beta   109.74599326
_cell_angle_gamma   108.32246025
_symmetry_Int_Tables_number   1
_chemical_formula_structural   NdCd6
_chemical_formula_sum   'Nd12 Cd72'
_cell_volume   2022.81749848
_cell_formula_units_Z   12
loop_
 _symmetry_equiv_pos_site_id
 _symmetry_equiv_pos_as_xyz
  1  'x, y, z'
loop_
 _atom_site_type_symbol
 _atom_site_label
 _atom_site_symmetry_multiplicity
 _atom_site_fract_x
 _atom_site_fract_y
 _atom_site_fract_z
 _atom_site_occupancy
  Nd  Nd0  1  0.80397600  0.50646500  0.70248800  1
  Nd  Nd1  1  0.19602400  0.49353500  0.29751200  1
  Nd  Nd2  1  0.19602400  0.89851200  0.70248800  1
  Nd  Nd3  1  0.80397600  0.10148800  0.29751200  1
  Nd  Nd4  1  0.10994300  0.30140200  0.80854100  1
  Nd  Nd5  1  0.89005700  0.69859800  0.19145900  1
  Nd  Nd6  1  0.49286100  0.30140200  0.19145900  1
  Nd  Nd7  1  0.50713900  0.69859800  0.80854100  1
  Nd  Nd8  1  0.29777300  0.18885500  0.48662900  1
  Nd  Nd9  1  0.70222700  0.81114500  0.51337100  1
  Nd  Nd10  1  0.29777300  0.81114500  0.10891800  1
  Nd  Nd11  1  0.70222700  0.18885500  0.89108200  1
  Cd  Cd12  1  0.99822700  0.67711700  0.00002600  1
  Cd  Cd13  1  0.32291000  0.32288300  0.32111100  1
  Cd  Cd14  1  0.00177300  0.00179900  0.67888900  1
  Cd  Cd15  1  0.67709000  0.99820100  0.99997400  1
  Cd  Cd16  1  0.00177300  0.32288300  0.99997400  1
  Cd  Cd17  1  0.67709000  0.67711700  0.67888900  1
  Cd  Cd18  1  0.99822700  0.99820100  0.32111100  1
  Cd  Cd19  1  0.32291000  0.00179900  0.00002600  1
  Cd  Cd20  1  0.77276600  0.45296400  0.91490700  1
  Cd  Cd21  1  0.46194300  0.54703600  0.31980200  1
  Cd  Cd22  1  0.22723400  0.14214100  0.68019800  1
  Cd  Cd23  1  0.53805700  0.85785900  0.08509300  1
  Cd  Cd24  1  0.86008200  0.08947500  0.54817800  1
  Cd  Cd25  1  0.13991800  0.68809600  0.22939300  1
  Cd  Cd26  1  0.54129700  0.31190400  0.45182200  1
  Cd  Cd27  1  0.45870300  0.91052500  0.77060700  1
  Cd  Cd28  1  0.31580400  0.45580300  0.54034500  1
  Cd  Cd29  1  0.91545800  0.77545900  0.45965500  1
  Cd  Cd30  1  0.08454200  0.54419700  0.86000100  1
  Cd  Cd31  1  0.68419600  0.22454100  0.13999900  1
  Cd  Cd32  1  0.22723400  0.54703600  0.08509300  1
  Cd  Cd33  1  0.53805700  0.45296400  0.68019800  1
  Cd  Cd34  1  0.77276600  0.85785900  0.31980200  1
  Cd  Cd35  1  0.46194300  0.14214100  0.91490700  1
  Cd  Cd36  1  0.13991800  0.91052500  0.45182200  1
  Cd  Cd37  1  0.86008200  0.31190400  0.77060700  1
  Cd  Cd38  1  0.45870300  0.68809600  0.54817800  1
  Cd  Cd39  1  0.54129700  0.08947500  0.22939300  1
  Cd  Cd40  1  0.68419600  0.54419700  0.45965500  1
  Cd  Cd41  1  0.08454200  0.22454100  0.54034500  1
  Cd  Cd42  1  0.91545800  0.45580300  0.13999900  1
  Cd  Cd43  1  0.31580400  0.77545900  0.86000100  1
  Cd  Cd44  1  0.74393800  0.64820700  0.90426900  1
  Cd  Cd45  1  0.25606200  0.35179300  0.09573100  1
  Cd  Cd46  1  0.25606200  0.16033100  0.90426900  1
  Cd  Cd47  1  0.74393800  0.83966900  0.09573100  1
  Cd  Cd48  1  0.85503300  0.09017600  0.76485700  1
  Cd  Cd49  1  0.14496700  0.90982400  0.23514300  1
  Cd  Cd50  1  0.32531900  0.09017600  0.23514300  1
  Cd  Cd51  1  0.67468100  0.90982400  0.76485700  1
  Cd  Cd52  1  0.09471600  0.24187100  0.33658700  1
  Cd  Cd53  1  0.90528400  0.75812900  0.66341300  1
  Cd  Cd54  1  0.09471600  0.75812900  0.85284500  1
  Cd  Cd55  1  0.90528400  0.24187100  0.14715500  1
  Cd  Cd56  1  0.59677400  0.24377600  0.64700300  1
  Cd  Cd57  1  0.40322600  0.75622400  0.35299700  1
  Cd  Cd58  1  0.40322600  0.05022900  0.64700300  1
  Cd  Cd59  1  0.59677400  0.94977100  0.35299700  1
  Cd  Cd60  1  0.94777200  0.35235000  0.59542300  1
  Cd  Cd61  1  0.05222800  0.64765000  0.40457700  1
  Cd  Cd62  1  0.75692700  0.35235000  0.40457700  1
  Cd  Cd63  1  0.24307300  0.64765000  0.59542300  1
  Cd  Cd64  1  0.34946700  0.40363000  0.75309700  1
  Cd  Cd65  1  0.65053300  0.59637000  0.24690300  1
  Cd  Cd66  1  0.34946700  0.59637000  0.94583700  1
  Cd  Cd67  1  0.65053300  0.40363000  0.05416300  1
  Cd  Cd68  1  0.59200100  0.59200100  0.00000000  1
  Cd  Cd69  1  0.40799900  0.40799900  0.00000000  1
  Cd  Cd70  1  0.59613600  0.00000000  0.59613600  1
  Cd  Cd71  1  0.40386400  0.00000000  0.40386400  1
  Cd  Cd72  1  0.00000000  0.40465100  0.40465100  1
  Cd  Cd73  1  0.00000000  0.59534900  0.59534900  1
  Cd  Cd74  1  0.50000000  0.30278100  0.80278100  1
  Cd  Cd75  1  0.50000000  0.69721900  0.19721900  1
  Cd  Cd76  1  0.69844900  0.19844900  0.50000000  1
  Cd  Cd77  1  0.30155100  0.80155100  0.50000000  1
  Cd  Cd78  1  0.19278000  0.50000000  0.69278000  1
  Cd  Cd79  1  0.80722000  0.50000000  0.30722000  1
  Cd  Cd80  1  0.91537200  0.82124000  0.90586700  1
  Cd  Cd81  1  0.08462800  0.17876000  0.09413300  1
  Cd  Cd82  1  0.08462800  0.99049500  0.90586700  1
  Cd  Cd83  1  0.91537200  0.00950500  0.09413300  1
