# generated using pymatgen
data_Na8Nb4Si16O53
_symmetry_space_group_name_H-M   'P 1'
_cell_length_a   10.44075300
_cell_length_b   11.75060131
_cell_length_c   11.77076873
_cell_angle_alpha   103.67594294
_cell_angle_beta   109.03303121
_cell_angle_gamma   108.98831177
_symmetry_Int_Tables_number   1
_chemical_formula_structural   Na8Nb4Si16O53
_chemical_formula_sum   'Na8 Nb4 Si16 O53'
_cell_volume   1192.32770760
_cell_formula_units_Z   1
loop_
 _symmetry_equiv_pos_site_id
 _symmetry_equiv_pos_as_xyz
  1  'x, y, z'
loop_
 _atom_site_type_symbol
 _atom_site_label
 _atom_site_symmetry_multiplicity
 _atom_site_fract_x
 _atom_site_fract_y
 _atom_site_fract_z
 _atom_site_occupancy
  Na  Na0  1  0.18957900  0.49067600  0.93027900  1
  Na  Na1  1  0.19093300  0.99117100  0.43000300  1
  Na  Na2  1  0.81044600  0.81957200  0.75833400  1
  Na  Na3  1  0.81078200  0.32022300  0.25911400  1
  Na  Na4  1  0.80906700  0.00882900  0.56999700  1
  Na  Na5  1  0.81042100  0.50932400  0.06972100  1
  Na  Na6  1  0.18921800  0.67977700  0.74088600  1
  Na  Na7  1  0.18955400  0.18042800  0.24166600  1
  Nb  Nb8  1  0.07338700  0.18869400  0.93907700  1
  Nb  Nb9  1  0.07287400  0.68792700  0.44040300  1
  Nb  Nb10  1  0.92712600  0.31207300  0.55959700  1
  Nb  Nb11  1  0.92661300  0.81130600  0.06092300  1
  Si  Si12  1  0.60752100  0.65778900  0.40767400  1
  Si  Si13  1  0.60627900  0.15762100  0.90794700  1
  Si  Si14  1  0.39372100  0.84237900  0.09205300  1
  Si  Si15  1  0.39247900  0.34221100  0.59232600  1
  Si  Si16  1  0.81511400  0.79334400  0.29440100  1
  Si  Si17  1  0.81451900  0.29358600  0.79481300  1
  Si  Si18  1  0.18506900  0.45598700  0.45642000  1
  Si  Si19  1  0.18506500  0.95546300  0.95597800  1
  Si  Si20  1  0.18548100  0.70641400  0.20518700  1
  Si  Si21  1  0.18488600  0.20665600  0.70559900  1
  Si  Si22  1  0.81493500  0.04453700  0.04402200  1
  Si  Si23  1  0.81493100  0.54401300  0.54358000  1
  Si  Si24  1  0.25523400  0.47494000  0.22528100  1
  Si  Si25  1  0.25434500  0.97506100  0.72472100  1
  Si  Si26  1  0.74565500  0.02493900  0.27527900  1
  Si  Si27  1  0.74476600  0.52506000  0.77471900  1
  O  O28  1  0.82696200  0.94171200  0.33932700  1
  O  O29  1  0.82659400  0.44202400  0.83929300  1
  O  O30  1  0.17314000  0.41059200  0.30808600  1
  O  O31  1  0.17294700  0.91018200  0.80762000  1
  O  O32  1  0.17340600  0.55797600  0.16070700  1
  O  O33  1  0.17303800  0.05828800  0.66067300  1
  O  O34  1  0.82705300  0.08981800  0.19238000  1
  O  O35  1  0.82686000  0.58940800  0.69191400  1
  O  O36  1  0.24197500  0.36053400  0.11066700  1
  O  O37  1  0.24240400  0.86099400  0.61027900  1
  O  O38  1  0.75759600  0.13900600  0.38972100  1
  O  O39  1  0.75802500  0.63946600  0.88933300  1
  O  O40  1  0.79079300  0.73587400  0.14439400  1
  O  O41  1  0.79063100  0.23439400  0.64499400  1
  O  O42  1  0.20686900  0.60466600  0.51329300  1
  O  O43  1  0.20985900  0.10559500  0.01389700  1
  O  O44  1  0.20936900  0.76560600  0.35500600  1
  O  O45  1  0.20920700  0.26412600  0.85560600  1
  O  O46  1  0.79014100  0.89440500  0.98610300  1
  O  O47  1  0.79313100  0.39533400  0.48670700  1
  O  O48  1  0.66374200  0.78715300  0.53657400  1
  O  O49  1  0.65879400  0.28663500  0.03655200  1
  O  O50  1  0.34120600  0.71336500  0.96344800  1
  O  O51  1  0.33625800  0.21284700  0.46342600  1
  O  O52  1  0.42601400  0.58064400  0.33067700  1
  O  O53  1  0.42508400  0.07993900  0.83023400  1
  O  O54  1  0.57491600  0.92006100  0.16976600  1
  O  O55  1  0.57398600  0.41935600  0.66932300  1
  O  O56  1  0.97288600  0.80484800  0.39577300  1
  O  O57  1  0.97252100  0.30516600  0.89614600  1
  O  O58  1  0.02759500  0.85388000  0.94512200  1
  O  O59  1  0.02809100  0.35210800  0.44483200  1
  O  O60  1  0.02747900  0.69483400  0.10385400  1
  O  O61  1  0.02711400  0.19515200  0.60422700  1
  O  O62  1  0.97190900  0.64789200  0.55516800  1
  O  O63  1  0.97240500  0.14612000  0.05487800  1
  O  O64  1  0.93575100  0.04478500  0.79513300  1
  O  O65  1  0.93607000  0.54530900  0.29406100  1
  O  O66  1  0.06393000  0.45469100  0.70593900  1
  O  O67  1  0.06424900  0.95521500  0.20486700  1
  O  O68  1  0.66919700  0.69814300  0.30524500  1
  O  O69  1  0.66914300  0.19962300  0.80679700  1
  O  O70  1  0.33048000  0.94345200  0.05015000  1
  O  O71  1  0.33073000  0.44452300  0.55126000  1
  O  O72  1  0.33085700  0.80037700  0.19320300  1
  O  O73  1  0.33080300  0.30185700  0.69475500  1
  O  O74  1  0.66927000  0.55547700  0.44874000  1
  O  O75  1  0.66952000  0.05654800  0.94985000  1
  O  O76  1  0.47671200  0.81498200  0.54425000  1
  O  O77  1  0.46324600  0.29316200  0.04275800  1
  O  O78  1  0.53675400  0.70683800  0.95724200  1
  O  O79  1  0.52328800  0.18501800  0.45575000  1
  O  O80  1  0.50000000  0.00000000  0.50000000  1
