# generated using pymatgen
data_Na4Ca2SnP4
_symmetry_space_group_name_H-M   'P 1'
_cell_length_a   9.45621714
_cell_length_b   9.45621714
_cell_length_c   7.13186230
_cell_angle_alpha   88.81697127
_cell_angle_beta   88.81697127
_cell_angle_gamma   120.04627675
_symmetry_Int_Tables_number   1
_chemical_formula_structural   Na4Ca2SnP4
_chemical_formula_sum   'Na8 Ca4 Sn2 P8'
_cell_volume   551.56240704
_cell_formula_units_Z   2
loop_
 _symmetry_equiv_pos_site_id
 _symmetry_equiv_pos_as_xyz
  1  'x, y, z'
loop_
 _atom_site_type_symbol
 _atom_site_label
 _atom_site_symmetry_multiplicity
 _atom_site_fract_x
 _atom_site_fract_y
 _atom_site_fract_z
 _atom_site_occupancy
  Na  Na0  1  0.46986600  0.93313100  0.38045700  1
  Na  Na1  1  0.93313100  0.46986600  0.88045700  1
  Na  Na2  1  0.86131500  0.71508500  0.18796400  1
  Na  Na3  1  0.29366100  0.13930900  0.22407500  1
  Na  Na4  1  0.85018300  0.13962400  0.20748800  1
  Na  Na5  1  0.13930900  0.29366100  0.72407500  1
  Na  Na6  1  0.71508500  0.86131500  0.68796400  1
  Na  Na7  1  0.13962400  0.85018300  0.70748800  1
  Ca  Ca8  1  0.05981100  0.53137900  0.38695000  1
  Ca  Ca9  1  0.47975000  0.53488400  0.37927600  1
  Ca  Ca10  1  0.53137900  0.05981100  0.88695000  1
  Ca  Ca11  1  0.53488400  0.47975000  0.87927600  1
  Sn  Sn12  1  0.66143200  0.32664700  0.49763600  1
  Sn  Sn13  1  0.32664700  0.66143200  0.99763600  1
  P  P14  1  0.19584000  0.37563300  0.14117800  1
  P  P15  1  0.62482600  0.80724700  0.08947100  1
  P  P16  1  0.19363200  0.81643300  0.11227600  1
  P  P17  1  0.80724700  0.62482600  0.58947100  1
  P  P18  1  0.37563300  0.19584000  0.64117800  1
  P  P19  1  0.81643300  0.19363200  0.61227600  1
  P  P20  1  0.65720200  0.33312700  0.14135600  1
  P  P21  1  0.33312700  0.65720200  0.64135600  1
