# generated using pymatgen
data_Na4Mg11AlSi12(HO10)4
_symmetry_space_group_name_H-M   'P 1'
_cell_length_a   8.92488260
_cell_length_b   9.77769018
_cell_length_c   10.50303467
_cell_angle_alpha   115.12031402
_cell_angle_beta   96.97242609
_cell_angle_gamma   65.07189048
_symmetry_Int_Tables_number   1
_chemical_formula_structural   Na4Mg11AlSi12(HO10)4
_chemical_formula_sum   'Na4 Mg11 Al1 Si12 H4 O40'
_cell_volume   750.69472871
_cell_formula_units_Z   1
loop_
 _symmetry_equiv_pos_site_id
 _symmetry_equiv_pos_as_xyz
  1  'x, y, z'
loop_
 _atom_site_type_symbol
 _atom_site_label
 _atom_site_symmetry_multiplicity
 _atom_site_fract_x
 _atom_site_fract_y
 _atom_site_fract_z
 _atom_site_occupancy
  Na  Na0  1  0.60761100  0.63633500  0.42591700  1
  Na  Na1  1  0.39209400  0.36647500  0.57780000  1
  Na  Na2  1  0.63505300  0.60913100  0.94788600  1
  Na  Na3  1  0.36750500  0.39036200  0.04947200  1
  Mg  Mg4  1  0.94727800  0.94588000  0.84655000  1
  Mg  Mg5  1  0.04919300  0.05164300  0.15170100  1
  Mg  Mg6  1  0.81842900  0.85280300  0.53544700  1
  Mg  Mg7  1  0.17759800  0.14961800  0.46705300  1
  Mg  Mg8  1  0.93525800  0.93984100  0.34659700  1
  Mg  Mg9  1  0.06426500  0.05814800  0.65297500  1
  Mg  Mg10  1  0.85021600  0.81572000  0.05104500  1
  Mg  Mg11  1  0.15181500  0.17962700  0.94555500  1
  Mg  Mg12  1  0.50139700  0.99716600  0.99641200  1
  Mg  Mg13  1  0.99571900  0.50157900  0.50353400  1
  Mg  Mg14  1  0.72834500  0.72741400  0.73901800  1
  Al  Al15  1  0.27033500  0.27131000  0.26022800  1
  Si  Si16  1  0.65410300  0.23071100  0.25090900  1
  Si  Si17  1  0.33978700  0.76968100  0.75038600  1
  Si  Si18  1  0.77562100  0.33751300  0.06174000  1
  Si  Si19  1  0.22526700  0.66076800  0.93842100  1
  Si  Si20  1  0.76342700  0.33557700  0.54891700  1
  Si  Si21  1  0.23800800  0.65877800  0.44673700  1
  Si  Si22  1  0.55451200  0.95172000  0.29816700  1
  Si  Si23  1  0.44444100  0.05083700  0.69911200  1
  Si  Si24  1  0.95585900  0.55775800  0.20774400  1
  Si  Si25  1  0.04617000  0.44116400  0.79601900  1
  Si  Si26  1  0.66783200  0.23298800  0.75581400  1
  Si  Si27  1  0.33169100  0.76858500  0.24362000  1
  H  H28  1  0.66363800  0.05426300  0.91455200  1
  H  H29  1  0.33335800  0.95687900  0.09086400  1
  H  H30  1  0.95590100  0.33349800  0.30463800  1
  H  H31  1  0.05597600  0.66469000  0.69394500  1
  O  O32  1  0.73251300  0.94625700  0.91775500  1
  O  O33  1  0.26766800  0.06853200  0.09117100  1
  O  O34  1  0.66639200  0.36085300  0.69029400  1
  O  O35  1  0.33564100  0.63901200  0.30868700  1
  O  O36  1  0.82694600  0.06128700  0.20845200  1
  O  O37  1  0.16870400  0.94031100  0.79225500  1
  O  O38  1  0.94171000  0.16529900  0.01329500  1
  O  O39  1  0.05956000  0.83362700  0.98719600  1
  O  O40  1  0.93527900  0.16572300  0.51042200  1
  O  O41  1  0.06608600  0.82830500  0.48689300  1
  O  O42  1  0.81532000  0.49877000  0.10055000  1
  O  O43  1  0.19122100  0.49674000  0.90023800  1
  O  O44  1  0.94695300  0.73063100  0.67059900  1
  O  O45  1  0.06713300  0.26952900  0.32783300  1
  O  O46  1  0.60931600  0.88592800  0.13025400  1
  O  O47  1  0.39126800  0.11557900  0.86821500  1
  O  O48  1  0.96681500  0.70842400  0.18558700  1
  O  O49  1  0.03671400  0.28725900  0.81435700  1
  O  O50  1  0.68479900  0.36249700  0.20354100  1
  O  O51  1  0.30803300  0.63474100  0.79249100  1
  O  O52  1  0.78224700  0.50126300  0.56821100  1
  O  O53  1  0.22726800  0.48279500  0.41704600  1
  O  O54  1  0.87351000  0.61139900  0.86142800  1
  O  O55  1  0.13348200  0.38364000  0.14943100  1
  O  O56  1  0.50446600  0.78320700  0.82757100  1
  O  O57  1  0.47933400  0.22498800  0.18232500  1
  O  O58  1  0.88727100  0.60991700  0.36830300  1
  O  O59  1  0.11367500  0.39021000  0.63436400  1
  O  O60  1  0.49491600  0.80822100  0.29923300  1
  O  O61  1  0.50156600  0.19897200  0.70290700  1
  O  O62  1  0.83676100  0.06391800  0.71156000  1
  O  O63  1  0.16182900  0.93731700  0.28796800  1
  O  O64  1  0.62772200  0.31522200  0.42460000  1
  O  O65  1  0.36744600  0.68042900  0.57571800  1
  O  O66  1  0.64589200  0.33550000  0.93250100  1
  O  O67  1  0.35592400  0.66374400  0.06724600  1
  O  O68  1  0.61342800  0.87678100  0.63325300  1
  O  O69  1  0.38147400  0.13117600  0.35763600  1
  O  O70  1  0.70505200  0.96131300  0.40156800  1
  O  O71  1  0.29096500  0.04222400  0.59827200  1
