# generated using pymatgen
data_Na3PrTi2Nb2O12
_symmetry_space_group_name_H-M   'P 1'
_cell_length_a   5.53177000
_cell_length_b   5.58874703
_cell_length_c   7.87165176
_cell_angle_alpha   89.91439910
_cell_angle_beta   89.97146730
_cell_angle_gamma   89.96516374
_symmetry_Int_Tables_number   1
_chemical_formula_structural   Na3PrTi2Nb2O12
_chemical_formula_sum   'Na3 Pr1 Ti2 Nb2 O12'
_cell_volume   243.35698772
_cell_formula_units_Z   1
loop_
 _symmetry_equiv_pos_site_id
 _symmetry_equiv_pos_as_xyz
  1  'x, y, z'
loop_
 _atom_site_type_symbol
 _atom_site_label
 _atom_site_symmetry_multiplicity
 _atom_site_fract_x
 _atom_site_fract_y
 _atom_site_fract_z
 _atom_site_occupancy
  Na  Na0  1  0.49568100  0.51330500  0.74941100  1
  Na  Na1  1  0.00348000  0.01331000  0.74982300  1
  Na  Na2  1  0.50503500  0.47843900  0.25025100  1
  Pr  Pr3  1  0.99633300  0.96056800  0.25001200  1
  Ti  Ti4  1  0.49909000  0.98527000  0.00520100  1
  Ti  Ti5  1  0.00536600  0.48431900  0.49559200  1
  Nb  Nb6  1  0.49910600  0.99264500  0.51296600  1
  Nb  Nb7  1  0.00493400  0.48524900  0.98607100  1
  O  O8  1  0.56188400  0.98768300  0.75337900  1
  O  O9  1  0.92972500  0.49514900  0.74686200  1
  O  O10  1  0.43005500  0.01679000  0.24659300  1
  O  O11  1  0.06331400  0.51632500  0.25340600  1
  O  O12  1  0.21318300  0.79557300  0.97760900  1
  O  O13  1  0.27785800  0.28876900  0.52997500  1
  O  O14  1  0.78787000  0.22213800  0.46048700  1
  O  O15  1  0.72361900  0.73606500  0.04390000  1
  O  O16  1  0.78305400  0.21894700  0.03999300  1
  O  O17  1  0.72745000  0.73314800  0.45644800  1
  O  O18  1  0.21041300  0.79114500  0.52336200  1
  O  O19  1  0.28255000  0.28516100  0.96865800  1
