# generated using pymatgen
data_Na2TiNiO4
_symmetry_space_group_name_H-M   'P 1'
_cell_length_a   3.04211389
_cell_length_b   5.66080066
_cell_length_c   10.29417433
_cell_angle_alpha   103.33453073
_cell_angle_beta   90.00097684
_cell_angle_gamma   90.00154666
_symmetry_Int_Tables_number   1
_chemical_formula_structural   Na2TiNiO4
_chemical_formula_sum   'Na4 Ti2 Ni2 O8'
_cell_volume   172.49462476
_cell_formula_units_Z   2
loop_
 _symmetry_equiv_pos_site_id
 _symmetry_equiv_pos_as_xyz
  1  'x, y, z'
loop_
 _atom_site_type_symbol
 _atom_site_label
 _atom_site_symmetry_multiplicity
 _atom_site_fract_x
 _atom_site_fract_y
 _atom_site_fract_z
 _atom_site_occupancy
  Na  Na0  1  0.00000000  0.99999700  0.99999200  1
  Na  Na1  1  0.00000000  0.50000300  0.50000800  1
  Na  Na2  1  0.50000000  0.25000000  0.25000000  1
  Na  Na3  1  0.50000000  0.75000000  0.75000000  1
  Ti  Ti4  1  0.50000000  0.49999900  0.99999500  1
  Ti  Ti5  1  0.50000000  0.00000100  0.50000500  1
  Ni  Ni6  1  0.00000000  0.25000000  0.75000000  1
  Ni  Ni7  1  0.00000000  0.75000000  0.25000000  1
  O  O8  1  0.50000600  0.82122500  0.12328200  1
  O  O9  1  0.50000600  0.32120700  0.62328400  1
  O  O10  1  0.49999400  0.67877500  0.37671800  1
  O  O11  1  0.49999400  0.17879300  0.87671600  1
  O  O12  1  0.99999800  0.09505500  0.39122700  1
  O  O13  1  0.99999900  0.59505800  0.89121900  1
  O  O14  1  0.00000200  0.40494500  0.10877300  1
  O  O15  1  0.00000100  0.90494200  0.60878100  1
