# generated using pymatgen
data_Na2TbO3
_symmetry_space_group_name_H-M   'P 1'
_cell_length_a   5.98299837
_cell_length_b   5.98299837
_cell_length_c   5.95769651
_cell_angle_alpha   80.07803245
_cell_angle_beta   80.07803245
_cell_angle_gamma   119.73390482
_symmetry_Int_Tables_number   1
_chemical_formula_structural   Na2TbO3
_chemical_formula_sum   'Na4 Tb2 O6'
_cell_volume   173.93469033
_cell_formula_units_Z   2
loop_
 _symmetry_equiv_pos_site_id
 _symmetry_equiv_pos_as_xyz
  1  'x, y, z'
loop_
 _atom_site_type_symbol
 _atom_site_label
 _atom_site_symmetry_multiplicity
 _atom_site_fract_x
 _atom_site_fract_y
 _atom_site_fract_z
 _atom_site_occupancy
  Na  Na0  1  0.50000000  0.50000000  0.00000000  1
  Na  Na1  1  0.84045900  0.15954100  0.00000000  1
  Na  Na2  1  0.15954100  0.84045900  0.00000000  1
  Na  Na3  1  0.00000000  0.00000000  0.50000000  1
  Tb  Tb4  1  0.66486600  0.33513400  0.50000000  1
  Tb  Tb5  1  0.33513400  0.66486600  0.50000000  1
  O  O6  1  0.56215200  0.92532700  0.72225500  1
  O  O7  1  0.07467300  0.43784800  0.27774500  1
  O  O8  1  0.43784800  0.07467300  0.27774500  1
  O  O9  1  0.92532700  0.56215200  0.72225500  1
  O  O10  1  0.28691800  0.28691800  0.72745300  1
  O  O11  1  0.71308200  0.71308200  0.27254700  1
