# generated using pymatgen
data_Na3BP4PbO16
_symmetry_space_group_name_H-M   'P 1'
_cell_length_a   7.01202600
_cell_length_b   7.01885183
_cell_length_c   14.75577090
_cell_angle_alpha   103.59885726
_cell_angle_beta   103.43174748
_cell_angle_gamma   89.93279296
_symmetry_Int_Tables_number   1
_chemical_formula_structural   Na3BP4PbO16
_chemical_formula_sum   'Na6 B2 P8 Pb2 O32'
_cell_volume   685.46103484
_cell_formula_units_Z   2
loop_
 _symmetry_equiv_pos_site_id
 _symmetry_equiv_pos_as_xyz
  1  'x, y, z'
loop_
 _atom_site_type_symbol
 _atom_site_label
 _atom_site_symmetry_multiplicity
 _atom_site_fract_x
 _atom_site_fract_y
 _atom_site_fract_z
 _atom_site_occupancy
  Na  Na0  1  0.02813300  0.69525700  0.86257200  1
  Na  Na1  1  0.16705700  0.02851300  0.36025100  1
  Na  Na2  1  0.67890500  0.83464400  0.13514500  1
  Na  Na3  1  0.96501700  0.29414700  0.13451100  1
  Na  Na4  1  0.29589200  0.67289900  0.63520800  1
  Na  Na5  1  0.83591300  0.95920700  0.63344300  1
  B  B6  1  0.62468200  0.37680700  0.74870600  1
  B  B7  1  0.37224100  0.62752000  0.24861000  1
  P  P8  1  0.80162300  0.48495100  0.62223700  1
  P  P9  1  0.32414400  0.13980400  0.62241800  1
  P  P10  1  0.13576200  0.79896200  0.12085000  1
  P  P11  1  0.48424600  0.32415400  0.12272200  1
  P  P12  1  0.19793500  0.52005000  0.38000700  1
  P  P13  1  0.67700300  0.86304800  0.37748400  1
  P  P14  1  0.86285000  0.20072800  0.87790700  1
  P  P15  1  0.51907500  0.68136900  0.87933900  1
  Pb  Pb16  1  0.31992400  0.16220300  0.86445500  1
  Pb  Pb17  1  0.70257700  0.32118000  0.36554000  1
  O  O18  1  0.34862600  0.19147600  0.03285200  1
  O  O19  1  0.17426100  0.82241700  0.02612200  1
  O  O20  1  0.84067500  0.34542800  0.53202100  1
  O  O21  1  0.20401800  0.17146700  0.52715300  1
  O  O22  1  0.65127000  0.80731700  0.97097900  1
  O  O23  1  0.81108900  0.16983600  0.96903700  1
  O  O24  1  0.16318300  0.65173800  0.47211100  1
  O  O25  1  0.79887200  0.81015700  0.46799900  1
  O  O26  1  0.76825700  0.34695000  0.68911900  1
  O  O27  1  0.41949600  0.34631000  0.68988700  1
  O  O28  1  0.34239900  0.77008500  0.18884200  1
  O  O29  1  0.34599300  0.42185400  0.19024600  1
  O  O30  1  0.23023600  0.65317900  0.31046200  1
  O  O31  1  0.57867600  0.65915000  0.30712400  1
  O  O32  1  0.65774900  0.22794300  0.80741400  1
  O  O33  1  0.65239400  0.57867900  0.81020600  1
  O  O34  1  0.48321600  0.99859800  0.60000900  1
  O  O35  1  0.62295800  0.60797000  0.59999100  1
  O  O36  1  0.60471900  0.47785000  0.09806500  1
  O  O37  1  0.99752700  0.61658900  0.10133500  1
  O  O38  1  0.51769600  0.00468000  0.39883600  1
  O  O39  1  0.37968900  0.40034100  0.40446700  1
  O  O40  1  0.40046300  0.52478300  0.90486500  1
  O  O41  1  0.00437300  0.38020500  0.89824700  1
  O  O42  1  0.19655300  0.05680600  0.67824900  1
  O  O43  1  0.97561900  0.63165700  0.67705800  1
  O  O44  1  0.62909500  0.20192500  0.17906800  1
  O  O45  1  0.04915200  0.97959400  0.17356200  1
  O  O46  1  0.80657400  0.95722100  0.32641200  1
  O  O47  1  0.01852400  0.37522100  0.32559300  1
  O  O48  1  0.37599500  0.80648500  0.82379400  1
  O  O49  1  0.95767300  0.02064300  0.82746800  1
