# generated using pymatgen
data_Na3Co6Ag(P2O7)4
_symmetry_space_group_name_H-M   'P 1'
_cell_length_a   5.38595300
_cell_length_b   6.44366000
_cell_length_c   16.48516309
_cell_angle_alpha   80.71000892
_cell_angle_beta   81.56717591
_cell_angle_gamma   72.77908481
_symmetry_Int_Tables_number   1
_chemical_formula_structural   Na3Co6Ag(P2O7)4
_chemical_formula_sum   'Na3 Co6 Ag1 P8 O28'
_cell_volume   536.33221790
_cell_formula_units_Z   1
loop_
 _symmetry_equiv_pos_site_id
 _symmetry_equiv_pos_as_xyz
  1  'x, y, z'
loop_
 _atom_site_type_symbol
 _atom_site_label
 _atom_site_symmetry_multiplicity
 _atom_site_fract_x
 _atom_site_fract_y
 _atom_site_fract_z
 _atom_site_occupancy
  Na  Na0  1  0.38621800  0.72563600  0.13865500  1
  Na  Na1  1  0.90737800  0.74677200  0.01910200  1
  Na  Na2  1  0.09433300  0.25332400  0.98000200  1
  Co  Co3  1  0.20448400  0.27922100  0.58928400  1
  Co  Co4  1  0.79580600  0.72062100  0.41066200  1
  Co  Co5  1  0.03681000  0.63552500  0.80416800  1
  Co  Co6  1  0.96147600  0.36461000  0.19593500  1
  Co  Co7  1  0.76937000  0.03833400  0.65877900  1
  Co  Co8  1  0.23056400  0.96071800  0.34153900  1
  Ag  Ag9  1  0.60983600  0.27213600  0.86169800  1
  P  P10  1  0.43378200  0.75009800  0.91824700  1
  P  P11  1  0.56631900  0.25139800  0.08268900  1
  P  P12  1  0.29528700  0.78140800  0.54203300  1
  P  P13  1  0.70492400  0.21869900  0.45784900  1
  P  P14  1  0.64291600  0.57252100  0.67664100  1
  P  P15  1  0.35729000  0.42719100  0.32329800  1
  P  P16  1  0.18962700  0.09805500  0.78226400  1
  P  P17  1  0.81130700  0.90185600  0.21734700  1
  O  O18  1  0.40466600  0.95129900  0.84199700  1
  O  O19  1  0.59465600  0.04708600  0.15776200  1
  O  O20  1  0.11960200  0.98611600  0.58062300  1
  O  O21  1  0.88081300  0.01392600  0.41950200  1
  O  O22  1  0.41116500  0.84171700  0.45301500  1
  O  O23  1  0.58902500  0.15812100  0.54705700  1
  O  O24  1  0.72999800  0.64570600  0.90989200  1
  O  O25  1  0.27086400  0.35629400  0.09041000  1
  O  O26  1  0.82646900  0.34729800  0.65763000  1
  O  O27  1  0.17317900  0.65290000  0.34224800  1
  O  O28  1  0.32307800  0.85321900  0.99748700  1
  O  O29  1  0.68016800  0.14268000  0.00417200  1
  O  O30  1  0.55828900  0.70075000  0.58831700  1
  O  O31  1  0.44189300  0.29923900  0.41177000  1
  O  O32  1  0.35639300  0.13783000  0.70070600  1
  O  O33  1  0.64435200  0.86234200  0.29887100  1
  O  O34  1  0.26837000  0.60380200  0.90242100  1
  O  O35  1  0.72740700  0.39992200  0.09809500  1
  O  O36  1  0.05723400  0.30268800  0.82591700  1
  O  O37  1  0.94450100  0.69794100  0.17363700  1
  O  O38  1  0.40384100  0.55247900  0.73435200  1
  O  O39  1  0.59324100  0.44962400  0.26481500  1
  O  O40  1  0.79687200  0.71235100  0.70453400  1
  O  O41  1  0.20347900  0.28741800  0.29567600  1
  O  O42  1  0.16405500  0.60005800  0.55048800  1
  O  O43  1  0.83575200  0.39992900  0.44953600  1
  O  O44  1  0.99062400  0.97261100  0.77635800  1
  O  O45  1  0.01228800  0.02653100  0.22252100  1
