# generated using pymatgen
data_Na2ZrSi3O11
_symmetry_space_group_name_H-M   'P 1'
_cell_length_a   7.61721562
_cell_length_b   7.61721562
_cell_length_c   10.14068982
_cell_angle_alpha   89.72164478
_cell_angle_beta   89.72164478
_cell_angle_gamma   120.62099827
_symmetry_Int_Tables_number   1
_chemical_formula_structural   Na2ZrSi3O11
_chemical_formula_sum   'Na4 Zr2 Si6 O22'
_cell_volume   506.31167914
_cell_formula_units_Z   2
loop_
 _symmetry_equiv_pos_site_id
 _symmetry_equiv_pos_as_xyz
  1  'x, y, z'
loop_
 _atom_site_type_symbol
 _atom_site_label
 _atom_site_symmetry_multiplicity
 _atom_site_fract_x
 _atom_site_fract_y
 _atom_site_fract_z
 _atom_site_occupancy
  Na  Na0  1  0.50000000  0.50000000  0.50000000  1
  Na  Na1  1  0.00000000  0.50000000  0.50000000  1
  Na  Na2  1  0.50000000  0.50000000  0.00000000  1
  Na  Na3  1  0.50000000  0.00000000  0.00000000  1
  Zr  Zr4  1  0.00000000  0.00000000  0.50000000  1
  Zr  Zr5  1  0.00000000  0.00000000  0.00000000  1
  Si  Si6  1  0.80391900  0.60159300  0.24958700  1
  Si  Si7  1  0.19608100  0.39840700  0.75041300  1
  Si  Si8  1  0.19843700  0.80156300  0.75000000  1
  Si  Si9  1  0.39840700  0.19608100  0.25041300  1
  Si  Si10  1  0.80156300  0.19843700  0.25000000  1
  Si  Si11  1  0.60159300  0.80391900  0.74958700  1
  O  O12  1  0.73590900  0.86216200  0.61692800  1
  O  O13  1  0.87496300  0.13740700  0.38306200  1
  O  O14  1  0.26409100  0.13783800  0.38307200  1
  O  O15  1  0.12503700  0.86259300  0.61693800  1
  O  O16  1  0.72766300  0.86447000  0.88696300  1
  O  O17  1  0.86259300  0.12503700  0.11693800  1
  O  O18  1  0.27233700  0.13553000  0.11303700  1
  O  O19  1  0.13740700  0.87496300  0.88306200  1
  O  O20  1  0.13553000  0.27233700  0.61303700  1
  O  O21  1  0.86447000  0.72766300  0.38696300  1
  O  O22  1  0.13783800  0.26409100  0.88307200  1
  O  O23  1  0.86216200  0.73590900  0.11692800  1
  O  O24  1  0.09943300  0.55011200  0.74616400  1
  O  O25  1  0.55167400  0.44832600  0.25000000  1
  O  O26  1  0.90056700  0.44988800  0.25383600  1
  O  O27  1  0.44832600  0.55167400  0.75000000  1
  O  O28  1  0.44988800  0.90056700  0.75383600  1
  O  O29  1  0.55011200  0.09943300  0.24616400  1
  O  O30  1  0.66894800  0.33891800  0.59238000  1
  O  O31  1  0.33105200  0.66108200  0.40762000  1
  O  O32  1  0.66108200  0.33105200  0.90762000  1
  O  O33  1  0.33891800  0.66894800  0.09238000  1
