# generated using pymatgen
data_CaMnO2
_symmetry_space_group_name_H-M   'P 1'
_cell_length_a   3.21286000
_cell_length_b   5.72564200
_cell_length_c   11.40294800
_cell_angle_alpha   90.00000000
_cell_angle_beta   90.00000000
_cell_angle_gamma   90.00000000
_symmetry_Int_Tables_number   1
_chemical_formula_structural   CaMnO2
_chemical_formula_sum   'Ca4 Mn4 O8'
_cell_volume   209.76505266
_cell_formula_units_Z   4
loop_
 _symmetry_equiv_pos_site_id
 _symmetry_equiv_pos_as_xyz
  1  'x, y, z'
loop_
 _atom_site_type_symbol
 _atom_site_label
 _atom_site_symmetry_multiplicity
 _atom_site_fract_x
 _atom_site_fract_y
 _atom_site_fract_z
 _atom_site_occupancy
  Ca  Ca0  1  0.25000000  0.99547600  0.13544100  1
  Ca  Ca1  1  0.75000000  0.00452400  0.86455900  1
  Ca  Ca2  1  0.75000000  0.49547600  0.36455900  1
  Ca  Ca3  1  0.25000000  0.50452400  0.63544100  1
  Mn  Mn4  1  0.25000000  0.49095700  0.11181300  1
  Mn  Mn5  1  0.75000000  0.50904300  0.88818700  1
  Mn  Mn6  1  0.75000000  0.99095700  0.38818700  1
  Mn  Mn7  1  0.25000000  0.00904300  0.61181300  1
  O  O8  1  0.75000000  0.27373200  0.19471300  1
  O  O9  1  0.25000000  0.72626800  0.80528700  1
  O  O10  1  0.25000000  0.77373200  0.30528700  1
  O  O11  1  0.75000000  0.22626800  0.69471300  1
  O  O12  1  0.75000000  0.73476400  0.04842700  1
  O  O13  1  0.25000000  0.26523600  0.95157300  1
  O  O14  1  0.75000000  0.76523600  0.54842700  1
  O  O15  1  0.25000000  0.23476400  0.45157300  1
