# generated using pymatgen
data_Na2PrO3
_symmetry_space_group_name_H-M   'P 1'
_cell_length_a   6.05214849
_cell_length_b   6.05214849
_cell_length_c   6.05214849
_cell_angle_alpha   145.38431114
_cell_angle_beta   133.53240206
_cell_angle_gamma   59.21983124
_symmetry_Int_Tables_number   1
_chemical_formula_structural   Na2PrO3
_chemical_formula_sum   'Na2 Pr1 O3'
_cell_volume   90.47688361
_cell_formula_units_Z   1
loop_
 _symmetry_equiv_pos_site_id
 _symmetry_equiv_pos_as_xyz
  1  'x, y, z'
loop_
 _atom_site_type_symbol
 _atom_site_label
 _atom_site_symmetry_multiplicity
 _atom_site_fract_x
 _atom_site_fract_y
 _atom_site_fract_z
 _atom_site_occupancy
  Na  Na0  1  0.67126600  0.67126600  0.00000000  1
  Na  Na1  1  0.32873400  0.32873400  0.00000000  1
  Pr  Pr2  1  0.00000000  0.00000000  0.00000000  1
  O  O3  1  0.50000000  0.00000000  0.50000000  1
  O  O4  1  0.15032200  0.65032200  0.50000000  1
  O  O5  1  0.84967800  0.34967800  0.50000000  1
