# generated using pymatgen
data_Na2Ti7O15
_symmetry_space_group_name_H-M   'P 1'
_cell_length_a   7.90164434
_cell_length_b   7.90164434
_cell_length_c   21.41499320
_cell_angle_alpha   84.10203941
_cell_angle_beta   84.10203941
_cell_angle_gamma   27.58051923
_symmetry_Int_Tables_number   1
_chemical_formula_structural   Na2Ti7O15
_chemical_formula_sum   'Na4 Ti14 O30'
_cell_volume   615.57958862
_cell_formula_units_Z   2
loop_
 _symmetry_equiv_pos_site_id
 _symmetry_equiv_pos_as_xyz
  1  'x, y, z'
loop_
 _atom_site_type_symbol
 _atom_site_label
 _atom_site_symmetry_multiplicity
 _atom_site_fract_x
 _atom_site_fract_y
 _atom_site_fract_z
 _atom_site_occupancy
  Na  Na0  1  0.99809900  0.99809900  0.00525700  1
  Na  Na1  1  0.06417100  0.06417100  0.81595200  1
  Na  Na2  1  0.03454600  0.03454600  0.39576800  1
  Na  Na3  1  0.96541300  0.96541300  0.60109200  1
  Ti  Ti4  1  0.64219700  0.64219700  0.09964900  1
  Ti  Ti5  1  0.35952500  0.35952500  0.90143800  1
  Ti  Ti6  1  0.37683400  0.37683400  0.32544100  1
  Ti  Ti7  1  0.62288300  0.62288300  0.67050800  1
  Ti  Ti8  1  0.25503400  0.25503400  0.18796800  1
  Ti  Ti9  1  0.74749200  0.74749200  0.81244900  1
  Ti  Ti10  1  0.72331400  0.72331400  0.38178100  1
  Ti  Ti11  1  0.27760300  0.27760300  0.61595400  1
  Ti  Ti12  1  0.30385900  0.30385900  0.04492800  1
  Ti  Ti13  1  0.69502100  0.69502100  0.95589700  1
  Ti  Ti14  1  0.33335700  0.33335700  0.47215300  1
  Ti  Ti15  1  0.66758700  0.66758700  0.52536900  1
  Ti  Ti16  1  0.59646500  0.59646500  0.24138000  1
  Ti  Ti17  1  0.40031900  0.40031900  0.75530900  1
  O  O18  1  0.17904200  0.17904200  0.09687200  1
  O  O19  1  0.82175800  0.82175800  0.90074500  1
  O  O20  1  0.62502900  0.62502900  0.44880800  1
  O  O21  1  0.37376300  0.37376300  0.55240700  1
  O  O22  1  0.42617900  0.42617900  0.41407400  1
  O  O23  1  0.57461100  0.57461100  0.58846900  1
  O  O24  1  0.65702100  0.65702100  0.31988900  1
  O  O25  1  0.34460500  0.34460500  0.67991200  1
  O  O26  1  0.79549600  0.79549600  0.47194800  1
  O  O27  1  0.20241200  0.20241200  0.53148500  1
  O  O28  1  0.34695100  0.34695100  0.11869000  1
  O  O29  1  0.65108000  0.65108000  0.87920100  1
  O  O30  1  0.31503600  0.31503600  0.25332100  1
  O  O31  1  0.68003700  0.68003700  0.75105200  1
  O  O32  1  0.25540500  0.25540500  0.39200300  1
  O  O33  1  0.74458000  0.74458000  0.61067400  1
  O  O34  1  0.55267000  0.55267000  0.15765900  1
  O  O35  1  0.45178400  0.45178400  0.84290000  1
  O  O36  1  0.72085600  0.72085600  0.17662400  1
  O  O37  1  0.28063200  0.28063200  0.82111900  1
  O  O38  1  0.77266500  0.77266500  0.03602100  1
  O  O39  1  0.22739600  0.22739600  0.95985900  1
  O  O40  1  0.48943200  0.48943200  0.28802700  1
  O  O41  1  0.51273000  0.51273000  0.71622200  1
  O  O42  1  0.12913800  0.12913800  0.23292500  1
  O  O43  1  0.87408500  0.87408500  0.76702900  1
  O  O44  1  0.84971600  0.84971600  0.33793500  1
  O  O45  1  0.15025000  0.15025000  0.66459200  1
  O  O46  1  0.59845100  0.59845100  0.01736300  1
  O  O47  1  0.40247000  0.40247000  0.98088500  1
