# generated using pymatgen
data_Na2Nb2W2O13
_symmetry_space_group_name_H-M   'P 1'
_cell_length_a   7.43078628
_cell_length_b   7.43078628
_cell_length_c   7.43078628
_cell_angle_alpha   119.80481453
_cell_angle_beta   119.65544298
_cell_angle_gamma   90.46811803
_symmetry_Int_Tables_number   1
_chemical_formula_structural   Na2Nb2W2O13
_chemical_formula_sum   'Na2 Nb2 W2 O13'
_cell_volume   291.30009925
_cell_formula_units_Z   1
loop_
 _symmetry_equiv_pos_site_id
 _symmetry_equiv_pos_as_xyz
  1  'x, y, z'
loop_
 _atom_site_type_symbol
 _atom_site_label
 _atom_site_symmetry_multiplicity
 _atom_site_fract_x
 _atom_site_fract_y
 _atom_site_fract_z
 _atom_site_occupancy
  Na  Na0  1  0.12771900  0.37394000  0.75377800  1
  Na  Na1  1  0.62016200  0.37394000  0.24622200  1
  Nb  Nb2  1  0.12509800  0.37735100  0.25225200  1
  Nb  Nb3  1  0.12509800  0.87284600  0.74774800  1
  W  W4  1  0.62349700  0.87379500  0.74970200  1
  W  W5  1  0.12409300  0.87379500  0.25029800  1
  O  O6  1  0.43898700  0.93704500  0.87359800  1
  O  O7  1  0.43898700  0.56538900  0.50194300  1
  O  O8  1  0.42824200  0.92824200  0.50000000  1
  O  O9  1  0.06344600  0.56538900  0.12640200  1
  O  O10  1  0.06344600  0.93704400  0.49805700  1
  O  O11  1  0.05148900  0.55148900  0.50000000  1
  O  O12  1  0.80650700  0.80980300  0.62924900  1
  O  O13  1  0.80650700  0.17725800  0.99670300  1
  O  O14  1  0.81147400  0.81147400  0.00000000  1
  O  O15  1  0.18055500  0.17725800  0.37075100  1
  O  O16  1  0.18055500  0.80980300  0.00329700  1
  O  O17  1  0.19072900  0.19072900  0.00000000  1
  O  O18  1  0.54340900  0.54340900  0.00000000  1
