# generated using pymatgen
data_Na2MnFeF7
_symmetry_space_group_name_H-M   'P 1'
_cell_length_a   7.58634073
_cell_length_b   7.58634073
_cell_length_c   18.52389100
_cell_angle_alpha   90.00000000
_cell_angle_beta   90.00000000
_cell_angle_gamma   120.00000633
_symmetry_Int_Tables_number   1
_chemical_formula_structural   Na2MnFeF7
_chemical_formula_sum   'Na12 Mn6 Fe6 F42'
_cell_volume   923.26741756
_cell_formula_units_Z   6
loop_
 _symmetry_equiv_pos_site_id
 _symmetry_equiv_pos_as_xyz
  1  'x, y, z'
loop_
 _atom_site_type_symbol
 _atom_site_label
 _atom_site_symmetry_multiplicity
 _atom_site_fract_x
 _atom_site_fract_y
 _atom_site_fract_z
 _atom_site_occupancy
  Na  Na0  1  0.37087900  0.49745700  0.00174600  1
  Na  Na1  1  0.50254300  0.87342300  0.33508000  1
  Na  Na2  1  0.12657700  0.62912100  0.66841300  1
  Na  Na3  1  0.62692300  0.12617300  0.66643200  1
  Na  Na4  1  0.87382700  0.50075000  0.99976600  1
  Na  Na5  1  0.49925000  0.37307700  0.33309900  1
  Na  Na6  1  0.14419100  0.14219500  0.66807800  1
  Na  Na7  1  0.85780500  0.00199600  0.00141100  1
  Na  Na8  1  0.99800400  0.85580900  0.33474400  1
  Na  Na9  1  0.17759200  0.13535600  0.16975500  1
  Na  Na10  1  0.86464400  0.04223600  0.50308900  1
  Na  Na11  1  0.95776400  0.82240800  0.83642200  1
  Mn  Mn12  1  0.34320000  0.50607600  0.50334200  1
  Mn  Mn13  1  0.49392400  0.83712400  0.83667500  1
  Mn  Mn14  1  0.16287600  0.65680000  0.17000800  1
  Mn  Mn15  1  0.66200700  0.16273400  0.16318000  1
  Mn  Mn16  1  0.83726600  0.49927300  0.49651400  1
  Mn  Mn17  1  0.50072700  0.33799300  0.82984700  1
  Fe  Fe18  1  0.68365300  0.68389100  0.66625700  1
  Fe  Fe19  1  0.31610900  0.99976200  0.99959100  1
  Fe  Fe20  1  0.00023800  0.31634700  0.33292400  1
  Fe  Fe21  1  0.66423700  0.66354400  0.16659400  1
  Fe  Fe22  1  0.33645600  0.00069400  0.49992700  1
  Fe  Fe23  1  0.99930600  0.33576300  0.83326100  1
  F  F24  1  0.37515100  0.95223700  0.20741600  1
  F  F25  1  0.04776300  0.42291400  0.54074900  1
  F  F26  1  0.57708600  0.62484900  0.87408300  1
  F  F27  1  0.61914400  0.56634600  0.45687600  1
  F  F28  1  0.43365400  0.05279800  0.79020900  1
  F  F29  1  0.94720200  0.38085600  0.12354300  1
  F  F30  1  0.86354300  0.44100700  0.38555700  1
  F  F31  1  0.55899300  0.42253700  0.71889100  1
  F  F32  1  0.57746300  0.13645700  0.05222400  1
  F  F33  1  0.13735600  0.57919100  0.28132100  1
  F  F34  1  0.42080900  0.55816500  0.61465400  1
  F  F35  1  0.44183500  0.86264400  0.94798700  1
  F  F36  1  0.62274100  0.18941200  0.52400600  1
  F  F37  1  0.81058800  0.43332900  0.85733900  1
  F  F38  1  0.56667100  0.37725900  0.19067200  1
  F  F39  1  0.37976600  0.56899600  0.14224300  1
  F  F40  1  0.43100400  0.81077000  0.47557600  1
  F  F41  1  0.18923000  0.62023400  0.80890900  1
  F  F42  1  0.30347000  0.93349000  0.60418500  1
  F  F43  1  0.06651000  0.36998000  0.93751800  1
  F  F44  1  0.63002000  0.69653000  0.27085100  1
  F  F45  1  0.69691200  0.62978000  0.06236800  1
  F  F46  1  0.37022000  0.06713200  0.39570200  1
  F  F47  1  0.93286800  0.30308800  0.72903500  1
  F  F48  1  0.14007700  0.19744500  0.28122900  1
  F  F49  1  0.80255500  0.94263200  0.61456300  1
  F  F50  1  0.05736800  0.85992300  0.94789600  1
  F  F51  1  0.86058600  0.05865600  0.38574000  1
  F  F52  1  0.94134400  0.80192900  0.71907400  1
  F  F53  1  0.19807100  0.13941400  0.05240700  1
  F  F54  1  0.05205100  0.81111900  0.47453300  1
  F  F55  1  0.18888100  0.24093200  0.80786700  1
  F  F56  1  0.75906800  0.94794900  0.14120000  1
  F  F57  1  0.95005400  0.76049100  0.19194400  1
  F  F58  1  0.23950900  0.18956200  0.52527700  1
  F  F59  1  0.81043800  0.04994600  0.85861100  1
  F  F60  1  0.43511200  0.24017800  0.93858700  1
  F  F61  1  0.75982200  0.19493300  0.27192100  1
  F  F62  1  0.80506700  0.56488800  0.60525400  1
  F  F63  1  0.56646700  0.80413300  0.72853500  1
  F  F64  1  0.19586700  0.76233400  0.06186900  1
  F  F65  1  0.23766600  0.43353300  0.39520200  1
