# generated using pymatgen
data_Na2MoAs2O9
_symmetry_space_group_name_H-M   'P 1'
_cell_length_a   7.22972075
_cell_length_b   9.97370561
_cell_length_c   12.32348600
_cell_angle_alpha   90.00000000
_cell_angle_beta   90.00000000
_cell_angle_gamma   100.74644902
_symmetry_Int_Tables_number   1
_chemical_formula_structural   Na2MoAs2O9
_chemical_formula_sum   'Na8 Mo4 As8 O36'
_cell_volume   873.02641882
_cell_formula_units_Z   4
loop_
 _symmetry_equiv_pos_site_id
 _symmetry_equiv_pos_as_xyz
  1  'x, y, z'
loop_
 _atom_site_type_symbol
 _atom_site_label
 _atom_site_symmetry_multiplicity
 _atom_site_fract_x
 _atom_site_fract_y
 _atom_site_fract_z
 _atom_site_occupancy
  Na  Na0  1  0.63175400  0.63197800  0.59274800  1
  Na  Na1  1  0.36824600  0.86802200  0.09274800  1
  Na  Na2  1  0.36570600  0.36642500  0.40738300  1
  Na  Na3  1  0.63429400  0.13357500  0.90738300  1
  Na  Na4  1  0.49587500  0.00730300  0.48812800  1
  Na  Na5  1  0.50412500  0.49269700  0.98812800  1
  Na  Na6  1  0.96869700  0.97548100  0.50214100  1
  Na  Na7  1  0.03130300  0.52451900  0.00214100  1
  Mo  Mo8  1  0.85853500  0.45637900  0.31983800  1
  Mo  Mo9  1  0.14146500  0.04362100  0.81983800  1
  Mo  Mo10  1  0.14092800  0.54277000  0.67944500  1
  Mo  Mo11  1  0.85907200  0.95723000  0.17944500  1
  As  As12  1  0.57962800  0.71321000  0.33178400  1
  As  As13  1  0.42037200  0.78679000  0.83178400  1
  As  As14  1  0.42178100  0.28673700  0.66761300  1
  As  As15  1  0.57821900  0.21326300  0.16761300  1
  As  As16  1  0.18986700  0.70451600  0.42827400  1
  As  As17  1  0.81013300  0.79548400  0.92827400  1
  As  As18  1  0.80998500  0.29434600  0.57155100  1
  As  As19  1  0.19001500  0.20565400  0.07155100  1
  O  O20  1  0.65842800  0.78897200  0.20926300  1
  O  O21  1  0.34157200  0.71102800  0.70926300  1
  O  O22  1  0.34182200  0.21157600  0.79048300  1
  O  O23  1  0.65817800  0.28842400  0.29048300  1
  O  O24  1  0.26617500  0.58917100  0.51249900  1
  O  O25  1  0.73382500  0.91082900  0.01249900  1
  O  O26  1  0.73483800  0.41049300  0.48760600  1
  O  O27  1  0.26516200  0.08950700  0.98760600  1
  O  O28  1  0.60028400  0.54540800  0.32897900  1
  O  O29  1  0.39971600  0.95459200  0.82897900  1
  O  O30  1  0.39999000  0.45448800  0.67209500  1
  O  O31  1  0.60001000  0.04551200  0.17209500  1
  O  O32  1  0.90313900  0.49802900  0.18495700  1
  O  O33  1  0.09686100  0.00197100  0.68495700  1
  O  O34  1  0.09878900  0.50320700  0.81486700  1
  O  O35  1  0.90121100  0.99679300  0.31486700  1
  O  O36  1  0.63777300  0.79955100  0.44800400  1
  O  O37  1  0.36222700  0.70044900  0.94800400  1
  O  O38  1  0.36474800  0.20240100  0.55108400  1
  O  O39  1  0.63525200  0.29759900  0.05108400  1
  O  O40  1  0.04674400  0.37964000  0.35685300  1
  O  O41  1  0.95325600  0.12036000  0.85685300  1
  O  O42  1  0.95357700  0.62104700  0.64286300  1
  O  O43  1  0.04642300  0.87895300  0.14286300  1
  O  O44  1  0.20856700  0.86572300  0.46856500  1
  O  O45  1  0.79143300  0.63427700  0.96856500  1
  O  O46  1  0.78792900  0.13321900  0.53076400  1
  O  O47  1  0.21207100  0.36678100  0.03076400  1
  O  O48  1  0.33150100  0.70328300  0.30711600  1
  O  O49  1  0.66849900  0.79671700  0.80711600  1
  O  O50  1  0.66983900  0.29731200  0.69321200  1
  O  O51  1  0.33016100  0.20268800  0.19321200  1
  O  O52  1  0.96447400  0.64314300  0.37955600  1
  O  O53  1  0.03552600  0.85685700  0.87955600  1
  O  O54  1  0.03513500  0.35658000  0.62052400  1
  O  O55  1  0.96486500  0.14342000  0.12052400  1
