# generated using pymatgen
data_Na2Fe3SbO8
_symmetry_space_group_name_H-M   'P 1'
_cell_length_a   3.05789000
_cell_length_b   9.47307200
_cell_length_c   10.97631600
_cell_angle_alpha   90.00000000
_cell_angle_beta   90.00000000
_cell_angle_gamma   90.00000000
_symmetry_Int_Tables_number   1
_chemical_formula_structural   Na2Fe3SbO8
_chemical_formula_sum   'Na4 Fe6 Sb2 O16'
_cell_volume   317.95766459
_cell_formula_units_Z   2
loop_
 _symmetry_equiv_pos_site_id
 _symmetry_equiv_pos_as_xyz
  1  'x, y, z'
loop_
 _atom_site_type_symbol
 _atom_site_label
 _atom_site_symmetry_multiplicity
 _atom_site_fract_x
 _atom_site_fract_y
 _atom_site_fract_z
 _atom_site_occupancy
  Na  Na0  1  0.00000000  0.01756700  0.84610500  1
  Na  Na1  1  0.00000000  0.50407900  0.64248500  1
  Na  Na2  1  0.50000000  0.49592100  0.14248500  1
  Na  Na3  1  0.50000000  0.98243300  0.34610500  1
  Fe  Fe4  1  0.00000000  0.68083200  0.40079100  1
  Fe  Fe5  1  0.00000000  0.16547400  0.09988000  1
  Fe  Fe6  1  0.50000000  0.83452600  0.59988000  1
  Fe  Fe7  1  0.50000000  0.31916800  0.90079100  1
  Fe  Fe8  1  0.00000000  0.18066500  0.62560800  1
  Fe  Fe9  1  0.50000000  0.81933500  0.12560800  1
  Sb  Sb10  1  0.00000000  0.69389900  0.88643100  1
  Sb  Sb11  1  0.50000000  0.30610100  0.38643100  1
  O  O12  1  0.00000000  0.77067600  0.71907700  1
  O  O13  1  0.00000000  0.28052900  0.78246200  1
  O  O14  1  0.50000000  0.71947100  0.28246200  1
  O  O15  1  0.50000000  0.22932400  0.21907700  1
  O  O16  1  0.00000000  0.67309900  0.06587900  1
  O  O17  1  0.00000000  0.16802800  0.42475800  1
  O  O18  1  0.50000000  0.83197200  0.92475800  1
  O  O19  1  0.50000000  0.32690100  0.56587900  1
  O  O20  1  0.00000000  0.44363200  0.34865900  1
  O  O21  1  0.00000000  0.95236600  0.15645300  1
  O  O22  1  0.50000000  0.04763400  0.65645300  1
  O  O23  1  0.50000000  0.55636800  0.84865900  1
  O  O24  1  0.00000000  0.36266200  0.01714800  1
  O  O25  1  0.00000000  0.87035200  0.48426400  1
  O  O26  1  0.50000000  0.12964800  0.98426400  1
  O  O27  1  0.50000000  0.63733800  0.51714800  1
