# generated using pymatgen
data_Na2Zn11(MoO4)12
_symmetry_space_group_name_H-M   'P 1'
_cell_length_a   9.84545900
_cell_length_b   11.00642447
_cell_length_c   11.44089604
_cell_angle_alpha   113.85056184
_cell_angle_beta   98.93502629
_cell_angle_gamma   93.58236444
_symmetry_Int_Tables_number   1
_chemical_formula_structural   Na2Zn11(MoO4)12
_chemical_formula_sum   'Na2 Zn11 Mo12 O48'
_cell_volume   1109.31941717
_cell_formula_units_Z   1
loop_
 _symmetry_equiv_pos_site_id
 _symmetry_equiv_pos_as_xyz
  1  'x, y, z'
loop_
 _atom_site_type_symbol
 _atom_site_label
 _atom_site_symmetry_multiplicity
 _atom_site_fract_x
 _atom_site_fract_y
 _atom_site_fract_z
 _atom_site_occupancy
  Na  Na0  1  0.74905000  0.75397100  0.74941200  1
  Na  Na1  1  0.24946300  0.24931300  0.24812300  1
  Zn  Zn2  1  0.61398400  0.26360800  0.15078500  1
  Zn  Zn3  1  0.11340300  0.76813600  0.66173700  1
  Zn  Zn4  1  0.89161300  0.23623700  0.33790700  1
  Zn  Zn5  1  0.39339500  0.73666500  0.83612200  1
  Zn  Zn6  1  0.13385300  0.31712900  0.83863600  1
  Zn  Zn7  1  0.63872300  0.82505600  0.34430800  1
  Zn  Zn8  1  0.36914200  0.18058900  0.66915900  1
  Zn  Zn9  1  0.85872400  0.67387600  0.15734400  1
  Zn  Zn10  1  0.12715700  0.65097600  0.35052000  1
  Zn  Zn11  1  0.86980100  0.34504400  0.65159500  1
  Zn  Zn12  1  0.37296600  0.84923900  0.14967100  1
  Mo  Mo13  1  0.38111100  0.52844100  0.15289800  1
  Mo  Mo14  1  0.88312900  0.02479700  0.65072900  1
  Mo  Mo15  1  0.11950200  0.97217500  0.34729500  1
  Mo  Mo16  1  0.61869400  0.47388300  0.84617900  1
  Mo  Mo17  1  0.43578800  0.84119200  0.60224000  1
  Mo  Mo18  1  0.93835100  0.34339200  0.10592700  1
  Mo  Mo19  1  0.06412800  0.65843500  0.89722600  1
  Mo  Mo20  1  0.56359600  0.15798500  0.39605400  1
  Mo  Mo21  1  0.18328000  0.42734800  0.59585600  1
  Mo  Mo22  1  0.68429600  0.92771600  0.09631000  1
  Mo  Mo23  1  0.31692700  0.07260900  0.90530700  1
  Mo  Mo24  1  0.81570800  0.57250000  0.40390900  1
  O  O25  1  0.44275800  0.01873900  0.68609000  1
  O  O26  1  0.95664800  0.52923400  0.19982000  1
  O  O27  1  0.04836900  0.47543100  0.80597600  1
  O  O28  1  0.54433800  0.97349500  0.30291400  1
  O  O29  1  0.25492200  0.53259700  0.25349800  1
  O  O30  1  0.76210200  0.01432900  0.74306300  1
  O  O31  1  0.24581900  0.96676600  0.24606400  1
  O  O32  1  0.74708800  0.46716500  0.74480300  1
  O  O33  1  0.49462900  0.12926900  0.98403200  1
  O  O34  1  0.00194200  0.62957800  0.47525600  1
  O  O35  1  0.99668300  0.36849700  0.52576800  1
  O  O36  1  0.49799600  0.86842600  0.02605800  1
  O  O37  1  0.53290000  0.31048100  0.80227800  1
  O  O38  1  0.04455600  0.79882900  0.30599600  1
  O  O39  1  0.95497600  0.20437100  0.69605300  1
  O  O40  1  0.45554600  0.70229000  0.19434000  1
  O  O41  1  0.50602900  0.42505500  0.17529600  1
  O  O42  1  0.01195300  0.92193100  0.67065200  1
  O  O43  1  0.99411800  0.07562800  0.32600300  1
  O  O44  1  0.49460200  0.58049100  0.82654800  1
  O  O45  1  0.51042800  0.77151500  0.71184500  1
  O  O46  1  0.01077300  0.27162300  0.21493000  1
  O  O47  1  0.99045500  0.72864900  0.78935200  1
  O  O48  1  0.49106300  0.22950100  0.28957500  1
  O  O49  1  0.29311700  0.45648700  0.98859500  1
  O  O50  1  0.79493900  0.95523800  0.48406900  1
  O  O51  1  0.20661200  0.04629300  0.51168000  1
  O  O52  1  0.70455700  0.54219400  0.01344800  1
  O  O53  1  0.25404900  0.16855600  0.81368100  1
  O  O54  1  0.74889400  0.66509100  0.31253800  1
  O  O55  1  0.24842100  0.33345500  0.68490100  1
  O  O56  1  0.75039300  0.83446500  0.18681300  1
  O  O57  1  0.03007500  0.30741500  0.97726900  1
  O  O58  1  0.52968600  0.80599900  0.47509200  1
  O  O59  1  0.46812600  0.19190700  0.52091900  1
  O  O60  1  0.96946800  0.69312500  0.02328800  1
  O  O61  1  0.28415400  0.88680100  0.80799300  1
  O  O62  1  0.77873400  0.38967500  0.30925200  1
  O  O63  1  0.21724200  0.61050100  0.69372800  1
  O  O64  1  0.71962500  0.11075300  0.19486800  1
  O  O65  1  0.25489400  0.76400700  0.52447200  1
  O  O66  1  0.76165400  0.27575400  0.03945000  1
  O  O67  1  0.24324800  0.73339800  0.97501500  1
  O  O68  1  0.74328900  0.23261300  0.47242400  1
  O  O69  1  0.22712600  0.11035400  0.03202500  1
  O  O70  1  0.73271300  0.61172600  0.53474200  1
  O  O71  1  0.26676400  0.38857500  0.46497800  1
  O  O72  1  0.76854200  0.88751300  0.96650600  1
