# generated using pymatgen
data_MoPd2Rh
_symmetry_space_group_name_H-M   'P 1'
_cell_length_a   9.22763699
_cell_length_b   9.22763699
_cell_length_c   9.22763727
_cell_angle_alpha   17.32387310
_cell_angle_beta   17.32387310
_cell_angle_gamma   17.32387374
_symmetry_Int_Tables_number   1
_chemical_formula_structural   MoPd2Rh
_chemical_formula_sum   'Mo1 Pd2 Rh1'
_cell_volume   60.79493359
_cell_formula_units_Z   1
loop_
 _symmetry_equiv_pos_site_id
 _symmetry_equiv_pos_as_xyz
  1  'x, y, z'
loop_
 _atom_site_type_symbol
 _atom_site_label
 _atom_site_symmetry_multiplicity
 _atom_site_fract_x
 _atom_site_fract_y
 _atom_site_fract_z
 _atom_site_occupancy
  Mo  Mo0  1  0.99819200  0.99819200  0.99819200  1
  Pd  Pd1  1  0.50065500  0.50065500  0.50065500  1
  Pd  Pd2  1  0.74802600  0.74802600  0.74802600  1
  Rh  Rh3  1  0.25312600  0.25312600  0.25312600  1
