# generated using pymatgen
data_Na2Ca5TiSi4(O8F)2
_symmetry_space_group_name_H-M   'P 1'
_cell_length_a   5.80962200
_cell_length_b   7.44091836
_cell_length_c   9.78605486
_cell_angle_alpha   101.05717374
_cell_angle_beta   101.43044090
_cell_angle_gamma   89.95439233
_symmetry_Int_Tables_number   1
_chemical_formula_structural   Na2Ca5TiSi4(O8F)2
_chemical_formula_sum   'Na2 Ca5 Ti1 Si4 O16 F2'
_cell_volume   406.64799508
_cell_formula_units_Z   1
loop_
 _symmetry_equiv_pos_site_id
 _symmetry_equiv_pos_as_xyz
  1  'x, y, z'
loop_
 _atom_site_type_symbol
 _atom_site_label
 _atom_site_symmetry_multiplicity
 _atom_site_fract_x
 _atom_site_fract_y
 _atom_site_fract_z
 _atom_site_occupancy
  Na  Na0  1  0.99845700  0.49968400  0.00086500  1
  Na  Na1  1  0.77850400  0.59332600  0.36608100  1
  Ca  Ca2  1  0.50903000  0.76387100  0.01252800  1
  Ca  Ca3  1  0.49733800  0.23552300  0.99063600  1
  Ca  Ca4  1  0.79289900  0.08856000  0.36070100  1
  Ca  Ca5  1  0.20832500  0.90916400  0.63877000  1
  Ca  Ca6  1  0.21056700  0.41004500  0.63489500  1
  Ti  Ti7  1  0.00182900  0.99992700  0.99676900  1
  Si  Si8  1  0.25086400  0.35255600  0.28305900  1
  Si  Si9  1  0.74919800  0.64696500  0.71621300  1
  Si  Si10  1  0.24996700  0.78622500  0.27833900  1
  Si  Si11  1  0.74681400  0.21447400  0.72113000  1
  O  O12  1  0.75142700  0.03175400  0.10563200  1
  O  O13  1  0.24843700  0.96778200  0.89600000  1
  O  O14  1  0.52790100  0.84505300  0.32075300  1
  O  O15  1  0.46682300  0.16360500  0.67406800  1
  O  O16  1  0.52280900  0.32633600  0.35590600  1
  O  O17  1  0.47362200  0.66443100  0.64588700  1
  O  O18  1  0.21697700  0.55971600  0.24500800  1
  O  O19  1  0.78560500  0.44100200  0.75790800  1
  O  O20  1  0.16445000  0.82833100  0.11623400  1
  O  O21  1  0.83232600  0.16858100  0.88227800  1
  O  O22  1  0.09008600  0.87069400  0.38945000  1
  O  O23  1  0.91960900  0.13969000  0.61388100  1
  O  O24  1  0.19270300  0.22164500  0.12310100  1
  O  O25  1  0.80631200  0.78095700  0.87605300  1
  O  O26  1  0.07518400  0.32769800  0.38776300  1
  O  O27  1  0.94160600  0.66592600  0.62055400  1
  F  F28  1  0.68366900  0.51854300  0.10491200  1
  F  F29  1  0.30666100  0.47793600  0.88462300  1
