# generated using pymatgen
data_Na3Mn2CuH10S4O17
_symmetry_space_group_name_H-M   'P 1'
_cell_length_a   7.79446254
_cell_length_b   7.87989394
_cell_length_c   14.56796800
_cell_angle_alpha   90.00000000
_cell_angle_beta   90.00000000
_cell_angle_gamma   100.89890843
_symmetry_Int_Tables_number   1
_chemical_formula_structural   Na3Mn2CuH10S4O17
_chemical_formula_sum   'Na6 Mn4 Cu2 H20 S8 O34'
_cell_volume   878.61850608
_cell_formula_units_Z   2
loop_
 _symmetry_equiv_pos_site_id
 _symmetry_equiv_pos_as_xyz
  1  'x, y, z'
loop_
 _atom_site_type_symbol
 _atom_site_label
 _atom_site_symmetry_multiplicity
 _atom_site_fract_x
 _atom_site_fract_y
 _atom_site_fract_z
 _atom_site_occupancy
  Na  Na0  1  0.15032700  0.78393700  0.75180800  1
  Na  Na1  1  0.84967300  0.21606300  0.25180800  1
  Na  Na2  1  0.46708100  0.19258800  0.40158200  1
  Na  Na3  1  0.53291900  0.80741200  0.90158200  1
  Na  Na4  1  0.51364100  0.80264300  0.59222800  1
  Na  Na5  1  0.48635900  0.19735700  0.09222800  1
  Mn  Mn6  1  0.76394200  0.34340100  0.61392300  1
  Mn  Mn7  1  0.23605800  0.65659900  0.11392300  1
  Mn  Mn8  1  0.23530500  0.65688200  0.38528700  1
  Mn  Mn9  1  0.76469500  0.34311800  0.88528700  1
  Cu  Cu10  1  0.30549400  0.27904200  0.74974200  1
  Cu  Cu11  1  0.69450600  0.72095800  0.24974200  1
  H  H12  1  0.69219100  0.56190900  0.47444000  1
  H  H13  1  0.30780900  0.43809100  0.97444000  1
  H  H14  1  0.30817300  0.43810200  0.52555000  1
  H  H15  1  0.69182700  0.56189800  0.02555000  1
  H  H16  1  0.86429200  0.12971100  0.48148100  1
  H  H17  1  0.13570800  0.87028900  0.98148100  1
  H  H18  1  0.13565600  0.87128500  0.51808600  1
  H  H19  1  0.86434400  0.12871500  0.01808600  1
  H  H20  1  0.04567100  0.19816100  0.53525700  1
  H  H21  1  0.95432900  0.80183900  0.03525700  1
  H  H22  1  0.95409700  0.80245600  0.46431400  1
  H  H23  1  0.04590300  0.19754400  0.96431400  1
  H  H24  1  0.80782400  0.44466400  0.42951200  1
  H  H25  1  0.19217600  0.55533600  0.92951200  1
  H  H26  1  0.19137100  0.55459500  0.57030100  1
  H  H27  1  0.80862900  0.44540500  0.07030100  1
  H  H28  1  0.88326200  0.01140100  0.74750800  1
  H  H29  1  0.11673800  0.98859900  0.24750800  1
  H  H30  1  0.81129200  0.82571200  0.70722200  1
  H  H31  1  0.18870800  0.17428800  0.20722200  1
  S  S32  1  0.05176000  0.38474300  0.74969200  1
  S  S33  1  0.94824000  0.61525700  0.24969200  1
  S  S34  1  0.51249300  0.52630600  0.74935300  1
  S  S35  1  0.48750700  0.47369400  0.24935300  1
  S  S36  1  0.34935600  0.13245700  0.62051400  1
  S  S37  1  0.65064400  0.86754300  0.12051400  1
  S  S38  1  0.65049800  0.86708000  0.38006200  1
  S  S39  1  0.34950200  0.13292000  0.88006200  1
  O  O40  1  0.03538900  0.49679900  0.66538600  1
  O  O41  1  0.96461100  0.50320100  0.16538600  1
  O  O42  1  0.96441000  0.50456600  0.33444300  1
  O  O43  1  0.03559000  0.49543400  0.83444300  1
  O  O44  1  0.91751500  0.18831600  0.53788500  1
  O  O45  1  0.08248500  0.81168400  0.03788500  1
  O  O46  1  0.08185300  0.80873800  0.46289400  1
  O  O47  1  0.91814700  0.19126200  0.96289400  1
  O  O48  1  0.63472400  0.54218200  0.66542000  1
  O  O49  1  0.36527600  0.45781800  0.16542000  1
  O  O50  1  0.37287100  0.46610200  0.33496000  1
  O  O51  1  0.62712900  0.53389800  0.83496000  1
  O  O52  1  0.54528200  0.13141300  0.60683400  1
  O  O53  1  0.45471800  0.86858700  0.10683400  1
  O  O54  1  0.45472800  0.86760700  0.39447800  1
  O  O55  1  0.54527300  0.13239300  0.89447800  1
  O  O56  1  0.44160100  0.69254400  0.74951400  1
  O  O57  1  0.55839900  0.30745600  0.24951400  1
  O  O58  1  0.87433100  0.25305200  0.74951200  1
  O  O59  1  0.12566900  0.74694800  0.24951200  1
  O  O60  1  0.89065600  0.88850700  0.75272400  1
  O  O61  1  0.10934400  0.11149300  0.25272400  1
  O  O62  1  0.28842400  0.21558100  0.53451200  1
  O  O63  1  0.71157600  0.78441900  0.03451200  1
  O  O64  1  0.71228100  0.78488800  0.46632600  1
  O  O65  1  0.28771900  0.21511200  0.96632600  1
  O  O66  1  0.71424800  0.44092100  0.47602100  1
  O  O67  1  0.28575200  0.55907900  0.97602100  1
  O  O68  1  0.28577000  0.55902500  0.52415200  1
  O  O69  1  0.71423000  0.44097500  0.02415200  1
  O  O70  1  0.26374800  0.94234200  0.61821800  1
  O  O71  1  0.73625200  0.05765800  0.11821800  1
  O  O72  1  0.73542600  0.05714800  0.38175800  1
  O  O73  1  0.26457400  0.94285200  0.88175800  1
