# generated using pymatgen
data_Na2Al2Si3O10
_symmetry_space_group_name_H-M   'P 1'
_cell_length_a   6.56160600
_cell_length_b   9.64751290
_cell_length_c   9.64928088
_cell_angle_alpha   96.63964844
_cell_angle_beta   70.12282601
_cell_angle_gamma   109.88097020
_symmetry_Int_Tables_number   1
_chemical_formula_structural   Na2Al2Si3O10
_chemical_formula_sum   'Na4 Al4 Si6 O20'
_cell_volume   540.20319832
_cell_formula_units_Z   2
loop_
 _symmetry_equiv_pos_site_id
 _symmetry_equiv_pos_as_xyz
  1  'x, y, z'
loop_
 _atom_site_type_symbol
 _atom_site_label
 _atom_site_symmetry_multiplicity
 _atom_site_fract_x
 _atom_site_fract_y
 _atom_site_fract_z
 _atom_site_occupancy
  Na  Na0  1  0.80139800  0.93518400  0.35359700  1
  Na  Na1  1  0.21981100  0.06481600  0.64640300  1
  Na  Na2  1  0.11621400  0.56481600  0.85359700  1
  Na  Na3  1  0.40499500  0.43518400  0.14640300  1
  Al  Al4  1  0.99432100  0.57296800  0.30277700  1
  Al  Al5  1  0.72413000  0.42703200  0.69722300  1
  Al  Al6  1  0.67135300  0.92703200  0.80277700  1
  Al  Al7  1  0.54709800  0.07296800  0.19722300  1
  Si  Si8  1  0.24091400  0.79937700  0.06803200  1
  Si  Si9  1  0.50956900  0.20062300  0.93196800  1
  Si  Si10  1  0.69153700  0.70062300  0.56803200  1
  Si  Si11  1  0.55894600  0.29937700  0.43196800  1
  Si  Si12  1  0.24789300  0.50000000  0.50000000  1
  Si  Si13  1  0.99789300  0.00000000  0.00000000  1
  O  O14  1  0.86437800  0.70254200  0.39979000  1
  O  O15  1  0.56162600  0.29745800  0.60021000  1
  O  O16  1  0.41183600  0.79745800  0.89979000  1
  O  O17  1  0.51416800  0.20254200  0.10021000  1
  O  O18  1  0.03796400  0.86380800  0.06414600  1
  O  O19  1  0.23830100  0.13619200  0.93585400  1
  O  O20  1  0.42415600  0.63619200  0.56414600  1
  O  O21  1  0.35211000  0.36380800  0.43585400  1
  O  O22  1  0.36185400  0.89669200  0.18292200  1
  O  O23  1  0.64808400  0.10330800  0.81707800  1
  O  O24  1  0.71516100  0.60330800  0.68292200  1
  O  O25  1  0.79477600  0.39669200  0.31707800  1
  O  O26  1  0.11765700  0.62541800  0.11534000  1
  O  O27  1  0.60757800  0.37458200  0.88466000  1
  O  O28  1  0.74223900  0.87458200  0.61534000  1
  O  O29  1  0.48299700  0.12541800  0.38466000  1
  O  O30  1  0.21443100  0.55498600  0.35864400  1
  O  O31  1  0.01808900  0.44501400  0.64135600  1
  O  O32  1  0.90944600  0.94501400  0.85864400  1
  O  O33  1  0.82307500  0.05498600  0.14135600  1
