# generated using pymatgen
data_Mn5In3O12
_symmetry_space_group_name_H-M   'P 1'
_cell_length_a   5.21063000
_cell_length_b   5.40411684
_cell_length_c   7.93893973
_cell_angle_alpha   89.68244518
_cell_angle_beta   88.18527076
_cell_angle_gamma   89.49268647
_symmetry_Int_Tables_number   1
_chemical_formula_structural   Mn5In3O12
_chemical_formula_sum   'Mn5 In3 O12'
_cell_volume   223.42746239
_cell_formula_units_Z   1
loop_
 _symmetry_equiv_pos_site_id
 _symmetry_equiv_pos_as_xyz
  1  'x, y, z'
loop_
 _atom_site_type_symbol
 _atom_site_label
 _atom_site_symmetry_multiplicity
 _atom_site_fract_x
 _atom_site_fract_y
 _atom_site_fract_z
 _atom_site_occupancy
  Mn  Mn0  1  0.99752600  0.49952200  0.99654300  1
  Mn  Mn1  1  0.50229400  0.99991700  0.50278500  1
  Mn  Mn2  1  0.99957900  0.50093500  0.50442400  1
  Mn  Mn3  1  0.50086000  0.00112800  0.99523200  1
  Mn  Mn4  1  0.51806300  0.44736000  0.76371000  1
  In  In5  1  0.02152000  0.06038200  0.26186200  1
  In  In6  1  0.47768100  0.55867700  0.23478300  1
  In  In7  1  0.98068500  0.94235100  0.73899900  1
  O  O8  1  0.80280200  0.19144900  0.92013800  1
  O  O9  1  0.30232800  0.30013800  0.41736400  1
  O  O10  1  0.20088200  0.80461500  0.08198300  1
  O  O11  1  0.69626800  0.70083900  0.58487100  1
  O  O12  1  0.12665000  0.56511700  0.76708500  1
  O  O13  1  0.62805100  0.93525600  0.26814800  1
  O  O14  1  0.87178000  0.43717700  0.23277200  1
  O  O15  1  0.37340500  0.06835700  0.73232700  1
  O  O16  1  0.30475600  0.30165100  0.05806500  1
  O  O17  1  0.81396500  0.19140500  0.55074900  1
  O  O18  1  0.68593200  0.69134900  0.94463400  1
  O  O19  1  0.19497000  0.80237700  0.44352700  1
