# generated using pymatgen
data_MnZn4Se5
_symmetry_space_group_name_H-M   'P 1'
_cell_length_a   16.82528609
_cell_length_b   16.82528609
_cell_length_c   16.82528529
_cell_angle_alpha   13.95286146
_cell_angle_beta   13.95286146
_cell_angle_gamma   13.95286343
_symmetry_Int_Tables_number   1
_chemical_formula_structural   MnZn4Se5
_chemical_formula_sum   'Mn1 Zn4 Se5'
_cell_volume   241.01166007
_cell_formula_units_Z   1
loop_
 _symmetry_equiv_pos_site_id
 _symmetry_equiv_pos_as_xyz
  1  'x, y, z'
loop_
 _atom_site_type_symbol
 _atom_site_label
 _atom_site_symmetry_multiplicity
 _atom_site_fract_x
 _atom_site_fract_y
 _atom_site_fract_z
 _atom_site_occupancy
  Mn  Mn0  1  0.64984800  0.64984800  0.64984800  1
  Zn  Zn1  1  0.05023800  0.05023800  0.05023800  1
  Zn  Zn2  1  0.44999900  0.44999900  0.44999900  1
  Zn  Zn3  1  0.85000100  0.85000100  0.85000100  1
  Zn  Zn4  1  0.24974400  0.24974400  0.24974400  1
  Se  Se5  1  0.00082000  0.00082000  0.00082000  1
  Se  Se6  1  0.40005000  0.40005000  0.40005000  1
  Se  Se7  1  0.80002400  0.80002400  0.80002400  1
  Se  Se8  1  0.19991300  0.19991300  0.19991300  1
  Se  Se9  1  0.59936300  0.59936300  0.59936300  1
