# generated using pymatgen
data_Na2Cu4P2ClO9
_symmetry_space_group_name_H-M   'P 1'
_cell_length_a   8.59435003
_cell_length_b   8.59435003
_cell_length_c   6.52748300
_cell_angle_alpha   90.00000000
_cell_angle_beta   90.00000000
_cell_angle_gamma   105.00397974
_symmetry_Int_Tables_number   1
_chemical_formula_structural   Na2Cu4P2ClO9
_chemical_formula_sum   'Na4 Cu8 P4 Cl2 O18'
_cell_volume   465.70137299
_cell_formula_units_Z   2
loop_
 _symmetry_equiv_pos_site_id
 _symmetry_equiv_pos_as_xyz
  1  'x, y, z'
loop_
 _atom_site_type_symbol
 _atom_site_label
 _atom_site_symmetry_multiplicity
 _atom_site_fract_x
 _atom_site_fract_y
 _atom_site_fract_z
 _atom_site_occupancy
  Na  Na0  1  0.30518200  0.69481800  0.00000000  1
  Na  Na1  1  0.30518200  0.69481800  0.50000000  1
  Na  Na2  1  0.69481800  0.30518200  0.00000000  1
  Na  Na3  1  0.69481800  0.30518200  0.50000000  1
  Cu  Cu4  1  0.68748100  0.91523000  0.25000000  1
  Cu  Cu5  1  0.08477000  0.31251900  0.75000000  1
  Cu  Cu6  1  0.31251900  0.08477000  0.75000000  1
  Cu  Cu7  1  0.91523000  0.68748100  0.25000000  1
  Cu  Cu8  1  0.00000000  0.00000000  0.50000000  1
  Cu  Cu9  1  0.00000000  0.00000000  0.00000000  1
  Cu  Cu10  1  0.37710800  0.37710800  0.25000000  1
  Cu  Cu11  1  0.62289200  0.62289200  0.75000000  1
  P  P12  1  0.36869300  0.03679200  0.25000000  1
  P  P13  1  0.96320800  0.63130700  0.75000000  1
  P  P14  1  0.63130700  0.96320800  0.75000000  1
  P  P15  1  0.03679200  0.36869300  0.25000000  1
  Cl  Cl16  1  0.60043800  0.60043800  0.25000000  1
  Cl  Cl17  1  0.39956200  0.39956200  0.75000000  1
  O  O18  1  0.26173200  0.01385200  0.44399800  1
  O  O19  1  0.98614800  0.73826800  0.55600200  1
  O  O20  1  0.26173200  0.01385200  0.05600200  1
  O  O21  1  0.98614800  0.73826800  0.94399800  1
  O  O22  1  0.73826800  0.98614800  0.55600200  1
  O  O23  1  0.01385200  0.26173200  0.44399800  1
  O  O24  1  0.73826800  0.98614800  0.94399800  1
  O  O25  1  0.01385200  0.26173200  0.05600200  1
  O  O26  1  0.45854200  0.90054000  0.25000000  1
  O  O27  1  0.09946000  0.54145800  0.75000000  1
  O  O28  1  0.54145800  0.09946000  0.75000000  1
  O  O29  1  0.90054000  0.45854200  0.25000000  1
  O  O30  1  0.49123400  0.20715200  0.25000000  1
  O  O31  1  0.79284800  0.50876600  0.75000000  1
  O  O32  1  0.50876600  0.79284800  0.75000000  1
  O  O33  1  0.20715200  0.49123400  0.25000000  1
  O  O34  1  0.91181300  0.91181300  0.25000000  1
  O  O35  1  0.08818700  0.08818700  0.75000000  1
