# generated using pymatgen
data_MnZn3
_symmetry_space_group_name_H-M   'P 1'
_cell_length_a   2.72497562
_cell_length_b   2.72497562
_cell_length_c   8.76211500
_cell_angle_alpha   90.00000000
_cell_angle_beta   90.00000000
_cell_angle_gamma   119.99999073
_symmetry_Int_Tables_number   1
_chemical_formula_structural   MnZn3
_chemical_formula_sum   'Mn1 Zn3'
_cell_volume   56.34622987
_cell_formula_units_Z   1
loop_
 _symmetry_equiv_pos_site_id
 _symmetry_equiv_pos_as_xyz
  1  'x, y, z'
loop_
 _atom_site_type_symbol
 _atom_site_label
 _atom_site_symmetry_multiplicity
 _atom_site_fract_x
 _atom_site_fract_y
 _atom_site_fract_z
 _atom_site_occupancy
  Mn  Mn0  1  0.66666700  0.33333300  0.00000000  1
  Zn  Zn1  1  0.66666700  0.33333300  0.50000000  1
  Zn  Zn2  1  0.33333300  0.66666700  0.24141900  1
  Zn  Zn3  1  0.33333300  0.66666700  0.75858100  1
