# generated using pymatgen
data_Na2CaMn3(SiO3)6
_symmetry_space_group_name_H-M   'P 1'
_cell_length_a   6.62458000
_cell_length_b   7.20496010
_cell_length_c   7.58951754
_cell_angle_alpha   100.85005079
_cell_angle_beta   94.01901816
_cell_angle_gamma   89.27859087
_symmetry_Int_Tables_number   1
_chemical_formula_structural   Na2CaMn3(SiO3)6
_chemical_formula_sum   'Na2 Ca1 Mn3 Si6 O18'
_cell_volume   354.89564221
_cell_formula_units_Z   1
loop_
 _symmetry_equiv_pos_site_id
 _symmetry_equiv_pos_as_xyz
  1  'x, y, z'
loop_
 _atom_site_type_symbol
 _atom_site_label
 _atom_site_symmetry_multiplicity
 _atom_site_fract_x
 _atom_site_fract_y
 _atom_site_fract_z
 _atom_site_occupancy
  Na  Na0  1  0.12878300  0.23452300  0.92027200  1
  Na  Na1  1  0.86763000  0.75430000  0.08065200  1
  Ca  Ca2  1  0.64743000  0.09249100  0.35049900  1
  Mn  Mn3  1  0.36165100  0.42296900  0.65164000  1
  Mn  Mn4  1  0.62707600  0.57817500  0.35118600  1
  Mn  Mn5  1  0.35138400  0.92228200  0.64662100  1
  Si  Si6  1  0.16060000  0.09181800  0.28694800  1
  Si  Si7  1  0.84707600  0.90385400  0.72532400  1
  Si  Si8  1  0.13952000  0.53451000  0.28864300  1
  Si  Si9  1  0.85558300  0.47102100  0.70504700  1
  Si  Si10  1  0.35303700  0.75675300  0.04406000  1
  Si  Si11  1  0.64484100  0.24350700  0.95139400  1
  O  O12  1  0.14532000  0.30409100  0.23395600  1
  O  O13  1  0.87216900  0.69768300  0.78090400  1
  O  O14  1  0.44205100  0.21260500  0.81472200  1
  O  O15  1  0.55868100  0.74566500  0.17668500  1
  O  O16  1  0.26648600  0.97392300  0.10242600  1
  O  O17  1  0.78307600  0.04502200  0.91434100  1
  O  O18  1  0.18783800  0.60481900  0.09587800  1
  O  O19  1  0.79043000  0.40167800  0.88919100  1
  O  O20  1  0.94931200  0.00169800  0.30022300  1
  O  O21  1  0.06943800  0.97041700  0.68510000  1
  O  O22  1  0.38202300  0.72130500  0.82658500  1
  O  O23  1  0.60967900  0.30908600  0.16205900  1
  O  O24  1  0.91920100  0.61035500  0.34605900  1
  O  O25  1  0.06473000  0.37712500  0.64877300  1
  O  O26  1  0.64728200  0.89471800  0.57980400  1
  O  O27  1  0.32958100  0.09379500  0.45756200  1
  O  O28  1  0.66319600  0.42402800  0.54874200  1
  O  O29  1  0.33489500  0.60578300  0.43470400  1
