# generated using pymatgen
data_MnPt
_symmetry_space_group_name_H-M   'P 1'
_cell_length_a   4.58002115
_cell_length_b   4.58002115
_cell_length_c   4.58002121
_cell_angle_alpha   34.14534612
_cell_angle_beta   34.14534612
_cell_angle_gamma   34.14534866
_symmetry_Int_Tables_number   1
_chemical_formula_structural   MnPt
_chemical_formula_sum   'Mn1 Pt1'
_cell_volume   26.98670176
_cell_formula_units_Z   1
loop_
 _symmetry_equiv_pos_site_id
 _symmetry_equiv_pos_as_xyz
  1  'x, y, z'
loop_
 _atom_site_type_symbol
 _atom_site_label
 _atom_site_symmetry_multiplicity
 _atom_site_fract_x
 _atom_site_fract_y
 _atom_site_fract_z
 _atom_site_occupancy
  Mn  Mn0  1  0.00000000  0.00000000  0.00000000  1
  Pt  Pt1  1  0.50000000  0.50000000  0.50000000  1
