# generated using pymatgen
data_MnPt2
_symmetry_space_group_name_H-M   'P 1'
_cell_length_a   2.85840445
_cell_length_b   2.85840445
_cell_length_c   6.53250400
_cell_angle_alpha   90.00000000
_cell_angle_beta   90.00000000
_cell_angle_gamma   120.00001046
_symmetry_Int_Tables_number   1
_chemical_formula_structural   MnPt2
_chemical_formula_sum   'Mn1 Pt2'
_cell_volume   46.22294683
_cell_formula_units_Z   1
loop_
 _symmetry_equiv_pos_site_id
 _symmetry_equiv_pos_as_xyz
  1  'x, y, z'
loop_
 _atom_site_type_symbol
 _atom_site_label
 _atom_site_symmetry_multiplicity
 _atom_site_fract_x
 _atom_site_fract_y
 _atom_site_fract_z
 _atom_site_occupancy
  Mn  Mn0  1  0.00000000  0.00000000  0.00000000  1
  Pt  Pt1  1  0.33333300  0.66666700  0.68379400  1
  Pt  Pt2  1  0.66666700  0.33333300  0.31620600  1
