# generated using pymatgen
data_MnTe(PbO3)2
_symmetry_space_group_name_H-M   'P 1'
_cell_length_a   5.79459936
_cell_length_b   5.79459299
_cell_length_c   8.18952400
_cell_angle_alpha   89.99993571
_cell_angle_beta   90.00003462
_cell_angle_gamma   90.00004894
_symmetry_Int_Tables_number   1
_chemical_formula_structural   MnTe(PbO3)2
_chemical_formula_sum   'Mn2 Te2 Pb4 O12'
_cell_volume   274.98247141
_cell_formula_units_Z   2
loop_
 _symmetry_equiv_pos_site_id
 _symmetry_equiv_pos_as_xyz
  1  'x, y, z'
loop_
 _atom_site_type_symbol
 _atom_site_label
 _atom_site_symmetry_multiplicity
 _atom_site_fract_x
 _atom_site_fract_y
 _atom_site_fract_z
 _atom_site_occupancy
  Mn  Mn0  1  0.99999000  0.50000100  0.24999300  1
  Mn  Mn1  1  0.50000900  0.00000000  0.74999300  1
  Te  Te2  1  0.50000000  0.00000000  0.25000100  1
  Te  Te3  1  0.99999900  0.50000000  0.75000000  1
  Pb  Pb4  1  0.00000400  0.00000100  0.99999800  1
  Pb  Pb5  1  0.50000000  0.50000000  0.50000300  1
  Pb  Pb6  1  0.00000100  0.99999800  0.50000300  1
  Pb  Pb7  1  0.50000000  0.50000100  0.00000100  1
  O  O8  1  0.49999900  0.00000000  0.48851700  1
  O  O9  1  0.00000000  0.50000000  0.98851900  1
  O  O10  1  0.50000000  0.00000000  0.01148400  1
  O  O11  1  0.00000000  0.50000000  0.51148200  1
  O  O12  1  0.73844200  0.76155800  0.25000100  1
  O  O13  1  0.23843800  0.26156100  0.75000100  1
  O  O14  1  0.26155700  0.23844200  0.25000000  1
  O  O15  1  0.76156100  0.73843900  0.75000100  1
  O  O16  1  0.26155700  0.76155800  0.25000100  1
  O  O17  1  0.76156100  0.26156100  0.75000100  1
  O  O18  1  0.73844200  0.23844200  0.25000000  1
  O  O19  1  0.23843800  0.73843900  0.75000100  1
