# generated using pymatgen
data_MnInFe
_symmetry_space_group_name_H-M   'P 1'
_cell_length_a   2.79545200
_cell_length_b   4.32015549
_cell_length_c   4.32015549
_cell_angle_alpha   60.00209047
_cell_angle_beta   90.00000000
_cell_angle_gamma   90.00000000
_symmetry_Int_Tables_number   1
_chemical_formula_structural   MnInFe
_chemical_formula_sum   'Mn1 In1 Fe1'
_cell_volume   45.18461398
_cell_formula_units_Z   1
loop_
 _symmetry_equiv_pos_site_id
 _symmetry_equiv_pos_as_xyz
  1  'x, y, z'
loop_
 _atom_site_type_symbol
 _atom_site_label
 _atom_site_symmetry_multiplicity
 _atom_site_fract_x
 _atom_site_fract_y
 _atom_site_fract_z
 _atom_site_occupancy
  Mn  Mn0  1  0.50000000  0.33335400  0.33335400  1
  In  In1  1  0.00000000  0.99998300  0.99998300  1
  Fe  Fe2  1  0.50000000  0.66666300  0.66666300  1
