# generated using pymatgen
data_Mn3CdTe4
_symmetry_space_group_name_H-M   'P 1'
_cell_length_a   4.16496000
_cell_length_b   4.16496000
_cell_length_c   11.92783200
_cell_angle_alpha   90.00000000
_cell_angle_beta   90.00000000
_cell_angle_gamma   90.00000000
_symmetry_Int_Tables_number   1
_chemical_formula_structural   Mn3CdTe4
_chemical_formula_sum   'Mn3 Cd1 Te4'
_cell_volume   206.91081113
_cell_formula_units_Z   1
loop_
 _symmetry_equiv_pos_site_id
 _symmetry_equiv_pos_as_xyz
  1  'x, y, z'
loop_
 _atom_site_type_symbol
 _atom_site_label
 _atom_site_symmetry_multiplicity
 _atom_site_fract_x
 _atom_site_fract_y
 _atom_site_fract_z
 _atom_site_occupancy
  Mn  Mn0  1  0.50000000  0.50000000  0.24923600  1
  Mn  Mn1  1  0.00000000  0.00000000  0.00000000  1
  Mn  Mn2  1  0.50000000  0.50000000  0.75076400  1
  Cd  Cd3  1  0.00000000  0.00000000  0.50000000  1
  Te  Te4  1  0.00000000  0.00000000  0.24011300  1
  Te  Te5  1  0.50000000  0.50000000  0.00000000  1
  Te  Te6  1  0.00000000  0.00000000  0.75988700  1
  Te  Te7  1  0.50000000  0.50000000  0.50000000  1
