# generated using pymatgen
data_Mn2NiSb2Pt
_symmetry_space_group_name_H-M   'P 1'
_cell_length_a   7.40693888
_cell_length_b   7.40693888
_cell_length_c   7.40693810
_cell_angle_alpha   33.56658591
_cell_angle_beta   33.56658591
_cell_angle_gamma   33.56658374
_symmetry_Int_Tables_number   1
_chemical_formula_structural   Mn2NiSb2Pt
_chemical_formula_sum   'Mn2 Ni1 Sb2 Pt1'
_cell_volume   110.65420517
_cell_formula_units_Z   1
loop_
 _symmetry_equiv_pos_site_id
 _symmetry_equiv_pos_as_xyz
  1  'x, y, z'
loop_
 _atom_site_type_symbol
 _atom_site_label
 _atom_site_symmetry_multiplicity
 _atom_site_fract_x
 _atom_site_fract_y
 _atom_site_fract_z
 _atom_site_occupancy
  Mn  Mn0  1  0.24619600  0.24619600  0.24619600  1
  Mn  Mn1  1  0.75422600  0.75422600  0.75422600  1
  Ni  Ni2  1  0.87412000  0.87412000  0.87412000  1
  Sb  Sb3  1  0.99455200  0.99455200  0.99455200  1
  Sb  Sb4  1  0.50490700  0.50490700  0.50490700  1
  Pt  Pt5  1  0.37599800  0.37599800  0.37599800  1
