# generated using pymatgen
data_ZnCo(SiO3)2
_symmetry_space_group_name_H-M   'P 1'
_cell_length_a   5.29029300
_cell_length_b   9.11514400
_cell_length_c   18.50860600
_cell_angle_alpha   90.00000000
_cell_angle_beta   90.00000000
_cell_angle_gamma   90.00000000
_symmetry_Int_Tables_number   1
_chemical_formula_structural   ZnCo(SiO3)2
_chemical_formula_sum   'Zn8 Co8 Si16 O48'
_cell_volume   892.51797286
_cell_formula_units_Z   8
loop_
 _symmetry_equiv_pos_site_id
 _symmetry_equiv_pos_as_xyz
  1  'x, y, z'
loop_
 _atom_site_type_symbol
 _atom_site_label
 _atom_site_symmetry_multiplicity
 _atom_site_fract_x
 _atom_site_fract_y
 _atom_site_fract_z
 _atom_site_occupancy
  Zn  Zn0  1  0.61777000  0.15042200  0.37567500  1
  Zn  Zn1  1  0.38223000  0.84957800  0.62432500  1
  Zn  Zn2  1  0.61777000  0.65042200  0.12432500  1
  Zn  Zn3  1  0.11777000  0.84957800  0.12432500  1
  Zn  Zn4  1  0.88223000  0.15042200  0.87567500  1
  Zn  Zn5  1  0.38223000  0.34957800  0.87567500  1
  Zn  Zn6  1  0.11777000  0.34957800  0.37567500  1
  Zn  Zn7  1  0.88223000  0.65042200  0.62432500  1
  Co  Co8  1  0.37460000  0.99148900  0.87627600  1
  Co  Co9  1  0.62540000  0.00851100  0.12372400  1
  Co  Co10  1  0.87460000  0.00851100  0.62372400  1
  Co  Co11  1  0.12540000  0.99148900  0.37627600  1
  Co  Co12  1  0.37460000  0.49148900  0.62372400  1
  Co  Co13  1  0.62540000  0.50851100  0.37627600  1
  Co  Co14  1  0.87460000  0.50851100  0.87627600  1
  Co  Co15  1  0.12540000  0.49148900  0.12372400  1
  Si  Si16  1  0.56546800  0.66087300  0.77232300  1
  Si  Si17  1  0.71357100  0.83537700  0.47394800  1
  Si  Si18  1  0.78642900  0.83537700  0.97394800  1
  Si  Si19  1  0.93453200  0.16087300  0.22767700  1
  Si  Si20  1  0.06546800  0.33912700  0.72767700  1
  Si  Si21  1  0.43453200  0.83912700  0.27232300  1
  Si  Si22  1  0.21357100  0.66462300  0.47394800  1
  Si  Si23  1  0.71357100  0.33537700  0.02605200  1
  Si  Si24  1  0.78642900  0.33537700  0.52605200  1
  Si  Si25  1  0.93453200  0.66087300  0.27232300  1
  Si  Si26  1  0.43453200  0.33912700  0.22767700  1
  Si  Si27  1  0.56546800  0.16087300  0.72767700  1
  Si  Si28  1  0.28642900  0.16462300  0.52605200  1
  Si  Si29  1  0.06546800  0.83912700  0.77232300  1
  Si  Si30  1  0.28642900  0.66462300  0.97394800  1
  Si  Si31  1  0.21357100  0.16462300  0.02605200  1
  O  O32  1  0.92784500  0.50105400  0.31055400  1
  O  O33  1  0.30601200  0.01721300  0.06722600  1
  O  O34  1  0.07215500  0.49894600  0.68944600  1
  O  O35  1  0.71395400  0.34033900  0.93715800  1
  O  O36  1  0.21395400  0.15966100  0.93715800  1
  O  O37  1  0.91775900  0.20433000  0.05116900  1
  O  O38  1  0.94626300  0.66061900  0.18384100  1
  O  O39  1  0.05373700  0.83938100  0.68384100  1
  O  O40  1  0.71395400  0.84033900  0.56284200  1
  O  O41  1  0.94626300  0.16061900  0.31615900  1
  O  O42  1  0.42784500  0.49894600  0.18944600  1
  O  O43  1  0.78604600  0.34033900  0.43715800  1
  O  O44  1  0.69398800  0.98278700  0.93277400  1
  O  O45  1  0.44626300  0.83938100  0.18384100  1
  O  O46  1  0.57215500  0.00105400  0.68944600  1
  O  O47  1  0.30601200  0.51721300  0.43277400  1
  O  O48  1  0.42784500  0.99894600  0.31055400  1
  O  O49  1  0.16448200  0.76723400  0.30262700  1
  O  O50  1  0.33551800  0.76723400  0.80262700  1
  O  O51  1  0.58224100  0.70433000  0.94883100  1
  O  O52  1  0.78604600  0.84033900  0.06284200  1
  O  O53  1  0.55373700  0.66061900  0.68384100  1
  O  O54  1  0.80601200  0.48278700  0.06722600  1
  O  O55  1  0.16448200  0.26723400  0.19737300  1
  O  O56  1  0.28604600  0.15966100  0.43715800  1
  O  O57  1  0.55373700  0.16061900  0.81615900  1
  O  O58  1  0.69398800  0.48278700  0.56722600  1
  O  O59  1  0.21395400  0.65966100  0.56284200  1
  O  O60  1  0.19398800  0.51721300  0.93277400  1
  O  O61  1  0.66448200  0.73276600  0.30262700  1
  O  O62  1  0.07215500  0.99894600  0.81055400  1
  O  O63  1  0.83551800  0.73276600  0.80262700  1
  O  O64  1  0.83551800  0.23276600  0.69737300  1
  O  O65  1  0.80601200  0.98278700  0.43277400  1
  O  O66  1  0.28604600  0.65966100  0.06284200  1
  O  O67  1  0.19398800  0.01721300  0.56722600  1
  O  O68  1  0.33551800  0.26723400  0.69737300  1
  O  O69  1  0.08224100  0.79567000  0.94883100  1
  O  O70  1  0.41775900  0.79567000  0.44883100  1
  O  O71  1  0.66448200  0.23276600  0.19737300  1
  O  O72  1  0.41775900  0.29567000  0.05116900  1
  O  O73  1  0.58224100  0.20433000  0.55116900  1
  O  O74  1  0.08224100  0.29567000  0.55116900  1
  O  O75  1  0.44626300  0.33938100  0.31615900  1
  O  O76  1  0.57215500  0.50105400  0.81055400  1
  O  O77  1  0.91775900  0.70433000  0.44883100  1
  O  O78  1  0.05373700  0.33938100  0.81615900  1
  O  O79  1  0.92784500  0.00105400  0.18944600  1
