# generated using pymatgen
data_MnAlB2(PbO4)2
_symmetry_space_group_name_H-M   'P 1'
_cell_length_a   6.98169400
_cell_length_b   5.99327600
_cell_length_c   10.11154511
_cell_angle_alpha   55.78255836
_cell_angle_beta   90.00000000
_cell_angle_gamma   90.00000000
_symmetry_Int_Tables_number   1
_chemical_formula_structural   MnAlB2(PbO4)2
_chemical_formula_sum   'Mn2 Al2 B4 Pb4 O16'
_cell_volume   349.86504676
_cell_formula_units_Z   2
loop_
 _symmetry_equiv_pos_site_id
 _symmetry_equiv_pos_as_xyz
  1  'x, y, z'
loop_
 _atom_site_type_symbol
 _atom_site_label
 _atom_site_symmetry_multiplicity
 _atom_site_fract_x
 _atom_site_fract_y
 _atom_site_fract_z
 _atom_site_occupancy
  Mn  Mn0  1  0.50000000  0.00000000  0.50000000  1
  Mn  Mn1  1  0.00000000  0.00000000  0.00000000  1
  Al  Al2  1  0.50000000  0.50000000  0.50000000  1
  Al  Al3  1  0.00000000  0.50000000  0.00000000  1
  B  B4  1  0.78313900  0.49571900  0.26341600  1
  B  B5  1  0.28313900  0.50428100  0.23658400  1
  B  B6  1  0.21686100  0.50428100  0.73658400  1
  B  B7  1  0.71686100  0.49571900  0.76341600  1
  Pb  Pb8  1  0.55693500  0.90155900  0.85753500  1
  Pb  Pb9  1  0.05693500  0.09844100  0.64246500  1
  Pb  Pb10  1  0.44306500  0.09844100  0.14246500  1
  Pb  Pb11  1  0.94306500  0.90155900  0.35753500  1
  O  O12  1  0.68657500  0.36795700  0.40741000  1
  O  O13  1  0.18657500  0.63204300  0.09259000  1
  O  O14  1  0.31342500  0.63204300  0.59259000  1
  O  O15  1  0.81342500  0.36795700  0.90741000  1
  O  O16  1  0.89840700  0.84728100  0.89247600  1
  O  O17  1  0.39840700  0.15271900  0.60752400  1
  O  O18  1  0.10159300  0.15271900  0.10752400  1
  O  O19  1  0.60159300  0.84728100  0.39247600  1
  O  O20  1  0.83308700  0.76777600  0.18955600  1
  O  O21  1  0.33308700  0.23222400  0.31044400  1
  O  O22  1  0.16485300  0.63536500  0.80913300  1
  O  O23  1  0.66485300  0.36463500  0.69086700  1
  O  O24  1  0.16691300  0.23222400  0.81044400  1
  O  O25  1  0.66691300  0.76777600  0.68955600  1
  O  O26  1  0.83514700  0.36463500  0.19086700  1
  O  O27  1  0.33514700  0.63536500  0.30913300  1
