# generated using pymatgen
data_MnCrCoO4
_symmetry_space_group_name_H-M   'P 1'
_cell_length_a   6.07246101
_cell_length_b   6.07246101
_cell_length_c   6.07246101
_cell_angle_alpha   119.32659967
_cell_angle_beta   119.26991853
_cell_angle_gamma   91.21981681
_symmetry_Int_Tables_number   1
_chemical_formula_structural   MnCrCoO4
_chemical_formula_sum   'Mn2 Cr2 Co2 O8'
_cell_volume   159.97598077
_cell_formula_units_Z   2
loop_
 _symmetry_equiv_pos_site_id
 _symmetry_equiv_pos_as_xyz
  1  'x, y, z'
loop_
 _atom_site_type_symbol
 _atom_site_label
 _atom_site_symmetry_multiplicity
 _atom_site_fract_x
 _atom_site_fract_y
 _atom_site_fract_z
 _atom_site_occupancy
  Mn  Mn0  1  0.12514800  0.87514800  0.25000000  1
  Mn  Mn1  1  0.87485200  0.12485200  0.75000000  1
  Cr  Cr2  1  0.50000000  0.50000000  0.00000000  1
  Cr  Cr3  1  0.00000000  0.50000000  0.50000000  1
  Co  Co4  1  0.50000000  0.50000000  0.50000000  1
  Co  Co5  1  0.50000000  0.00000000  0.00000000  1
  O  O6  1  0.73340000  0.26215300  0.02875300  1
  O  O7  1  0.73340000  0.70464700  0.47124700  1
  O  O8  1  0.73503600  0.26242100  0.47261500  1
  O  O9  1  0.28980700  0.26242100  0.02738500  1
  O  O10  1  0.26660000  0.73784700  0.97124700  1
  O  O11  1  0.26660000  0.29535300  0.52875300  1
  O  O12  1  0.26496400  0.73757900  0.52738500  1
  O  O13  1  0.71019300  0.73757900  0.97261500  1
