# generated using pymatgen
data_Mn3In2Sb3O14
_symmetry_space_group_name_H-M   'P 1'
_cell_length_a   7.13619467
_cell_length_b   12.86240506
_cell_length_c   7.13562764
_cell_angle_alpha   90.08238026
_cell_angle_beta   119.55352008
_cell_angle_gamma   73.53854053
_symmetry_Int_Tables_number   1
_chemical_formula_structural   Mn3In2Sb3O14
_chemical_formula_sum   'Mn6 In4 Sb6 O28'
_cell_volume   538.83689908
_cell_formula_units_Z   2
loop_
 _symmetry_equiv_pos_site_id
 _symmetry_equiv_pos_as_xyz
  1  'x, y, z'
loop_
 _atom_site_type_symbol
 _atom_site_label
 _atom_site_symmetry_multiplicity
 _atom_site_fract_x
 _atom_site_fract_y
 _atom_site_fract_z
 _atom_site_occupancy
  Mn  Mn0  1  0.50007100  0.50027900  0.50011400  1
  Mn  Mn1  1  0.50015900  0.99972700  0.00000400  1
  Mn  Mn2  1  0.49897800  0.25000300  0.74915100  1
  Mn  Mn3  1  0.49991300  0.74995900  0.24966500  1
  Mn  Mn4  1  0.00020100  0.25001900  0.25031600  1
  Mn  Mn5  1  0.00018700  0.74999100  0.75003600  1
  In  In6  1  0.50051600  0.49954100  0.00025700  1
  In  In7  1  0.49977800  0.00012500  0.49994300  1
  In  In8  1  0.00018000  0.49965900  0.50002600  1
  In  In9  1  0.99981800  0.00037500  0.99993800  1
  Sb  Sb10  1  0.00006800  0.49999800  0.99988100  1
  Sb  Sb11  1  0.99994200  0.00004500  0.50015800  1
  Sb  Sb12  1  0.00004300  0.74998400  0.25002200  1
  Sb  Sb13  1  0.99991500  0.25001800  0.75015900  1
  Sb  Sb14  1  0.49994100  0.74997200  0.74999600  1
  Sb  Sb15  1  0.50006000  0.25002800  0.25007300  1
  O  O16  1  0.37357400  0.44011400  0.68727800  1
  O  O17  1  0.37329900  0.94036400  0.18721800  1
  O  O18  1  0.62662600  0.55966400  0.31273000  1
  O  O19  1  0.62641500  0.05986800  0.81260900  1
  O  O20  1  0.09315900  0.57154600  0.83270400  1
  O  O21  1  0.09303600  0.07163400  0.33281600  1
  O  O22  1  0.90710000  0.42833200  0.16732000  1
  O  O23  1  0.90670300  0.92845800  0.66726700  1
  O  O24  1  0.66828000  0.28300500  0.54839500  1
  O  O25  1  0.66793300  0.78363800  0.04769600  1
  O  O26  1  0.33209700  0.71642700  0.45221200  1
  O  O27  1  0.33167400  0.21707700  0.95158000  1
  O  O28  1  0.07447400  0.79376600  0.03516800  1
  O  O29  1  0.07424600  0.29381100  0.53504600  1
  O  O30  1  0.67123100  0.79370400  0.63191800  1
  O  O31  1  0.67177000  0.29386900  0.13256600  1
  O  O32  1  0.92627200  0.20614500  0.96537900  1
  O  O33  1  0.92561300  0.70622400  0.46486500  1
  O  O34  1  0.32842800  0.20625800  0.36785300  1
  O  O35  1  0.32867400  0.70630500  0.86806100  1
  O  O36  1  0.66792300  0.58802700  0.82036200  1
  O  O37  1  0.66771800  0.08808900  0.32007900  1
  O  O38  1  0.09192400  0.58820700  0.24329800  1
  O  O39  1  0.09222100  0.08838700  0.74385800  1
  O  O40  1  0.33213900  0.41194700  0.17963100  1
  O  O41  1  0.33205400  0.91195600  0.67955900  1
  O  O42  1  0.90766900  0.41166600  0.75621900  1
  O  O43  1  0.90798100  0.91179200  0.25657400  1
