# generated using pymatgen
data_MnCr3Te4
_symmetry_space_group_name_H-M   'P 1'
_cell_length_a   7.36361257
_cell_length_b   7.36361257
_cell_length_c   7.16111349
_cell_angle_alpha   60.98773650
_cell_angle_beta   60.98773650
_cell_angle_gamma   32.68689966
_symmetry_Int_Tables_number   1
_chemical_formula_structural   MnCr3Te4
_chemical_formula_sum   'Mn1 Cr3 Te4'
_cell_volume   180.94304586
_cell_formula_units_Z   1
loop_
 _symmetry_equiv_pos_site_id
 _symmetry_equiv_pos_as_xyz
  1  'x, y, z'
loop_
 _atom_site_type_symbol
 _atom_site_label
 _atom_site_symmetry_multiplicity
 _atom_site_fract_x
 _atom_site_fract_y
 _atom_site_fract_z
 _atom_site_occupancy
  Mn  Mn0  1  0.00000000  0.00000000  0.00000000  1
  Cr  Cr1  1  0.50000000  0.50000000  0.50000000  1
  Cr  Cr2  1  0.24565500  0.24565500  0.75232300  1
  Cr  Cr3  1  0.75434500  0.75434500  0.24767700  1
  Te  Te4  1  0.87269000  0.87269000  0.79138400  1
  Te  Te5  1  0.37446200  0.37446200  0.29387300  1
  Te  Te6  1  0.62553800  0.62553800  0.70612700  1
  Te  Te7  1  0.12731000  0.12731000  0.20861600  1
