# generated using pymatgen
data_Mn3Cd3(TeO6)2
_symmetry_space_group_name_H-M   'P 1'
_cell_length_a   6.45677533
_cell_length_b   12.91512465
_cell_length_c   6.45657555
_cell_angle_alpha   90.21503789
_cell_angle_beta   90.21129379
_cell_angle_gamma   90.21601562
_symmetry_Int_Tables_number   1
_chemical_formula_structural   Mn3Cd3(TeO6)2
_chemical_formula_sum   'Mn6 Cd6 Te4 O24'
_cell_volume   538.40290294
_cell_formula_units_Z   2
loop_
 _symmetry_equiv_pos_site_id
 _symmetry_equiv_pos_as_xyz
  1  'x, y, z'
loop_
 _atom_site_type_symbol
 _atom_site_label
 _atom_site_symmetry_multiplicity
 _atom_site_fract_x
 _atom_site_fract_y
 _atom_site_fract_z
 _atom_site_occupancy
  Mn  Mn0  1  0.74795500  0.78204500  0.04767000  1
  Mn  Mn1  1  0.56416800  0.02388600  0.74778700  1
  Mn  Mn2  1  0.04760300  0.37394300  0.56424300  1
  Mn  Mn3  1  0.74802500  0.28205100  0.04768500  1
  Mn  Mn4  1  0.56407700  0.52388200  0.74782000  1
  Mn  Mn5  1  0.04757000  0.87396500  0.56422500  1
  Cd  Cd6  1  0.25338000  0.21866400  0.95433000  1
  Cd  Cd7  1  0.25337400  0.71866500  0.95433000  1
  Cd  Cd8  1  0.43733900  0.47715600  0.25339200  1
  Cd  Cd9  1  0.43733800  0.97715600  0.25338900  1
  Cd  Cd10  1  0.95435700  0.12668600  0.43736500  1
  Cd  Cd11  1  0.95435600  0.62668500  0.43736900  1
  Te  Te12  1  0.50686200  0.25343800  0.50687200  1
  Te  Te13  1  0.50685800  0.75343200  0.50687000  1
  Te  Te14  1  0.99564900  0.49783100  0.99563700  1
  Te  Te15  1  0.99566200  0.99782800  0.99564400  1
  O  O16  1  0.57346800  0.21824000  0.79560500  1
  O  O17  1  0.57345700  0.71823400  0.79559600  1
  O  O18  1  0.43651800  0.39778300  0.57346400  1
  O  O19  1  0.43651400  0.89778400  0.57345700  1
  O  O20  1  0.79555900  0.28673800  0.43644800  1
  O  O21  1  0.79556400  0.78673900  0.43645500  1
  O  O22  1  0.45211900  0.28355400  0.21339100  1
  O  O23  1  0.45210600  0.78355200  0.21339600  1
  O  O24  1  0.56710400  0.10667500  0.45213400  1
  O  O25  1  0.56709800  0.60667400  0.45214000  1
  O  O26  1  0.21336500  0.22607500  0.56713600  1
  O  O27  1  0.21335700  0.72607700  0.56713500  1
  O  O28  1  0.70434700  0.45755600  0.03273900  1
  O  O29  1  0.70435100  0.95756200  0.03274200  1
  O  O30  1  0.91518000  0.01635300  0.70431200  1
  O  O31  1  0.91517700  0.51635300  0.70431900  1
  O  O32  1  0.03275000  0.35216900  0.91514400  1
  O  O33  1  0.03275400  0.85217300  0.91513200  1
  O  O34  1  0.28610400  0.03629800  0.94363700  1
  O  O35  1  0.28610800  0.53629300  0.94363200  1
  O  O36  1  0.07259200  0.47182800  0.28611600  1
  O  O37  1  0.07258700  0.97182800  0.28611700  1
  O  O38  1  0.94362300  0.14307500  0.07256100  1
  O  O39  1  0.94362700  0.64307500  0.07256600  1
