# generated using pymatgen
data_Na4AsP(H15O11)2
_symmetry_space_group_name_H-M   'P 1'
_cell_length_a   11.03902200
_cell_length_b   9.38133800
_cell_length_c   13.39873438
_cell_angle_alpha   51.63875854
_cell_angle_beta   90.00000000
_cell_angle_gamma   90.00000000
_symmetry_Int_Tables_number   1
_chemical_formula_structural   Na4AsP(H15O11)2
_chemical_formula_sum   'Na8 As2 P2 H60 O44'
_cell_volume   1088.02298456
_cell_formula_units_Z   2
loop_
 _symmetry_equiv_pos_site_id
 _symmetry_equiv_pos_as_xyz
  1  'x, y, z'
loop_
 _atom_site_type_symbol
 _atom_site_label
 _atom_site_symmetry_multiplicity
 _atom_site_fract_x
 _atom_site_fract_y
 _atom_site_fract_z
 _atom_site_occupancy
  Na  Na0  1  0.85357800  0.83303800  0.52300300  1
  Na  Na1  1  0.14642200  0.83303800  0.02300300  1
  Na  Na2  1  0.64614500  0.16703300  0.47704100  1
  Na  Na3  1  0.35385500  0.16703300  0.97704100  1
  Na  Na4  1  0.14573500  0.84386200  0.52298200  1
  Na  Na5  1  0.85426500  0.84386200  0.02298200  1
  Na  Na6  1  0.35531800  0.15536700  0.47720100  1
  Na  Na7  1  0.64468200  0.15536700  0.97720100  1
  As  As8  1  0.01331800  0.28925300  0.10584200  1
  As  As9  1  0.98668200  0.28925300  0.60584200  1
  P  P10  1  0.48606300  0.70985800  0.89460400  1
  P  P11  1  0.51393700  0.70985800  0.39460400  1
  H  H12  1  0.99774100  0.67668300  0.91656300  1
  H  H13  1  0.00225900  0.67668300  0.41656300  1
  H  H14  1  0.50112300  0.32364500  0.08228400  1
  H  H15  1  0.49887700  0.32364500  0.58228400  1
  H  H16  1  0.99425200  0.10799400  0.49879200  1
  H  H17  1  0.00574800  0.10799400  0.99879200  1
  H  H18  1  0.50628000  0.88318400  0.50456400  1
  H  H19  1  0.49372000  0.88318400  0.00456400  1
  H  H20  1  0.35803700  0.99650700  0.35336400  1
  H  H21  1  0.64196300  0.99650700  0.85336400  1
  H  H22  1  0.14225200  0.99532700  0.64911900  1
  H  H23  1  0.85774800  0.99532700  0.14911900  1
  H  H24  1  0.65721600  0.56064900  0.60430900  1
  H  H25  1  0.34278400  0.56064900  0.10430900  1
  H  H26  1  0.84181000  0.44649900  0.39092400  1
  H  H27  1  0.15819000  0.44649900  0.89092400  1
  H  H28  1  0.19475600  0.40818700  0.12977700  1
  H  H29  1  0.80524400  0.40818700  0.62977700  1
  H  H30  1  0.31731000  0.59321300  0.87329700  1
  H  H31  1  0.68269000  0.59321300  0.37329700  1
  H  H32  1  0.74039400  0.51127400  0.72104000  1
  H  H33  1  0.25960600  0.51127400  0.22104000  1
  H  H34  1  0.75669100  0.49026200  0.27815400  1
  H  H35  1  0.24330900  0.49026200  0.77815400  1
  H  H36  1  0.84044000  0.96826200  0.66838400  1
  H  H37  1  0.15956000  0.96826200  0.16838400  1
  H  H38  1  0.66020800  0.02644800  0.33239600  1
  H  H39  1  0.33979200  0.02644800  0.83239600  1
  H  H40  1  0.97417000  0.17728500  0.35532600  1
  H  H41  1  0.02583000  0.17728500  0.85532600  1
  H  H42  1  0.52214200  0.82491200  0.64541400  1
  H  H43  1  0.47785800  0.82491200  0.14541400  1
  H  H44  1  0.00038900  0.89155700  0.81622700  1
  H  H45  1  0.99961100  0.89155700  0.31622700  1
  H  H46  1  0.49983400  0.10722000  0.18462000  1
  H  H47  1  0.50016600  0.10722000  0.68462000  1
  H  H48  1  0.98350100  0.52227900  0.18776500  1
  H  H49  1  0.01649900  0.52227900  0.68776500  1
  H  H50  1  0.51358300  0.47949300  0.81199700  1
  H  H51  1  0.48641700  0.47949300  0.31199700  1
  H  H52  1  0.24416500  0.12857400  0.28317600  1
  H  H53  1  0.75583500  0.12857400  0.78317600  1
  H  H54  1  0.25969700  0.87120900  0.71799300  1
  H  H55  1  0.74030300  0.87120900  0.21799300  1
  H  H56  1  0.71919800  0.84842400  0.71937800  1
  H  H57  1  0.28080200  0.84842400  0.21937800  1
  H  H58  1  0.77858300  0.15290500  0.28213300  1
  H  H59  1  0.22141700  0.15290500  0.78213300  1
  H  H60  1  0.33298800  0.56167900  0.58574000  1
  H  H61  1  0.66701200  0.56167900  0.08574000  1
  H  H62  1  0.16883300  0.44682000  0.40711800  1
  H  H63  1  0.83116700  0.44682000  0.90711800  1
  H  H64  1  0.19722200  0.48031400  0.62621700  1
  H  H65  1  0.80277800  0.48031400  0.12621700  1
  H  H66  1  0.30646000  0.52127800  0.37611700  1
  H  H67  1  0.69354000  0.52127800  0.87611700  1
  H  H68  1  0.00728900  0.57654400  0.27485000  1
  H  H69  1  0.99271100  0.57654400  0.77485000  1
  H  H70  1  0.49262100  0.42715100  0.72300000  1
  H  H71  1  0.50737900  0.42715100  0.22300000  1
  O  O72  1  0.92371500  0.32384300  0.19363300  1
  O  O73  1  0.07628500  0.32384300  0.69363300  1
  O  O74  1  0.56651600  0.67635200  0.81652900  1
  O  O75  1  0.43348400  0.67635200  0.31652900  1
  O  O76  1  0.25441100  0.56909700  0.61778000  1
  O  O77  1  0.74558900  0.56909700  0.11778000  1
  O  O78  1  0.24987000  0.43495600  0.38095800  1
  O  O79  1  0.75013000  0.43495600  0.88095800  1
  O  O80  1  0.74147300  0.55558600  0.63113300  1
  O  O81  1  0.25852700  0.55558600  0.13113300  1
  O  O82  1  0.75715800  0.44530300  0.36805800  1
  O  O83  1  0.24284200  0.44530300  0.86805800  1
  O  O84  1  0.99853600  0.78851300  0.90884300  1
  O  O85  1  0.00146400  0.78851300  0.40884300  1
  O  O86  1  0.50229700  0.21022900  0.09226800  1
  O  O87  1  0.49770300  0.21022900  0.59226800  1
  O  O88  1  0.00054100  0.07616100  0.14829400  1
  O  O89  1  0.99945900  0.07616100  0.64829400  1
  O  O90  1  0.50018200  0.90225800  0.85586100  1
  O  O91  1  0.49981800  0.90225800  0.35586100  1
  O  O92  1  0.00044700  0.62808700  0.18475300  1
  O  O93  1  0.99955300  0.62808700  0.68475300  1
  O  O94  1  0.50086800  0.37464000  0.81312500  1
  O  O95  1  0.49913200  0.37464000  0.31312500  1
  O  O96  1  0.28613900  0.04681000  0.36596200  1
  O  O97  1  0.71386100  0.04681000  0.86596200  1
  O  O98  1  0.21731200  0.95130900  0.63553800  1
  O  O99  1  0.78268800  0.95130900  0.13553800  1
  O  O100  1  0.99372100  0.45635100  0.94546700  1
  O  O101  1  0.00627900  0.45635100  0.44546700  1
  O  O102  1  0.50059500  0.55891800  0.04009200  1
  O  O103  1  0.49940500  0.55891800  0.54009200  1
  O  O104  1  0.99548100  0.07173800  0.44379300  1
  O  O105  1  0.00451900  0.07173800  0.94379300  1
  O  O106  1  0.50638900  0.92723000  0.55479800  1
  O  O107  1  0.49361100  0.92723000  0.05479800  1
  O  O108  1  0.16724200  0.29330700  0.14226100  1
  O  O109  1  0.83275800  0.29330700  0.64226100  1
  O  O110  1  0.34627500  0.70710500  0.85902800  1
  O  O111  1  0.65372500  0.70710500  0.35902800  1
  O  O112  1  0.77139000  0.92842700  0.64466700  1
  O  O113  1  0.22861000  0.92842700  0.14466700  1
  O  O114  1  0.72649400  0.06959400  0.35644700  1
  O  O115  1  0.27350600  0.06959400  0.85644700  1
