# generated using pymatgen
data_Mn8NO16
_symmetry_space_group_name_H-M   'P 1'
_cell_length_a   5.86411700
_cell_length_b   7.18388718
_cell_length_c   7.18425648
_cell_angle_alpha   87.60569818
_cell_angle_beta   78.22231541
_cell_angle_gamma   78.22112283
_symmetry_Int_Tables_number   1
_chemical_formula_structural   Mn8NO16
_chemical_formula_sum   'Mn8 N1 O16'
_cell_volume   290.04166898
_cell_formula_units_Z   1
loop_
 _symmetry_equiv_pos_site_id
 _symmetry_equiv_pos_as_xyz
  1  'x, y, z'
loop_
 _atom_site_type_symbol
 _atom_site_label
 _atom_site_symmetry_multiplicity
 _atom_site_fract_x
 _atom_site_fract_y
 _atom_site_fract_z
 _atom_site_occupancy
  Mn  Mn0  1  0.92434400  0.48502100  0.81802200  1
  Mn  Mn1  1  0.42426600  0.48489900  0.81791700  1
  Mn  Mn2  1  0.57573400  0.51510100  0.18208300  1
  Mn  Mn3  1  0.07565600  0.51497900  0.18197800  1
  Mn  Mn4  1  0.33322800  0.18202900  0.48496900  1
  Mn  Mn5  1  0.83329100  0.18197000  0.48503000  1
  Mn  Mn6  1  0.16670900  0.81803000  0.51497000  1
  Mn  Mn7  1  0.66677200  0.81797100  0.51503100  1
  N  N8  1  0.50000000  0.00000000  0.00000000  1
  O  O9  1  0.52127800  0.29209300  0.62248800  1
  O  O10  1  0.02141300  0.29211500  0.62254700  1
  O  O11  1  0.97858700  0.70788500  0.37745300  1
  O  O12  1  0.47872200  0.70790700  0.37751200  1
  O  O13  1  0.83249800  0.37742800  0.29210600  1
  O  O14  1  0.33265400  0.37760200  0.29215500  1
  O  O15  1  0.66734600  0.62239800  0.70784500  1
  O  O16  1  0.16750200  0.62257200  0.70789400  1
  O  O17  1  0.82873200  0.63930300  0.04768500  1
  O  O18  1  0.32781800  0.63903000  0.04756900  1
  O  O19  1  0.67218200  0.36097000  0.95243100  1
  O  O20  1  0.17126800  0.36069700  0.95231500  1
  O  O21  1  0.85256400  0.95225300  0.63934100  1
  O  O22  1  0.35160700  0.95243000  0.63905200  1
  O  O23  1  0.64839300  0.04757000  0.36094800  1
  O  O24  1  0.14743600  0.04774700  0.36065900  1
