# generated using pymatgen
data_Mn2CdO3
_symmetry_space_group_name_H-M   'P 1'
_cell_length_a   5.64775805
_cell_length_b   5.63172703
_cell_length_c   5.64775804
_cell_angle_alpha   80.16748326
_cell_angle_beta   60.01918489
_cell_angle_gamma   99.83255881
_symmetry_Int_Tables_number   1
_chemical_formula_structural   Mn2CdO3
_chemical_formula_sum   'Mn4 Cd2 O6'
_cell_volume   146.24861515
_cell_formula_units_Z   2
loop_
 _symmetry_equiv_pos_site_id
 _symmetry_equiv_pos_as_xyz
  1  'x, y, z'
loop_
 _atom_site_type_symbol
 _atom_site_label
 _atom_site_symmetry_multiplicity
 _atom_site_fract_x
 _atom_site_fract_y
 _atom_site_fract_z
 _atom_site_occupancy
  Mn  Mn0  1  0.66727400  0.99999900  0.66727000  1
  Mn  Mn1  1  0.33272700  0.00000100  0.33272900  1
  Mn  Mn2  1  0.16728100  0.50000100  0.16727600  1
  Mn  Mn3  1  0.83272200  0.50000400  0.83272200  1
  Cd  Cd4  1  0.99999900  0.99999800  0.00000100  1
  Cd  Cd5  1  0.50000000  0.49999900  0.50000000  1
  O  O6  1  0.75000000  0.25000100  0.25000100  1
  O  O7  1  0.24999800  0.74999800  0.75000100  1
  O  O8  1  0.92875600  0.75000300  0.42875800  1
  O  O9  1  0.42875700  0.24999700  0.92875700  1
  O  O10  1  0.57124200  0.75000100  0.07124400  1
  O  O11  1  0.07124400  0.24999700  0.57124300  1
