# generated using pymatgen
data_Mn2CrGa3S8
_symmetry_space_group_name_H-M   'P 1'
_cell_length_a   12.59162700
_cell_length_b   12.59162700
_cell_length_c   6.47659543
_cell_angle_alpha   85.14436659
_cell_angle_beta   85.14436659
_cell_angle_gamma   16.86604455
_symmetry_Int_Tables_number   1
_chemical_formula_structural   Mn2CrGa3S8
_chemical_formula_sum   'Mn2 Cr1 Ga3 S8'
_cell_volume   296.83483897
_cell_formula_units_Z   1
loop_
 _symmetry_equiv_pos_site_id
 _symmetry_equiv_pos_as_xyz
  1  'x, y, z'
loop_
 _atom_site_type_symbol
 _atom_site_label
 _atom_site_symmetry_multiplicity
 _atom_site_fract_x
 _atom_site_fract_y
 _atom_site_fract_z
 _atom_site_occupancy
  Mn  Mn0  1  0.35226200  0.35226200  0.88182700  1
  Mn  Mn1  1  0.85197200  0.85197200  0.38230300  1
  Cr  Cr2  1  0.64838400  0.64838400  0.11246700  1
  Ga  Ga3  1  0.00047000  0.00047000  0.00221700  1
  Ga  Ga4  1  0.50031400  0.50031400  0.49722800  1
  Ga  Ga5  1  0.14931800  0.14931800  0.61897200  1
  S  S6  1  0.68462200  0.68462200  0.44206400  1
  S  S7  1  0.18404800  0.18404800  0.93641200  1
  S  S8  1  0.81679900  0.81679900  0.06229900  1
  S  S9  1  0.31657400  0.31657400  0.56199400  1
  S  S10  1  0.55417800  0.55417800  0.14952200  1
  S  S11  1  0.05478500  0.05478500  0.64862600  1
  S  S12  1  0.94877000  0.94877000  0.35141800  1
  S  S13  1  0.44950500  0.44950500  0.84865200  1
