# generated using pymatgen
data_MgFe(SiO3)2
_symmetry_space_group_name_H-M   'P 1'
_cell_length_a   4.87776004
_cell_length_b   4.87776004
_cell_length_c   6.74118700
_cell_angle_alpha   90.00000000
_cell_angle_beta   90.00000000
_cell_angle_gamma   147.57902563
_symmetry_Int_Tables_number   1
_chemical_formula_structural   MgFe(SiO3)2
_chemical_formula_sum   'Mg1 Fe1 Si2 O6'
_cell_volume   85.99081800
_cell_formula_units_Z   1
loop_
 _symmetry_equiv_pos_site_id
 _symmetry_equiv_pos_as_xyz
  1  'x, y, z'
loop_
 _atom_site_type_symbol
 _atom_site_label
 _atom_site_symmetry_multiplicity
 _atom_site_fract_x
 _atom_site_fract_y
 _atom_site_fract_z
 _atom_site_occupancy
  Mg  Mg0  1  0.26324700  0.73675300  0.50000000  1
  Fe  Fe1  1  0.73927800  0.26072200  0.00000000  1
  Si  Si2  1  0.99955000  0.00045000  0.25052400  1
  Si  Si3  1  0.99955000  0.00045000  0.74947600  1
  O  O4  1  0.37602400  0.62397600  0.79887100  1
  O  O5  1  0.62627500  0.37372500  0.69573300  1
  O  O6  1  0.37602400  0.62397600  0.20112900  1
  O  O7  1  0.62627500  0.37372500  0.30426700  1
  O  O8  1  0.06416800  0.93583200  0.00000000  1
  O  O9  1  0.92960800  0.07039200  0.50000000  1
