# generated using pymatgen
data_MgTi2ZnO6
_symmetry_space_group_name_H-M   'P 1'
_cell_length_a   5.53855859
_cell_length_b   5.53855859
_cell_length_c   5.53855896
_cell_angle_alpha   54.98787811
_cell_angle_beta   54.98787811
_cell_angle_gamma   54.98787704
_symmetry_Int_Tables_number   1
_chemical_formula_structural   MgTi2ZnO6
_chemical_formula_sum   'Mg1 Ti2 Zn1 O6'
_cell_volume   106.12592482
_cell_formula_units_Z   1
loop_
 _symmetry_equiv_pos_site_id
 _symmetry_equiv_pos_as_xyz
  1  'x, y, z'
loop_
 _atom_site_type_symbol
 _atom_site_label
 _atom_site_symmetry_multiplicity
 _atom_site_fract_x
 _atom_site_fract_y
 _atom_site_fract_z
 _atom_site_occupancy
  Mg  Mg0  1  0.35627200  0.35627200  0.35627200  1
  Ti  Ti1  1  0.14459900  0.14459900  0.14459900  1
  Ti  Ti2  1  0.85429000  0.85429000  0.85429000  1
  Zn  Zn3  1  0.63983000  0.63983000  0.63983000  1
  O  O4  1  0.95358700  0.22390900  0.56323800  1
  O  O5  1  0.22390900  0.56323800  0.95358700  1
  O  O6  1  0.56323800  0.95358700  0.22390900  1
  O  O7  1  0.05224900  0.77465900  0.43736800  1
  O  O8  1  0.77465900  0.43736800  0.05224900  1
  O  O9  1  0.43736800  0.05224900  0.77465900  1
