# generated using pymatgen
data_MgFe3O4
_symmetry_space_group_name_H-M   'P 1'
_cell_length_a   10.28170216
_cell_length_b   10.28170216
_cell_length_c   10.28170257
_cell_angle_alpha   17.03017200
_cell_angle_beta   17.03017200
_cell_angle_gamma   17.03017505
_symmetry_Int_Tables_number   1
_chemical_formula_structural   MgFe3O4
_chemical_formula_sum   'Mg1 Fe3 O4'
_cell_volume   81.33478780
_cell_formula_units_Z   1
loop_
 _symmetry_equiv_pos_site_id
 _symmetry_equiv_pos_as_xyz
  1  'x, y, z'
loop_
 _atom_site_type_symbol
 _atom_site_label
 _atom_site_symmetry_multiplicity
 _atom_site_fract_x
 _atom_site_fract_y
 _atom_site_fract_z
 _atom_site_occupancy
  Mg  Mg0  1  0.00000000  0.00000000  0.00000000  1
  Fe  Fe1  1  0.25075800  0.25075800  0.25075800  1
  Fe  Fe2  1  0.50000000  0.50000000  0.50000000  1
  Fe  Fe3  1  0.74924200  0.74924200  0.74924200  1
  O  O4  1  0.12463300  0.12463300  0.12463300  1
  O  O5  1  0.37276900  0.37276900  0.37276900  1
  O  O6  1  0.62723100  0.62723100  0.62723100  1
  O  O7  1  0.87536700  0.87536700  0.87536700  1
