# generated using pymatgen
data_Mn(CuSe)2
_symmetry_space_group_name_H-M   'P 1'
_cell_length_a   8.07802040
_cell_length_b   8.07802040
_cell_length_c   8.07802040
_cell_angle_alpha   60.00000000
_cell_angle_beta   60.00000000
_cell_angle_gamma   60.00000000
_symmetry_Int_Tables_number   1
_chemical_formula_structural   Mn(CuSe)2
_chemical_formula_sum   'Mn4 Cu8 Se8'
_cell_volume   372.73471079
_cell_formula_units_Z   4
loop_
 _symmetry_equiv_pos_site_id
 _symmetry_equiv_pos_as_xyz
  1  'x, y, z'
loop_
 _atom_site_type_symbol
 _atom_site_label
 _atom_site_symmetry_multiplicity
 _atom_site_fract_x
 _atom_site_fract_y
 _atom_site_fract_z
 _atom_site_occupancy
  Mn  Mn0  1  0.61339500  0.12886800  0.12886800  1
  Mn  Mn1  1  0.12886800  0.61339500  0.12886800  1
  Mn  Mn2  1  0.12886800  0.12886800  0.61339500  1
  Mn  Mn3  1  0.12886800  0.12886800  0.12886800  1
  Cu  Cu4  1  0.25706000  0.25706000  0.74294000  1
  Cu  Cu5  1  0.74294000  0.74294000  0.25706000  1
  Cu  Cu6  1  0.25706000  0.74294000  0.25706000  1
  Cu  Cu7  1  0.74294000  0.25706000  0.74294000  1
  Cu  Cu8  1  0.74294000  0.25706000  0.25706000  1
  Cu  Cu9  1  0.25706000  0.74294000  0.74294000  1
  Cu  Cu10  1  0.75000000  0.75000000  0.75000000  1
  Cu  Cu11  1  0.50000000  0.50000000  0.50000000  1
  Se  Se12  1  0.37773900  0.87408700  0.87408700  1
  Se  Se13  1  0.87408700  0.37773900  0.87408700  1
  Se  Se14  1  0.87408700  0.87408700  0.37773900  1
  Se  Se15  1  0.87408700  0.87408700  0.87408700  1
  Se  Se16  1  0.89146500  0.36951200  0.36951200  1
  Se  Se17  1  0.36951200  0.89146500  0.36951200  1
  Se  Se18  1  0.36951200  0.36951200  0.89146500  1
  Se  Se19  1  0.36951200  0.36951200  0.36951200  1
