# generated using pymatgen
data_MgCr4FeO8
_symmetry_space_group_name_H-M   'P 1'
_cell_length_a   6.02189813
_cell_length_b   6.02189813
_cell_length_c   6.02189813
_cell_angle_alpha   60.00000000
_cell_angle_beta   60.00000000
_cell_angle_gamma   60.00000000
_symmetry_Int_Tables_number   1
_chemical_formula_structural   MgCr4FeO8
_chemical_formula_sum   'Mg1 Cr4 Fe1 O8'
_cell_volume   154.41348135
_cell_formula_units_Z   1
loop_
 _symmetry_equiv_pos_site_id
 _symmetry_equiv_pos_as_xyz
  1  'x, y, z'
loop_
 _atom_site_type_symbol
 _atom_site_label
 _atom_site_symmetry_multiplicity
 _atom_site_fract_x
 _atom_site_fract_y
 _atom_site_fract_z
 _atom_site_occupancy
  Mg  Mg0  1  0.00000000  0.00000000  0.00000000  1
  Cr  Cr1  1  0.12444400  0.62518500  0.62518500  1
  Cr  Cr2  1  0.62518500  0.12444400  0.62518500  1
  Cr  Cr3  1  0.62518500  0.62518500  0.12444400  1
  Cr  Cr4  1  0.62518500  0.62518500  0.62518500  1
  Fe  Fe5  1  0.25000000  0.25000000  0.25000000  1
  O  O6  1  0.40860300  0.86379900  0.86379900  1
  O  O7  1  0.86379900  0.40860300  0.86379900  1
  O  O8  1  0.86379900  0.86379900  0.40860300  1
  O  O9  1  0.86379900  0.86379900  0.86379900  1
  O  O10  1  0.83878800  0.38707100  0.38707100  1
  O  O11  1  0.38707100  0.83878800  0.38707100  1
  O  O12  1  0.38707100  0.38707100  0.83878800  1
  O  O13  1  0.38707100  0.38707100  0.38707100  1
