# generated using pymatgen
data_Mn6ZnSnC2
_symmetry_space_group_name_H-M   'P 1'
_cell_length_a   4.88965000
_cell_length_b   4.88965000
_cell_length_c   9.70636400
_cell_angle_alpha   90.00000000
_cell_angle_beta   90.00000000
_cell_angle_gamma   90.00000000
_symmetry_Int_Tables_number   1
_chemical_formula_structural   Mn6ZnSnC2
_chemical_formula_sum   'Mn6 Zn1 Sn1 C2'
_cell_volume   232.06632291
_cell_formula_units_Z   1
loop_
 _symmetry_equiv_pos_site_id
 _symmetry_equiv_pos_as_xyz
  1  'x, y, z'
loop_
 _atom_site_type_symbol
 _atom_site_label
 _atom_site_symmetry_multiplicity
 _atom_site_fract_x
 _atom_site_fract_y
 _atom_site_fract_z
 _atom_site_occupancy
  Mn  Mn0  1  0.50000000  0.50000000  0.98795600  1
  Mn  Mn1  1  0.50000000  0.50000000  0.51204400  1
  Mn  Mn2  1  0.50000000  0.00000000  0.25000000  1
  Mn  Mn3  1  0.50000000  0.00000000  0.75000000  1
  Mn  Mn4  1  0.00000000  0.50000000  0.25000000  1
  Mn  Mn5  1  0.00000000  0.50000000  0.75000000  1
  Zn  Zn6  1  0.50000000  0.50000000  0.75000000  1
  Sn  Sn7  1  0.50000000  0.50000000  0.25000000  1
  C  C8  1  0.00000000  0.00000000  0.00157800  1
  C  C9  1  0.00000000  0.00000000  0.49842200  1
