# generated using pymatgen
data_MgAlFeO4
_symmetry_space_group_name_H-M   'P 1'
_cell_length_a   5.85011643
_cell_length_b   8.33999300
_cell_length_c   5.87688820
_cell_angle_alpha   90.00001461
_cell_angle_beta   89.99999311
_cell_angle_gamma   90.00000486
_symmetry_Int_Tables_number   1
_chemical_formula_structural   MgAlFeO4
_chemical_formula_sum   'Mg4 Al4 Fe4 O16'
_cell_volume   286.73296455
_cell_formula_units_Z   4
loop_
 _symmetry_equiv_pos_site_id
 _symmetry_equiv_pos_as_xyz
  1  'x, y, z'
loop_
 _atom_site_type_symbol
 _atom_site_label
 _atom_site_symmetry_multiplicity
 _atom_site_fract_x
 _atom_site_fract_y
 _atom_site_fract_z
 _atom_site_occupancy
  Mg  Mg0  1  0.50000000  0.87500200  0.75000300  1
  Mg  Mg1  1  0.00000000  0.37499900  0.24999600  1
  Mg  Mg2  1  0.99999900  0.37499900  0.75000400  1
  Mg  Mg3  1  0.50000000  0.87500200  0.24999600  1
  Al  Al4  1  0.25000000  0.62499900  0.00000000  1
  Al  Al5  1  0.75000000  0.12500000  0.50000000  1
  Al  Al6  1  0.25000000  0.12500000  0.50000000  1
  Al  Al7  1  0.75000000  0.62500000  0.00000000  1
  Fe  Fe8  1  0.99999900  0.75814700  0.49999900  1
  Fe  Fe9  1  0.50000100  0.49185200  0.49999900  1
  Fe  Fe10  1  0.50000000  0.25812500  0.00000200  1
  Fe  Fe11  1  0.00000200  0.99187300  0.00000000  1
  O  O12  1  0.24200100  0.35400800  0.50000000  1
  O  O13  1  0.74200000  0.85401200  0.00000000  1
  O  O14  1  0.75799900  0.35400800  0.50000000  1
  O  O15  1  0.25800000  0.85401100  0.00000000  1
  O  O16  1  0.25799900  0.89599200  0.50000000  1
  O  O17  1  0.75799800  0.39598800  0.00000000  1
  O  O18  1  0.24200300  0.39598800  0.00000000  1
  O  O19  1  0.74200100  0.89599200  0.50000000  1
  O  O20  1  0.00000000  0.12560400  0.72488100  1
  O  O21  1  0.50000000  0.62560300  0.22488200  1
  O  O22  1  0.00000000  0.12560400  0.27511900  1
  O  O23  1  0.50000000  0.62560300  0.77511800  1
  O  O24  1  0.00000000  0.62439800  0.77511800  1
  O  O25  1  0.50000000  0.12439600  0.27512000  1
  O  O26  1  0.50000000  0.12439600  0.72488000  1
  O  O27  1  0.00000000  0.62439800  0.22488200  1
