# generated using pymatgen
data_MnBi12W2(ClO8)3
_symmetry_space_group_name_H-M   'P 1'
_cell_length_a   8.90509868
_cell_length_b   8.90509868
_cell_length_c   15.50481931
_cell_angle_alpha   69.74619177
_cell_angle_beta   69.74619177
_cell_angle_gamma   36.04557534
_symmetry_Int_Tables_number   1
_chemical_formula_structural   MnBi12W2(ClO8)3
_chemical_formula_sum   'Mn1 Bi12 W2 Cl3 O24'
_cell_volume   673.85444990
_cell_formula_units_Z   1
loop_
 _symmetry_equiv_pos_site_id
 _symmetry_equiv_pos_as_xyz
  1  'x, y, z'
loop_
 _atom_site_type_symbol
 _atom_site_label
 _atom_site_symmetry_multiplicity
 _atom_site_fract_x
 _atom_site_fract_y
 _atom_site_fract_z
 _atom_site_occupancy
  Mn  Mn0  1  0.33045900  0.33045900  0.99999100  1
  Bi  Bi1  1  0.79187300  0.79187300  0.64137200  1
  Bi  Bi2  1  0.45773800  0.45773800  0.64124600  1
  Bi  Bi3  1  0.12681200  0.12681200  0.63856900  1
  Bi  Bi4  1  0.88578800  0.88578800  0.36144400  1
  Bi  Bi5  1  0.55293500  0.55293500  0.35870600  1
  Bi  Bi6  1  0.21856600  0.21856600  0.35866000  1
  Bi  Bi7  1  0.25920900  0.25920900  0.82532600  1
  Bi  Bi8  1  0.92249300  0.92249300  0.82084500  1
  Bi  Bi9  1  0.58546600  0.58546600  0.81375400  1
  Bi  Bi10  1  0.46129100  0.46129100  0.18636700  1
  Bi  Bi11  1  0.14278100  0.14278100  0.17458700  1
  Bi  Bi12  1  0.80315500  0.80315500  0.17909900  1
  W  W13  1  0.99257300  0.99257300  0.99999600  1
  W  W14  1  0.66319600  0.66319600  0.00000800  1
  Cl  Cl15  1  0.00156000  0.00156000  0.49949000  1
  Cl  Cl16  1  0.66824100  0.66824100  0.49884700  1
  Cl  Cl17  1  0.33372900  0.33372900  0.50168300  1
  O  O18  1  0.82293900  0.32513600  0.99996700  1
  O  O19  1  0.48547600  0.98662700  0.00000900  1
  O  O20  1  0.15098800  0.67503300  0.00000800  1
  O  O21  1  0.32513600  0.82293900  0.99996700  1
  O  O22  1  0.98662700  0.48547600  0.00000900  1
  O  O23  1  0.67503300  0.15098800  0.00000800  1
  O  O24  1  0.59618400  0.09943000  0.71801900  1
  O  O25  1  0.26251100  0.76782900  0.71497500  1
  O  O26  1  0.92570900  0.43636200  0.71289100  1
  O  O27  1  0.24489600  0.73427600  0.28725400  1
  O  O28  1  0.91145000  0.40811900  0.28192800  1
  O  O29  1  0.57783900  0.07260100  0.28498000  1
  O  O30  1  0.73427600  0.24489600  0.28725400  1
  O  O31  1  0.40811900  0.91145000  0.28192800  1
  O  O32  1  0.07260100  0.57783900  0.28498000  1
  O  O33  1  0.09943000  0.59618400  0.71801900  1
  O  O34  1  0.76782900  0.26251100  0.71497500  1
  O  O35  1  0.43636200  0.92570900  0.71289100  1
  O  O36  1  0.03719200  0.03719200  0.86114700  1
  O  O37  1  0.69552700  0.69552700  0.86485800  1
  O  O38  1  0.37001700  0.37001700  0.86592900  1
  O  O39  1  0.28066200  0.28066200  0.13405900  1
  O  O40  1  0.94469300  0.94469300  0.13882800  1
  O  O41  1  0.60543100  0.60543100  0.13512500  1
