# generated using pymatgen
data_Mn5Cu3(Te2O5)8
_symmetry_space_group_name_H-M   'P 1'
_cell_length_a   8.90551074
_cell_length_b   8.90551074
_cell_length_c   12.96278600
_cell_angle_alpha   90.00000000
_cell_angle_beta   90.00000000
_cell_angle_gamma   90.83714138
_symmetry_Int_Tables_number   1
_chemical_formula_structural   Mn5Cu3(Te2O5)8
_chemical_formula_sum   'Mn5 Cu3 Te16 O40'
_cell_volume   1027.94447709
_cell_formula_units_Z   1
loop_
 _symmetry_equiv_pos_site_id
 _symmetry_equiv_pos_as_xyz
  1  'x, y, z'
loop_
 _atom_site_type_symbol
 _atom_site_label
 _atom_site_symmetry_multiplicity
 _atom_site_fract_x
 _atom_site_fract_y
 _atom_site_fract_z
 _atom_site_occupancy
  Mn  Mn0  1  0.50000000  0.50000000  0.25071200  1
  Mn  Mn1  1  0.00000000  0.00000000  0.25061000  1
  Mn  Mn2  1  0.00000000  0.00000000  0.74939000  1
  Mn  Mn3  1  0.50000000  0.50000000  0.74928800  1
  Mn  Mn4  1  0.50000000  0.50000000  0.00000000  1
  Cu  Cu5  1  0.00000000  0.00000000  0.00000000  1
  Cu  Cu6  1  0.00000000  0.00000000  0.50000000  1
  Cu  Cu7  1  0.50000000  0.50000000  0.50000000  1
  Te  Te8  1  0.71316900  0.81761000  0.86719200  1
  Te  Te9  1  0.21260600  0.68425900  0.86634700  1
  Te  Te10  1  0.78739400  0.31574100  0.86634700  1
  Te  Te11  1  0.28683100  0.18239000  0.86719200  1
  Te  Te12  1  0.68199600  0.78654700  0.36779800  1
  Te  Te13  1  0.18170900  0.71447500  0.36802300  1
  Te  Te14  1  0.81829100  0.28552500  0.36802300  1
  Te  Te15  1  0.31800400  0.21345300  0.36779800  1
  Te  Te16  1  0.78654700  0.68199600  0.63220200  1
  Te  Te17  1  0.28552500  0.81829100  0.63197700  1
  Te  Te18  1  0.71447500  0.18170900  0.63197700  1
  Te  Te19  1  0.21345300  0.31800400  0.63220200  1
  Te  Te20  1  0.81761000  0.71316900  0.13280800  1
  Te  Te21  1  0.31574100  0.78739400  0.13365300  1
  Te  Te22  1  0.68425900  0.21260600  0.13365300  1
  Te  Te23  1  0.18239000  0.28683100  0.13280800  1
  O  O24  1  0.72858000  0.62652900  0.79836600  1
  O  O25  1  0.22762000  0.87516700  0.79710300  1
  O  O26  1  0.77238000  0.12483300  0.79710300  1
  O  O27  1  0.27142000  0.37347100  0.79836600  1
  O  O28  1  0.87247700  0.77042700  0.29784500  1
  O  O29  1  0.37260900  0.73203200  0.29924100  1
  O  O30  1  0.62739100  0.26796800  0.29924100  1
  O  O31  1  0.12752300  0.22957300  0.29784500  1
  O  O32  1  0.77042700  0.87247700  0.70215500  1
  O  O33  1  0.26796800  0.62739100  0.70075900  1
  O  O34  1  0.73203200  0.37260900  0.70075900  1
  O  O35  1  0.22957300  0.12752300  0.70215500  1
  O  O36  1  0.62652900  0.72858000  0.20163400  1
  O  O37  1  0.12483300  0.77238000  0.20289700  1
  O  O38  1  0.87516700  0.22762000  0.20289700  1
  O  O39  1  0.37347100  0.27142000  0.20163400  1
  O  O40  1  0.57920500  0.35478400  0.88250400  1
  O  O41  1  0.07762600  0.13786000  0.88836200  1
  O  O42  1  0.92237400  0.86214000  0.88836200  1
  O  O43  1  0.42079500  0.64521600  0.88250400  1
  O  O44  1  0.13734600  0.92315500  0.38811000  1
  O  O45  1  0.63668800  0.57724900  0.38783000  1
  O  O46  1  0.36331200  0.42275100  0.38783000  1
  O  O47  1  0.86265400  0.07684500  0.38811000  1
  O  O48  1  0.92315500  0.13734600  0.61189000  1
  O  O49  1  0.42275100  0.36331200  0.61217000  1
  O  O50  1  0.57724900  0.63668800  0.61217000  1
  O  O51  1  0.07684500  0.86265400  0.61189000  1
  O  O52  1  0.35478400  0.57920500  0.11749600  1
  O  O53  1  0.86214000  0.92237400  0.11163800  1
  O  O54  1  0.13786000  0.07762600  0.11163800  1
  O  O55  1  0.64521600  0.42079500  0.11749600  1
  O  O56  1  0.20149800  0.79850200  0.00000000  1
  O  O57  1  0.69666500  0.69666500  0.00000000  1
  O  O58  1  0.30333500  0.30333500  0.00000000  1
  O  O59  1  0.79850200  0.20149800  0.00000000  1
  O  O60  1  0.70184000  0.29816000  0.50000000  1
  O  O61  1  0.20109200  0.20109200  0.50000000  1
  O  O62  1  0.79890800  0.79890800  0.50000000  1
  O  O63  1  0.29816000  0.70184000  0.50000000  1
