# generated using pymatgen
data_MgC2S2(OF)2
_symmetry_space_group_name_H-M   'P 1'
_cell_length_a   4.91180342
_cell_length_b   4.34305997
_cell_length_c   10.49357531
_cell_angle_alpha   87.49160550
_cell_angle_beta   75.34350812
_cell_angle_gamma   120.70150756
_symmetry_Int_Tables_number   1
_chemical_formula_structural   MgC2S2(OF)2
_chemical_formula_sum   'Mg1 C2 S2 O2 F2'
_cell_volume   182.14410857
_cell_formula_units_Z   1
loop_
 _symmetry_equiv_pos_site_id
 _symmetry_equiv_pos_as_xyz
  1  'x, y, z'
loop_
 _atom_site_type_symbol
 _atom_site_label
 _atom_site_symmetry_multiplicity
 _atom_site_fract_x
 _atom_site_fract_y
 _atom_site_fract_z
 _atom_site_occupancy
  Mg  Mg0  1  0.00000000  0.00000000  0.00000000  1
  C  C1  1  0.43893400  0.23813000  0.32329400  1
  C  C2  1  0.56106600  0.76187000  0.67670600  1
  S  S3  1  0.59862100  0.30154500  0.14819600  1
  S  S4  1  0.40137900  0.69845500  0.85180400  1
  O  O5  1  0.27877000  0.08065400  0.10673700  1
  O  O6  1  0.72123000  0.91934600  0.89326300  1
  F  F7  1  0.69465600  0.42362900  0.37076900  1
  F  F8  1  0.30534400  0.57637200  0.62923100  1
