# generated using pymatgen
data_Mg4Te3Se
_symmetry_space_group_name_H-M   'P 1'
_cell_length_a   4.52516800
_cell_length_b   4.52516800
_cell_length_c   12.70419600
_cell_angle_alpha   90.00000000
_cell_angle_beta   90.00000000
_cell_angle_gamma   90.00000000
_symmetry_Int_Tables_number   1
_chemical_formula_structural   Mg4Te3Se
_chemical_formula_sum   'Mg4 Te3 Se1'
_cell_volume   260.14566904
_cell_formula_units_Z   1
loop_
 _symmetry_equiv_pos_site_id
 _symmetry_equiv_pos_as_xyz
  1  'x, y, z'
loop_
 _atom_site_type_symbol
 _atom_site_label
 _atom_site_symmetry_multiplicity
 _atom_site_fract_x
 _atom_site_fract_y
 _atom_site_fract_z
 _atom_site_occupancy
  Mg  Mg0  1  0.50000000  0.00000000  0.61051800  1
  Mg  Mg1  1  0.00000000  0.50000000  0.38948200  1
  Mg  Mg2  1  0.50000000  0.00000000  0.12870500  1
  Mg  Mg3  1  0.00000000  0.50000000  0.87129500  1
  Te  Te4  1  0.50000000  0.50000000  0.25830700  1
  Te  Te5  1  0.00000000  0.00000000  0.00000000  1
  Te  Te6  1  0.50000000  0.50000000  0.74169300  1
  Se  Se7  1  0.00000000  0.00000000  0.50000000  1
