# generated using pymatgen
data_Mg4SnGe
_symmetry_space_group_name_H-M   'P 1'
_cell_length_a   5.76358919
_cell_length_b   5.76358919
_cell_length_c   5.76358919
_cell_angle_alpha   60.00000000
_cell_angle_beta   60.00000000
_cell_angle_gamma   60.00000000
_symmetry_Int_Tables_number   1
_chemical_formula_structural   Mg4SnGe
_chemical_formula_sum   'Mg4 Sn1 Ge1'
_cell_volume   135.38297598
_cell_formula_units_Z   1
loop_
 _symmetry_equiv_pos_site_id
 _symmetry_equiv_pos_as_xyz
  1  'x, y, z'
loop_
 _atom_site_type_symbol
 _atom_site_label
 _atom_site_symmetry_multiplicity
 _atom_site_fract_x
 _atom_site_fract_y
 _atom_site_fract_z
 _atom_site_occupancy
  Mg  Mg0  1  0.62488900  0.62488900  0.12533200  1
  Mg  Mg1  1  0.62488900  0.12533200  0.62488900  1
  Mg  Mg2  1  0.12533200  0.62488900  0.62488900  1
  Mg  Mg3  1  0.62488900  0.62488900  0.62488900  1
  Sn  Sn4  1  0.00000000  0.00000000  0.00000000  1
  Ge  Ge5  1  0.25000000  0.25000000  0.25000000  1
