# generated using pymatgen
data_Mg4Se3S
_symmetry_space_group_name_H-M   'P 1'
_cell_length_a   13.90495686
_cell_length_b   13.90495686
_cell_length_c   13.90495738
_cell_angle_alpha   17.34034085
_cell_angle_beta   17.34034085
_cell_angle_gamma   17.34034141
_symmetry_Int_Tables_number   1
_chemical_formula_structural   Mg4Se3S
_chemical_formula_sum   'Mg4 Se3 S1'
_cell_volume   208.40638028
_cell_formula_units_Z   1
loop_
 _symmetry_equiv_pos_site_id
 _symmetry_equiv_pos_as_xyz
  1  'x, y, z'
loop_
 _atom_site_type_symbol
 _atom_site_label
 _atom_site_symmetry_multiplicity
 _atom_site_fract_x
 _atom_site_fract_y
 _atom_site_fract_z
 _atom_site_occupancy
  Mg  Mg0  1  0.00199600  0.00199600  0.00199600  1
  Mg  Mg1  1  0.25025100  0.25025100  0.25025100  1
  Mg  Mg2  1  0.49975400  0.49975400  0.49975400  1
  Mg  Mg3  1  0.74787800  0.74787800  0.74787800  1
  Se  Se4  1  0.93856800  0.93856800  0.93856800  1
  Se  Se5  1  0.18753300  0.18753300  0.18753300  1
  Se  Se6  1  0.43670600  0.43670600  0.43670600  1
  S  S7  1  0.68731400  0.68731400  0.68731400  1
