# generated using pymatgen
data_Mg3HgAu2
_symmetry_space_group_name_H-M   'P 1'
_cell_length_a   3.42216600
_cell_length_b   3.42216600
_cell_length_c   9.76851400
_cell_angle_alpha   90.00000000
_cell_angle_beta   90.00000000
_cell_angle_gamma   90.00000000
_symmetry_Int_Tables_number   1
_chemical_formula_structural   Mg3HgAu2
_chemical_formula_sum   'Mg3 Hg1 Au2'
_cell_volume   114.40121781
_cell_formula_units_Z   1
loop_
 _symmetry_equiv_pos_site_id
 _symmetry_equiv_pos_as_xyz
  1  'x, y, z'
loop_
 _atom_site_type_symbol
 _atom_site_label
 _atom_site_symmetry_multiplicity
 _atom_site_fract_x
 _atom_site_fract_y
 _atom_site_fract_z
 _atom_site_occupancy
  Mg  Mg0  1  0.50000000  0.50000000  0.18067700  1
  Mg  Mg1  1  0.50000000  0.50000000  0.50000000  1
  Mg  Mg2  1  0.50000000  0.50000000  0.81932300  1
  Hg  Hg3  1  0.00000000  0.00000000  0.00000000  1
  Au  Au4  1  0.00000000  0.00000000  0.33893600  1
  Au  Au5  1  0.00000000  0.00000000  0.66106400  1
