# generated using pymatgen
data_Mg3ZnO4
_symmetry_space_group_name_H-M   'P 1'
_cell_length_a   10.00975456
_cell_length_b   10.00975456
_cell_length_c   10.00975488
_cell_angle_alpha   17.38510170
_cell_angle_beta   17.38510170
_cell_angle_gamma   17.38509873
_symmetry_Int_Tables_number   1
_chemical_formula_structural   Mg3ZnO4
_chemical_formula_sum   'Mg3 Zn1 O4'
_cell_volume   78.13750540
_cell_formula_units_Z   1
loop_
 _symmetry_equiv_pos_site_id
 _symmetry_equiv_pos_as_xyz
  1  'x, y, z'
loop_
 _atom_site_type_symbol
 _atom_site_label
 _atom_site_symmetry_multiplicity
 _atom_site_fract_x
 _atom_site_fract_y
 _atom_site_fract_z
 _atom_site_occupancy
  Mg  Mg0  1  0.24977800  0.24977800  0.24977800  1
  Mg  Mg1  1  0.50000000  0.50000000  0.50000000  1
  Mg  Mg2  1  0.75022200  0.75022200  0.75022200  1
  Zn  Zn3  1  0.00000000  0.00000000  0.00000000  1
  O  O4  1  0.12507100  0.12507100  0.12507100  1
  O  O5  1  0.37651700  0.37651700  0.37651700  1
  O  O6  1  0.62348300  0.62348300  0.62348300  1
  O  O7  1  0.87492900  0.87492900  0.87492900  1
