# generated using pymatgen
data_Mg4FeO5
_symmetry_space_group_name_H-M   'P 1'
_cell_length_a   5.25868269
_cell_length_b   6.01697171
_cell_length_c   12.55852653
_cell_angle_alpha   89.99958633
_cell_angle_beta   98.46967215
_cell_angle_gamma   89.99994298
_symmetry_Int_Tables_number   1
_chemical_formula_structural   Mg4FeO5
_chemical_formula_sum   'Mg16 Fe4 O20'
_cell_volume   393.03495291
_cell_formula_units_Z   4
loop_
 _symmetry_equiv_pos_site_id
 _symmetry_equiv_pos_as_xyz
  1  'x, y, z'
loop_
 _atom_site_type_symbol
 _atom_site_label
 _atom_site_symmetry_multiplicity
 _atom_site_fract_x
 _atom_site_fract_y
 _atom_site_fract_z
 _atom_site_occupancy
  Mg  Mg0  1  0.40107000  0.49998200  0.20359900  1
  Mg  Mg1  1  0.90108300  0.24998400  0.20358500  1
  Mg  Mg2  1  0.40108500  0.00001400  0.20358600  1
  Mg  Mg3  1  0.90106200  0.75002000  0.20360200  1
  Mg  Mg4  1  0.59893200  0.49997900  0.79640000  1
  Mg  Mg5  1  0.09891400  0.24997900  0.79641800  1
  Mg  Mg6  1  0.59891700  0.00001500  0.79641300  1
  Mg  Mg7  1  0.09894000  0.75001400  0.79639500  1
  Mg  Mg8  1  0.30046800  0.24999700  0.40128800  1
  Mg  Mg9  1  0.80046500  0.99999800  0.40128600  1
  Mg  Mg10  1  0.30046700  0.75000000  0.40128700  1
  Mg  Mg11  1  0.80046300  0.49999800  0.40128700  1
  Mg  Mg12  1  0.69953500  0.74999900  0.59871400  1
  Mg  Mg13  1  0.19953600  0.49999500  0.59871300  1
  Mg  Mg14  1  0.69953600  0.24999700  0.59871400  1
  Mg  Mg15  1  0.19953500  0.99999900  0.59871400  1
  Fe  Fe16  1  0.49999500  0.75000700  0.99999500  1
  Fe  Fe17  1  0.99998800  0.50001800  0.00000500  1
  Fe  Fe18  1  0.49999700  0.24999600  0.99999700  1
  Fe  Fe19  1  0.00000800  0.00003600  0.00000000  1
  O  O20  1  0.50000000  0.49999500  0.50000000  1
  O  O21  1  0.00000000  0.25000000  0.50000000  1
  O  O22  1  0.50000100  0.99999500  0.50000000  1
  O  O23  1  0.00000100  0.75000000  0.50000000  1
  O  O24  1  0.80243900  0.75016300  0.89290700  1
  O  O25  1  0.30245200  0.49984100  0.89290500  1
  O  O26  1  0.80244500  0.25016000  0.89291800  1
  O  O27  1  0.30245900  0.99981600  0.89292300  1
  O  O28  1  0.19754100  0.25016100  0.10707800  1
  O  O29  1  0.69754200  0.99983800  0.10708100  1
  O  O30  1  0.19757300  0.75016300  0.10709800  1
  O  O31  1  0.69754700  0.49986000  0.10709200  1
  O  O32  1  0.39924200  0.24998400  0.69731300  1
  O  O33  1  0.89924700  0.00001200  0.69731300  1
  O  O34  1  0.39924900  0.74997600  0.69731200  1
  O  O35  1  0.89924900  0.50001600  0.69731200  1
  O  O36  1  0.60075300  0.74997700  0.30268800  1
  O  O37  1  0.10075100  0.50001700  0.30268700  1
  O  O38  1  0.60075500  0.24998700  0.30268600  1
  O  O39  1  0.10075600  0.00001300  0.30268700  1
