# generated using pymatgen
data_MgTe(PbO3)2
_symmetry_space_group_name_H-M   'P 1'
_cell_length_a   5.70867100
_cell_length_b   5.71013198
_cell_length_c   5.71368958
_cell_angle_alpha   60.13722316
_cell_angle_beta   60.15019257
_cell_angle_gamma   60.08295813
_symmetry_Int_Tables_number   1
_chemical_formula_structural   MgTe(PbO3)2
_chemical_formula_sum   'Mg1 Te1 Pb2 O6'
_cell_volume   132.06734852
_cell_formula_units_Z   1
loop_
 _symmetry_equiv_pos_site_id
 _symmetry_equiv_pos_as_xyz
  1  'x, y, z'
loop_
 _atom_site_type_symbol
 _atom_site_label
 _atom_site_symmetry_multiplicity
 _atom_site_fract_x
 _atom_site_fract_y
 _atom_site_fract_z
 _atom_site_occupancy
  Mg  Mg0  1  0.99039700  0.99992900  0.00528200  1
  Te  Te1  1  0.49597900  0.49998000  0.50195100  1
  Pb  Pb2  1  0.72861500  0.74258800  0.75939000  1
  Pb  Pb3  1  0.22440100  0.25747800  0.26488600  1
  O  O4  1  0.25228200  0.74255800  0.74012900  1
  O  O5  1  0.27143900  0.73938900  0.24569700  1
  O  O6  1  0.74267100  0.73523200  0.27438400  1
  O  O7  1  0.75249400  0.26155500  0.25896000  1
  O  O8  1  0.73331300  0.26389300  0.74653500  1
  O  O9  1  0.25840900  0.25739600  0.72878500  1
