# generated using pymatgen
data_Mg3Fe(SiO4)2
_symmetry_space_group_name_H-M   'P 1'
_cell_length_a   10.38069200
_cell_length_b   4.84815400
_cell_length_c   7.75121021
_cell_angle_alpha   51.57419883
_cell_angle_beta   90.00000000
_cell_angle_gamma   90.00000000
_symmetry_Int_Tables_number   1
_chemical_formula_structural   Mg3Fe(SiO4)2
_chemical_formula_sum   'Mg6 Fe2 Si4 O16'
_cell_volume   305.60705077
_cell_formula_units_Z   2
loop_
 _symmetry_equiv_pos_site_id
 _symmetry_equiv_pos_as_xyz
  1  'x, y, z'
loop_
 _atom_site_type_symbol
 _atom_site_label
 _atom_site_symmetry_multiplicity
 _atom_site_fract_x
 _atom_site_fract_y
 _atom_site_fract_z
 _atom_site_occupancy
  Mg  Mg0  1  0.50000000  0.00000000  0.50000000  1
  Mg  Mg1  1  0.00000000  0.00000000  0.00000000  1
  Mg  Mg2  1  0.77760500  0.25961100  0.24943000  1
  Mg  Mg3  1  0.27760500  0.74038900  0.25057000  1
  Mg  Mg4  1  0.22239500  0.74038900  0.75057000  1
  Mg  Mg5  1  0.72239500  0.25961100  0.74943000  1
  Fe  Fe6  1  0.50000000  0.50000000  0.00000000  1
  Fe  Fe7  1  0.00000000  0.50000000  0.50000000  1
  Si  Si8  1  0.59505200  0.82290100  0.25107200  1
  Si  Si9  1  0.09505200  0.17709900  0.24892800  1
  Si  Si10  1  0.40494800  0.17709900  0.74892800  1
  Si  Si11  1  0.90494800  0.82290100  0.75107200  1
  O  O12  1  0.59332000  0.48217000  0.25277600  1
  O  O13  1  0.09332000  0.51783000  0.24722400  1
  O  O14  1  0.40668000  0.51783000  0.74722400  1
  O  O15  1  0.90668000  0.48217000  0.75277600  1
  O  O16  1  0.94762800  0.03996500  0.24628200  1
  O  O17  1  0.44762800  0.96003500  0.25371800  1
  O  O18  1  0.05237200  0.96003500  0.75371800  1
  O  O19  1  0.55237200  0.03996500  0.74628200  1
  O  O20  1  0.66619400  0.17965900  0.03549700  1
  O  O21  1  0.16619400  0.82034100  0.46450300  1
  O  O22  1  0.33654600  0.24351200  0.53326900  1
  O  O23  1  0.83654600  0.75648800  0.96673100  1
  O  O24  1  0.33380600  0.82034100  0.96450300  1
  O  O25  1  0.83380600  0.17965900  0.53549700  1
  O  O26  1  0.66345400  0.75648800  0.46673100  1
  O  O27  1  0.16345400  0.24351200  0.03326900  1
