# generated using pymatgen
data_Mg4FeO5
_symmetry_space_group_name_H-M   'P 1'
_cell_length_a   6.08906669
_cell_length_b   9.00970810
_cell_length_c   7.42304039
_cell_angle_alpha   104.91835311
_cell_angle_beta   89.99885021
_cell_angle_gamma   90.00226664
_symmetry_Int_Tables_number   1
_chemical_formula_structural   Mg4FeO5
_chemical_formula_sum   'Mg16 Fe4 O20'
_cell_volume   393.50694912
_cell_formula_units_Z   4
loop_
 _symmetry_equiv_pos_site_id
 _symmetry_equiv_pos_as_xyz
  1  'x, y, z'
loop_
 _atom_site_type_symbol
 _atom_site_label
 _atom_site_symmetry_multiplicity
 _atom_site_fract_x
 _atom_site_fract_y
 _atom_site_fract_z
 _atom_site_occupancy
  Mg  Mg0  1  0.25001700  0.70041600  0.89937300  1
  Mg  Mg1  1  0.00002800  0.20039900  0.39937100  1
  Mg  Mg2  1  0.74998200  0.70038300  0.89936500  1
  Mg  Mg3  1  0.49997300  0.20040100  0.39936400  1
  Mg  Mg4  1  0.74998100  0.29960300  0.10062400  1
  Mg  Mg5  1  0.49997300  0.79959100  0.60062600  1
  Mg  Mg6  1  0.25001800  0.29960200  0.10063600  1
  Mg  Mg7  1  0.00002500  0.79961300  0.60063200  1
  Mg  Mg8  1  0.50001500  0.40194700  0.80177800  1
  Mg  Mg9  1  0.24998800  0.90195100  0.30175700  1
  Mg  Mg10  1  0.99998600  0.40195400  0.80176400  1
  Mg  Mg11  1  0.75001100  0.90195400  0.30178100  1
  Mg  Mg12  1  0.50001400  0.59805200  0.19823600  1
  Mg  Mg13  1  0.24999100  0.09805400  0.69822000  1
  Mg  Mg14  1  0.99998100  0.59805000  0.19822000  1
  Mg  Mg15  1  0.75000900  0.09804400  0.69823800  1
  Fe  Fe16  1  0.49994400  0.99998600  0.00000500  1
  Fe  Fe17  1  0.25007900  0.49998500  0.50003200  1
  Fe  Fe18  1  0.75009200  0.50000500  0.50000400  1
  Fe  Fe19  1  0.99990600  0.99999700  0.99999700  1
  O  O20  1  0.74997800  0.49999900  0.99999700  1
  O  O21  1  0.49997800  0.00000000  0.49999800  1
  O  O22  1  0.25002100  0.50000300  0.99999900  1
  O  O23  1  0.00002000  0.00000300  0.50000000  1
  O  O24  1  0.49997600  0.19942300  0.89797600  1
  O  O25  1  0.24997300  0.69941900  0.39794900  1
  O  O26  1  0.00003400  0.19946800  0.89802000  1
  O  O27  1  0.74999100  0.69947100  0.39802800  1
  O  O28  1  0.50002500  0.80057800  0.10202300  1
  O  O29  1  0.25002700  0.30058200  0.60204800  1
  O  O30  1  0.99998900  0.80053400  0.10197700  1
  O  O31  1  0.74998000  0.30053100  0.60197100  1
  O  O32  1  0.49993800  0.60468500  0.71063700  1
  O  O33  1  0.25004900  0.10471400  0.21062200  1
  O  O34  1  0.00003300  0.60471400  0.71062900  1
  O  O35  1  0.74997000  0.10469700  0.21063000  1
  O  O36  1  0.49994800  0.39529600  0.28936600  1
  O  O37  1  0.25005200  0.89531700  0.78936700  1
  O  O38  1  0.00003600  0.39530700  0.28936400  1
  O  O39  1  0.74996900  0.89527600  0.78937700  1
