# generated using pymatgen
data_Mg3Te2Pb6WO18
_symmetry_space_group_name_H-M   'P 1'
_cell_length_a   5.71493038
_cell_length_b   5.71493038
_cell_length_c   13.98936300
_cell_angle_alpha   90.00000000
_cell_angle_beta   90.00000000
_cell_angle_gamma   120.00000440
_symmetry_Int_Tables_number   1
_chemical_formula_structural   Mg3Te2Pb6WO18
_chemical_formula_sum   'Mg3 Te2 Pb6 W1 O18'
_cell_volume   395.68577747
_cell_formula_units_Z   1
loop_
 _symmetry_equiv_pos_site_id
 _symmetry_equiv_pos_as_xyz
  1  'x, y, z'
loop_
 _atom_site_type_symbol
 _atom_site_label
 _atom_site_symmetry_multiplicity
 _atom_site_fract_x
 _atom_site_fract_y
 _atom_site_fract_z
 _atom_site_occupancy
  Mg  Mg0  1  0.00000000  0.00000000  0.50000000  1
  Mg  Mg1  1  0.33333300  0.66666700  0.16609100  1
  Mg  Mg2  1  0.66666700  0.33333300  0.83390900  1
  Te  Te3  1  0.33333300  0.66666700  0.66651200  1
  Te  Te4  1  0.66666700  0.33333300  0.33348800  1
  Pb  Pb5  1  0.33333300  0.66666700  0.41656600  1
  Pb  Pb6  1  0.66666700  0.33333300  0.08369000  1
  Pb  Pb7  1  0.00000000  0.00000000  0.74963600  1
  Pb  Pb8  1  0.00000000  0.00000000  0.25036400  1
  Pb  Pb9  1  0.33333300  0.66666700  0.91631000  1
  Pb  Pb10  1  0.66666700  0.33333300  0.58343400  1
  W  W11  1  0.00000000  0.00000000  0.00000000  1
  O  O12  1  0.82745200  0.17254800  0.41366700  1
  O  O13  1  0.16145500  0.83854500  0.08077700  1
  O  O14  1  0.49376200  0.50623800  0.74697600  1
  O  O15  1  0.50623800  0.01247600  0.25302400  1
  O  O16  1  0.83854500  0.67709100  0.91922300  1
  O  O17  1  0.17254800  0.34509600  0.58633300  1
  O  O18  1  0.34509600  0.17254800  0.41366700  1
  O  O19  1  0.67709100  0.83854500  0.08077700  1
  O  O20  1  0.01247600  0.50623800  0.74697600  1
  O  O21  1  0.50623800  0.49376200  0.25302400  1
  O  O22  1  0.83854500  0.16145500  0.91922300  1
  O  O23  1  0.17254800  0.82745200  0.58633300  1
  O  O24  1  0.82745200  0.65490400  0.41366700  1
  O  O25  1  0.16145500  0.32290900  0.08077700  1
  O  O26  1  0.49376200  0.98752400  0.74697600  1
  O  O27  1  0.98752400  0.49376200  0.25302400  1
  O  O28  1  0.32290900  0.16145500  0.91922300  1
  O  O29  1  0.65490400  0.82745200  0.58633300  1
