# generated using pymatgen
data_MnZn(Si2O5)2
_symmetry_space_group_name_H-M   'P 1'
_cell_length_a   7.37135700
_cell_length_b   7.37135700
_cell_length_c   14.96427900
_cell_angle_alpha   90.00000000
_cell_angle_beta   90.00000000
_cell_angle_gamma   90.00000000
_symmetry_Int_Tables_number   1
_chemical_formula_structural   MnZn(Si2O5)2
_chemical_formula_sum   'Mn4 Zn4 Si16 O40'
_cell_volume   813.11259177
_cell_formula_units_Z   4
loop_
 _symmetry_equiv_pos_site_id
 _symmetry_equiv_pos_as_xyz
  1  'x, y, z'
loop_
 _atom_site_type_symbol
 _atom_site_label
 _atom_site_symmetry_multiplicity
 _atom_site_fract_x
 _atom_site_fract_y
 _atom_site_fract_z
 _atom_site_occupancy
  Mn  Mn0  1  0.50000000  0.00000000  0.55730100  1
  Mn  Mn1  1  0.00000000  0.50000000  0.94269900  1
  Mn  Mn2  1  0.00000000  0.50000000  0.44269900  1
  Mn  Mn3  1  0.50000000  0.00000000  0.05730100  1
  Zn  Zn4  1  0.50000000  0.50000000  0.50000000  1
  Zn  Zn5  1  0.00000000  0.00000000  0.50000000  1
  Zn  Zn6  1  0.00000000  0.00000000  0.00000000  1
  Zn  Zn7  1  0.50000000  0.50000000  0.00000000  1
  Si  Si8  1  0.15162600  0.23638100  0.64580400  1
  Si  Si9  1  0.84837400  0.76361900  0.64580400  1
  Si  Si10  1  0.23638100  0.15162600  0.85419600  1
  Si  Si11  1  0.73638100  0.34837400  0.64580400  1
  Si  Si12  1  0.26361900  0.65162600  0.64580400  1
  Si  Si13  1  0.34837400  0.73638100  0.85419600  1
  Si  Si14  1  0.65162600  0.26361900  0.85419600  1
  Si  Si15  1  0.76361900  0.84837400  0.85419600  1
  Si  Si16  1  0.34837400  0.26361900  0.35419600  1
  Si  Si17  1  0.65162600  0.73638100  0.35419600  1
  Si  Si18  1  0.26361900  0.34837400  0.14580400  1
  Si  Si19  1  0.76361900  0.15162600  0.35419600  1
  Si  Si20  1  0.23638100  0.84837400  0.35419600  1
  Si  Si21  1  0.15162600  0.76361900  0.14580400  1
  Si  Si22  1  0.84837400  0.23638100  0.14580400  1
  Si  Si23  1  0.73638100  0.65162600  0.14580400  1
  O  O24  1  0.22259700  0.08559500  0.57517600  1
  O  O25  1  0.77740300  0.91440500  0.57517600  1
  O  O26  1  0.08559500  0.22259700  0.92482400  1
  O  O27  1  0.58559500  0.27740300  0.57517600  1
  O  O28  1  0.41440500  0.72259700  0.57517600  1
  O  O29  1  0.27740300  0.58559500  0.92482400  1
  O  O30  1  0.72259700  0.41440500  0.92482400  1
  O  O31  1  0.91440500  0.77740300  0.92482400  1
  O  O32  1  0.27740300  0.41440500  0.42482400  1
  O  O33  1  0.72259700  0.58559500  0.42482400  1
  O  O34  1  0.41440500  0.27740300  0.07517600  1
  O  O35  1  0.91440500  0.22259700  0.42482400  1
  O  O36  1  0.08559500  0.77740300  0.42482400  1
  O  O37  1  0.22259700  0.91440500  0.07517600  1
  O  O38  1  0.77740300  0.08559500  0.07517600  1
  O  O39  1  0.25791500  0.06547500  0.37270400  1
  O  O40  1  0.58559500  0.72259700  0.07517600  1
  O  O41  1  0.75791500  0.56547500  0.62729600  1
  O  O42  1  0.43452500  0.24208500  0.87270400  1
  O  O43  1  0.93452500  0.25791500  0.62729600  1
  O  O44  1  0.06547500  0.74208500  0.62729600  1
  O  O45  1  0.25791500  0.93452500  0.87270400  1
  O  O46  1  0.74208500  0.06547500  0.87270400  1
  O  O47  1  0.56547500  0.75791500  0.87270400  1
  O  O48  1  0.68340000  0.68340000  0.25000000  1
  O  O49  1  0.81660000  0.18340000  0.25000000  1
  O  O50  1  0.18340000  0.81660000  0.25000000  1
  O  O51  1  0.31660000  0.31660000  0.25000000  1
  O  O52  1  0.81660000  0.81660000  0.75000000  1
  O  O53  1  0.68340000  0.31660000  0.75000000  1
  O  O54  1  0.31660000  0.68340000  0.75000000  1
  O  O55  1  0.18340000  0.18340000  0.75000000  1
  O  O56  1  0.93452500  0.74208500  0.12729600  1
  O  O57  1  0.75791500  0.43452500  0.12729600  1
  O  O58  1  0.24208500  0.56547500  0.12729600  1
  O  O59  1  0.43452500  0.75791500  0.37270400  1
  O  O60  1  0.56547500  0.24208500  0.37270400  1
  O  O61  1  0.06547500  0.25791500  0.12729600  1
  O  O62  1  0.74208500  0.93452500  0.37270400  1
  O  O63  1  0.24208500  0.43452500  0.62729600  1
