# generated using pymatgen
data_Lu(AlCr)6
_symmetry_space_group_name_H-M   'P 1'
_cell_length_a   6.66246104
_cell_length_b   6.66246104
_cell_length_c   6.66246104
_cell_angle_alpha   135.49547791
_cell_angle_beta   98.92704124
_cell_angle_gamma   97.56369148
_symmetry_Int_Tables_number   1
_chemical_formula_structural   Lu(AlCr)6
_chemical_formula_sum   'Lu1 Al6 Cr6'
_cell_volume   191.84395179
_cell_formula_units_Z   1
loop_
 _symmetry_equiv_pos_site_id
 _symmetry_equiv_pos_as_xyz
  1  'x, y, z'
loop_
 _atom_site_type_symbol
 _atom_site_label
 _atom_site_symmetry_multiplicity
 _atom_site_fract_x
 _atom_site_fract_y
 _atom_site_fract_z
 _atom_site_occupancy
  Lu  Lu0  1  0.00000000  0.00000000  0.00000000  1
  Al  Al1  1  0.34588400  0.00000000  0.34588400  1
  Al  Al2  1  0.65411600  0.00000000  0.65411600  1
  Al  Al3  1  0.33117000  0.33117000  0.00000000  1
  Al  Al4  1  0.66883000  0.66883000  0.00000000  1
  Al  Al5  1  0.80528700  0.50000000  0.30528700  1
  Al  Al6  1  0.19471300  0.50000000  0.69471300  1
  Cr  Cr7  1  0.00000000  0.50000000  0.00000000  1
  Cr  Cr8  1  0.00000000  0.00000000  0.50000000  1
  Cr  Cr9  1  0.50000000  0.00000000  0.00000000  1
  Cr  Cr10  1  0.50000000  0.50000000  0.50000000  1
  Cr  Cr11  1  0.76173200  0.26173200  0.50000000  1
  Cr  Cr12  1  0.23826800  0.73826800  0.50000000  1
