# generated using pymatgen
data_Lu(CrFe5)2
_symmetry_space_group_name_H-M   'P 1'
_cell_length_a   4.67043400
_cell_length_b   6.34762382
_cell_length_c   6.34762382
_cell_angle_alpha   97.22666183
_cell_angle_beta   111.58543690
_cell_angle_gamma   68.41456310
_symmetry_Int_Tables_number   1
_chemical_formula_structural   Lu(CrFe5)2
_chemical_formula_sum   'Lu1 Cr2 Fe10'
_cell_volume   162.70377239
_cell_formula_units_Z   1
loop_
 _symmetry_equiv_pos_site_id
 _symmetry_equiv_pos_as_xyz
  1  'x, y, z'
loop_
 _atom_site_type_symbol
 _atom_site_label
 _atom_site_symmetry_multiplicity
 _atom_site_fract_x
 _atom_site_fract_y
 _atom_site_fract_z
 _atom_site_occupancy
  Lu  Lu0  1  0.00000000  0.00000000  0.00000000  1
  Cr  Cr1  1  0.00000000  0.36762900  0.36762900  1
  Cr  Cr2  1  0.00000000  0.63237100  0.63237100  1
  Fe  Fe3  1  0.72273300  0.77726700  0.22273300  1
  Fe  Fe4  1  0.27726700  0.22273300  0.77726700  1
  Fe  Fe5  1  0.50000000  0.77388600  0.77388600  1
  Fe  Fe6  1  0.50000000  0.22611400  0.22611400  1
  Fe  Fe7  1  0.50000000  0.00000000  0.50000000  1
  Fe  Fe8  1  0.00000000  0.00000000  0.50000000  1
  Fe  Fe9  1  0.50000000  0.50000000  0.00000000  1
  Fe  Fe10  1  0.00000000  0.50000000  0.00000000  1
  Fe  Fe11  1  0.64160200  0.35839800  0.64160200  1
  Fe  Fe12  1  0.35839800  0.64160200  0.35839800  1
