# generated using pymatgen
data_Li8CuN3
_symmetry_space_group_name_H-M   'P 1'
_cell_length_a   3.65909369
_cell_length_b   5.25937006
_cell_length_c   7.37693530
_cell_angle_alpha   98.35495918
_cell_angle_beta   90.00000187
_cell_angle_gamma   69.64325119
_symmetry_Int_Tables_number   1
_chemical_formula_structural   Li8CuN3
_chemical_formula_sum   'Li8 Cu1 N3'
_cell_volume   131.49089291
_cell_formula_units_Z   1
loop_
 _symmetry_equiv_pos_site_id
 _symmetry_equiv_pos_as_xyz
  1  'x, y, z'
loop_
 _atom_site_type_symbol
 _atom_site_label
 _atom_site_symmetry_multiplicity
 _atom_site_fract_x
 _atom_site_fract_y
 _atom_site_fract_z
 _atom_site_occupancy
  Li  Li0  1  0.23260600  0.53476100  0.43706300  1
  Li  Li1  1  0.88490700  0.23018700  0.78020300  1
  Li  Li2  1  0.54921700  0.90151700  0.11640100  1
  Li  Li3  1  0.43403300  0.13190600  0.89627000  1
  Li  Li4  1  0.11740100  0.76515000  0.21693200  1
  Li  Li5  1  0.78176100  0.43647900  0.55313100  1
  Li  Li6  1  0.50160000  0.99680500  0.49614500  1
  Li  Li7  1  0.16507200  0.66986200  0.83718800  1
  Cu  Cu8  1  0.83320000  0.33333300  0.16666700  1
  N  N9  1  0.33333700  0.33333300  0.66666700  1
  N  N10  1  0.99721900  0.00545900  0.00228400  1
  N  N11  1  0.66934500  0.66120800  0.33104900  1
