# generated using pymatgen
data_MnH3C5NO6
_symmetry_space_group_name_H-M   'P 1'
_cell_length_a   8.04269945
_cell_length_b   7.99916633
_cell_length_c   8.80408610
_cell_angle_alpha   89.70597103
_cell_angle_beta   61.79509447
_cell_angle_gamma   119.18750229
_symmetry_Int_Tables_number   1
_chemical_formula_structural   MnH3C5NO6
_chemical_formula_sum   'Mn2 H6 C10 N2 O12'
_cell_volume   414.83919823
_cell_formula_units_Z   2
loop_
 _symmetry_equiv_pos_site_id
 _symmetry_equiv_pos_as_xyz
  1  'x, y, z'
loop_
 _atom_site_type_symbol
 _atom_site_label
 _atom_site_symmetry_multiplicity
 _atom_site_fract_x
 _atom_site_fract_y
 _atom_site_fract_z
 _atom_site_occupancy
  Mn  Mn0  1  0.99892100  0.49813200  0.50009600  1
  Mn  Mn1  1  0.99999600  0.99911700  0.00030500  1
  H  H2  1  0.50830700  0.64996800  0.24523400  1
  H  H3  1  0.89702000  0.25746500  0.25798400  1
  H  H4  1  0.09718500  0.85036100  0.24637800  1
  H  H5  1  0.10256500  0.74560400  0.74234700  1
  H  H6  1  0.89891700  0.14737800  0.75322200  1
  H  H7  1  0.49154800  0.34783200  0.75454700  1
  C  C8  1  0.50807200  0.78751900  0.24720400  1
  C  C9  1  0.03448000  0.25634500  0.25619300  1
  C  C10  1  0.96204400  0.71385700  0.24671500  1
  C  C11  1  0.96184400  0.74143700  0.74566400  1
  C  C12  1  0.03593400  0.28247900  0.75207600  1
  C  C13  1  0.49195300  0.21028000  0.75279100  1
  C  C14  1  0.36578300  0.16715100  0.41852700  1
  C  C15  1  0.39630400  0.67122200  0.91831600  1
  C  C16  1  0.60183400  0.77917000  0.58096800  1
  C  C17  1  0.59228500  0.28794400  0.08052800  1
  N  N18  1  0.48161300  0.23103100  0.24943100  1
  N  N19  1  0.49938300  0.72632300  0.74956500  1
  O  O20  1  0.32269100  0.77448600  0.34017600  1
  O  O21  1  0.11047300  0.35243200  0.34969700  1
  O  O22  1  0.88500900  0.54342600  0.33951800  1
  O  O23  1  0.87697300  0.82896300  0.83946800  1
  O  O24  1  0.11066100  0.26136600  0.84618400  1
  O  O25  1  0.30107000  0.03917500  0.84588000  1
  O  O26  1  0.67670800  0.22280900  0.66082400  1
  O  O27  1  0.88797200  0.64453500  0.65131200  1
  O  O28  1  0.11589600  0.45388600  0.65827600  1
  O  O29  1  0.11312600  0.16307400  0.16585500  1
  O  O30  1  0.88840100  0.73405100  0.15152600  1
  O  O31  1  0.69846600  0.95850900  0.15365400  1
