# generated using pymatgen
data_Mg(BrO2)2
_symmetry_space_group_name_H-M   'P 1'
_cell_length_a   3.97293500
_cell_length_b   8.04630744
_cell_length_c   3.79056963
_cell_angle_alpha   99.96616194
_cell_angle_beta   90.00000000
_cell_angle_gamma   75.70707639
_symmetry_Int_Tables_number   1
_chemical_formula_structural   Mg(BrO2)2
_chemical_formula_sum   'Mg1 Br2 O4'
_cell_volume   115.53619168
_cell_formula_units_Z   1
loop_
 _symmetry_equiv_pos_site_id
 _symmetry_equiv_pos_as_xyz
  1  'x, y, z'
loop_
 _atom_site_type_symbol
 _atom_site_label
 _atom_site_symmetry_multiplicity
 _atom_site_fract_x
 _atom_site_fract_y
 _atom_site_fract_z
 _atom_site_occupancy
  Mg  Mg0  1  0.50000000  0.00000000  0.50000000  1
  Br  Br1  1  0.66427500  0.67144900  0.87541000  1
  Br  Br2  1  0.33572500  0.32855100  0.12459000  1
  O  O3  1  0.00000000  0.00000000  0.50000000  1
  O  O4  1  0.00000000  0.00000000  0.00000000  1
  O  O5  1  0.36264600  0.27470900  0.60589000  1
  O  O6  1  0.63735400  0.72529100  0.39411000  1
