# generated using pymatgen
data_Mn3Al4FeP4(H4O7)4
_symmetry_space_group_name_H-M   'P 1'
_cell_length_a   6.59370512
_cell_length_b   6.59370512
_cell_length_c   13.05188623
_cell_angle_alpha   89.84864509
_cell_angle_beta   89.84864509
_cell_angle_gamma   108.13018094
_symmetry_Int_Tables_number   1
_chemical_formula_structural   Mn3Al4FeP4(H4O7)4
_chemical_formula_sum   'Mn3 Al4 Fe1 P4 H16 O28'
_cell_volume   539.27761280
_cell_formula_units_Z   1
loop_
 _symmetry_equiv_pos_site_id
 _symmetry_equiv_pos_as_xyz
  1  'x, y, z'
loop_
 _atom_site_type_symbol
 _atom_site_label
 _atom_site_symmetry_multiplicity
 _atom_site_fract_x
 _atom_site_fract_y
 _atom_site_fract_z
 _atom_site_occupancy
  Mn  Mn0  1  0.35938200  0.64061800  0.00000000  1
  Mn  Mn1  1  0.87481000  0.12519000  0.00000000  1
  Mn  Mn2  1  0.62412700  0.37587300  0.50000000  1
  Al  Al3  1  0.01218900  0.03580900  0.25900800  1
  Al  Al4  1  0.53368900  0.50685700  0.24212100  1
  Al  Al5  1  0.96419100  0.98781100  0.74099200  1
  Al  Al6  1  0.49314300  0.46631100  0.75787900  1
  Fe  Fe7  1  0.13755000  0.86245000  0.50000000  1
  P  P8  1  0.13730400  0.37453500  0.58275700  1
  P  P9  1  0.86953700  0.63954600  0.91824300  1
  P  P10  1  0.36045400  0.13046300  0.08175700  1
  P  P11  1  0.62546500  0.86269600  0.41724300  1
  H  H12  1  0.14753300  0.75495000  0.67729400  1
  H  H13  1  0.26446400  0.66404800  0.81613600  1
  H  H14  1  0.74039500  0.16201100  0.17619700  1
  H  H15  1  0.68472600  0.24912700  0.32533800  1
  H  H16  1  0.83798900  0.25960500  0.82380300  1
  H  H17  1  0.75087300  0.31527400  0.67466200  1
  H  H18  1  0.24505000  0.85246700  0.32270600  1
  H  H19  1  0.33595200  0.73553600  0.18386400  1
  H  H20  1  0.21211200  0.29247900  0.39801000  1
  H  H21  1  0.90018600  0.58930100  0.17212600  1
  H  H22  1  0.28307700  0.21457000  0.89610100  1
  H  H23  1  0.56731500  0.85459200  0.69161600  1
  H  H24  1  0.78543000  0.71692300  0.10389900  1
  H  H25  1  0.14540800  0.43268500  0.30838400  1
  H  H26  1  0.70752100  0.78788800  0.60199000  1
  H  H27  1  0.41069900  0.09981400  0.82787400  1
  O  O28  1  0.12845300  0.88811900  0.65335200  1
  O  O29  1  0.39403200  0.63930600  0.84126100  1
  O  O30  1  0.87525300  0.13636600  0.15961000  1
  O  O31  1  0.64704500  0.37894600  0.33997000  1
  O  O32  1  0.86363400  0.12474700  0.84039000  1
  O  O33  1  0.62105400  0.35295500  0.66003000  1
  O  O34  1  0.11188100  0.87154700  0.34664800  1
  O  O35  1  0.36069400  0.60596800  0.15873900  1
  O  O36  1  0.00901200  0.79903400  0.83904200  1
  O  O37  1  0.30437500  0.51199700  0.65880700  1
  O  O38  1  0.79728900  0.03012400  0.35300600  1
  O  O39  1  0.53250400  0.30189800  0.14269300  1
  O  O40  1  0.96987600  0.20271100  0.64699400  1
  O  O41  1  0.69810200  0.46749600  0.85730700  1
  O  O42  1  0.20096600  0.99098800  0.16095800  1
  O  O43  1  0.48800300  0.69562500  0.34119300  1
  O  O44  1  0.48850200  0.97717000  0.47424900  1
  O  O45  1  0.47023900  0.99469100  0.02052600  1
  O  O46  1  0.00530900  0.52976100  0.97947400  1
  O  O47  1  0.02283000  0.51149800  0.52575100  1
  O  O48  1  0.19151500  0.30618200  0.31663400  1
  O  O49  1  0.80597800  0.67781800  0.18076600  1
  O  O50  1  0.32218200  0.19402200  0.81923400  1
  O  O51  1  0.69381800  0.80848500  0.68336600  1
  O  O52  1  0.25209500  0.26585500  0.50438300  1
  O  O53  1  0.76113500  0.76049300  0.99351300  1
  O  O54  1  0.23950700  0.23886500  0.00648700  1
  O  O55  1  0.73414500  0.74790500  0.49561700  1
