# generated using pymatgen
data_CaFe(Si2O5)2
_symmetry_space_group_name_H-M   'P 1'
_cell_length_a   7.47581400
_cell_length_b   7.47581400
_cell_length_c   15.38404000
_cell_angle_alpha   90.00000000
_cell_angle_beta   90.00000000
_cell_angle_gamma   90.00000000
_symmetry_Int_Tables_number   1
_chemical_formula_structural   CaFe(Si2O5)2
_chemical_formula_sum   'Ca4 Fe4 Si16 O40'
_cell_volume   859.78007322
_cell_formula_units_Z   4
loop_
 _symmetry_equiv_pos_site_id
 _symmetry_equiv_pos_as_xyz
  1  'x, y, z'
loop_
 _atom_site_type_symbol
 _atom_site_label
 _atom_site_symmetry_multiplicity
 _atom_site_fract_x
 _atom_site_fract_y
 _atom_site_fract_z
 _atom_site_occupancy
  Ca  Ca0  1  0.50000000  0.50000000  0.50000000  1
  Ca  Ca1  1  0.00000000  0.00000000  0.50000000  1
  Ca  Ca2  1  0.00000000  0.00000000  0.00000000  1
  Ca  Ca3  1  0.50000000  0.50000000  0.00000000  1
  Fe  Fe4  1  0.50000000  0.00000000  0.58011500  1
  Fe  Fe5  1  0.00000000  0.50000000  0.91988500  1
  Fe  Fe6  1  0.00000000  0.50000000  0.41988500  1
  Fe  Fe7  1  0.50000000  0.00000000  0.08011500  1
  Si  Si8  1  0.17139200  0.25261000  0.64816800  1
  Si  Si9  1  0.82860800  0.74739000  0.64816800  1
  Si  Si10  1  0.25261000  0.17139200  0.85183200  1
  Si  Si11  1  0.75261000  0.32860800  0.64816800  1
  Si  Si12  1  0.24739000  0.67139200  0.64816800  1
  Si  Si13  1  0.32860800  0.75261000  0.85183200  1
  Si  Si14  1  0.67139200  0.24739000  0.85183200  1
  Si  Si15  1  0.74739000  0.82860800  0.85183200  1
  Si  Si16  1  0.32860800  0.24739000  0.35183200  1
  Si  Si17  1  0.67139200  0.75261000  0.35183200  1
  Si  Si18  1  0.24739000  0.32860800  0.14816800  1
  Si  Si19  1  0.74739000  0.17139200  0.35183200  1
  Si  Si20  1  0.25261000  0.82860800  0.35183200  1
  Si  Si21  1  0.17139200  0.74739000  0.14816800  1
  Si  Si22  1  0.82860800  0.25261000  0.14816800  1
  Si  Si23  1  0.75261000  0.67139200  0.14816800  1
  O  O24  1  0.24968600  0.10518100  0.58240200  1
  O  O25  1  0.75031400  0.89481900  0.58240200  1
  O  O26  1  0.10518100  0.24968600  0.91759800  1
  O  O27  1  0.60518100  0.25031400  0.58240200  1
  O  O28  1  0.39481900  0.74968600  0.58240200  1
  O  O29  1  0.25031400  0.60518100  0.91759800  1
  O  O30  1  0.74968600  0.39481900  0.91759800  1
  O  O31  1  0.89481900  0.75031400  0.91759800  1
  O  O32  1  0.25031400  0.39481900  0.41759800  1
  O  O33  1  0.74968600  0.60518100  0.41759800  1
  O  O34  1  0.39481900  0.25031400  0.08240200  1
  O  O35  1  0.89481900  0.24968600  0.41759800  1
  O  O36  1  0.10518100  0.75031400  0.41759800  1
  O  O37  1  0.24968600  0.89481900  0.08240200  1
  O  O38  1  0.75031400  0.10518100  0.08240200  1
  O  O39  1  0.25144700  0.04558300  0.37194400  1
  O  O40  1  0.60518100  0.74968600  0.08240200  1
  O  O41  1  0.75144700  0.54558300  0.62805600  1
  O  O42  1  0.45441700  0.24855300  0.87194400  1
  O  O43  1  0.95441700  0.25144700  0.62805600  1
  O  O44  1  0.04558300  0.74855300  0.62805600  1
  O  O45  1  0.25144700  0.95441700  0.87194400  1
  O  O46  1  0.74855300  0.04558300  0.87194400  1
  O  O47  1  0.54558300  0.75144700  0.87194400  1
  O  O48  1  0.70833900  0.70833900  0.25000000  1
  O  O49  1  0.79166100  0.20833900  0.25000000  1
  O  O50  1  0.20833900  0.79166100  0.25000000  1
  O  O51  1  0.29166100  0.29166100  0.25000000  1
  O  O52  1  0.79166100  0.79166100  0.75000000  1
  O  O53  1  0.70833900  0.29166100  0.75000000  1
  O  O54  1  0.29166100  0.70833900  0.75000000  1
  O  O55  1  0.20833900  0.20833900  0.75000000  1
  O  O56  1  0.95441700  0.74855300  0.12805600  1
  O  O57  1  0.75144700  0.45441700  0.12805600  1
  O  O58  1  0.24855300  0.54558300  0.12805600  1
  O  O59  1  0.45441700  0.75144700  0.37194400  1
  O  O60  1  0.54558300  0.24855300  0.37194400  1
  O  O61  1  0.04558300  0.25144700  0.12805600  1
  O  O62  1  0.74855300  0.95441700  0.37194400  1
  O  O63  1  0.24855300  0.45441700  0.62805600  1
