# generated using pymatgen
data_Cd4SF6
_symmetry_space_group_name_H-M   'P 1'
_cell_length_a   12.81208474
_cell_length_b   12.81208474
_cell_length_c   12.81208479
_cell_angle_alpha   17.52382160
_cell_angle_beta   17.52382160
_cell_angle_gamma   17.52382083
_symmetry_Int_Tables_number   1
_chemical_formula_structural   Cd4SF6
_chemical_formula_sum   'Cd4 S1 F6'
_cell_volume   166.41402839
_cell_formula_units_Z   1
loop_
 _symmetry_equiv_pos_site_id
 _symmetry_equiv_pos_as_xyz
  1  'x, y, z'
loop_
 _atom_site_type_symbol
 _atom_site_label
 _atom_site_symmetry_multiplicity
 _atom_site_fract_x
 _atom_site_fract_y
 _atom_site_fract_z
 _atom_site_occupancy
  Cd  Cd0  1  0.79173700  0.79173700  0.79173700  1
  Cd  Cd1  1  0.20826300  0.20826300  0.20826300  1
  Cd  Cd2  1  0.37402300  0.37402300  0.37402300  1
  Cd  Cd3  1  0.62597700  0.62597700  0.62597700  1
  S  S4  1  0.00000000  0.00000000  0.00000000  1
  F  F5  1  0.85426700  0.85426700  0.85426700  1
  F  F6  1  0.14573300  0.14573300  0.14573300  1
  F  F7  1  0.56299300  0.56299300  0.56299300  1
  F  F8  1  0.43700700  0.43700700  0.43700700  1
  F  F9  1  0.27036000  0.27036000  0.27036000  1
  F  F10  1  0.72964000  0.72964000  0.72964000  1
