# generated using pymatgen
data_MgBrClO6
_symmetry_space_group_name_H-M   'P 1'
_cell_length_a   4.40328785
_cell_length_b   6.03116109
_cell_length_c   6.03116109
_cell_angle_alpha   81.60569959
_cell_angle_beta   72.36950204
_cell_angle_gamma   72.36950204
_symmetry_Int_Tables_number   1
_chemical_formula_structural   MgBrClO6
_chemical_formula_sum   'Mg1 Br1 Cl1 O6'
_cell_volume   145.21638541
_cell_formula_units_Z   1
loop_
 _symmetry_equiv_pos_site_id
 _symmetry_equiv_pos_as_xyz
  1  'x, y, z'
loop_
 _atom_site_type_symbol
 _atom_site_label
 _atom_site_symmetry_multiplicity
 _atom_site_fract_x
 _atom_site_fract_y
 _atom_site_fract_z
 _atom_site_occupancy
  Mg  Mg0  1  0.99951800  0.99766700  0.99766700  1
  Br  Br1  1  0.69560500  0.66942100  0.66942100  1
  Cl  Cl2  1  0.33842500  0.32203700  0.32203700  1
  O  O3  1  0.73872600  0.23619100  0.23619100  1
  O  O4  1  0.25542000  0.75916600  0.75916600  1
  O  O5  1  0.65185000  0.15382700  0.78714100  1
  O  O6  1  0.65185000  0.78714100  0.15382700  1
  O  O7  1  0.33430300  0.85572500  0.21882400  1
  O  O8  1  0.33430300  0.21882400  0.85572500  1
