# generated using pymatgen
data_Ca3V2(Si2O7)2
_symmetry_space_group_name_H-M   'P 1'
_cell_length_a   9.44762264
_cell_length_b   9.44762264
_cell_length_c   10.19837995
_cell_angle_alpha   59.07631693
_cell_angle_beta   59.07631693
_cell_angle_gamma   48.50669507
_symmetry_Int_Tables_number   1
_chemical_formula_structural   Ca3V2(Si2O7)2
_chemical_formula_sum   'Ca6 V4 Si8 O28'
_cell_volume   563.20517253
_cell_formula_units_Z   2
loop_
 _symmetry_equiv_pos_site_id
 _symmetry_equiv_pos_as_xyz
  1  'x, y, z'
loop_
 _atom_site_type_symbol
 _atom_site_label
 _atom_site_symmetry_multiplicity
 _atom_site_fract_x
 _atom_site_fract_y
 _atom_site_fract_z
 _atom_site_occupancy
  Ca  Ca0  1  0.23588900  0.16433500  0.53654700  1
  Ca  Ca1  1  0.83566500  0.76411100  0.96345300  1
  Ca  Ca2  1  0.16433500  0.23588900  0.03654700  1
  Ca  Ca3  1  0.64996500  0.35003500  0.25000000  1
  Ca  Ca4  1  0.76411100  0.83566500  0.46345300  1
  Ca  Ca5  1  0.35003500  0.64996500  0.75000000  1
  V  V6  1  0.20329200  0.79670800  0.25000000  1
  V  V7  1  0.79670800  0.20329200  0.75000000  1
  V  V8  1  0.00000000  0.00000000  0.00000000  1
  V  V9  1  0.00000000  0.00000000  0.50000000  1
  Si  Si10  1  0.11547400  0.53489600  0.65279900  1
  Si  Si11  1  0.53489600  0.11547400  0.15279900  1
  Si  Si12  1  0.21534600  0.53184000  0.14716700  1
  Si  Si13  1  0.53184000  0.21534600  0.64716700  1
  Si  Si14  1  0.46510400  0.88452600  0.84720100  1
  Si  Si15  1  0.78465400  0.46816000  0.85283300  1
  Si  Si16  1  0.46816000  0.78465400  0.35283300  1
  Si  Si17  1  0.88452600  0.46510400  0.34720100  1
  O  O18  1  0.29030800  0.87870000  0.50106800  1
  O  O19  1  0.89262000  0.96079200  0.72676400  1
  O  O20  1  0.64777700  0.46197200  0.80885900  1
  O  O21  1  0.96079200  0.89262000  0.22676400  1
  O  O22  1  0.92965300  0.26591100  0.49409700  1
  O  O23  1  0.49973000  0.05226300  0.81849000  1
  O  O24  1  0.46197200  0.64777700  0.30885900  1
  O  O25  1  0.73408900  0.07034700  0.00590300  1
  O  O26  1  0.50027000  0.94773700  0.18151000  1
  O  O27  1  0.67184700  0.65801900  0.41016000  1
  O  O28  1  0.10738000  0.03920800  0.27323600  1
  O  O29  1  0.07034700  0.73408900  0.50590300  1
  O  O30  1  0.94773700  0.50027000  0.68151000  1
  O  O31  1  0.87870000  0.29030800  0.00106800  1
  O  O32  1  0.65801900  0.67184700  0.91016000  1
  O  O33  1  0.26591100  0.92965300  0.99409700  1
  O  O34  1  0.46928500  0.89411700  0.68284400  1
  O  O35  1  0.32815300  0.34198100  0.58984000  1
  O  O36  1  0.10588300  0.53071500  0.81715600  1
  O  O37  1  0.34198100  0.32815300  0.08984000  1
  O  O38  1  0.05226300  0.49973000  0.31849000  1
  O  O39  1  0.03920800  0.10738000  0.77323600  1
  O  O40  1  0.89411700  0.46928500  0.18284400  1
  O  O41  1  0.35222300  0.53802800  0.19114100  1
  O  O42  1  0.53071500  0.10588300  0.31715600  1
  O  O43  1  0.53802800  0.35222300  0.69114100  1
  O  O44  1  0.12130000  0.70969200  0.99893200  1
  O  O45  1  0.70969200  0.12130000  0.49893200  1
