# generated using pymatgen
data_LaU2O6
_symmetry_space_group_name_H-M   'P 1'
_cell_length_a   6.67963560
_cell_length_b   6.67963560
_cell_length_c   6.67963560
_cell_angle_alpha   146.18145529
_cell_angle_beta   131.09314879
_cell_angle_gamma   60.78491259
_symmetry_Int_Tables_number   1
_chemical_formula_structural   LaU2O6
_chemical_formula_sum   'La1 U2 O6'
_cell_volume   123.80804870
_cell_formula_units_Z   1
loop_
 _symmetry_equiv_pos_site_id
 _symmetry_equiv_pos_as_xyz
  1  'x, y, z'
loop_
 _atom_site_type_symbol
 _atom_site_label
 _atom_site_symmetry_multiplicity
 _atom_site_fract_x
 _atom_site_fract_y
 _atom_site_fract_z
 _atom_site_occupancy
  La  La0  1  0.00000000  0.00000000  0.00000000  1
  U  U1  1  0.66658400  0.66658400  0.00000000  1
  U  U2  1  0.33341600  0.33341600  0.00000000  1
  O  O3  1  0.72853000  0.50000000  0.22853000  1
  O  O4  1  0.43514300  0.17469000  0.26045300  1
  O  O5  1  0.08576300  0.82531000  0.26045300  1
  O  O6  1  0.27147000  0.50000000  0.77147000  1
  O  O7  1  0.91423700  0.17469000  0.73954700  1
  O  O8  1  0.56485700  0.82531000  0.73954700  1
