# generated using pymatgen
data_LaY
_symmetry_space_group_name_H-M   'P 1'
_cell_length_a   18.17400373
_cell_length_b   18.17400373
_cell_length_c   18.17400420
_cell_angle_alpha   11.60659671
_cell_angle_beta   11.60659671
_cell_angle_gamma   11.60659424
_symmetry_Int_Tables_number   1
_chemical_formula_structural   LaY
_chemical_formula_sum   'La3 Y3'
_cell_volume   211.14499755
_cell_formula_units_Z   3
loop_
 _symmetry_equiv_pos_site_id
 _symmetry_equiv_pos_as_xyz
  1  'x, y, z'
loop_
 _atom_site_type_symbol
 _atom_site_label
 _atom_site_symmetry_multiplicity
 _atom_site_fract_x
 _atom_site_fract_y
 _atom_site_fract_z
 _atom_site_occupancy
  La  La0  1  0.38786800  0.38786800  0.38786800  1
  La  La1  1  0.88888300  0.88888300  0.88888300  1
  La  La2  1  0.11212400  0.11212400  0.11212400  1
  Y  Y3  1  0.61229100  0.61229100  0.61229100  1
  Y  Y4  1  0.99848200  0.99848200  0.99848200  1
  Y  Y5  1  0.50035200  0.50035200  0.50035200  1
