# generated using pymatgen
data_LaSbPd
_symmetry_space_group_name_H-M   'P 1'
_cell_length_a   4.92135076
_cell_length_b   4.92135076
_cell_length_c   7.49307100
_cell_angle_alpha   90.00000000
_cell_angle_beta   90.00000000
_cell_angle_gamma   120.00001023
_symmetry_Int_Tables_number   1
_chemical_formula_structural   LaSbPd
_chemical_formula_sum   'La2 Sb2 Pd2'
_cell_volume   157.16617154
_cell_formula_units_Z   2
loop_
 _symmetry_equiv_pos_site_id
 _symmetry_equiv_pos_as_xyz
  1  'x, y, z'
loop_
 _atom_site_type_symbol
 _atom_site_label
 _atom_site_symmetry_multiplicity
 _atom_site_fract_x
 _atom_site_fract_y
 _atom_site_fract_z
 _atom_site_occupancy
  La  La0  1  0.00000000  0.00000000  0.27430600  1
  La  La1  1  0.00000000  0.00000000  0.72569400  1
  Sb  Sb2  1  0.66666700  0.33333300  0.96413100  1
  Sb  Sb3  1  0.33333300  0.66666700  0.03586900  1
  Pd  Pd4  1  0.33333300  0.66666700  0.46362200  1
  Pd  Pd5  1  0.66666700  0.33333300  0.53637800  1
