# generated using pymatgen
data_Lu3(MnGa2)2
_symmetry_space_group_name_H-M   'P 1'
_cell_length_a   7.50692633
_cell_length_b   7.50692633
_cell_length_c   3.53210100
_cell_angle_alpha   90.00000000
_cell_angle_beta   90.00000000
_cell_angle_gamma   120.00000290
_symmetry_Int_Tables_number   1
_chemical_formula_structural   Lu3(MnGa2)2
_chemical_formula_sum   'Lu3 Mn2 Ga4'
_cell_volume   172.38046200
_cell_formula_units_Z   1
loop_
 _symmetry_equiv_pos_site_id
 _symmetry_equiv_pos_as_xyz
  1  'x, y, z'
loop_
 _atom_site_type_symbol
 _atom_site_label
 _atom_site_symmetry_multiplicity
 _atom_site_fract_x
 _atom_site_fract_y
 _atom_site_fract_z
 _atom_site_occupancy
  Lu  Lu0  1  0.38111300  0.00000000  0.50000000  1
  Lu  Lu1  1  0.00000000  0.38111300  0.50000000  1
  Lu  Lu2  1  0.61888700  0.61888700  0.50000000  1
  Mn  Mn3  1  0.33333300  0.66666700  0.00000000  1
  Mn  Mn4  1  0.66666700  0.33333300  0.00000000  1
  Ga  Ga5  1  0.28886100  0.28886100  0.00000000  1
  Ga  Ga6  1  0.00000000  0.00000000  0.50000000  1
  Ga  Ga7  1  0.00000000  0.71113900  0.00000000  1
  Ga  Ga8  1  0.71113900  0.00000000  0.00000000  1
