# generated using pymatgen
data_LaPr3Al4O12
_symmetry_space_group_name_H-M   'P 1'
_cell_length_a   5.36642100
_cell_length_b   5.36642100
_cell_length_c   7.62676400
_cell_angle_alpha   90.00000000
_cell_angle_beta   90.00000000
_cell_angle_gamma   90.00000000
_symmetry_Int_Tables_number   1
_chemical_formula_structural   LaPr3Al4O12
_chemical_formula_sum   'La1 Pr3 Al4 O12'
_cell_volume   219.63916742
_cell_formula_units_Z   1
loop_
 _symmetry_equiv_pos_site_id
 _symmetry_equiv_pos_as_xyz
  1  'x, y, z'
loop_
 _atom_site_type_symbol
 _atom_site_label
 _atom_site_symmetry_multiplicity
 _atom_site_fract_x
 _atom_site_fract_y
 _atom_site_fract_z
 _atom_site_occupancy
  La  La0  1  0.00000000  0.00000000  0.50000000  1
  Pr  Pr1  1  0.00000000  0.00000000  0.00000000  1
  Pr  Pr2  1  0.50000000  0.50000000  0.50000000  1
  Pr  Pr3  1  0.50000000  0.50000000  0.00000000  1
  Al  Al4  1  0.00000000  0.50000000  0.75023300  1
  Al  Al5  1  0.50000000  0.00000000  0.24976700  1
  Al  Al6  1  0.50000000  0.00000000  0.75023300  1
  Al  Al7  1  0.00000000  0.50000000  0.24976700  1
  O  O8  1  0.71449100  0.28550900  0.75361100  1
  O  O9  1  0.21538700  0.78461300  0.25182900  1
  O  O10  1  0.78461300  0.21538700  0.25182900  1
  O  O11  1  0.28550900  0.71449100  0.75361100  1
  O  O12  1  0.00000000  0.50000000  0.00000000  1
  O  O13  1  0.50000000  0.00000000  0.50000000  1
  O  O14  1  0.50000000  0.00000000  0.00000000  1
  O  O15  1  0.00000000  0.50000000  0.50000000  1
  O  O16  1  0.78461300  0.78461300  0.74817100  1
  O  O17  1  0.28550900  0.28550900  0.24638900  1
  O  O18  1  0.21538700  0.21538700  0.74817100  1
  O  O19  1  0.71449100  0.71449100  0.24638900  1
