# generated using pymatgen
data_LaSbPt
_symmetry_space_group_name_H-M   'P 1'
_cell_length_a   4.59057376
_cell_length_b   4.59057376
_cell_length_c   8.58920012
_cell_angle_alpha   86.24003010
_cell_angle_beta   86.24003010
_cell_angle_gamma   68.50825871
_symmetry_Int_Tables_number   1
_chemical_formula_structural   LaSbPt
_chemical_formula_sum   'La2 Sb2 Pt2'
_cell_volume   167.88738287
_cell_formula_units_Z   2
loop_
 _symmetry_equiv_pos_site_id
 _symmetry_equiv_pos_as_xyz
  1  'x, y, z'
loop_
 _atom_site_type_symbol
 _atom_site_label
 _atom_site_symmetry_multiplicity
 _atom_site_fract_x
 _atom_site_fract_y
 _atom_site_fract_z
 _atom_site_occupancy
  La  La0  1  0.02323600  0.02323600  0.29470900  1
  La  La1  1  0.97676400  0.97676400  0.70529100  1
  Sb  Sb2  1  0.30974400  0.30974400  0.95179200  1
  Sb  Sb3  1  0.69025600  0.69025600  0.04820800  1
  Pt  Pt4  1  0.69091700  0.69091700  0.49475800  1
  Pt  Pt5  1  0.30908300  0.30908300  0.50524200  1
