# generated using pymatgen
data_LaYC3
_symmetry_space_group_name_H-M   'P 1'
_cell_length_a   7.40105483
_cell_length_b   7.40105483
_cell_length_c   7.40105483
_cell_angle_alpha   109.47122063
_cell_angle_beta   109.47122063
_cell_angle_gamma   109.47122063
_symmetry_Int_Tables_number   1
_chemical_formula_structural   LaYC3
_chemical_formula_sum   'La4 Y4 C12'
_cell_volume   312.07499677
_cell_formula_units_Z   4
loop_
 _symmetry_equiv_pos_site_id
 _symmetry_equiv_pos_as_xyz
  1  'x, y, z'
loop_
 _atom_site_type_symbol
 _atom_site_label
 _atom_site_symmetry_multiplicity
 _atom_site_fract_x
 _atom_site_fract_y
 _atom_site_fract_z
 _atom_site_occupancy
  La  La0  1  0.89293800  0.89293800  0.89293800  1
  La  La1  1  0.60706200  0.50000000  0.00000000  1
  La  La2  1  0.00000000  0.60706200  0.50000000  1
  La  La3  1  0.50000000  0.00000000  0.60706200  1
  Y  Y4  1  0.10081700  0.50000000  0.00000000  1
  Y  Y5  1  0.39918300  0.39918300  0.39918300  1
  Y  Y6  1  0.00000000  0.10081700  0.50000000  1
  Y  Y7  1  0.50000000  0.00000000  0.10081700  1
  C  C8  1  0.75000000  0.44554700  0.69554700  1
  C  C9  1  0.25000000  0.05445300  0.80445300  1
  C  C10  1  0.25000000  0.21079200  0.96079200  1
  C  C11  1  0.75000000  0.28920800  0.53920800  1
  C  C12  1  0.05445300  0.80445300  0.25000000  1
  C  C13  1  0.44554700  0.69554700  0.75000000  1
  C  C14  1  0.28920800  0.53920800  0.75000000  1
  C  C15  1  0.21079200  0.96079200  0.25000000  1
  C  C16  1  0.69554700  0.75000000  0.44554700  1
  C  C17  1  0.80445300  0.25000000  0.05445300  1
  C  C18  1  0.96079200  0.25000000  0.21079200  1
  C  C19  1  0.53920800  0.75000000  0.28920800  1
