# generated using pymatgen
data_LiPH22(C2O)4
_symmetry_space_group_name_H-M   'P 1'
_cell_length_a   8.62338837
_cell_length_b   8.62338837
_cell_length_c   13.71451121
_cell_angle_alpha   77.94961358
_cell_angle_beta   77.94961358
_cell_angle_gamma   63.14243879
_symmetry_Int_Tables_number   1
_chemical_formula_structural   LiPH22(C2O)4
_chemical_formula_sum   'Li2 P2 H44 C16 O8'
_cell_volume   882.10267671
_cell_formula_units_Z   2
loop_
 _symmetry_equiv_pos_site_id
 _symmetry_equiv_pos_as_xyz
  1  'x, y, z'
loop_
 _atom_site_type_symbol
 _atom_site_label
 _atom_site_symmetry_multiplicity
 _atom_site_fract_x
 _atom_site_fract_y
 _atom_site_fract_z
 _atom_site_occupancy
  Li  Li0  1  0.93166100  0.06833900  0.25000000  1
  Li  Li1  1  0.06833900  0.93166100  0.75000000  1
  P  P2  1  0.21552500  0.78447500  0.25000000  1
  P  P3  1  0.78447500  0.21552500  0.75000000  1
  H  H4  1  0.51003400  0.32486900  0.38617300  1
  H  H5  1  0.67513100  0.48996600  0.11382700  1
  H  H6  1  0.48996600  0.67513100  0.61382700  1
  H  H7  1  0.32486900  0.51003400  0.88617300  1
  H  H8  1  0.31241200  0.08373700  0.27715200  1
  H  H9  1  0.91626300  0.68758800  0.22284800  1
  H  H10  1  0.68758800  0.91626300  0.72284800  1
  H  H11  1  0.08373700  0.31241200  0.77715200  1
  H  H12  1  0.73583700  0.42795200  0.37353700  1
  H  H13  1  0.57204800  0.26416300  0.12646300  1
  H  H14  1  0.26416300  0.57204800  0.62646300  1
  H  H15  1  0.42795200  0.73583700  0.87353700  1
  H  H16  1  0.24144100  0.19973000  0.15934400  1
  H  H17  1  0.80027000  0.75855900  0.34065600  1
  H  H18  1  0.75855900  0.80027000  0.84065600  1
  H  H19  1  0.19973000  0.24144100  0.65934400  1
  H  H20  1  0.24461600  0.31808200  0.25261100  1
  H  H21  1  0.68191800  0.75538400  0.24738900  1
  H  H22  1  0.75538400  0.68191800  0.74738900  1
  H  H23  1  0.31808200  0.24461600  0.75261100  1
  H  H24  1  0.78203200  0.30431900  0.49546000  1
  H  H25  1  0.69568100  0.21796800  0.00454000  1
  H  H26  1  0.21796800  0.69568100  0.50454000  1
  H  H27  1  0.30431900  0.78203200  0.99546000  1
  H  H28  1  0.04036600  0.35223500  0.39742100  1
  H  H29  1  0.64776500  0.95963400  0.10257900  1
  H  H30  1  0.95963400  0.64776500  0.60257900  1
  H  H31  1  0.35223500  0.04036600  0.89742100  1
  H  H32  1  0.08593200  0.12400700  0.42459900  1
  H  H33  1  0.87599300  0.91406800  0.07540100  1
  H  H34  1  0.91406800  0.87599300  0.57540100  1
  H  H35  1  0.12400700  0.08593200  0.92459900  1
  H  H36  1  0.57353900  0.19647100  0.50451500  1
  H  H37  1  0.80352900  0.42646100  0.99548500  1
  H  H38  1  0.42646100  0.80352900  0.49548500  1
  H  H39  1  0.19647100  0.57353900  0.00451500  1
  H  H40  1  0.57924400  0.09160200  0.40286000  1
  H  H41  1  0.90839800  0.42075600  0.09714000  1
  H  H42  1  0.42075600  0.90839800  0.59714000  1
  H  H43  1  0.09160200  0.57924400  0.90286000  1
  H  H44  1  0.27259400  0.62753100  0.20660100  1
  H  H45  1  0.37246900  0.72740600  0.29339900  1
  H  H46  1  0.72740600  0.37246900  0.79339900  1
  H  H47  1  0.62753100  0.27259400  0.70660100  1
  C  C48  1  0.22115400  0.20851000  0.23990100  1
  C  C49  1  0.79149000  0.77884600  0.26009900  1
  C  C50  1  0.77884600  0.79149000  0.76009900  1
  C  C51  1  0.20851000  0.22115400  0.73990100  1
  C  C52  1  0.81472500  0.29895900  0.41345500  1
  C  C53  1  0.70104100  0.18527500  0.08654500  1
  C  C54  1  0.18527500  0.70104100  0.58654500  1
  C  C55  1  0.29895900  0.81472500  0.91345500  1
  C  C56  1  0.00717000  0.25052000  0.38241500  1
  C  C57  1  0.74948000  0.99283000  0.11758500  1
  C  C58  1  0.99283000  0.74948000  0.61758500  1
  C  C59  1  0.25052000  0.00717000  0.88241500  1
  C  C60  1  0.59996300  0.19709700  0.42223700  1
  C  C61  1  0.80290300  0.40003700  0.07776300  1
  C  C62  1  0.40003700  0.80290300  0.57776300  1
  C  C63  1  0.19709700  0.59996300  0.92223700  1
  O  O64  1  0.04347000  0.23782300  0.27671500  1
  O  O65  1  0.76217700  0.95653000  0.22328500  1
  O  O66  1  0.95653000  0.76217700  0.72328500  1
  O  O67  1  0.23782300  0.04347000  0.77671500  1
  O  O68  1  0.77835800  0.16649000  0.38748100  1
  O  O69  1  0.83351000  0.22164200  0.11251900  1
  O  O70  1  0.22164200  0.83351000  0.61251900  1
  O  O71  1  0.16649000  0.77835800  0.88748100  1
