# generated using pymatgen
data_LaGd3(BrO)4
_symmetry_space_group_name_H-M   'P 1'
_cell_length_a   9.37885420
_cell_length_b   9.37885420
_cell_length_c   3.95109200
_cell_angle_alpha   90.00000000
_cell_angle_beta   90.00000000
_cell_angle_gamma   130.13881754
_symmetry_Int_Tables_number   1
_chemical_formula_structural   LaGd3(BrO)4
_chemical_formula_sum   'La1 Gd3 Br4 O4'
_cell_volume   265.69634892
_cell_formula_units_Z   1
loop_
 _symmetry_equiv_pos_site_id
 _symmetry_equiv_pos_as_xyz
  1  'x, y, z'
loop_
 _atom_site_type_symbol
 _atom_site_label
 _atom_site_symmetry_multiplicity
 _atom_site_fract_x
 _atom_site_fract_y
 _atom_site_fract_z
 _atom_site_occupancy
  La  La0  1  0.07466300  0.92533700  0.50000000  1
  Gd  Gd1  1  0.56619800  0.43380200  0.50000000  1
  Gd  Gd2  1  0.68135300  0.81923600  0.00000000  1
  Gd  Gd3  1  0.18076400  0.31864700  0.00000000  1
  Br  Br4  1  0.83561700  0.16438300  0.50000000  1
  Br  Br5  1  0.33295000  0.66705000  0.50000000  1
  Br  Br6  1  0.90528700  0.57153200  0.00000000  1
  Br  Br7  1  0.42846800  0.09471300  0.00000000  1
  O  O8  1  0.74561700  0.74836800  0.50000000  1
  O  O9  1  0.25163200  0.25438300  0.50000000  1
  O  O10  1  0.49818900  0.50181100  0.00000000  1
  O  O11  1  0.99926200  0.00073800  0.00000000  1
