# generated using pymatgen
data_LaFe4(BiO4)3
_symmetry_space_group_name_H-M   'P 1'
_cell_length_a   7.92101500
_cell_length_b   5.53526900
_cell_length_c   5.68817606
_cell_angle_alpha   89.52186952
_cell_angle_beta   90.00000000
_cell_angle_gamma   90.00000000
_symmetry_Int_Tables_number   1
_chemical_formula_structural   LaFe4(BiO4)3
_chemical_formula_sum   'La1 Fe4 Bi3 O12'
_cell_volume   249.38910406
_cell_formula_units_Z   1
loop_
 _symmetry_equiv_pos_site_id
 _symmetry_equiv_pos_as_xyz
  1  'x, y, z'
loop_
 _atom_site_type_symbol
 _atom_site_label
 _atom_site_symmetry_multiplicity
 _atom_site_fract_x
 _atom_site_fract_y
 _atom_site_fract_z
 _atom_site_occupancy
  La  La0  1  0.50000000  0.98939300  0.04183000  1
  Fe  Fe1  1  0.24770400  0.99737000  0.50200200  1
  Fe  Fe2  1  0.75086900  0.50223300  0.99931300  1
  Fe  Fe3  1  0.75229600  0.99737000  0.50200200  1
  Fe  Fe4  1  0.24913100  0.50223300  0.99931300  1
  Bi  Bi5  1  0.00000000  0.49046400  0.45546800  1
  Bi  Bi6  1  0.00000000  0.01215100  0.95564500  1
  Bi  Bi7  1  0.50000000  0.51186700  0.54491600  1
  O  O8  1  0.20159800  0.19606200  0.20007700  1
  O  O9  1  0.79982900  0.29858700  0.70340600  1
  O  O10  1  0.70425100  0.79710500  0.79404000  1
  O  O11  1  0.30167700  0.70095700  0.29677700  1
  O  O12  1  0.29574900  0.79710500  0.79404000  1
  O  O13  1  0.69832300  0.70095700  0.29677700  1
  O  O14  1  0.79840200  0.19606200  0.20007700  1
  O  O15  1  0.20017100  0.29858700  0.70340600  1
  O  O16  1  0.00000000  0.59875400  0.03302200  1
  O  O17  1  0.00000000  0.89946900  0.52560200  1
  O  O18  1  0.50000000  0.41504100  0.97763700  1
  O  O19  1  0.50000000  0.09823300  0.47464900  1
