# generated using pymatgen
data_LaU2S5
_symmetry_space_group_name_H-M   'P 1'
_cell_length_a   7.47600700
_cell_length_b   8.04373000
_cell_length_c   11.82178800
_cell_angle_alpha   90.00000000
_cell_angle_beta   90.00000000
_cell_angle_gamma   90.00000000
_symmetry_Int_Tables_number   1
_chemical_formula_structural   LaU2S5
_chemical_formula_sum   'La4 U8 S20'
_cell_volume   710.90300606
_cell_formula_units_Z   4
loop_
 _symmetry_equiv_pos_site_id
 _symmetry_equiv_pos_as_xyz
  1  'x, y, z'
loop_
 _atom_site_type_symbol
 _atom_site_label
 _atom_site_symmetry_multiplicity
 _atom_site_fract_x
 _atom_site_fract_y
 _atom_site_fract_z
 _atom_site_occupancy
  La  La0  1  0.02584700  0.49883300  0.82341500  1
  La  La1  1  0.97415300  0.99883300  0.17658500  1
  La  La2  1  0.52584700  0.99883300  0.67658500  1
  La  La3  1  0.47415300  0.49883300  0.32341500  1
  U  U4  1  0.57260400  0.25044600  0.99190500  1
  U  U5  1  0.92739600  0.25044600  0.49190500  1
  U  U6  1  0.42739600  0.75044600  0.00809500  1
  U  U7  1  0.07260400  0.75044600  0.50809500  1
  U  U8  1  0.48064800  0.00109900  0.31960400  1
  U  U9  1  0.51935200  0.50109900  0.68039600  1
  U  U10  1  0.98064800  0.50109900  0.18039600  1
  U  U11  1  0.01935200  0.00109900  0.81960400  1
  S  S12  1  0.34539500  0.04157400  0.09903000  1
  S  S13  1  0.16998200  0.45669000  0.59323000  1
  S  S14  1  0.65460500  0.54157400  0.90097000  1
  S  S15  1  0.83001800  0.95669000  0.40677000  1
  S  S16  1  0.66998200  0.95669000  0.90677000  1
  S  S17  1  0.84539500  0.54157400  0.40097000  1
  S  S18  1  0.33001800  0.45669000  0.09323000  1
  S  S19  1  0.15460500  0.04157400  0.59903000  1
  S  S20  1  0.95624700  0.25140200  0.99843100  1
  S  S21  1  0.54375300  0.25140200  0.49843100  1
  S  S22  1  0.04375300  0.75140200  0.00156900  1
  S  S23  1  0.45624700  0.75140200  0.50156900  1
  S  S24  1  0.69830900  0.25054800  0.21502800  1
  S  S25  1  0.80169100  0.25054800  0.71502800  1
  S  S26  1  0.30169100  0.75054800  0.78497200  1
  S  S27  1  0.19830900  0.75054800  0.28497200  1
  S  S28  1  0.33121600  0.24940800  0.81284900  1
  S  S29  1  0.16878400  0.24940800  0.31284900  1
  S  S30  1  0.66878400  0.74940800  0.18715100  1
  S  S31  1  0.83121600  0.74940800  0.68715100  1
