# generated using pymatgen
data_LaCeNiPt
_symmetry_space_group_name_H-M   'P 1'
_cell_length_a   5.90628592
_cell_length_b   5.90628592
_cell_length_c   4.40242300
_cell_angle_alpha   90.00000000
_cell_angle_beta   90.00000000
_cell_angle_gamma   142.16601538
_symmetry_Int_Tables_number   1
_chemical_formula_structural   LaCeNiPt
_chemical_formula_sum   'La1 Ce1 Ni1 Pt1'
_cell_volume   94.19919974
_cell_formula_units_Z   1
loop_
 _symmetry_equiv_pos_site_id
 _symmetry_equiv_pos_as_xyz
  1  'x, y, z'
loop_
 _atom_site_type_symbol
 _atom_site_label
 _atom_site_symmetry_multiplicity
 _atom_site_fract_x
 _atom_site_fract_y
 _atom_site_fract_z
 _atom_site_occupancy
  La  La0  1  0.86143300  0.13856700  0.50000000  1
  Ce  Ce1  1  0.12842800  0.87157200  0.00000000  1
  Ni  Ni2  1  0.42198100  0.57801900  0.00000000  1
  Pt  Pt3  1  0.58815900  0.41184100  0.50000000  1
