# generated using pymatgen
data_Li3FeNi2(PO4)3
_symmetry_space_group_name_H-M   'P 1'
_cell_length_a   5.97312300
_cell_length_b   13.95825621
_cell_length_c   11.27390017
_cell_angle_alpha   67.58292514
_cell_angle_beta   90.00000000
_cell_angle_gamma   90.00000000
_symmetry_Int_Tables_number   1
_chemical_formula_structural   Li3FeNi2(PO4)3
_chemical_formula_sum   'Li12 Fe4 Ni8 P12 O48'
_cell_volume   868.92437613
_cell_formula_units_Z   4
loop_
 _symmetry_equiv_pos_site_id
 _symmetry_equiv_pos_as_xyz
  1  'x, y, z'
loop_
 _atom_site_type_symbol
 _atom_site_label
 _atom_site_symmetry_multiplicity
 _atom_site_fract_x
 _atom_site_fract_y
 _atom_site_fract_z
 _atom_site_occupancy
  Li  Li0  1  0.99973500  0.66671500  0.83364700  1
  Li  Li1  1  0.99983800  0.99969500  0.50028000  1
  Li  Li2  1  0.99937900  0.33354600  0.16661300  1
  Li  Li3  1  0.50034000  0.66649300  0.33278500  1
  Li  Li4  1  0.50019700  0.99988500  0.99955200  1
  Li  Li5  1  0.50043700  0.33357200  0.66609600  1
  Li  Li6  1  0.50026500  0.66671500  0.83364700  1
  Li  Li7  1  0.50016200  0.99969500  0.50028000  1
  Li  Li8  1  0.50062100  0.33354600  0.16661300  1
  Li  Li9  1  0.99966000  0.66649300  0.33278500  1
  Li  Li10  1  0.99980300  0.99988500  0.99955200  1
  Li  Li11  1  0.99956300  0.33357200  0.66609600  1
  Fe  Fe12  1  0.75000000  0.91574400  0.30619500  1
  Fe  Fe13  1  0.75000000  0.24924700  0.97275900  1
  Fe  Fe14  1  0.75000000  0.58239600  0.63963200  1
  Fe  Fe15  1  0.75000000  0.23225400  0.48939500  1
  Ni  Ni16  1  0.75000000  0.56897900  0.15473700  1
  Ni  Ni17  1  0.75000000  0.90227100  0.82136100  1
  Ni  Ni18  1  0.25000000  0.08578000  0.68963100  1
  Ni  Ni19  1  0.25000000  0.42045400  0.35525800  1
  Ni  Ni20  1  0.25000000  0.75274100  0.02225200  1
  Ni  Ni21  1  0.25000000  0.76424500  0.51269400  1
  Ni  Ni22  1  0.25000000  0.09756000  0.17882700  1
  Ni  Ni23  1  0.25000000  0.43110300  0.84593400  1
  P  P24  1  0.75000000  0.49654600  0.91087600  1
  P  P25  1  0.75000000  0.82983100  0.57765200  1
  P  P26  1  0.75000000  0.16311400  0.24290200  1
  P  P27  1  0.75000000  0.77356500  0.13058200  1
  P  P28  1  0.75000000  0.10686900  0.79848600  1
  P  P29  1  0.75000000  0.44097000  0.46384700  1
  P  P30  1  0.25000000  0.83735000  0.75679800  1
  P  P31  1  0.25000000  0.17032900  0.42295000  1
  P  P32  1  0.25000000  0.50400900  0.09010900  1
  P  P33  1  0.25000000  0.55850900  0.53481300  1
  P  P34  1  0.25000000  0.89172100  0.20154800  1
  P  P35  1  0.25000000  0.22528200  0.86793600  1
  O  O36  1  0.75000000  0.72102700  0.68351100  1
  O  O37  1  0.75000000  0.05457200  0.35010800  1
  O  O38  1  0.75000000  0.38761100  0.01668300  1
  O  O39  1  0.75000000  0.88068000  0.01977200  1
  O  O40  1  0.75000000  0.21420200  0.68986900  1
  O  O41  1  0.75000000  0.54814100  0.35278900  1
  O  O42  1  0.25000000  0.61392500  0.98545300  1
  O  O43  1  0.25000000  0.94725600  0.65216800  1
  O  O44  1  0.25000000  0.28028400  0.31906600  1
  O  O45  1  0.25000000  0.45264600  0.64696900  1
  O  O46  1  0.25000000  0.78590300  0.31364300  1
  O  O47  1  0.25000000  0.11913600  0.98020300  1
  O  O48  1  0.75000000  0.44676100  0.59875900  1
  O  O49  1  0.75000000  0.78002400  0.26502700  1
  O  O50  1  0.75000000  0.11231000  0.93353800  1
  O  O51  1  0.75000000  0.58414300  0.96480400  1
  O  O52  1  0.75000000  0.91759500  0.63139500  1
  O  O53  1  0.75000000  0.25147400  0.29468600  1
  O  O54  1  0.25000000  0.88407800  0.06754600  1
  O  O55  1  0.25000000  0.21735100  0.73418700  1
  O  O56  1  0.25000000  0.55121400  0.40068400  1
  O  O57  1  0.25000000  0.75049800  0.70205900  1
  O  O58  1  0.25000000  0.08344100  0.36851000  1
  O  O59  1  0.25000000  0.41709200  0.03541900  1
  O  O60  1  0.95758200  0.51816000  0.81825500  1
  O  O61  1  0.95757100  0.85157900  0.48492000  1
  O  O62  1  0.95827800  0.18423600  0.15095200  1
  O  O63  1  0.54297600  0.70386500  0.12962300  1
  O  O64  1  0.54317300  0.03714000  0.79648700  1
  O  O65  1  0.54152900  0.37250700  0.46271400  1
  O  O66  1  0.45621200  0.81449600  0.85106900  1
  O  O67  1  0.45400000  0.14736400  0.51818300  1
  O  O68  1  0.45621200  0.48111500  0.18434300  1
  O  O69  1  0.04597200  0.62957600  0.53584900  1
  O  O70  1  0.04595300  0.96278100  0.20251200  1
  O  O71  1  0.04603200  0.29615900  0.86910600  1
  O  O72  1  0.04378800  0.81449600  0.85106900  1
  O  O73  1  0.04600000  0.14736400  0.51818300  1
  O  O74  1  0.04378800  0.48111500  0.18434300  1
  O  O75  1  0.45402800  0.62957600  0.53584900  1
  O  O76  1  0.45404700  0.96278100  0.20251200  1
  O  O77  1  0.45396800  0.29615900  0.86910600  1
  O  O78  1  0.54241800  0.51816000  0.81825500  1
  O  O79  1  0.54242900  0.85157900  0.48492000  1
  O  O80  1  0.54172200  0.18423600  0.15095200  1
  O  O81  1  0.95702400  0.70386500  0.12962300  1
  O  O82  1  0.95682700  0.03714000  0.79648700  1
  O  O83  1  0.95847100  0.37250700  0.46271400  1
