# generated using pymatgen
data_Li2UWO7
_symmetry_space_group_name_H-M   'P 1'
_cell_length_a   7.46241664
_cell_length_b   8.07776308
_cell_length_c   10.30838472
_cell_angle_alpha   89.92835934
_cell_angle_beta   89.84490364
_cell_angle_gamma   62.48950466
_symmetry_Int_Tables_number   1
_chemical_formula_structural   Li2UWO7
_chemical_formula_sum   'Li8 U4 W4 O28'
_cell_volume   551.12121962
_cell_formula_units_Z   4
loop_
 _symmetry_equiv_pos_site_id
 _symmetry_equiv_pos_as_xyz
  1  'x, y, z'
loop_
 _atom_site_type_symbol
 _atom_site_label
 _atom_site_symmetry_multiplicity
 _atom_site_fract_x
 _atom_site_fract_y
 _atom_site_fract_z
 _atom_site_occupancy
  Li  Li0  1  0.78891600  0.42679900  0.54718900  1
  Li  Li1  1  0.21571500  0.57320100  0.04718900  1
  Li  Li2  1  0.36741400  0.47040700  0.52946200  1
  Li  Li3  1  0.83782100  0.52959300  0.02946200  1
  Li  Li4  1  0.35957700  0.78174500  0.23031200  1
  Li  Li5  1  0.85950900  0.78394900  0.23331800  1
  Li  Li6  1  0.64345800  0.21605100  0.73331800  1
  Li  Li7  1  0.14132100  0.21825500  0.73031200  1
  U  U8  1  0.50861500  0.98471300  0.46835800  1
  U  U9  1  0.49332800  0.01528700  0.96835800  1
  U  U10  1  0.03305500  0.93421800  0.50028600  1
  U  U11  1  0.96727200  0.06578200  0.00028600  1
  W  W12  1  0.60302600  0.29809600  0.25879900  1
  W  W13  1  0.10148900  0.29477300  0.26375700  1
  W  W14  1  0.39626200  0.70522700  0.76375700  1
  W  W15  1  0.90112300  0.70190400  0.75879900  1
  O  O16  1  0.15269800  0.70494800  0.41528100  1
  O  O17  1  0.85764600  0.29505200  0.91528100  1
  O  O18  1  0.40501100  0.20008300  0.57387500  1
  O  O19  1  0.60509400  0.79991700  0.07387500  1
  O  O20  1  0.60572200  0.40164700  0.41243000  1
  O  O21  1  0.98350700  0.40280900  0.41111600  1
  O  O22  1  0.38631600  0.59719100  0.91111600  1
  O  O23  1  0.00736800  0.59835300  0.91243000  1
  O  O24  1  0.38156400  0.23774700  0.30335000  1
  O  O25  1  0.61931100  0.76225300  0.80335000  1
  O  O26  1  0.44428400  0.50986100  0.17379200  1
  O  O27  1  0.03861000  0.50766100  0.17002400  1
  O  O28  1  0.54627000  0.49233900  0.67002400  1
  O  O29  1  0.95414400  0.49013900  0.67379200  1
  O  O30  1  0.76661600  0.03115100  0.36199600  1
  O  O31  1  0.20119900  0.03364800  0.36008000  1
  O  O32  1  0.23484700  0.96635200  0.86008000  1
  O  O33  1  0.79776700  0.96884900  0.86199600  1
  O  O34  1  0.61068600  0.77781600  0.35920700  1
  O  O35  1  0.38850200  0.22218400  0.85920700  1
  O  O36  1  0.92375300  0.15062200  0.60361600  1
  O  O37  1  0.07437500  0.84937800  0.10361600  1
  O  O38  1  0.86586800  0.26945900  0.19665700  1
  O  O39  1  0.13532700  0.73054100  0.69665700  1
  O  O40  1  0.65465000  0.12721700  0.09638000  1
  O  O41  1  0.21877400  0.12554900  0.09429700  1
  O  O42  1  0.34432300  0.87445100  0.59429700  1
  O  O43  1  0.78186600  0.87278300  0.59638000  1
