# generated using pymatgen
data_NaMg2H3(SO4)2
_symmetry_space_group_name_H-M   'P 1'
_cell_length_a   6.38886306
_cell_length_b   7.91503195
_cell_length_c   9.00699763
_cell_angle_alpha   97.59606906
_cell_angle_beta   110.70228191
_cell_angle_gamma   113.58601157
_symmetry_Int_Tables_number   1
_chemical_formula_structural   NaMg2H3(SO4)2
_chemical_formula_sum   'Na2 Mg4 H6 S4 O16'
_cell_volume   370.03924018
_cell_formula_units_Z   2
loop_
 _symmetry_equiv_pos_site_id
 _symmetry_equiv_pos_as_xyz
  1  'x, y, z'
loop_
 _atom_site_type_symbol
 _atom_site_label
 _atom_site_symmetry_multiplicity
 _atom_site_fract_x
 _atom_site_fract_y
 _atom_site_fract_z
 _atom_site_occupancy
  Na  Na0  1  0.45942928  0.83056256  0.09395252  1
  Na  Na1  1  0.54057072  0.16943744  0.90604748  1
  Mg  Mg2  1  -0.00000000  -0.00000000  0.50000000  1
  Mg  Mg3  1  0.50000000  -0.00000000  0.50000000  1
  Mg  Mg4  1  0.82033984  0.82685750  0.81272233  1
  Mg  Mg5  1  0.17966016  0.17314250  0.18727767  1
  H  H6  1  0.61304999  0.71839351  0.50423879  1
  H  H7  1  0.38695001  0.28160649  0.49576121  1
  H  H8  1  0.70900826  0.44027430  0.72647550  1
  H  H9  1  0.29099174  0.55972570  0.27352450  1
  H  H10  1  0.45926040  0.44042238  0.72760790  1
  H  H11  1  0.54073960  0.55957762  0.27239210  1
  S  S12  1  0.93376084  0.70423160  0.16248487  1
  S  S13  1  0.06623916  0.29576840  0.83751513  1
  S  S14  1  0.77056307  0.25362551  0.29243549  1
  S  S15  1  0.22943693  0.74637449  0.70756451  1
  O  O16  1  0.81948146  0.75263212  0.27778746  1
  O  O17  1  0.18051854  0.24736788  0.72221254  1
  O  O18  1  0.78929834  0.24767912  0.72149778  1
  O  O19  1  0.21070166  0.75232088  0.27850222  1
  O  O20  1  0.97120926  0.86412920  0.07659539  1
  O  O21  1  0.02879074  0.13587080  0.92340461  1
  O  O22  1  0.72824547  0.08451661  0.37244809  1
  O  O23  1  0.27175453  0.91548339  0.62755191  1
  O  O24  1  0.50212538  0.80268166  0.83251577  1
  O  O25  1  0.49787562  0.19731834  0.16748423  1
  O  O26  1  0.12868621  0.79636508  0.82896773  1
  O  O27  1  0.87131379  0.20363492  0.17103227  1
  O  O28  1  0.71480709  0.85499487  0.57353341  1
  O  O29  1  0.28519291  0.14500513  0.42646659  1
  O  O30  1  0.61521411  0.51601615  0.71469256  1
  O  O31  1  0.38478589  0.48398385  0.28530744  1
