# generated using pymatgen
data_La4MgCr3O12
_symmetry_space_group_name_H-M   'P 1'
_cell_length_a   7.86161243
_cell_length_b   7.91422334
_cell_length_c   7.87884488
_cell_angle_alpha   89.97539867
_cell_angle_beta   89.95009291
_cell_angle_gamma   89.67831836
_symmetry_Int_Tables_number   1
_chemical_formula_structural   La4MgCr3O12
_chemical_formula_sum   'La8 Mg2 Cr6 O24'
_cell_volume   490.20239967
_cell_formula_units_Z   2
loop_
 _symmetry_equiv_pos_site_id
 _symmetry_equiv_pos_as_xyz
  1  'x, y, z'
loop_
 _atom_site_type_symbol
 _atom_site_label
 _atom_site_symmetry_multiplicity
 _atom_site_fract_x
 _atom_site_fract_y
 _atom_site_fract_z
 _atom_site_occupancy
  La  La0  1  0.01107900  0.74924000  0.47789900  1
  La  La1  1  0.51103700  0.74923600  0.97801900  1
  La  La2  1  0.98894800  0.25076900  0.52199600  1
  La  La3  1  0.48892100  0.25078100  0.02211300  1
  La  La4  1  0.51455500  0.74899400  0.48603700  1
  La  La5  1  0.01458300  0.74900400  0.98608000  1
  La  La6  1  0.48541200  0.25098100  0.51392800  1
  La  La7  1  0.98545100  0.25099600  0.01394500  1
  Mg  Mg8  1  0.25000100  0.99999900  0.25000200  1
  Mg  Mg9  1  0.75000400  0.00000800  0.74999900  1
  Cr  Cr10  1  0.25003200  0.50005400  0.24999000  1
  Cr  Cr11  1  0.74998900  0.49997000  0.74997600  1
  Cr  Cr12  1  0.25000700  0.99999100  0.75003000  1
  Cr  Cr13  1  0.74998400  0.49999900  0.24998400  1
  Cr  Cr14  1  0.25000900  0.49998600  0.75000200  1
  Cr  Cr15  1  0.75000700  0.99999600  0.24999900  1
  O  O16  1  0.27955500  0.74696400  0.29766500  1
  O  O17  1  0.77959300  0.74695100  0.79763300  1
  O  O18  1  0.72040700  0.25304900  0.70236900  1
  O  O19  1  0.22044800  0.25303800  0.20233500  1
  O  O20  1  0.20102800  0.75156700  0.71641200  1
  O  O21  1  0.70054900  0.75155200  0.21618000  1
  O  O22  1  0.79945000  0.24844900  0.28382300  1
  O  O23  1  0.29897300  0.24843200  0.78358600  1
  O  O24  1  0.98918300  0.95868700  0.21872900  1
  O  O25  1  0.48927000  0.95860900  0.71870600  1
  O  O26  1  0.01072900  0.04138300  0.78129200  1
  O  O27  1  0.51081400  0.04131000  0.28127500  1
  O  O28  1  0.78514800  0.54366500  0.49887200  1
  O  O29  1  0.28515900  0.54365700  0.99889100  1
  O  O30  1  0.21483600  0.45634500  0.50110900  1
  O  O31  1  0.71484500  0.45633800  0.00112900  1
  O  O32  1  0.00111300  0.45674300  0.78561500  1
  O  O33  1  0.50113600  0.45673400  0.28559600  1
  O  O34  1  0.99886000  0.54326400  0.21440400  1
  O  O35  1  0.49889000  0.54326200  0.71438300  1
  O  O36  1  0.22219100  0.04156100  0.51186600  1
  O  O37  1  0.72224800  0.04153200  0.01198300  1
  O  O38  1  0.77774800  0.95846700  0.48801700  1
  O  O39  1  0.27780800  0.95844200  0.98813200  1
