# generated using pymatgen
data_LaAg5
_symmetry_space_group_name_H-M   'P 1'
_cell_length_a   5.66503815
_cell_length_b   5.66503815
_cell_length_c   9.28416100
_cell_angle_alpha   90.00000000
_cell_angle_beta   90.00000000
_cell_angle_gamma   120.00000181
_symmetry_Int_Tables_number   1
_chemical_formula_structural   LaAg5
_chemical_formula_sum   'La2 Ag10'
_cell_volume   258.03520645
_cell_formula_units_Z   2
loop_
 _symmetry_equiv_pos_site_id
 _symmetry_equiv_pos_as_xyz
  1  'x, y, z'
loop_
 _atom_site_type_symbol
 _atom_site_label
 _atom_site_symmetry_multiplicity
 _atom_site_fract_x
 _atom_site_fract_y
 _atom_site_fract_z
 _atom_site_occupancy
  La  La0  1  0.66666700  0.33333300  0.91028900  1
  La  La1  1  0.33333300  0.66666700  0.08971100  1
  Ag  Ag2  1  0.00000000  0.00000000  0.50000000  1
  Ag  Ag3  1  0.00000000  0.00000000  0.00000000  1
  Ag  Ag4  1  0.82982800  0.17017200  0.26158700  1
  Ag  Ag5  1  0.82982800  0.65965600  0.26158700  1
  Ag  Ag6  1  0.34034400  0.17017200  0.26158700  1
  Ag  Ag7  1  0.17017200  0.82982800  0.73841300  1
  Ag  Ag8  1  0.17017200  0.34034400  0.73841300  1
  Ag  Ag9  1  0.65965600  0.82982800  0.73841300  1
  Ag  Ag10  1  0.33333300  0.66666700  0.44864200  1
  Ag  Ag11  1  0.66666700  0.33333300  0.55135800  1
