# generated using pymatgen
data_La3Si2ClO8
_symmetry_space_group_name_H-M   'P 1'
_cell_length_a   8.03350486
_cell_length_b   8.03350486
_cell_length_c   8.91131807
_cell_angle_alpha   82.57511473
_cell_angle_beta   82.57511473
_cell_angle_gamma   48.31277253
_symmetry_Int_Tables_number   1
_chemical_formula_structural   La3Si2ClO8
_chemical_formula_sum   'La6 Si4 Cl2 O16'
_cell_volume   425.15623435
_cell_formula_units_Z   2
loop_
 _symmetry_equiv_pos_site_id
 _symmetry_equiv_pos_as_xyz
  1  'x, y, z'
loop_
 _atom_site_type_symbol
 _atom_site_label
 _atom_site_symmetry_multiplicity
 _atom_site_fract_x
 _atom_site_fract_y
 _atom_site_fract_z
 _atom_site_occupancy
  La  La0  1  0.58087100  0.78803000  0.32935200  1
  La  La1  1  0.21152100  0.41919600  0.17083000  1
  La  La2  1  0.41919600  0.21152100  0.67083000  1
  La  La3  1  0.78803000  0.58087100  0.82935200  1
  La  La4  1  0.93155200  0.06900200  0.24955000  1
  La  La5  1  0.06900200  0.93155200  0.74955000  1
  Si  Si6  1  0.78499500  0.89826100  0.02656200  1
  Si  Si7  1  0.10197200  0.21493900  0.47333300  1
  Si  Si8  1  0.21493900  0.10197200  0.97333300  1
  Si  Si9  1  0.89826100  0.78499500  0.52656200  1
  Cl  Cl10  1  0.48012200  0.53046300  0.22900200  1
  Cl  Cl11  1  0.53046300  0.48012200  0.72900200  1
  O  O12  1  0.27183700  0.03702500  0.15245400  1
  O  O13  1  0.96506700  0.72714800  0.34757000  1
  O  O14  1  0.72714800  0.96506700  0.84757000  1
  O  O15  1  0.03702500  0.27183700  0.65245400  1
  O  O16  1  0.19982900  0.95759300  0.46690400  1
  O  O17  1  0.04236500  0.80014200  0.03229100  1
  O  O18  1  0.80014200  0.04236500  0.53229100  1
  O  O19  1  0.95759300  0.19982900  0.96690400  1
  O  O20  1  0.31510100  0.20376200  0.41889700  1
  O  O21  1  0.79686600  0.68477100  0.08101700  1
  O  O22  1  0.68477100  0.79686600  0.58101700  1
  O  O23  1  0.20376200  0.31510100  0.91889700  1
  O  O24  1  0.61831900  0.09247700  0.14730800  1
  O  O25  1  0.90709800  0.38167500  0.35292800  1
  O  O26  1  0.38167500  0.90709800  0.85292800  1
  O  O27  1  0.09247700  0.61831900  0.64730800  1
