# generated using pymatgen
data_La3NdZr4O14
_symmetry_space_group_name_H-M   'P 1'
_cell_length_a   7.68734891
_cell_length_b   7.68734891
_cell_length_c   7.68734854
_cell_angle_alpha   59.96645773
_cell_angle_beta   59.96645773
_cell_angle_gamma   59.96646497
_symmetry_Int_Tables_number   1
_chemical_formula_structural   La3NdZr4O14
_chemical_formula_sum   'La3 Nd1 Zr4 O14'
_cell_volume   320.98468627
_cell_formula_units_Z   1
loop_
 _symmetry_equiv_pos_site_id
 _symmetry_equiv_pos_as_xyz
  1  'x, y, z'
loop_
 _atom_site_type_symbol
 _atom_site_label
 _atom_site_symmetry_multiplicity
 _atom_site_fract_x
 _atom_site_fract_y
 _atom_site_fract_z
 _atom_site_occupancy
  La  La0  1  0.00000000  0.50000000  0.50000000  1
  La  La1  1  0.50000000  0.50000000  0.00000000  1
  La  La2  1  0.50000000  0.00000000  0.50000000  1
  Nd  Nd3  1  0.50000000  0.50000000  0.50000000  1
  Zr  Zr4  1  0.00000000  0.00000000  0.00000000  1
  Zr  Zr5  1  0.50000000  0.00000000  0.00000000  1
  Zr  Zr6  1  0.00000000  0.00000000  0.50000000  1
  Zr  Zr7  1  0.00000000  0.50000000  0.00000000  1
  O  O8  1  0.37606800  0.37606800  0.37606800  1
  O  O9  1  0.62393200  0.62393200  0.62393200  1
  O  O10  1  0.91468100  0.33395400  0.33395400  1
  O  O11  1  0.33330900  0.91676500  0.91676500  1
  O  O12  1  0.33395400  0.33395400  0.91468100  1
  O  O13  1  0.91676500  0.91676500  0.33330900  1
  O  O14  1  0.91676500  0.33330900  0.91676500  1
  O  O15  1  0.33395400  0.91468100  0.33395400  1
  O  O16  1  0.08531900  0.66604600  0.66604600  1
  O  O17  1  0.66669100  0.08323500  0.08323500  1
  O  O18  1  0.66604600  0.66604600  0.08531900  1
  O  O19  1  0.08323500  0.08323500  0.66669100  1
  O  O20  1  0.08323500  0.66669100  0.08323500  1
  O  O21  1  0.66604600  0.08531900  0.66604600  1
