# generated using pymatgen
data_La2Ti3CoO10
_symmetry_space_group_name_H-M   'P 1'
_cell_length_a   13.95917495
_cell_length_b   13.95917495
_cell_length_c   13.95917495
_cell_angle_alpha   164.21473097
_cell_angle_beta   164.21473097
_cell_angle_gamma   22.39550419
_symmetry_Int_Tables_number   1
_chemical_formula_structural   La2Ti3CoO10
_chemical_formula_sum   'La2 Ti3 Co1 O10'
_cell_volume   201.25270690
_cell_formula_units_Z   1
loop_
 _symmetry_equiv_pos_site_id
 _symmetry_equiv_pos_as_xyz
  1  'x, y, z'
loop_
 _atom_site_type_symbol
 _atom_site_label
 _atom_site_symmetry_multiplicity
 _atom_site_fract_x
 _atom_site_fract_y
 _atom_site_fract_z
 _atom_site_occupancy
  La  La0  1  0.57981700  0.57981700  0.00000000  1
  La  La1  1  0.42018300  0.42018300  0.00000000  1
  Ti  Ti2  1  0.84340200  0.84340200  0.00000000  1
  Ti  Ti3  1  0.15659800  0.15659800  0.00000000  1
  Ti  Ti4  1  0.00000000  0.00000000  0.00000000  1
  Co  Co5  1  0.25000000  0.75000000  0.50000000  1
  O  O6  1  0.77676200  0.77676200  0.00000000  1
  O  O7  1  0.22323800  0.22323800  0.00000000  1
  O  O8  1  0.92851600  0.92851600  0.00000000  1
  O  O9  1  0.07148400  0.07148400  0.00000000  1
  O  O10  1  0.35924100  0.85924100  0.50000000  1
  O  O11  1  0.86022200  0.36022200  0.50000000  1
  O  O12  1  0.63977800  0.13977800  0.50000000  1
  O  O13  1  0.14075900  0.64075900  0.50000000  1
  O  O14  1  0.49988600  0.99988600  0.50000000  1
  O  O15  1  0.00011400  0.50011400  0.50000000  1
