# generated using pymatgen
data_Lu2ScV3O9
_symmetry_space_group_name_H-M   'P 1'
_cell_length_a   22.77102300
_cell_length_b   5.20747200
_cell_length_c   5.61375709
_cell_angle_alpha   89.98996719
_cell_angle_beta   90.00000000
_cell_angle_gamma   90.00000000
_symmetry_Int_Tables_number   1
_chemical_formula_structural   Lu2ScV3O9
_chemical_formula_sum   'Lu8 Sc4 V12 O36'
_cell_volume   665.67629993
_cell_formula_units_Z   4
loop_
 _symmetry_equiv_pos_site_id
 _symmetry_equiv_pos_as_xyz
  1  'x, y, z'
loop_
 _atom_site_type_symbol
 _atom_site_label
 _atom_site_symmetry_multiplicity
 _atom_site_fract_x
 _atom_site_fract_y
 _atom_site_fract_z
 _atom_site_occupancy
  Lu  Lu0  1  0.66656600  0.02161100  0.92914200  1
  Lu  Lu1  1  0.33343400  0.02161100  0.92914200  1
  Lu  Lu2  1  0.83323500  0.52399300  0.57087700  1
  Lu  Lu3  1  0.50000000  0.52326100  0.57120000  1
  Lu  Lu4  1  0.16676500  0.52399300  0.57087700  1
  Lu  Lu5  1  0.83352800  0.97628100  0.07142400  1
  Lu  Lu6  1  0.50000000  0.97599500  0.07264800  1
  Lu  Lu7  1  0.16647200  0.97628100  0.07142400  1
  Sc  Sc8  1  0.00000000  0.48144000  0.43656300  1
  Sc  Sc9  1  0.66654700  0.48043800  0.43286400  1
  Sc  Sc10  1  0.33345300  0.48043800  0.43286400  1
  Sc  Sc11  1  0.00000000  0.01820200  0.93638300  1
  V  V12  1  0.08174300  0.50092300  0.99935400  1
  V  V13  1  0.74939500  0.50052900  0.00161600  1
  V  V14  1  0.41601500  0.50038500  0.00160800  1
  V  V15  1  0.91821400  0.99875300  0.49975300  1
  V  V16  1  0.58398300  0.99960200  0.49861400  1
  V  V17  1  0.25060700  0.00019100  0.49802300  1
  V  V18  1  0.91825700  0.50092300  0.99935400  1
  V  V19  1  0.58398500  0.50038500  0.00160800  1
  V  V20  1  0.25060500  0.50052900  0.00161600  1
  V  V21  1  0.08178600  0.99875300  0.49975300  1
  V  V22  1  0.74939300  0.00019100  0.49802300  1
  V  V23  1  0.41601700  0.99960200  0.49861400  1
  O  O24  1  0.00000000  0.64370000  0.06540800  1
  O  O25  1  0.66663900  0.62979900  0.06723500  1
  O  O26  1  0.33336100  0.62979900  0.06723500  1
  O  O27  1  0.00000000  0.85583200  0.56586300  1
  O  O28  1  0.66661100  0.85599900  0.55407700  1
  O  O29  1  0.33338900  0.85599900  0.55407700  1
  O  O30  1  0.83376000  0.37003400  0.94392900  1
  O  O31  1  0.50000000  0.36934800  0.94373900  1
  O  O32  1  0.16624000  0.37003400  0.94392900  1
  O  O33  1  0.83378500  0.13014800  0.44512700  1
  O  O34  1  0.50000000  0.12955000  0.44676000  1
  O  O35  1  0.16621500  0.13014800  0.44512700  1
  O  O36  1  0.05922000  0.18463800  0.17825300  1
  O  O37  1  0.72787600  0.18941300  0.18533400  1
  O  O38  1  0.39459200  0.18953000  0.18595200  1
  O  O39  1  0.94080600  0.31511400  0.67809700  1
  O  O40  1  0.60706900  0.31464900  0.67919300  1
  O  O41  1  0.27383300  0.31454000  0.67909000  1
  O  O42  1  0.89485200  0.81022300  0.81316200  1
  O  O43  1  0.56202700  0.81132500  0.81470200  1
  O  O44  1  0.22882300  0.81151800  0.81444500  1
  O  O45  1  0.77227200  0.69128700  0.31266000  1
  O  O46  1  0.43901300  0.69081000  0.31293700  1
  O  O47  1  0.10517700  0.68960300  0.31325000  1
  O  O48  1  0.77117700  0.81151800  0.81444500  1
  O  O49  1  0.43797300  0.81132500  0.81470200  1
  O  O50  1  0.10514800  0.81022300  0.81316200  1
  O  O51  1  0.89482300  0.68960300  0.31325000  1
  O  O52  1  0.56098700  0.69081000  0.31293700  1
  O  O53  1  0.22772800  0.69128700  0.31266000  1
  O  O54  1  0.94078000  0.18463800  0.17825300  1
  O  O55  1  0.60540800  0.18953000  0.18595200  1
  O  O56  1  0.27212400  0.18941300  0.18533400  1
  O  O57  1  0.05919400  0.31511400  0.67809700  1
  O  O58  1  0.72616700  0.31454000  0.67909000  1
  O  O59  1  0.39293100  0.31464900  0.67919300  1
