# generated using pymatgen
data_KNb3F9
_symmetry_space_group_name_H-M   'P 1'
_cell_length_a   7.95152589
_cell_length_b   7.95152589
_cell_length_c   8.37550600
_cell_angle_alpha   90.00000000
_cell_angle_beta   90.00000000
_cell_angle_gamma   120.07041002
_symmetry_Int_Tables_number   1
_chemical_formula_structural   KNb3F9
_chemical_formula_sum   'K2 Nb6 F18'
_cell_volume   458.28334233
_cell_formula_units_Z   2
loop_
 _symmetry_equiv_pos_site_id
 _symmetry_equiv_pos_as_xyz
  1  'x, y, z'
loop_
 _atom_site_type_symbol
 _atom_site_label
 _atom_site_symmetry_multiplicity
 _atom_site_fract_x
 _atom_site_fract_y
 _atom_site_fract_z
 _atom_site_occupancy
  K  K0  1  0.49803500  0.50196500  0.25000000  1
  K  K1  1  0.50196500  0.49803500  0.75000000  1
  Nb  Nb2  1  0.00099300  0.50071400  0.50745000  1
  Nb  Nb3  1  0.50071400  0.00099300  0.49255000  1
  Nb  Nb4  1  0.99949900  0.99949900  0.00000000  1
  Nb  Nb5  1  0.00050100  0.00050100  0.50000000  1
  Nb  Nb6  1  0.49928600  0.99900700  0.99255000  1
  Nb  Nb7  1  0.99900700  0.49928600  0.00745000  1
  F  F8  1  0.49152600  0.95664600  0.74250200  1
  F  F9  1  0.95664600  0.49152600  0.25749800  1
  F  F10  1  0.69015600  0.88113600  0.01701000  1
  F  F11  1  0.88113600  0.69015600  0.98299000  1
  F  F12  1  0.69116100  0.88130100  0.47927700  1
  F  F13  1  0.88130100  0.69116100  0.52072300  1
  F  F14  1  0.69200800  0.30771000  0.97105700  1
  F  F15  1  0.30771000  0.69200800  0.02894300  1
  F  F16  1  0.01259100  0.98740900  0.25000000  1
  F  F17  1  0.98740900  0.01259100  0.75000000  1
  F  F18  1  0.69229000  0.30799200  0.52894300  1
  F  F19  1  0.30799200  0.69229000  0.47105700  1
  F  F20  1  0.11869900  0.30883900  0.02072300  1
  F  F21  1  0.30883900  0.11869900  0.97927700  1
  F  F22  1  0.11886400  0.30984400  0.48299000  1
  F  F23  1  0.30984400  0.11886400  0.51701000  1
  F  F24  1  0.04335400  0.50847400  0.75749800  1
  F  F25  1  0.50847400  0.04335400  0.24250200  1
