# generated using pymatgen
data_La3Sm(FeO3)4
_symmetry_space_group_name_H-M   'P 1'
_cell_length_a   7.91368500
_cell_length_b   5.55545300
_cell_length_c   5.66910472
_cell_angle_alpha   89.85675799
_cell_angle_beta   90.00000000
_cell_angle_gamma   90.00000000
_symmetry_Int_Tables_number   1
_chemical_formula_structural   La3Sm(FeO3)4
_chemical_formula_sum   'La3 Sm1 Fe4 O12'
_cell_volume   249.23633654
_cell_formula_units_Z   1
loop_
 _symmetry_equiv_pos_site_id
 _symmetry_equiv_pos_as_xyz
  1  'x, y, z'
loop_
 _atom_site_type_symbol
 _atom_site_label
 _atom_site_symmetry_multiplicity
 _atom_site_fract_x
 _atom_site_fract_y
 _atom_site_fract_z
 _atom_site_occupancy
  La  La0  1  0.00000000  0.00812300  0.95557100  1
  La  La1  1  0.50000000  0.50817800  0.54180000  1
  La  La2  1  0.50000000  0.99079500  0.04364000  1
  Sm  Sm3  1  0.00000000  0.49041100  0.44641200  1
  Fe  Fe4  1  0.24845100  0.50046000  0.99860600  1
  Fe  Fe5  1  0.75236500  0.99971000  0.50070700  1
  Fe  Fe6  1  0.75154900  0.50046000  0.99860600  1
  Fe  Fe7  1  0.24763500  0.99971000  0.50070700  1
  O  O8  1  0.20427300  0.20736900  0.20702900  1
  O  O9  1  0.79931200  0.30014800  0.69933800  1
  O  O10  1  0.70712900  0.79802900  0.79828700  1
  O  O11  1  0.29111500  0.70371600  0.29692300  1
  O  O12  1  0.29287100  0.79802900  0.79828700  1
  O  O13  1  0.70888500  0.70371600  0.29692300  1
  O  O14  1  0.79572700  0.20736900  0.20702900  1
  O  O15  1  0.20068800  0.30014800  0.69933800  1
  O  O16  1  0.00000000  0.58154500  0.03138400  1
  O  O17  1  0.00000000  0.90378300  0.52213000  1
  O  O18  1  0.50000000  0.41793300  0.97771500  1
  O  O19  1  0.50000000  0.08037000  0.47956600  1
