# generated using pymatgen
data_La3NdMn4O12
_symmetry_space_group_name_H-M   'P 1'
_cell_length_a   7.84989300
_cell_length_b   5.56553200
_cell_length_c   5.76977631
_cell_angle_alpha   89.93000109
_cell_angle_beta   90.00000000
_cell_angle_gamma   90.00000000
_symmetry_Int_Tables_number   1
_chemical_formula_structural   La3NdMn4O12
_chemical_formula_sum   'La3 Nd1 Mn4 O12'
_cell_volume   252.07459202
_cell_formula_units_Z   1
loop_
 _symmetry_equiv_pos_site_id
 _symmetry_equiv_pos_as_xyz
  1  'x, y, z'
loop_
 _atom_site_type_symbol
 _atom_site_label
 _atom_site_symmetry_multiplicity
 _atom_site_fract_x
 _atom_site_fract_y
 _atom_site_fract_z
 _atom_site_occupancy
  La  La0  1  0.00000000  0.00972900  0.95019000  1
  La  La1  1  0.50000000  0.50900700  0.54752000  1
  La  La2  1  0.50000000  0.98990800  0.04962700  1
  Nd  Nd3  1  0.00000000  0.48826300  0.44319000  1
  Mn  Mn4  1  0.24872300  0.99971100  0.50027400  1
  Mn  Mn5  1  0.75067700  0.50037900  0.99928100  1
  Mn  Mn6  1  0.75127700  0.99971100  0.50027400  1
  Mn  Mn7  1  0.24932300  0.50037900  0.99928100  1
  O  O8  1  0.00000000  0.58267100  0.02280900  1
  O  O9  1  0.00000000  0.90988200  0.51812000  1
  O  O10  1  0.50000000  0.41760400  0.98222300  1
  O  O11  1  0.50000000  0.08101600  0.48333400  1
  O  O12  1  0.20514900  0.22057600  0.19899400  1
  O  O13  1  0.79636700  0.28415500  0.69418600  1
  O  O14  1  0.70737300  0.78366000  0.80469400  1
  O  O15  1  0.29140100  0.71747900  0.30406500  1
  O  O16  1  0.29262700  0.78366000  0.80469400  1
  O  O17  1  0.70859900  0.71747900  0.30406500  1
  O  O18  1  0.79485100  0.22057600  0.19899400  1
  O  O19  1  0.20363300  0.28415500  0.69418600  1
