# generated using pymatgen
data_Na21ZnS10Cl3O40
_symmetry_space_group_name_H-M   'P 1'
_cell_length_a   13.87664967
_cell_length_b   13.96206174
_cell_length_c   13.87923089
_cell_angle_alpha   70.52944107
_cell_angle_beta   70.76534048
_cell_angle_gamma   109.46309098
_symmetry_Int_Tables_number   1
_chemical_formula_structural   Na21ZnS10Cl3O40
_chemical_formula_sum   'Na42 Zn2 S20 Cl6 O80'
_cell_volume   2076.27083347
_cell_formula_units_Z   2
loop_
 _symmetry_equiv_pos_site_id
 _symmetry_equiv_pos_as_xyz
  1  'x, y, z'
loop_
 _atom_site_type_symbol
 _atom_site_label
 _atom_site_symmetry_multiplicity
 _atom_site_fract_x
 _atom_site_fract_y
 _atom_site_fract_z
 _atom_site_occupancy
  Na  Na0  1  0.53812550  0.24905456  0.20558087  1
  Na  Na1  1  0.95697434  0.75164519  0.29521292  1
  Na  Na2  1  0.28907093  0.75094544  0.95463543  1
  Na  Na3  1  0.20532915  0.24835481  0.54685811  1
  Na  Na4  1  0.70593202  0.45685841  0.74781162  1
  Na  Na5  1  0.79550267  0.03867928  0.24967425  1
  Na  Na6  1  0.45442764  0.70470846  0.25699914  1
  Na  Na7  1  0.04660188  0.79565015  0.74715317  1
  Na  Na8  1  0.74971918  0.29529154  0.46170760  1
  Na  Na9  1  0.25095174  0.20434985  0.04280331  1
  Na  Na10  1  0.24907361  0.54314159  0.70467003  1
  Na  Na11  1  0.75682339  0.96132072  0.78835354  1
  Na  Na12  1  0.46328575  0.24106468  0.53098270  1
  Na  Na13  1  0.23042240  0.25579057  0.27559571  1
  Na  Na14  1  0.03418089  0.50832520  0.22427392  1
  Na  Na15  1  0.26817789  0.99508009  0.97141958  1
  Na  Na16  1  0.22222107  0.75893532  0.27204738  1
  Na  Na17  1  0.97463183  0.74420943  0.03138628  1
  Na  Na18  1  0.52585569  0.49167480  0.23259912  1
  Na  Na19  1  0.27309780  0.00491991  0.46649967  1
  Na  Na20  1  0.77635586  0.53487807  0.99112490  1
  Na  Na21  1  0.02862854  0.76989808  0.50564672  1
  Na  Na22  1  0.46901322  0.96399176  0.26065616  1
  Na  Na23  1  0.72495411  0.73053592  0.24409395  1
  Na  Na24  1  0.53326075  0.77282182  0.49458877  1
  Na  Na25  1  0.77243609  0.02827247  0.00498807  1
  Na  Na26  1  0.96840665  0.47400431  0.75575299  1
  Na  Na27  1  0.73298662  0.72395182  0.73829237  1
  Na  Na28  1  0.76043892  0.22717818  0.76741059  1
  Na  Na29  1  0.74416362  0.97172753  0.53326054  1
  Na  Na30  1  0.49440234  0.52599569  0.72975730  1
  Na  Na31  1  0.00903480  0.27604818  0.96224419  1
  Na  Na32  1  0.24147779  0.46512193  0.02600297  1
  Na  Na33  1  0.25873047  0.23010192  0.77554480  1
  Na  Na34  1  0.50502146  0.03600824  0.72464792  1
  Na  Na35  1  0.99441818  0.26946408  0.47462987  1
  Na  Na36  1  0.49964737  0.15364355  0.00023548  1
  Na  Na37  1  0.65041738  0.49971715  0.50033619  1
  Na  Na38  1  0.99979664  0.99937408  0.34961680  1
  Na  Na39  1  0.34600383  0.84635645  0.65387903  1
  Na  Na40  1  0.15070023  0.50028285  0.50005334  1
  Na  Na41  1  0.00042256  0.00062592  0.84899088  1
  Zn  Zn42  1  0.83383735  0.33376147  0.16625428  1
  Zn  Zn43  1  0.50007588  0.66623853  0.00001575  1
  S  S44  1  0.73489390  0.24897827  0.02325870  1
  S  S45  1  0.76892360  0.74992248  0.48074236  1
  S  S46  1  0.48591562  0.75102173  0.77223698  1
  S  S47  1  0.01900112  0.25007752  0.73066484  1
  S  S48  1  0.51962454  0.26906077  0.75011201  1
  S  S49  1  0.97692586  0.23516925  0.25094816  1
  S  S50  1  0.27240171  0.52309167  0.24158297  1
  S  S51  1  0.23066743  0.98058974  0.74996780  1
  S  S52  1  0.74931004  0.47690833  0.26467464  1
  S  S53  1  0.25007769  0.01941026  0.23055754  1
  S  S54  1  0.25056377  0.73093923  0.51917279  1
  S  S55  1  0.74175660  0.76483075  0.98611741  1
  S  S56  1  0.58318208  0.08300398  0.41719326  1
  S  S57  1  0.50000955  0.41979903  0.00026495  1
  S  S58  1  0.91849048  0.49991847  0.49958297  1
  S  S59  1  0.99937282  0.99978936  0.08189988  1
  S  S60  1  0.50017809  0.91699602  0.00019724  1
  S  S61  1  0.08021052  0.58020097  0.92006398  1
  S  S62  1  0.41857201  0.50008153  0.49950144  1
  S  S63  1  0.99958346  0.00021064  0.58168924  1
  Cl  Cl64  1  0.37541100  0.25056757  0.37526754  1
  Cl  Cl65  1  0.12484343  0.74943243  0.12583511  1
  Cl  Cl66  1  0.87450500  0.62453975  0.75095292  1
  Cl  Cl67  1  0.62503200  0.87615180  0.24879007  1
  Cl  Cl68  1  0.74888020  0.12384820  0.62494188  1
  Cl  Cl69  1  0.24996524  0.37546025  0.87549268  1
  O  O70  1  0.54916477  0.11205867  0.51281508  1
  O  O71  1  0.37515176  0.39258285  0.06391133  1
  O  O72  1  0.95501439  0.43851971  0.43608121  1
  O  O73  1  0.12354695  0.06098773  0.98432786  1
  O  O74  1  0.43710610  0.88794133  0.12487375  1
  O  O75  1  0.98256891  0.60741715  0.95649417  1
  O  O76  1  0.51649468  0.56148029  0.37460091  1
  O  O77  1  0.06255922  0.93901227  0.54531559  1
  O  O78  1  0.56383849  0.45561927  0.06207085  1
  O  O79  1  0.01620377  0.62360159  0.43854269  1
  O  O80  1  0.48771548  0.04929739  0.38742880  1
  O  O81  1  0.93605823  0.87572343  0.10805427  1
  O  O82  1  0.45505048  0.56330974  0.56097833  1
  O  O83  1  0.62475920  0.01235399  0.93907429  1
  O  O84  1  0.04387213  0.48294631  0.89303950  1
  O  O85  1  0.87450936  0.93707586  0.60862913  1
  O  O86  1  0.89174074  0.43669026  0.62428807  1
  O  O87  1  0.61240521  0.98764601  0.45142828  1
  O  O88  1  0.56092582  0.51705369  0.87598581  1
  O  O89  1  0.93743350  0.06292414  0.04570499  1
  O  O90  1  0.10821923  0.54438073  0.01769011  1
  O  O91  1  0.39260218  0.37639841  0.56214428  1
  O  O92  1  0.43841809  0.95070261  0.93672619  1
  O  O93  1  0.06033480  0.12427657  0.48377770  1
  O  O94  1  0.80235504  0.18924119  0.04241281  1
  O  O95  1  0.76840331  0.31249454  0.89825975  1
  O  O96  1  0.69773698  0.65796056  0.60705354  1
  O  O97  1  0.73442490  0.84223638  0.45904720  1
  O  O98  1  0.61311385  0.81075881  0.73165399  1
  O  O99  1  0.45590877  0.68750546  0.71075428  1
  O  O100  1  0.03977642  0.34203944  0.76501410  1
  O  O101  1  0.89218851  0.15776362  0.80128358  1
  O  O102  1  0.39330354  0.19809035  0.84225191  1
  O  O103  1  0.54156992  0.23556776  0.65695896  1
  O  O104  1  0.95816864  0.30206421  0.31137582  1
  O  O105  1  0.10202622  0.26878324  0.18750556  1
  O  O106  1  0.21148267  0.39843608  0.33233069  1
  O  O107  1  0.23094668  0.54178672  0.15524485  1
  O  O108  1  0.30186600  0.95858664  0.80600618  1
  O  O109  1  0.26425430  0.10629555  0.69527173  1
  O  O110  1  0.81304659  0.60156392  0.23076677  1
  O  O111  1  0.68915996  0.45821328  0.19703157  1
  O  O112  1  0.34327936  0.04141336  0.26459282  1
  O  O113  1  0.15795875  0.89370445  0.30156728  1
  O  O114  1  0.19521319  0.80190965  0.54034226  1
  O  O115  1  0.30600216  0.76443224  0.39252672  1
  O  O116  1  0.65610443  0.69793579  0.11344003  1
  O  O117  1  0.83324298  0.73121676  0.95628880  1
  O  O118  1  0.69067655  0.19001816  0.30999375  1
  O  O119  1  0.50044746  0.31382929  0.00036334  1
  O  O120  1  0.81202733  0.49956954  0.49889857  1
  O  O121  1  0.99892714  0.99969645  0.18862024  1
  O  O122  1  0.50065839  0.80998184  0.00001191  1
  O  O123  1  0.18661816  0.68617071  0.81419264  1
  O  O124  1  0.31245779  0.50043046  0.49846811  1
  O  O125  1  0.99923069  0.00030355  0.68831668  1
  O  O126  1  0.60652982  0.16319227  0.09685719  1
  O  O127  1  0.75944493  0.33982338  0.06466589  1
  O  O128  1  0.89594733  0.80201984  0.44676768  1
  O  O129  1  0.75146590  0.69784306  0.40538448  1
  O  O130  1  0.44333755  0.83680773  0.76004946  1
  O  O131  1  0.41962154  0.66017662  0.90448927  1
  O  O132  1  0.09392749  0.19798016  0.74878752  1
  O  O133  1  0.05362284  0.30215694  0.60322754  1
  O  O134  1  0.55392591  0.39544296  0.69845341  1
  O  O135  1  0.59517790  0.25118166  0.80256836  1
  O  O136  1  0.90349248  0.10738053  0.33622802  1
  O  O137  1  0.93585026  0.26041502  0.15933963  1
  O  O138  1  0.40482819  0.56424123  0.17552699  1
  O  O139  1  0.26014048  0.59641555  0.29641370  1
  O  O140  1  0.10348781  0.90536386  0.84220045  1
  O  O141  1  0.24889239  0.94665142  0.65669522  1
  O  O142  1  0.84058696  0.43575877  0.23976822  1
  O  O143  1  0.66372492  0.40358445  0.39282925  1
  O  O144  1  0.19812396  0.09463614  0.24756431  1
  O  O145  1  0.30224097  0.05334858  0.10334664  1
  O  O146  1  0.15848295  0.60455704  0.59389636  1
  O  O147  1  0.34399624  0.74881834  0.55375002  1
  O  O148  1  0.79611195  0.89261947  0.94360855  1
  O  O149  1  0.67543523  0.73958498  0.91975465  1
