# generated using pymatgen
data_La3Mn8BiO20
_symmetry_space_group_name_H-M   'P 1'
_cell_length_a   5.83022100
_cell_length_b   7.74606100
_cell_length_c   8.79087654
_cell_angle_alpha   89.91558348
_cell_angle_beta   90.00000000
_cell_angle_gamma   90.00000000
_symmetry_Int_Tables_number   1
_chemical_formula_structural   La3Mn8BiO20
_chemical_formula_sum   'La3 Mn8 Bi1 O20'
_cell_volume   397.00652041
_cell_formula_units_Z   1
loop_
 _symmetry_equiv_pos_site_id
 _symmetry_equiv_pos_as_xyz
  1  'x, y, z'
loop_
 _atom_site_type_symbol
 _atom_site_label
 _atom_site_symmetry_multiplicity
 _atom_site_fract_x
 _atom_site_fract_y
 _atom_site_fract_z
 _atom_site_occupancy
  La  La0  1  0.00000000  0.64304500  0.67070600  1
  La  La1  1  0.00000000  0.85226700  0.17342700  1
  La  La2  1  0.00000000  0.14623000  0.82747900  1
  Mn  Mn3  1  0.50000000  0.09415400  0.14866100  1
  Mn  Mn4  1  0.50000000  0.90819000  0.85118100  1
  Mn  Mn5  1  0.50000000  0.58655000  0.34900400  1
  Mn  Mn6  1  0.50000000  0.40760800  0.64928100  1
  Mn  Mn7  1  0.25743100  0.49992100  0.00080300  1
  Mn  Mn8  1  0.74182200  0.00106300  0.50016900  1
  Mn  Mn9  1  0.74256900  0.49992100  0.00080300  1
  Mn  Mn10  1  0.25817800  0.00106300  0.50016900  1
  Bi  Bi11  1  0.00000000  0.34739500  0.32837400  1
  O  O12  1  0.50000000  0.34946800  0.06296800  1
  O  O13  1  0.50000000  0.65116400  0.93669700  1
  O  O14  1  0.50000000  0.85055700  0.43324400  1
  O  O15  1  0.50000000  0.15115500  0.56557700  1
  O  O16  1  0.00000000  0.34467400  0.05452600  1
  O  O17  1  0.00000000  0.65386100  0.94862000  1
  O  O18  1  0.00000000  0.84741900  0.44864600  1
  O  O19  1  0.00000000  0.15639900  0.55009400  1
  O  O20  1  0.24857700  0.10243600  0.29555900  1
  O  O21  1  0.24978000  0.90338200  0.70466900  1
  O  O22  1  0.74942700  0.59632200  0.20430700  1
  O  O23  1  0.75045900  0.40355900  0.79536200  1
  O  O24  1  0.75022000  0.90338200  0.70466900  1
  O  O25  1  0.75142300  0.10243600  0.29555900  1
  O  O26  1  0.24954100  0.40355900  0.79536200  1
  O  O27  1  0.25057300  0.59632200  0.20430700  1
  O  O28  1  0.27841600  0.49821400  0.49915100  1
  O  O29  1  0.72164900  0.00003400  0.00073600  1
  O  O30  1  0.72158400  0.49821400  0.49915100  1
  O  O31  1  0.27835100  0.00003400  0.00073600  1
