# generated using pymatgen
data_La5Si2BO13
_symmetry_space_group_name_H-M   'P 1'
_cell_length_a   7.25409900
_cell_length_b   9.60633000
_cell_length_c   9.61235126
_cell_angle_alpha   60.12191263
_cell_angle_beta   90.00000000
_cell_angle_gamma   90.00000000
_symmetry_Int_Tables_number   1
_chemical_formula_structural   La5Si2BO13
_chemical_formula_sum   'La10 Si4 B2 O26'
_cell_volume   580.80915515
_cell_formula_units_Z   2
loop_
 _symmetry_equiv_pos_site_id
 _symmetry_equiv_pos_as_xyz
  1  'x, y, z'
loop_
 _atom_site_type_symbol
 _atom_site_label
 _atom_site_symmetry_multiplicity
 _atom_site_fract_x
 _atom_site_fract_y
 _atom_site_fract_z
 _atom_site_occupancy
  La  La0  1  0.50000000  0.99375000  0.76773300  1
  La  La1  1  0.50000000  0.24001800  0.01302100  1
  La  La2  1  0.50000000  0.74874400  0.22440900  1
  La  La3  1  0.00000000  0.97182500  0.24926700  1
  La  La4  1  0.00000000  0.76080500  0.00123300  1
  La  La5  1  0.00000000  0.25010700  0.75863900  1
  La  La6  1  0.75162700  0.35006500  0.32738500  1
  La  La7  1  0.25208100  0.66466700  0.67060500  1
  La  La8  1  0.74791900  0.66466700  0.67060500  1
  La  La9  1  0.24837300  0.35006500  0.32738500  1
  Si  Si10  1  0.50000000  0.40174100  0.62940000  1
  Si  Si11  1  0.50000000  0.97096900  0.39917200  1
  Si  Si12  1  0.00000000  0.36634700  0.03241300  1
  Si  Si13  1  0.00000000  0.03270300  0.59613200  1
  B  B14  1  0.50000000  0.63090600  0.96574200  1
  B  B15  1  0.00000000  0.59751700  0.37201200  1
  O  O16  1  0.67029600  0.73679000  0.91488800  1
  O  O17  1  0.68204300  0.34585200  0.74708800  1
  O  O18  1  0.68271400  0.90898000  0.34442500  1
  O  O19  1  0.18332400  0.25235200  0.09097700  1
  O  O20  1  0.16997200  0.65073700  0.26286300  1
  O  O21  1  0.18273700  0.09171200  0.65507600  1
  O  O22  1  0.81667600  0.25235200  0.09097700  1
  O  O23  1  0.83002800  0.65073700  0.26286300  1
  O  O24  1  0.81726300  0.09171200  0.65507600  1
  O  O25  1  0.32970400  0.73679000  0.91488800  1
  O  O26  1  0.31795700  0.34585200  0.74708800  1
  O  O27  1  0.31728600  0.90898000  0.34442500  1
  O  O28  1  0.50000000  0.52053800  0.14647000  1
  O  O29  1  0.50000000  0.32762500  0.51001500  1
  O  O30  1  0.50000000  0.16529200  0.32515300  1
  O  O31  1  0.00000000  0.48713000  0.83759800  1
  O  O32  1  0.00000000  0.66538900  0.48181500  1
  O  O33  1  0.00000000  0.83744700  0.67286200  1
  O  O34  1  0.50000000  0.53786300  0.87671300  1
  O  O35  1  0.50000000  0.59918900  0.52921300  1
  O  O36  1  0.50000000  0.87176400  0.59668300  1
  O  O37  1  0.00000000  0.46924300  0.12668700  1
  O  O38  1  0.00000000  0.41550000  0.46214500  1
  O  O39  1  0.00000000  0.13004900  0.39891500  1
  O  O40  1  0.50000000  0.00126700  0.00360000  1
  O  O41  1  0.00000000  0.00396400  0.99634200  1
