# generated using pymatgen
data_La3Mn4AgO12
_symmetry_space_group_name_H-M   'P 1'
_cell_length_a   5.56477800
_cell_length_b   5.52976300
_cell_length_c   7.81840036
_cell_angle_alpha   89.29888164
_cell_angle_beta   90.00000000
_cell_angle_gamma   90.00000000
_symmetry_Int_Tables_number   1
_chemical_formula_structural   La3Mn4AgO12
_chemical_formula_sum   'La3 Mn4 Ag1 O12'
_cell_volume   240.56904866
_cell_formula_units_Z   1
loop_
 _symmetry_equiv_pos_site_id
 _symmetry_equiv_pos_as_xyz
  1  'x, y, z'
loop_
 _atom_site_type_symbol
 _atom_site_label
 _atom_site_symmetry_multiplicity
 _atom_site_fract_x
 _atom_site_fract_y
 _atom_site_fract_z
 _atom_site_occupancy
  La  La0  1  0.49808200  0.00000000  0.00000000  1
  La  La1  1  0.99962400  0.50000000  0.00000000  1
  La  La2  1  0.49917600  0.00000000  0.50000000  1
  Mn  Mn3  1  0.99932600  0.00069000  0.74555100  1
  Mn  Mn4  1  0.49985800  0.50018100  0.25455200  1
  Mn  Mn5  1  0.99932600  0.99931000  0.25444900  1
  Mn  Mn6  1  0.49985800  0.49981900  0.74544800  1
  Ag  Ag7  1  0.99995800  0.50000000  0.50000000  1
  O  O8  1  0.71992500  0.78069900  0.78186000  1
  O  O9  1  0.22587500  0.27345600  0.27266400  1
  O  O10  1  0.22587500  0.72654400  0.72733600  1
  O  O11  1  0.71992500  0.21930100  0.21814000  1
  O  O12  1  0.05362200  0.00000000  0.00000000  1
  O  O13  1  0.56189100  0.50000000  0.50000000  1
  O  O14  1  0.76969100  0.26855000  0.78980800  1
  O  O15  1  0.28729300  0.78813200  0.26871300  1
  O  O16  1  0.93876400  0.00000000  0.50000000  1
  O  O17  1  0.44495000  0.50000000  0.00000000  1
  O  O18  1  0.28729300  0.21186800  0.73128700  1
  O  O19  1  0.76969100  0.73145000  0.21019200  1
