# generated using pymatgen
data_KTl(CoSe)4
_symmetry_space_group_name_H-M   'P 1'
_cell_length_a   3.89064100
_cell_length_b   3.89064100
_cell_length_c   13.30872100
_cell_angle_alpha   90.00000000
_cell_angle_beta   90.00000000
_cell_angle_gamma   90.00000000
_symmetry_Int_Tables_number   1
_chemical_formula_structural   KTl(CoSe)4
_chemical_formula_sum   'K1 Tl1 Co4 Se4'
_cell_volume   201.45527284
_cell_formula_units_Z   1
loop_
 _symmetry_equiv_pos_site_id
 _symmetry_equiv_pos_as_xyz
  1  'x, y, z'
loop_
 _atom_site_type_symbol
 _atom_site_label
 _atom_site_symmetry_multiplicity
 _atom_site_fract_x
 _atom_site_fract_y
 _atom_site_fract_z
 _atom_site_occupancy
  K  K0  1  0.50000000  0.50000000  0.50000000  1
  Tl  Tl1  1  0.00000000  0.00000000  0.00000000  1
  Co  Co2  1  0.00000000  0.50000000  0.25034900  1
  Co  Co3  1  0.50000000  0.00000000  0.74965100  1
  Co  Co4  1  0.50000000  0.00000000  0.25034900  1
  Co  Co5  1  0.00000000  0.50000000  0.74965100  1
  Se  Se6  1  0.50000000  0.50000000  0.15206200  1
  Se  Se7  1  0.00000000  0.00000000  0.65112500  1
  Se  Se8  1  0.00000000  0.00000000  0.34887500  1
  Se  Se9  1  0.50000000  0.50000000  0.84793800  1
