# generated using pymatgen
data_SrCeN2
_symmetry_space_group_name_H-M   'P 1'
_cell_length_a   6.34097075
_cell_length_b   6.34097075
_cell_length_c   6.34097075
_cell_angle_alpha   131.33228734
_cell_angle_beta   131.33228734
_cell_angle_gamma   71.28567312
_symmetry_Int_Tables_number   1
_chemical_formula_structural   SrCeN2
_chemical_formula_sum   'Sr2 Ce2 N4'
_cell_volume   140.71642317
_cell_formula_units_Z   2
loop_
 _symmetry_equiv_pos_site_id
 _symmetry_equiv_pos_as_xyz
  1  'x, y, z'
loop_
 _atom_site_type_symbol
 _atom_site_label
 _atom_site_symmetry_multiplicity
 _atom_site_fract_x
 _atom_site_fract_y
 _atom_site_fract_z
 _atom_site_occupancy
  Sr  Sr0  1  0.00000000  0.00000000  0.00000000  1
  Sr  Sr1  1  0.75000000  0.25000000  0.50000000  1
  Ce  Ce2  1  0.25000000  0.75000000  0.50000000  1
  Ce  Ce3  1  0.50000000  0.50000000  0.00000000  1
  N  N4  1  0.72054200  0.72054200  0.00000000  1
  N  N5  1  0.47054200  0.97054200  0.50000000  1
  N  N6  1  0.27945800  0.27945800  0.00000000  1
  N  N7  1  0.02945800  0.52945800  0.50000000  1
