# generated using pymatgen
data_KYTa2O7
_symmetry_space_group_name_H-M   'P 1'
_cell_length_a   7.54824449
_cell_length_b   7.54824449
_cell_length_c   7.54824449
_cell_angle_alpha   121.02674505
_cell_angle_beta   119.99995169
_cell_angle_gamma   89.11546671
_symmetry_Int_Tables_number   1
_chemical_formula_structural   KYTa2O7
_chemical_formula_sum   'K2 Y2 Ta4 O14'
_cell_volume   301.67504588
_cell_formula_units_Z   2
loop_
 _symmetry_equiv_pos_site_id
 _symmetry_equiv_pos_as_xyz
  1  'x, y, z'
loop_
 _atom_site_type_symbol
 _atom_site_label
 _atom_site_symmetry_multiplicity
 _atom_site_fract_x
 _atom_site_fract_y
 _atom_site_fract_z
 _atom_site_occupancy
  K  K0  1  0.00000000  0.00000000  0.50000000  1
  K  K1  1  0.00000000  0.50000000  0.00000000  1
  Y  Y2  1  0.00000000  0.00000000  0.00000000  1
  Y  Y3  1  0.50000000  0.00000000  0.50000000  1
  Ta  Ta4  1  0.50000000  0.50000000  0.50000000  1
  Ta  Ta5  1  0.50000000  0.00000000  0.00000000  1
  Ta  Ta6  1  0.50000000  0.50000000  0.00000000  1
  Ta  Ta7  1  0.00000000  0.50000000  0.50000000  1
  O  O8  1  0.15972600  0.90972600  0.25000000  1
  O  O9  1  0.84027400  0.09027400  0.75000000  1
  O  O10  1  0.43402100  0.18402100  0.25000000  1
  O  O11  1  0.80753600  0.55753600  0.25000000  1
  O  O12  1  0.44309200  0.57424400  0.26062000  1
  O  O13  1  0.81362500  0.18247200  0.23938000  1
  O  O14  1  0.44309200  0.18247200  0.86884700  1
  O  O15  1  0.81362500  0.57424400  0.63115300  1
  O  O16  1  0.56597900  0.81597900  0.75000000  1
  O  O17  1  0.19246400  0.44246400  0.75000000  1
  O  O18  1  0.55690800  0.42575600  0.73938000  1
  O  O19  1  0.18637500  0.81752800  0.76062000  1
  O  O20  1  0.55690800  0.81752800  0.13115300  1
  O  O21  1  0.18637500  0.42575600  0.36884700  1
