# generated using pymatgen
data_Dy3TaO7
_symmetry_space_group_name_H-M   'P 1'
_cell_length_a   8.14824690
_cell_length_b   8.14824690
_cell_length_c   5.36720900
_cell_angle_alpha   90.00000000
_cell_angle_beta   90.00000000
_cell_angle_gamma   125.41724677
_symmetry_Int_Tables_number   1
_chemical_formula_structural   Dy3TaO7
_chemical_formula_sum   'Dy6 Ta2 O14'
_cell_volume   290.40870931
_cell_formula_units_Z   2
loop_
 _symmetry_equiv_pos_site_id
 _symmetry_equiv_pos_as_xyz
  1  'x, y, z'
loop_
 _atom_site_type_symbol
 _atom_site_label
 _atom_site_symmetry_multiplicity
 _atom_site_fract_x
 _atom_site_fract_y
 _atom_site_fract_z
 _atom_site_occupancy
  Dy  Dy0  1  0.00000000  0.50000000  0.00000000  1
  Dy  Dy1  1  0.50000000  0.00000000  0.00000000  1
  Dy  Dy2  1  0.61958500  0.38041500  0.47118400  1
  Dy  Dy3  1  0.11958500  0.88041500  0.52881600  1
  Dy  Dy4  1  0.88041500  0.11958500  0.47118400  1
  Dy  Dy5  1  0.38041500  0.61958500  0.52881600  1
  Ta  Ta6  1  0.75000000  0.75000000  0.00000000  1
  Ta  Ta7  1  0.25000000  0.25000000  0.00000000  1
  O  O8  1  0.75000000  0.25000000  0.24222100  1
  O  O9  1  0.83825700  0.59964100  0.76379000  1
  O  O10  1  0.98782500  0.01217500  0.21149700  1
  O  O11  1  0.40035900  0.16174300  0.76379000  1
  O  O12  1  0.33825700  0.09964100  0.23621000  1
  O  O13  1  0.09964100  0.33825700  0.76379000  1
  O  O14  1  0.51217500  0.48782500  0.21149700  1
  O  O15  1  0.48782500  0.51217500  0.78850300  1
  O  O16  1  0.90035900  0.66174300  0.23621000  1
  O  O17  1  0.59964100  0.83825700  0.23621000  1
  O  O18  1  0.66174300  0.90035900  0.76379000  1
  O  O19  1  0.01217500  0.98782500  0.78850300  1
  O  O20  1  0.16174300  0.40035900  0.23621000  1
  O  O21  1  0.25000000  0.75000000  0.75777900  1
