# generated using pymatgen
data_La2(ErGe)3
_symmetry_space_group_name_H-M   'P 1'
_cell_length_a   8.68971034
_cell_length_b   8.68971034
_cell_length_c   6.59269400
_cell_angle_alpha   90.00000000
_cell_angle_beta   90.00000000
_cell_angle_gamma   120.00000256
_symmetry_Int_Tables_number   1
_chemical_formula_structural   La2(ErGe)3
_chemical_formula_sum   'La4 Er6 Ge6'
_cell_volume   431.12592450
_cell_formula_units_Z   2
loop_
 _symmetry_equiv_pos_site_id
 _symmetry_equiv_pos_as_xyz
  1  'x, y, z'
loop_
 _atom_site_type_symbol
 _atom_site_label
 _atom_site_symmetry_multiplicity
 _atom_site_fract_x
 _atom_site_fract_y
 _atom_site_fract_z
 _atom_site_occupancy
  La  La0  1  0.66666700  0.33333300  0.00000000  1
  La  La1  1  0.33333300  0.66666700  0.00000000  1
  La  La2  1  0.33333300  0.66666700  0.50000000  1
  La  La3  1  0.66666700  0.33333300  0.50000000  1
  Er  Er4  1  0.75713700  0.75713700  0.75000000  1
  Er  Er5  1  0.24286300  0.00000000  0.75000000  1
  Er  Er6  1  0.00000000  0.24286300  0.75000000  1
  Er  Er7  1  0.24286300  0.24286300  0.25000000  1
  Er  Er8  1  0.75713700  0.00000000  0.25000000  1
  Er  Er9  1  0.00000000  0.75713700  0.25000000  1
  Ge  Ge10  1  0.38389200  0.38389200  0.75000000  1
  Ge  Ge11  1  0.61610800  0.00000000  0.75000000  1
  Ge  Ge12  1  0.00000000  0.61610800  0.75000000  1
  Ge  Ge13  1  0.61610800  0.61610800  0.25000000  1
  Ge  Ge14  1  0.38389200  0.00000000  0.25000000  1
  Ge  Ge15  1  0.00000000  0.38389200  0.25000000  1
