# generated using pymatgen
data_La2MnCrO6
_symmetry_space_group_name_H-M   'P 1'
_cell_length_a   5.62783375
_cell_length_b   7.71386655
_cell_length_c   5.73284808
_cell_angle_alpha   89.99664107
_cell_angle_beta   89.98061467
_cell_angle_gamma   89.37998398
_symmetry_Int_Tables_number   1
_chemical_formula_structural   La2MnCrO6
_chemical_formula_sum   'La4 Mn2 Cr2 O12'
_cell_volume   248.86187030
_cell_formula_units_Z   2
loop_
 _symmetry_equiv_pos_site_id
 _symmetry_equiv_pos_as_xyz
  1  'x, y, z'
loop_
 _atom_site_type_symbol
 _atom_site_label
 _atom_site_symmetry_multiplicity
 _atom_site_fract_x
 _atom_site_fract_y
 _atom_site_fract_z
 _atom_site_occupancy
  La  La0  1  0.49079100  0.74973200  0.54342900  1
  La  La1  1  0.00916900  0.75022900  0.04327200  1
  La  La2  1  0.50915400  0.25027000  0.45671800  1
  La  La3  1  0.99083600  0.24970600  0.95658600  1
  Mn  Mn4  1  0.99997500  0.50010900  0.49998700  1
  Mn  Mn5  1  0.50004800  0.00002100  0.00021400  1
  Cr  Cr6  1  0.50013000  0.50014400  0.00012500  1
  Cr  Cr7  1  0.99996200  0.99990800  0.49968500  1
  O  O8  1  0.71180600  0.04204100  0.70062300  1
  O  O9  1  0.78808000  0.45790800  0.20063700  1
  O  O10  1  0.28818000  0.95787700  0.29927900  1
  O  O11  1  0.21194200  0.54206900  0.79942000  1
  O  O12  1  0.29739300  0.54079300  0.28985300  1
  O  O13  1  0.20249800  0.95920000  0.78966500  1
  O  O14  1  0.70260700  0.45924400  0.71023600  1
  O  O15  1  0.79747800  0.04076500  0.21021800  1
  O  O16  1  0.92247700  0.74345800  0.47963800  1
  O  O17  1  0.57749800  0.75653100  0.97971300  1
  O  O18  1  0.07746800  0.25650800  0.52031000  1
  O  O19  1  0.42251000  0.24348600  0.02039200  1
