# generated using pymatgen
data_La5Cu6S7O4
_symmetry_space_group_name_H-M   'P 1'
_cell_length_a   12.11412267
_cell_length_b   12.11412267
_cell_length_c   12.11412267
_cell_angle_alpha   153.29847070
_cell_angle_beta   99.25405909
_cell_angle_gamma   86.89465962
_symmetry_Int_Tables_number   1
_chemical_formula_structural   La5Cu6S7O4
_chemical_formula_sum   'La10 Cu12 S14 O8'
_cell_volume   772.21355209
_cell_formula_units_Z   2
loop_
 _symmetry_equiv_pos_site_id
 _symmetry_equiv_pos_as_xyz
  1  'x, y, z'
loop_
 _atom_site_type_symbol
 _atom_site_label
 _atom_site_symmetry_multiplicity
 _atom_site_fract_x
 _atom_site_fract_y
 _atom_site_fract_z
 _atom_site_occupancy
  La  La0  1  0.06085700  0.67142400  0.39740400  1
  La  La1  1  0.93914300  0.33654700  0.61056700  1
  La  La2  1  0.22597900  0.33654700  0.89740400  1
  La  La3  1  0.77402100  0.67142400  0.11056700  1
  La  La4  1  0.57144000  0.32150800  0.25006800  1
  La  La5  1  0.42856000  0.67862800  0.75006800  1
  La  La6  1  0.61023700  0.17872900  0.43224400  1
  La  La7  1  0.38976300  0.82200700  0.56849300  1
  La  La8  1  0.75351400  0.82200700  0.93224400  1
  La  La9  1  0.24648600  0.17872900  0.06849300  1
  Cu  Cu10  1  0.34637800  0.77408700  0.09770300  1
  Cu  Cu11  1  0.65362200  0.75132500  0.42770900  1
  Cu  Cu12  1  0.82361600  0.75132500  0.59770300  1
  Cu  Cu13  1  0.17638400  0.77408700  0.92770900  1
  Cu  Cu14  1  0.65363700  0.22600200  0.90235500  1
  Cu  Cu15  1  0.34636300  0.24871800  0.57236500  1
  Cu  Cu16  1  0.17635300  0.24871800  0.40235500  1
  Cu  Cu17  1  0.82364700  0.22600200  0.07236500  1
  Cu  Cu18  1  0.50000000  0.75597800  0.25597800  1
  Cu  Cu19  1  0.00000000  0.75597800  0.75597800  1
  Cu  Cu20  1  0.50000000  0.24416700  0.74416700  1
  Cu  Cu21  1  0.00000000  0.24416700  0.24416700  1
  S  S22  1  0.34466700  0.09475600  0.25009000  1
  S  S23  1  0.65533300  0.90542300  0.75009000  1
  S  S24  1  0.80737000  0.55755200  0.25018200  1
  S  S25  1  0.19263000  0.44281100  0.75018200  1
  S  S26  1  0.83863300  0.41234800  0.42669600  1
  S  S27  1  0.16136700  0.58806300  0.57371400  1
  S  S28  1  0.51434900  0.58806300  0.92669600  1
  S  S29  1  0.48565100  0.41234800  0.07371400  1
  S  S30  1  0.98747700  0.07791200  0.91038900  1
  S  S31  1  0.01252300  0.92291100  0.09043400  1
  S  S32  1  0.33247700  0.92291100  0.41038900  1
  S  S33  1  0.66752300  0.07791200  0.59043400  1
  S  S34  1  0.00455700  0.53948100  0.03492400  1
  S  S35  1  0.99544300  0.03036700  0.53492400  1
  O  O36  1  0.59274000  0.00005500  0.09279600  1
  O  O37  1  0.40726000  0.50005500  0.40731500  1
  O  O38  1  0.59274100  0.50005500  0.59279600  1
  O  O39  1  0.40725900  0.00005500  0.90731500  1
  O  O40  1  0.21993900  0.00076200  0.72028600  1
  O  O41  1  0.78006100  0.50034700  0.78082300  1
  O  O42  1  0.21952300  0.50034700  0.22028600  1
  O  O43  1  0.78047700  0.00076200  0.28082300  1
