# generated using pymatgen
data_KSb5O13
_symmetry_space_group_name_H-M   'P 1'
_cell_length_a   17.07380700
_cell_length_b   5.62238400
_cell_length_c   5.66289413
_cell_angle_alpha   72.69893422
_cell_angle_beta   90.00000000
_cell_angle_gamma   90.00000000
_symmetry_Int_Tables_number   1
_chemical_formula_structural   KSb5O13
_chemical_formula_sum   'K2 Sb10 O26'
_cell_volume   519.01675414
_cell_formula_units_Z   2
loop_
 _symmetry_equiv_pos_site_id
 _symmetry_equiv_pos_as_xyz
  1  'x, y, z'
loop_
 _atom_site_type_symbol
 _atom_site_label
 _atom_site_symmetry_multiplicity
 _atom_site_fract_x
 _atom_site_fract_y
 _atom_site_fract_z
 _atom_site_occupancy
  K  K0  1  0.75000000  0.09376900  0.15724100  1
  K  K1  1  0.25000000  0.90623100  0.84275900  1
  Sb  Sb2  1  0.57752000  0.38642900  0.38586800  1
  Sb  Sb3  1  0.42248000  0.61357100  0.61413200  1
  Sb  Sb4  1  0.92248000  0.38642900  0.38586800  1
  Sb  Sb5  1  0.07752000  0.61357100  0.61413200  1
  Sb  Sb6  1  0.50000000  0.00000000  0.00000000  1
  Sb  Sb7  1  0.00000000  0.00000000  0.00000000  1
  Sb  Sb8  1  0.36192900  0.23357100  0.22915300  1
  Sb  Sb9  1  0.63807100  0.76642900  0.77084700  1
  Sb  Sb10  1  0.13807100  0.23357100  0.22915300  1
  Sb  Sb11  1  0.86192900  0.76642900  0.77084700  1
  O  O12  1  0.75000000  0.81955700  0.81627100  1
  O  O13  1  0.25000000  0.18044300  0.18372900  1
  O  O14  1  0.34892300  0.44453600  0.44735700  1
  O  O15  1  0.65107700  0.55546400  0.55264300  1
  O  O16  1  0.15107700  0.44453600  0.44735700  1
  O  O17  1  0.84892300  0.55546400  0.55264300  1
  O  O18  1  0.61290800  0.98444500  0.98486200  1
  O  O19  1  0.38709200  0.01555500  0.01513800  1
  O  O20  1  0.88709200  0.98444500  0.98486200  1
  O  O21  1  0.11290800  0.01555500  0.01513800  1
  O  O22  1  0.49990900  0.68895400  0.31112500  1
  O  O23  1  0.00009100  0.68895400  0.31112500  1
  O  O24  1  0.50009100  0.31104600  0.68887500  1
  O  O25  1  0.99990900  0.31104600  0.68887500  1
  O  O26  1  0.63225900  0.06855600  0.47752400  1
  O  O27  1  0.36631000  0.52799000  0.92838200  1
  O  O28  1  0.86774100  0.06855600  0.47752400  1
  O  O29  1  0.13369000  0.52799000  0.92838200  1
  O  O30  1  0.36774100  0.93144400  0.52247600  1
  O  O31  1  0.63369000  0.47201000  0.07161800  1
  O  O32  1  0.13225900  0.93144400  0.52247600  1
  O  O33  1  0.86631000  0.47201000  0.07161800  1
  O  O34  1  0.51002100  0.77437300  0.77547800  1
  O  O35  1  0.48997900  0.22562700  0.22452200  1
  O  O36  1  0.98997900  0.77437300  0.77547800  1
  O  O37  1  0.01002100  0.22562700  0.22452200  1
