# generated using pymatgen
data_KU2(PO4)3
_symmetry_space_group_name_H-M   'P 1'
_cell_length_a   9.45692124
_cell_length_b   9.45692124
_cell_length_c   8.08280137
_cell_angle_alpha   78.69526794
_cell_angle_beta   78.69526794
_cell_angle_gamma   42.32839534
_symmetry_Int_Tables_number   1
_chemical_formula_structural   KU2(PO4)3
_chemical_formula_sum   'K2 U4 P6 O24'
_cell_volume   475.89113621
_cell_formula_units_Z   2
loop_
 _symmetry_equiv_pos_site_id
 _symmetry_equiv_pos_as_xyz
  1  'x, y, z'
loop_
 _atom_site_type_symbol
 _atom_site_label
 _atom_site_symmetry_multiplicity
 _atom_site_fract_x
 _atom_site_fract_y
 _atom_site_fract_z
 _atom_site_occupancy
  K  K0  1  0.40847500  0.60809300  0.71198800  1
  K  K1  1  0.60809300  0.40847500  0.21198800  1
  U  U2  1  0.93936500  0.75243500  0.53667100  1
  U  U3  1  0.24848100  0.06026000  0.96289900  1
  U  U4  1  0.06026000  0.24848100  0.46289900  1
  U  U5  1  0.75243500  0.93936500  0.03667100  1
  P  P6  1  0.90278300  0.09725100  0.75004800  1
  P  P7  1  0.09725100  0.90278300  0.25004800  1
  P  P8  1  0.78135100  0.60011600  0.81698000  1
  P  P9  1  0.40005100  0.21888800  0.68297200  1
  P  P10  1  0.21888800  0.40005100  0.18297200  1
  P  P11  1  0.60011600  0.78135100  0.31698000  1
  O  O12  1  0.82523500  0.72731000  0.83003500  1
  O  O13  1  0.27245000  0.17490100  0.67004900  1
  O  O14  1  0.17490100  0.27245000  0.17004900  1
  O  O15  1  0.72731000  0.82523500  0.33003500  1
  O  O16  1  0.95979300  0.89554700  0.74406000  1
  O  O17  1  0.10476700  0.04041800  0.75567700  1
  O  O18  1  0.04041800  0.10476700  0.25567700  1
  O  O19  1  0.89554700  0.95979300  0.24406000  1
  O  O20  1  0.26160700  0.45546600  0.65269200  1
  O  O21  1  0.54478000  0.73749300  0.84757000  1
  O  O22  1  0.73749300  0.54478000  0.34757000  1
  O  O23  1  0.45546600  0.26160700  0.15269200  1
  O  O24  1  0.85617900  0.54982200  0.62659300  1
  O  O25  1  0.45023200  0.14310900  0.87355600  1
  O  O26  1  0.14310900  0.45023200  0.37355600  1
  O  O27  1  0.54982200  0.85617900  0.12659300  1
  O  O28  1  0.60585900  0.08667500  0.56831500  1
  O  O29  1  0.91164700  0.39480000  0.93266600  1
  O  O30  1  0.39480000  0.91164700  0.43266600  1
  O  O31  1  0.08667500  0.60585900  0.06831500  1
  O  O32  1  0.19339900  0.75207700  0.41197800  1
  O  O33  1  0.24731700  0.80816800  0.08725200  1
  O  O34  1  0.80816800  0.24731700  0.58725200  1
  O  O35  1  0.75207700  0.19339900  0.91197800  1
