# generated using pymatgen
data_La2Te6WO18
_symmetry_space_group_name_H-M   'P 1'
_cell_length_a   6.92132811
_cell_length_b   6.92132811
_cell_length_c   20.55502300
_cell_angle_alpha   90.00000000
_cell_angle_beta   90.00000000
_cell_angle_gamma   120.00000103
_symmetry_Int_Tables_number   1
_chemical_formula_structural   La2Te6WO18
_chemical_formula_sum   'La4 Te12 W2 O36'
_cell_volume   852.76127338
_cell_formula_units_Z   2
loop_
 _symmetry_equiv_pos_site_id
 _symmetry_equiv_pos_as_xyz
  1  'x, y, z'
loop_
 _atom_site_type_symbol
 _atom_site_label
 _atom_site_symmetry_multiplicity
 _atom_site_fract_x
 _atom_site_fract_y
 _atom_site_fract_z
 _atom_site_occupancy
  La  La0  1  0.66666700  0.33333300  0.25506600  1
  La  La1  1  0.66666700  0.33333300  0.75506600  1
  La  La2  1  0.33333300  0.66666700  0.74429600  1
  La  La3  1  0.33333300  0.66666700  0.24429600  1
  Te  Te4  1  0.62993300  0.62997600  0.08595100  1
  Te  Te5  1  0.00004300  0.37006700  0.08595100  1
  Te  Te6  1  0.37002400  0.99995700  0.08595100  1
  Te  Te7  1  0.62993300  0.99995700  0.58595100  1
  Te  Te8  1  0.37002400  0.37006700  0.58595100  1
  Te  Te9  1  0.00004300  0.62997600  0.58595100  1
  Te  Te10  1  0.37585500  0.37532900  0.91356000  1
  Te  Te11  1  0.99947500  0.62414500  0.91356000  1
  Te  Te12  1  0.62467100  0.00052500  0.91356000  1
  Te  Te13  1  0.37585500  0.00052500  0.41356000  1
  Te  Te14  1  0.62467100  0.62414500  0.41356000  1
  Te  Te15  1  0.99947500  0.37532900  0.41356000  1
  W  W16  1  0.00000000  0.00000000  0.22176700  1
  W  W17  1  0.00000000  0.00000000  0.72176700  1
  O  O18  1  0.42330100  0.32567300  0.06061700  1
  O  O19  1  0.90237100  0.57669900  0.06061700  1
  O  O20  1  0.67432700  0.09762900  0.06061700  1
  O  O21  1  0.42330100  0.09762900  0.56061700  1
  O  O22  1  0.67432700  0.57669900  0.56061700  1
  O  O23  1  0.90237100  0.32567300  0.56061700  1
  O  O24  1  0.58043200  0.67718100  0.93913700  1
  O  O25  1  0.09674900  0.41956800  0.93913700  1
  O  O26  1  0.32281900  0.90325100  0.93913700  1
  O  O27  1  0.58043200  0.90325100  0.43913700  1
  O  O28  1  0.32281900  0.41956800  0.43913700  1
  O  O29  1  0.09674900  0.67718100  0.43913700  1
  O  O30  1  0.33333300  0.66666700  0.09925800  1
  O  O31  1  0.33333300  0.66666700  0.59925800  1
  O  O32  1  0.66666700  0.33333300  0.90256000  1
  O  O33  1  0.66666700  0.33333300  0.40256000  1
  O  O34  1  0.24800900  0.24946200  0.25127100  1
  O  O35  1  0.00145300  0.75199100  0.25127100  1
  O  O36  1  0.75053800  0.99854700  0.25127100  1
  O  O37  1  0.24800900  0.99854700  0.75127100  1
  O  O38  1  0.75053800  0.75199100  0.75127100  1
  O  O39  1  0.00145300  0.24946200  0.75127100  1
  O  O40  1  0.60586800  0.57339400  0.17670600  1
  O  O41  1  0.96752600  0.39413200  0.17670600  1
  O  O42  1  0.42660600  0.03247400  0.17670600  1
  O  O43  1  0.60586800  0.03247400  0.67670600  1
  O  O44  1  0.42660600  0.39413200  0.67670600  1
  O  O45  1  0.96752600  0.57339400  0.67670600  1
  O  O46  1  0.39713300  0.42924900  0.82389700  1
  O  O47  1  0.03211600  0.60286700  0.82389700  1
  O  O48  1  0.57075100  0.96788400  0.82389700  1
  O  O49  1  0.39713300  0.96788400  0.32389700  1
  O  O50  1  0.57075100  0.60286700  0.32389700  1
  O  O51  1  0.03211600  0.42924900  0.32389700  1
  O  O52  1  0.00000000  0.00000000  0.13293500  1
  O  O53  1  0.00000000  0.00000000  0.63293500  1
