# generated using pymatgen
data_U4Be2C5
_symmetry_space_group_name_H-M   'P 1'
_cell_length_a   6.66692381
_cell_length_b   6.66692381
_cell_length_c   4.99956600
_cell_angle_alpha   90.00000000
_cell_angle_beta   90.00000000
_cell_angle_gamma   135.73609364
_symmetry_Int_Tables_number   1
_chemical_formula_structural   U4Be2C5
_chemical_formula_sum   'U4 Be2 C5'
_cell_volume   155.10167771
_cell_formula_units_Z   1
loop_
 _symmetry_equiv_pos_site_id
 _symmetry_equiv_pos_as_xyz
  1  'x, y, z'
loop_
 _atom_site_type_symbol
 _atom_site_label
 _atom_site_symmetry_multiplicity
 _atom_site_fract_x
 _atom_site_fract_y
 _atom_site_fract_z
 _atom_site_occupancy
  U  U0  1  0.83861000  0.16139000  0.50000000  1
  U  U1  1  0.35185400  0.64814600  0.00000000  1
  U  U2  1  0.64814600  0.35185400  0.00000000  1
  U  U3  1  0.16139000  0.83861000  0.50000000  1
  Be  Be4  1  0.50000000  0.50000000  0.50000000  1
  Be  Be5  1  0.00000000  0.00000000  0.00000000  1
  C  C6  1  0.64652100  0.35347900  0.50000000  1
  C  C7  1  0.15253800  0.84746200  0.00000000  1
  C  C8  1  0.35347900  0.64652100  0.50000000  1
  C  C9  1  0.84746200  0.15253800  0.00000000  1
  C  C10  1  0.00000000  0.00000000  0.50000000  1
