# generated using pymatgen
data_KNb4Bi5O18
_symmetry_space_group_name_H-M   'P 1'
_cell_length_a   12.94587473
_cell_length_b   12.94587473
_cell_length_c   5.61566501
_cell_angle_alpha   89.77907750
_cell_angle_beta   89.77907750
_cell_angle_gamma   154.98332760
_symmetry_Int_Tables_number   1
_chemical_formula_structural   KNb4Bi5O18
_chemical_formula_sum   'K1 Nb4 Bi5 O18'
_cell_volume   397.93700390
_cell_formula_units_Z   1
loop_
 _symmetry_equiv_pos_site_id
 _symmetry_equiv_pos_as_xyz
  1  'x, y, z'
loop_
 _atom_site_type_symbol
 _atom_site_label
 _atom_site_symmetry_multiplicity
 _atom_site_fract_x
 _atom_site_fract_y
 _atom_site_fract_z
 _atom_site_occupancy
  K  K0  1  0.73826200  0.73826200  0.53003000  1
  Nb  Nb1  1  0.82371300  0.65019100  0.03976400  1
  Nb  Nb2  1  0.65019100  0.82371300  0.03976400  1
  Nb  Nb3  1  0.15604900  0.33058000  0.53457700  1
  Nb  Nb4  1  0.33058000  0.15604900  0.53457700  1
  Bi  Bi5  1  0.20341300  0.20341300  0.98696900  1
  Bi  Bi6  1  0.08200000  0.48409200  0.99705400  1
  Bi  Bi7  1  0.48409200  0.08200000  0.99705400  1
  Bi  Bi8  1  0.91813000  0.51702700  0.49594400  1
  Bi  Bi9  1  0.51702700  0.91813000  0.49594400  1
  O  O10  1  0.85365000  0.53193400  0.06939200  1
  O  O11  1  0.53193400  0.85365000  0.06939200  1
  O  O12  1  0.15417200  0.47465500  0.57043400  1
  O  O13  1  0.47465500  0.15417200  0.57043400  1
  O  O14  1  0.96754100  0.13544100  0.85937400  1
  O  O15  1  0.13544100  0.96754100  0.85937400  1
  O  O16  1  0.05671200  0.87622000  0.34925900  1
  O  O17  1  0.87622000  0.05671200  0.34925900  1
  O  O18  1  0.76432800  0.25909300  0.77294600  1
  O  O19  1  0.25909300  0.76432800  0.77294600  1
  O  O20  1  0.24022300  0.74370700  0.27263500  1
  O  O21  1  0.74370700  0.24022300  0.27263500  1
  O  O22  1  0.45935100  0.61043700  0.78441000  1
  O  O23  1  0.61043700  0.45935100  0.78441000  1
  O  O24  1  0.53860200  0.39739800  0.27748100  1
  O  O25  1  0.39739800  0.53860200  0.27748100  1
  O  O26  1  0.81543400  0.81543400  0.05540500  1
  O  O27  1  0.21764700  0.21764700  0.59505400  1
