# generated using pymatgen
data_La6Al3Fe10As
_symmetry_space_group_name_H-M   'P 1'
_cell_length_a   8.12480890
_cell_length_b   8.12480890
_cell_length_c   13.01101027
_cell_angle_alpha   71.65584033
_cell_angle_beta   71.65584033
_cell_angle_gamma   89.54197436
_symmetry_Int_Tables_number   1
_chemical_formula_structural   La6Al3Fe10As
_chemical_formula_sum   'La12 Al6 Fe20 As2'
_cell_volume   769.85314482
_cell_formula_units_Z   2
loop_
 _symmetry_equiv_pos_site_id
 _symmetry_equiv_pos_as_xyz
  1  'x, y, z'
loop_
 _atom_site_type_symbol
 _atom_site_label
 _atom_site_symmetry_multiplicity
 _atom_site_fract_x
 _atom_site_fract_y
 _atom_site_fract_z
 _atom_site_occupancy
  La  La0  1  0.89281500  0.89281500  0.21437100  1
  La  La1  1  0.39281500  0.39281500  0.21437100  1
  La  La2  1  0.10687100  0.10687100  0.78625700  1
  La  La3  1  0.60687100  0.60687100  0.78625700  1
  La  La4  1  0.99117500  0.13109800  0.37772700  1
  La  La5  1  0.63109800  0.49117500  0.37772700  1
  La  La6  1  0.15536600  0.65536600  0.36897000  1
  La  La7  1  0.47566400  0.97566400  0.36897000  1
  La  La8  1  0.02052400  0.85954300  0.61993200  1
  La  La9  1  0.35954300  0.52052400  0.61993200  1
  La  La10  1  0.86463300  0.36463300  0.61299000  1
  La  La11  1  0.52237800  0.02237800  0.61299000  1
  Al  Al12  1  0.02439700  0.52439700  0.18702700  1
  Al  Al13  1  0.78857600  0.28857600  0.18702700  1
  Al  Al14  1  0.71453500  0.97272400  0.81274000  1
  Al  Al15  1  0.47272400  0.21453500  0.81274000  1
  Al  Al16  1  0.97406500  0.47406500  0.81483900  1
  Al  Al17  1  0.21109600  0.71109600  0.81483900  1
  Fe  Fe18  1  0.06964600  0.78860900  0.00287100  1
  Fe  Fe19  1  0.92748300  0.20851900  0.00287100  1
  Fe  Fe20  1  0.43057700  0.28954100  0.00075100  1
  Fe  Fe21  1  0.56867200  0.70970800  0.00075100  1
  Fe  Fe22  1  0.78954100  0.93057700  0.00075100  1
  Fe  Fe23  1  0.20970800  0.06867200  0.00075100  1
  Fe  Fe24  1  0.28860900  0.56964600  0.00287100  1
  Fe  Fe25  1  0.70851900  0.42748300  0.00287100  1
  Fe  Fe26  1  0.12195000  0.25834500  0.11970500  1
  Fe  Fe27  1  0.75834500  0.62195000  0.11970500  1
  Fe  Fe28  1  0.26992900  0.76992900  0.11499800  1
  Fe  Fe29  1  0.61507300  0.11507300  0.11499800  1
  Fe  Fe30  1  0.87991900  0.72809200  0.89198900  1
  Fe  Fe31  1  0.22809200  0.37991900  0.89198900  1
  Fe  Fe32  1  0.73290400  0.23290400  0.88461300  1
  Fe  Fe33  1  0.38248300  0.88248300  0.88461300  1
  Fe  Fe34  1  0.99796700  0.49796700  0.00406500  1
  Fe  Fe35  1  0.50128900  0.00128900  0.99742100  1
  Fe  Fe36  1  0.29256800  0.02182800  0.18560400  1
  Fe  Fe37  1  0.52182800  0.79256800  0.18560400  1
  As  As38  1  0.74987500  0.74987500  0.50025000  1
  As  As39  1  0.24987500  0.24987500  0.50025000  1
