# generated using pymatgen
data_NaCaGaSi2O7
_symmetry_space_group_name_H-M   'P 1'
_cell_length_a   10.23809300
_cell_length_b   7.78588700
_cell_length_c   7.79418300
_cell_angle_alpha   90.00000000
_cell_angle_beta   90.00000000
_cell_angle_gamma   90.00000000
_symmetry_Int_Tables_number   1
_chemical_formula_structural   NaCaGaSi2O7
_chemical_formula_sum   'Na4 Ca4 Ga4 Si8 O28'
_cell_volume   621.29486611
_cell_formula_units_Z   4
loop_
 _symmetry_equiv_pos_site_id
 _symmetry_equiv_pos_as_xyz
  1  'x, y, z'
loop_
 _atom_site_type_symbol
 _atom_site_label
 _atom_site_symmetry_multiplicity
 _atom_site_fract_x
 _atom_site_fract_y
 _atom_site_fract_z
 _atom_site_occupancy
  Na  Na0  1  0.24489200  0.66931500  0.83601700  1
  Na  Na1  1  0.25510800  0.83068500  0.33601700  1
  Na  Na2  1  0.74489200  0.33068500  0.16398300  1
  Na  Na3  1  0.75510800  0.16931500  0.66398300  1
  Ca  Ca4  1  0.24125100  0.34849400  0.16027700  1
  Ca  Ca5  1  0.25874900  0.15150600  0.66027700  1
  Ca  Ca6  1  0.74125100  0.65150600  0.83972300  1
  Ca  Ca7  1  0.75874900  0.84849400  0.33972300  1
  Ga  Ga8  1  0.00045500  0.00347800  0.99966200  1
  Ga  Ga9  1  0.99954500  0.50347800  0.50033800  1
  Ga  Ga10  1  0.50045500  0.99652200  0.00033800  1
  Ga  Ga11  1  0.49954500  0.49652200  0.49966200  1
  Si  Si12  1  0.02461500  0.13668000  0.35881800  1
  Si  Si13  1  0.02679000  0.85409600  0.64210300  1
  Si  Si14  1  0.47538500  0.36332000  0.85881800  1
  Si  Si15  1  0.47321000  0.64590400  0.14210300  1
  Si  Si16  1  0.52679000  0.14590400  0.35789700  1
  Si  Si17  1  0.52461500  0.86332000  0.64118200  1
  Si  Si18  1  0.97321000  0.35409600  0.85789700  1
  Si  Si19  1  0.97538500  0.63668000  0.14118200  1
  O  O20  1  0.08622300  0.00085500  0.50375100  1
  O  O21  1  0.09927800  0.91749800  0.82104800  1
  O  O22  1  0.09717400  0.32047900  0.41389500  1
  O  O23  1  0.10187600  0.09116400  0.17702100  1
  O  O24  1  0.10269700  0.67610300  0.58653000  1
  O  O25  1  0.13033100  0.33959200  0.85816000  1
  O  O26  1  0.13069600  0.62642500  0.14917200  1
  O  O27  1  0.36966900  0.16040800  0.35816000  1
  O  O28  1  0.36930400  0.87357500  0.64917200  1
  O  O29  1  0.40282600  0.17952100  0.91389500  1
  O  O30  1  0.39812400  0.40883600  0.67702100  1
  O  O31  1  0.40072200  0.58250200  0.32104800  1
  O  O32  1  0.39730300  0.82389700  0.08653000  1
  O  O33  1  0.41377700  0.49914500  0.00375100  1
  O  O34  1  0.58622300  0.99914500  0.49624900  1
  O  O35  1  0.59927800  0.08250200  0.17895200  1
  O  O36  1  0.60269700  0.32389700  0.41347000  1
  O  O37  1  0.60187600  0.90883600  0.82297900  1
  O  O38  1  0.59717400  0.67952100  0.58610500  1
  O  O39  1  0.63069600  0.37357500  0.85082800  1
  O  O40  1  0.63033100  0.66040800  0.14184000  1
  O  O41  1  0.86930400  0.12642500  0.35082800  1
  O  O42  1  0.86966900  0.83959200  0.64184000  1
  O  O43  1  0.89730300  0.17610300  0.91347000  1
  O  O44  1  0.90072200  0.41749800  0.67895200  1
  O  O45  1  0.89812400  0.59116400  0.32297900  1
  O  O46  1  0.90282600  0.82047900  0.08610500  1
  O  O47  1  0.91377700  0.50085500  0.99624900  1
