# generated using pymatgen
data_KCNO
_symmetry_space_group_name_H-M   'P 1'
_cell_length_a   5.63786136
_cell_length_b   5.63786136
_cell_length_c   5.63786136
_cell_angle_alpha   113.94316830
_cell_angle_beta   113.57853911
_cell_angle_gamma   101.19588709
_symmetry_Int_Tables_number   1
_chemical_formula_structural   KCNO
_chemical_formula_sum   'K2 C2 N2 O2'
_cell_volume   135.83457051
_cell_formula_units_Z   2
loop_
 _symmetry_equiv_pos_site_id
 _symmetry_equiv_pos_as_xyz
  1  'x, y, z'
loop_
 _atom_site_type_symbol
 _atom_site_label
 _atom_site_symmetry_multiplicity
 _atom_site_fract_x
 _atom_site_fract_y
 _atom_site_fract_z
 _atom_site_occupancy
  K  K0  1  0.25262200  0.00000000  0.25262200  1
  K  K1  1  0.75262200  0.50000000  0.25262200  1
  C  C2  1  0.49853300  0.74709400  0.74562700  1
  C  C3  1  0.99853300  0.25290600  0.75144000  1
  N  N4  1  0.35991300  0.61092500  0.47083700  1
  N  N5  1  0.85991300  0.38907500  0.74898800  1
  O  O6  1  0.63893300  0.88950800  0.02844100  1
  O  O7  1  0.13893300  0.11049200  0.74942500  1
