# generated using pymatgen
data_KP2W7O25
_symmetry_space_group_name_H-M   'P 1'
_cell_length_a   14.08375925
_cell_length_b   14.08375925
_cell_length_c   6.81698190
_cell_angle_alpha   83.35077543
_cell_angle_beta   83.35077543
_cell_angle_gamma   22.37855241
_symmetry_Int_Tables_number   1
_chemical_formula_structural   KP2W7O25
_chemical_formula_sum   'K1 P2 W7 O25'
_cell_volume   511.20288708
_cell_formula_units_Z   1
loop_
 _symmetry_equiv_pos_site_id
 _symmetry_equiv_pos_as_xyz
  1  'x, y, z'
loop_
 _atom_site_type_symbol
 _atom_site_label
 _atom_site_symmetry_multiplicity
 _atom_site_fract_x
 _atom_site_fract_y
 _atom_site_fract_z
 _atom_site_occupancy
  K  K0  1  0.25073200  0.25073200  0.63639900  1
  P  P1  1  0.79360500  0.79360500  0.80412100  1
  P  P2  1  0.20705000  0.20705000  0.19638500  1
  W  W3  1  0.99881700  0.99881700  0.99431500  1
  W  W4  1  0.55352100  0.55352100  0.29981600  1
  W  W5  1  0.44281800  0.44281800  0.69471800  1
  W  W6  1  0.11217800  0.11217800  0.59909800  1
  W  W7  1  0.88537400  0.88537400  0.38957100  1
  W  W8  1  0.66849500  0.66849500  0.91154700  1
  W  W9  1  0.33115500  0.33115500  0.08724600  1
  O  O10  1  0.89972300  0.40084900  0.74902400  1
  O  O11  1  0.60223900  0.10054400  0.26205200  1
  O  O12  1  0.10054400  0.60223900  0.26205200  1
  O  O13  1  0.40084900  0.89972300  0.74902400  1
  O  O14  1  0.06207700  0.06207700  0.79669800  1
  O  O15  1  0.93841500  0.93841500  0.20268700  1
  O  O16  1  0.77941700  0.27959100  0.15894100  1
  O  O17  1  0.71450900  0.22827800  0.84254800  1
  O  O18  1  0.22827800  0.71450900  0.84254800  1
  O  O19  1  0.27959100  0.77941700  0.15894100  1
  O  O20  1  0.17704000  0.17704000  0.40161700  1
  O  O21  1  0.82242500  0.82242500  0.59873600  1
  O  O22  1  0.61445900  0.61445900  0.09429200  1
  O  O23  1  0.38587200  0.38587200  0.90537600  1
  O  O24  1  0.83632600  0.34249800  0.45253300  1
  O  O25  1  0.66218400  0.16167700  0.55282000  1
  O  O26  1  0.16167700  0.66218400  0.55282000  1
  O  O27  1  0.34249800  0.83632600  0.45253300  1
  O  O28  1  0.73812000  0.73812000  0.76562200  1
  O  O29  1  0.26130100  0.26130100  0.23748800  1
  O  O30  1  0.96526100  0.42918100  0.07853500  1
  O  O31  1  0.56506000  0.03834100  0.91428600  1
  O  O32  1  0.03834100  0.56506000  0.91428600  1
  O  O33  1  0.42918100  0.96526100  0.07853500  1
  O  O34  1  0.50066700  0.50066700  0.49978600  1
