# generated using pymatgen
data_KNaSr8(BO3)6
_symmetry_space_group_name_H-M   'P 1'
_cell_length_a   11.16210100
_cell_length_b   6.93547100
_cell_length_c   6.93615146
_cell_angle_alpha   60.06011856
_cell_angle_beta   90.00000000
_cell_angle_gamma   90.00000000
_symmetry_Int_Tables_number   1
_chemical_formula_structural   KNaSr8(BO3)6
_chemical_formula_sum   'K1 Na1 Sr8 B6 O18'
_cell_volume   465.30088907
_cell_formula_units_Z   1
loop_
 _symmetry_equiv_pos_site_id
 _symmetry_equiv_pos_as_xyz
  1  'x, y, z'
loop_
 _atom_site_type_symbol
 _atom_site_label
 _atom_site_symmetry_multiplicity
 _atom_site_fract_x
 _atom_site_fract_y
 _atom_site_fract_z
 _atom_site_occupancy
  K  K0  1  0.00000000  0.91159500  0.83278400  1
  Na  Na1  1  0.50000000  0.76963100  0.17107400  1
  Sr  Sr2  1  0.71865900  0.13874500  0.56889500  1
  Sr  Sr3  1  0.77987500  0.70823100  0.42949600  1
  Sr  Sr4  1  0.28134100  0.13874500  0.56889500  1
  Sr  Sr5  1  0.22012500  0.70823100  0.42949600  1
  Sr  Sr6  1  0.75031200  0.27670700  0.99951300  1
  Sr  Sr7  1  0.24968800  0.27670700  0.99951300  1
  Sr  Sr8  1  0.00000000  0.41301000  0.28729400  1
  Sr  Sr9  1  0.50000000  0.69951400  0.71628000  1
  B  B10  1  0.74792800  0.70660400  0.00081300  1
  B  B11  1  0.25207200  0.70660400  0.00081300  1
  B  B12  1  0.00000000  0.96654500  0.34002400  1
  B  B13  1  0.50000000  0.30685900  0.65907900  1
  B  B14  1  0.00000000  0.38061700  0.74838900  1
  B  B15  1  0.50000000  0.12806000  0.24989800  1
  O  O16  1  0.00000000  0.79773500  0.28910300  1
  O  O17  1  0.50000000  0.08449600  0.71697900  1
  O  O18  1  0.00000000  0.44923700  0.90204900  1
  O  O19  1  0.50000000  0.35210200  0.10219800  1
  O  O20  1  0.60740700  0.42452200  0.62422000  1
  O  O21  1  0.89232100  0.05100200  0.37239500  1
  O  O22  1  0.39259300  0.42452200  0.62422000  1
  O  O23  1  0.10767900  0.05100200  0.37239500  1
  O  O24  1  0.74572500  0.90548900  0.00192700  1
  O  O25  1  0.25427500  0.90548900  0.00192700  1
  O  O26  1  0.77594000  0.50934500  0.19532600  1
  O  O27  1  0.72401100  0.70545500  0.80378600  1
  O  O28  1  0.22406000  0.50934500  0.19532600  1
  O  O29  1  0.27598900  0.70545500  0.80378600  1
  O  O30  1  0.89236600  0.33822500  0.66839400  1
  O  O31  1  0.60705500  0.00387500  0.32766000  1
  O  O32  1  0.10763400  0.33822500  0.66839400  1
  O  O33  1  0.39294500  0.00387500  0.32766000  1
