# generated using pymatgen
data_KNa7V8O24
_symmetry_space_group_name_H-M   'P 1'
_cell_length_a   9.83239000
_cell_length_b   5.95518500
_cell_length_c   10.69251902
_cell_angle_alpha   75.46054426
_cell_angle_beta   90.00000000
_cell_angle_gamma   90.00000000
_symmetry_Int_Tables_number   1
_chemical_formula_structural   KNa7V8O24
_chemical_formula_sum   'K1 Na7 V8 O24'
_cell_volume   606.03613831
_cell_formula_units_Z   1
loop_
 _symmetry_equiv_pos_site_id
 _symmetry_equiv_pos_as_xyz
  1  'x, y, z'
loop_
 _atom_site_type_symbol
 _atom_site_label
 _atom_site_symmetry_multiplicity
 _atom_site_fract_x
 _atom_site_fract_y
 _atom_site_fract_z
 _atom_site_occupancy
  K  K0  1  0.80048300  0.50000000  0.50000000  1
  Na  Na1  1  0.40897700  0.50000000  0.50000000  1
  Na  Na2  1  0.90957800  0.00000000  0.00000000  1
  Na  Na3  1  0.58929600  0.00000000  0.50000000  1
  Na  Na4  1  0.09032600  0.50000000  0.00000000  1
  Na  Na5  1  0.29161500  0.00000000  0.00000000  1
  Na  Na6  1  0.20845400  0.00000000  0.50000000  1
  Na  Na7  1  0.70835000  0.50000000  0.00000000  1
  V  V8  1  0.08946300  0.71267800  0.28965300  1
  V  V9  1  0.58717500  0.21170100  0.79225200  1
  V  V10  1  0.08946300  0.28732200  0.71034700  1
  V  V11  1  0.58717500  0.78829900  0.20774800  1
  V  V12  1  0.91238800  0.78900100  0.71167500  1
  V  V13  1  0.41111400  0.28667000  0.20955300  1
  V  V14  1  0.91238800  0.21099900  0.28832500  1
  V  V15  1  0.41111400  0.71333000  0.79044700  1
  O  O16  1  0.09967000  0.78774300  0.12688200  1
  O  O17  1  0.59197800  0.28079000  0.62993600  1
  O  O18  1  0.09967000  0.21225700  0.87311800  1
  O  O19  1  0.59197800  0.71921000  0.37006400  1
  O  O20  1  0.90132100  0.71291100  0.87427400  1
  O  O21  1  0.40081700  0.21316100  0.37245700  1
  O  O22  1  0.90132100  0.28708900  0.12572600  1
  O  O23  1  0.40081700  0.78683900  0.62754300  1
  O  O24  1  0.01158900  0.42496300  0.34658100  1
  O  O25  1  0.50903300  0.92558000  0.85072500  1
  O  O26  1  0.01158900  0.57503700  0.65341900  1
  O  O27  1  0.50903300  0.07442000  0.14927500  1
  O  O28  1  0.99116200  0.07458800  0.65079100  1
  O  O29  1  0.49017800  0.57231300  0.15001200  1
  O  O30  1  0.99116200  0.92541200  0.34920900  1
  O  O31  1  0.49017800  0.42768700  0.84998800  1
  O  O32  1  0.24282500  0.71340400  0.35624700  1
  O  O33  1  0.74286700  0.21408300  0.85531000  1
  O  O34  1  0.24282500  0.28659600  0.64375300  1
  O  O35  1  0.74286700  0.78591700  0.14469000  1
  O  O36  1  0.75765000  0.79384000  0.64735200  1
  O  O37  1  0.25723100  0.28654300  0.14370900  1
  O  O38  1  0.75765000  0.20616000  0.35264800  1
  O  O39  1  0.25723100  0.71345700  0.85629100  1
