# generated using pymatgen
data_CaMn2O4
_symmetry_space_group_name_H-M   'P 1'
_cell_length_a   5.79322000
_cell_length_b   5.68916600
_cell_length_c   10.95291903
_cell_angle_alpha   87.92109312
_cell_angle_beta   90.00000000
_cell_angle_gamma   90.00000000
_symmetry_Int_Tables_number   1
_chemical_formula_structural   CaMn2O4
_chemical_formula_sum   'Ca4 Mn8 O16'
_cell_volume   360.75517093
_cell_formula_units_Z   4
loop_
 _symmetry_equiv_pos_site_id
 _symmetry_equiv_pos_as_xyz
  1  'x, y, z'
loop_
 _atom_site_type_symbol
 _atom_site_label
 _atom_site_symmetry_multiplicity
 _atom_site_fract_x
 _atom_site_fract_y
 _atom_site_fract_z
 _atom_site_occupancy
  Ca  Ca0  1  0.58023100  0.26838900  0.09451200  1
  Ca  Ca1  1  0.41976900  0.73161100  0.90548800  1
  Ca  Ca2  1  0.91976900  0.26838900  0.59451200  1
  Ca  Ca3  1  0.08023100  0.73161100  0.40548800  1
  Mn  Mn4  1  0.04516000  0.63866200  0.12467000  1
  Mn  Mn5  1  0.08723500  0.13446200  0.15034400  1
  Mn  Mn6  1  0.91276500  0.86553800  0.84965600  1
  Mn  Mn7  1  0.95484000  0.36133800  0.87533000  1
  Mn  Mn8  1  0.58723500  0.86553800  0.34965600  1
  Mn  Mn9  1  0.54516000  0.36133800  0.37533000  1
  Mn  Mn10  1  0.45484000  0.63866200  0.62467000  1
  Mn  Mn11  1  0.41276500  0.13446200  0.65034400  1
  O  O12  1  0.90462200  0.87881900  0.22554900  1
  O  O13  1  0.89396900  0.38110100  0.21143600  1
  O  O14  1  0.10603100  0.61889900  0.78856400  1
  O  O15  1  0.09537800  0.12118100  0.77445100  1
  O  O16  1  0.39396900  0.61889900  0.28856400  1
  O  O17  1  0.40462200  0.12118100  0.27445100  1
  O  O18  1  0.59537800  0.87881900  0.72554900  1
  O  O19  1  0.60603100  0.38110100  0.71143600  1
  O  O20  1  0.22401600  0.89660400  0.05322100  1
  O  O21  1  0.21692800  0.39455900  0.03987500  1
  O  O22  1  0.78307200  0.60544100  0.96012500  1
  O  O23  1  0.77598400  0.10339600  0.94677900  1
  O  O24  1  0.27598400  0.89660400  0.55322100  1
  O  O25  1  0.28307200  0.39455900  0.53987500  1
  O  O26  1  0.71692800  0.60544100  0.46012500  1
  O  O27  1  0.72401600  0.10339600  0.44677900  1
