# generated using pymatgen
data_KCa2Ta3O10
_symmetry_space_group_name_H-M   'P 1'
_cell_length_a   3.94086400
_cell_length_b   3.94552400
_cell_length_c   15.25730117
_cell_angle_alpha   82.57088279
_cell_angle_beta   90.00000000
_cell_angle_gamma   90.00000000
_symmetry_Int_Tables_number   1
_chemical_formula_structural   KCa2Ta3O10
_chemical_formula_sum   'K1 Ca2 Ta3 O10'
_cell_volume   235.24089265
_cell_formula_units_Z   1
loop_
 _symmetry_equiv_pos_site_id
 _symmetry_equiv_pos_as_xyz
  1  'x, y, z'
loop_
 _atom_site_type_symbol
 _atom_site_label
 _atom_site_symmetry_multiplicity
 _atom_site_fract_x
 _atom_site_fract_y
 _atom_site_fract_z
 _atom_site_occupancy
  K  K0  1  0.00000000  0.75847800  0.48304300  1
  Ca  Ca1  1  0.00000000  0.92470200  0.15059500  1
  Ca  Ca2  1  0.00000000  0.07655900  0.84688100  1
  Ta  Ta3  1  0.50000000  0.64156900  0.71686200  1
  Ta  Ta4  1  0.50000000  0.35841200  0.28317500  1
  Ta  Ta5  1  0.50000000  0.50006100  0.99987700  1
  O  O6  1  0.00000000  0.62750200  0.74499600  1
  O  O7  1  0.00000000  0.37187900  0.25624200  1
  O  O8  1  0.50000000  0.87191900  0.25616300  1
  O  O9  1  0.50000000  0.12723300  0.74553500  1
  O  O10  1  0.50000000  0.70062600  0.59874700  1
  O  O11  1  0.50000000  0.29881200  0.40237500  1
  O  O12  1  0.50000000  0.56483400  0.87033200  1
  O  O13  1  0.50000000  0.43452100  0.13095900  1
  O  O14  1  0.00000000  0.49950500  0.00099000  1
  O  O15  1  0.50000000  0.99948700  0.00102600  1
