# generated using pymatgen
data_KBa3Ga5(Se5Cl)2
_symmetry_space_group_name_H-M   'P 1'
_cell_length_a   8.78110900
_cell_length_b   8.78687457
_cell_length_c   10.04864037
_cell_angle_alpha   115.77863342
_cell_angle_beta   115.67080591
_cell_angle_gamma   89.97941443
_symmetry_Int_Tables_number   1
_chemical_formula_structural   KBa3Ga5(Se5Cl)2
_chemical_formula_sum   'K1 Ba3 Ga5 Se10 Cl2'
_cell_volume   612.14358240
_cell_formula_units_Z   1
loop_
 _symmetry_equiv_pos_site_id
 _symmetry_equiv_pos_as_xyz
  1  'x, y, z'
loop_
 _atom_site_type_symbol
 _atom_site_label
 _atom_site_symmetry_multiplicity
 _atom_site_fract_x
 _atom_site_fract_y
 _atom_site_fract_z
 _atom_site_occupancy
  K  K0  1  0.48456400  0.35283700  0.22823900  1
  Ba  Ba1  1  0.74386000  0.87670400  0.22900300  1
  Ba  Ba2  1  0.12529600  0.51647100  0.77143500  1
  Ba  Ba3  1  0.64691600  0.25426500  0.77080800  1
  Ga  Ga4  1  0.07113800  0.47160000  0.33189200  1
  Ga  Ga5  1  0.26149800  0.85767900  0.32980800  1
  Ga  Ga6  1  0.14105500  0.92953000  0.66918100  1
  Ga  Ga7  1  0.52567400  0.73573500  0.66642500  1
  Ga  Ga8  1  0.00223200  0.00145700  0.00133400  1
  Se  Se9  1  0.34816500  0.44414700  0.51829100  1
  Se  Se10  1  0.16700200  0.07169300  0.51632900  1
  Se  Se11  1  0.92896700  0.65202700  0.48414800  1
  Se  Se12  1  0.55527600  0.83673400  0.48553400  1
  Se  Se13  1  0.06700100  0.57239800  0.14183500  1
  Se  Se14  1  0.43012500  0.92937400  0.85749000  1
  Se  Se15  1  0.86099100  0.19272600  0.14595800  1
  Se  Se16  1  0.28612100  0.95064300  0.14512700  1
  Se  Se17  1  0.04324400  0.13814400  0.85060400  1
  Se  Se18  1  0.80637800  0.71457700  0.85393700  1
  Cl  Cl19  1  0.50050300  0.50165800  0.99849600  1
  Cl  Cl20  1  0.75399300  0.24960000  0.50412400  1
