# generated using pymatgen
data_Ti2H2CSe4Cl16O5
_symmetry_space_group_name_H-M   'P 1'
_cell_length_a   11.94968300
_cell_length_b   12.50305000
_cell_length_c   14.86236485
_cell_angle_alpha   65.85360503
_cell_angle_beta   90.00000000
_cell_angle_gamma   90.00000000
_symmetry_Int_Tables_number   1
_chemical_formula_structural   Ti2H2CSe4Cl16O5
_chemical_formula_sum   'Ti4 H4 C2 Se8 Cl32 O10'
_cell_volume   2026.25772453
_cell_formula_units_Z   2
loop_
 _symmetry_equiv_pos_site_id
 _symmetry_equiv_pos_as_xyz
  1  'x, y, z'
loop_
 _atom_site_type_symbol
 _atom_site_label
 _atom_site_symmetry_multiplicity
 _atom_site_fract_x
 _atom_site_fract_y
 _atom_site_fract_z
 _atom_site_occupancy
  Ti  Ti0  1  0.11548000  0.50494900  0.62831400  1
  Ti  Ti1  1  0.11548000  0.49505100  0.87168600  1
  Ti  Ti2  1  0.88452000  0.50494900  0.12831400  1
  Ti  Ti3  1  0.88452000  0.49505100  0.37168600  1
  H  H4  1  0.17579700  0.95073000  0.08669700  1
  H  H5  1  0.17579700  0.04927000  0.41330300  1
  H  H6  1  0.82420300  0.95073000  0.58669700  1
  H  H7  1  0.82420300  0.04927000  0.91330300  1
  C  C8  1  0.06073500  0.00000000  0.75000000  1
  C  C9  1  0.93926500  0.00000000  0.25000000  1
  Se  Se10  1  0.64538500  0.99715700  0.61991500  1
  Se  Se11  1  0.64538500  0.00284300  0.88008500  1
  Se  Se12  1  0.66041800  0.83212100  0.81166700  1
  Se  Se13  1  0.66041800  0.16787900  0.68833300  1
  Se  Se14  1  0.33958200  0.83212100  0.31166700  1
  Se  Se15  1  0.33958200  0.16787900  0.18833300  1
  Se  Se16  1  0.35461500  0.99715700  0.11991500  1
  Se  Se17  1  0.35461500  0.00284300  0.38008500  1
  Cl  Cl18  1  0.58410600  0.31532100  0.72141500  1
  Cl  Cl19  1  0.58410600  0.68467900  0.77858500  1
  Cl  Cl20  1  0.76696900  0.37768500  0.11543600  1
  Cl  Cl21  1  0.76696900  0.62231500  0.38456400  1
  Cl  Cl22  1  0.60871700  0.97057000  0.19379300  1
  Cl  Cl23  1  0.60871700  0.02943000  0.30620700  1
  Cl  Cl24  1  0.39200700  0.12890600  0.95334000  1
  Cl  Cl25  1  0.39200700  0.87109400  0.54666000  1
  Cl  Cl26  1  0.83983300  0.31557500  0.47153700  1
  Cl  Cl27  1  0.83983300  0.68442500  0.02846300  1
  Cl  Cl28  1  0.76211600  0.72931200  0.63747800  1
  Cl  Cl29  1  0.76211600  0.27068800  0.86252200  1
  Cl  Cl30  1  0.93847600  0.54032900  0.88004000  1
  Cl  Cl31  1  0.93847600  0.45967100  0.61996000  1
  Cl  Cl32  1  0.89658600  0.79275200  0.54726900  1
  Cl  Cl33  1  0.89658600  0.20724800  0.95273100  1
  Cl  Cl34  1  0.10341400  0.79275200  0.04726900  1
  Cl  Cl35  1  0.10341400  0.20724800  0.45273100  1
  Cl  Cl36  1  0.06152400  0.54032900  0.38004000  1
  Cl  Cl37  1  0.06152400  0.45967100  0.11996000  1
  Cl  Cl38  1  0.23788400  0.72931200  0.13747800  1
  Cl  Cl39  1  0.23788400  0.27068800  0.36252200  1
  Cl  Cl40  1  0.16016700  0.31557500  0.97153700  1
  Cl  Cl41  1  0.16016700  0.68442500  0.52846300  1
  Cl  Cl42  1  0.60799300  0.12890600  0.45334000  1
  Cl  Cl43  1  0.60799300  0.87109400  0.04666000  1
  Cl  Cl44  1  0.39128300  0.97057000  0.69379300  1
  Cl  Cl45  1  0.39128300  0.02943000  0.80620700  1
  Cl  Cl46  1  0.23303100  0.37768500  0.61543600  1
  Cl  Cl47  1  0.23303100  0.62231500  0.88456400  1
  Cl  Cl48  1  0.41589400  0.31532100  0.22141500  1
  Cl  Cl49  1  0.41589400  0.68467900  0.27858500  1
  O  O50  1  0.06071900  0.90980100  0.74269200  1
  O  O51  1  0.06071900  0.09019900  0.75730800  1
  O  O52  1  0.20395700  0.01075700  0.10807200  1
  O  O53  1  0.20395700  0.98924300  0.39192800  1
  O  O54  1  0.86936400  0.50000000  0.25000000  1
  O  O55  1  0.13063600  0.50000000  0.75000000  1
  O  O56  1  0.79604300  0.01075700  0.60807200  1
  O  O57  1  0.79604300  0.98924300  0.89192800  1
  O  O58  1  0.93928100  0.90980100  0.24269200  1
  O  O59  1  0.93928100  0.09019900  0.25730800  1
