# generated using pymatgen
data_KNaCaMg5(SiO3)8
_symmetry_space_group_name_H-M   'P 1'
_cell_length_a   5.31962101
_cell_length_b   10.19570692
_cell_length_c   10.47431827
_cell_angle_alpha   119.11388738
_cell_angle_beta   97.27821910
_cell_angle_gamma   74.90883458
_symmetry_Int_Tables_number   1
_chemical_formula_structural   KNaCaMg5(SiO3)8
_chemical_formula_sum   'K1 Na1 Ca1 Mg5 Si8 O24'
_cell_volume   479.20513156
_cell_formula_units_Z   1
loop_
 _symmetry_equiv_pos_site_id
 _symmetry_equiv_pos_as_xyz
  1  'x, y, z'
loop_
 _atom_site_type_symbol
 _atom_site_label
 _atom_site_symmetry_multiplicity
 _atom_site_fract_x
 _atom_site_fract_y
 _atom_site_fract_z
 _atom_site_occupancy
  K  K0  1  0.96894400  0.51550800  0.00252400  1
  Na  Na1  1  0.50004100  0.72330600  0.44682700  1
  Ca  Ca2  1  0.50029500  0.27859500  0.55834100  1
  Mg  Mg3  1  0.50043500  0.90606400  0.81167600  1
  Mg  Mg4  1  0.50044400  0.09295600  0.18566700  1
  Mg  Mg5  1  0.99912500  0.99956800  0.99872700  1
  Mg  Mg6  1  0.00012000  0.81874100  0.63662600  1
  Mg  Mg7  1  0.99994900  0.17833900  0.35613800  1
  Si  Si8  1  0.70154100  0.18771000  0.83014700  1
  Si  Si9  1  0.70044200  0.35765400  0.17002600  1
  Si  Si10  1  0.29977600  0.81310900  0.17022700  1
  Si  Si11  1  0.29871700  0.64311200  0.82993900  1
  Si  Si12  1  0.19334100  0.11297800  0.65657600  1
  Si  Si13  1  0.19516900  0.45502400  0.34272700  1
  Si  Si14  1  0.80498400  0.88842400  0.34346300  1
  Si  Si15  1  0.80684400  0.54390000  0.65597000  1
  O  O16  1  0.40775900  0.22174800  0.76386700  1
  O  O17  1  0.40484300  0.45177100  0.23250100  1
  O  O18  1  0.59602100  0.78088100  0.23197000  1
  O  O19  1  0.59315400  0.54294500  0.76437500  1
  O  O20  1  0.27009100  0.94966900  0.65874600  1
  O  O21  1  0.27634600  0.29043600  0.34700400  1
  O  O22  1  0.72343400  0.05695700  0.34727300  1
  O  O23  1  0.72978800  0.70940000  0.65832900  1
  O  O24  1  0.31498300  0.08695500  0.99989400  1
  O  O25  1  0.68599300  0.91202800  0.99994400  1
  O  O26  1  0.78660400  0.02146100  0.82430900  1
  O  O27  1  0.78707400  0.19636200  0.17564900  1
  O  O28  1  0.21279000  0.98000800  0.17595500  1
  O  O29  1  0.21334300  0.80333900  0.82390000  1
  O  O30  1  0.20185100  0.12280200  0.50894700  1
  O  O31  1  0.19801500  0.60674500  0.49553100  1
  O  O32  1  0.80132200  0.88862500  0.49547800  1
  O  O33  1  0.79780100  0.38623500  0.50908200  1
  O  O34  1  0.89838900  0.21375800  0.73771300  1
  O  O35  1  0.90586500  0.46909000  0.25838000  1
  O  O36  1  0.09347700  0.78973100  0.25779100  1
  O  O37  1  0.10085700  0.52519600  0.73838800  1
  O  O38  1  0.70146800  0.32798000  0.99969200  1
  O  O39  1  0.30156400  0.67218800  0.99968300  1
