# generated using pymatgen
data_K8SrTe6
_symmetry_space_group_name_H-M   'P 1'
_cell_length_a   10.18217876
_cell_length_b   10.18217876
_cell_length_c   10.18217876
_cell_angle_alpha   95.44268424
_cell_angle_beta   95.44268424
_cell_angle_gamma   144.12526012
_symmetry_Int_Tables_number   1
_chemical_formula_structural   K8SrTe6
_chemical_formula_sum   'K8 Sr1 Te6'
_cell_volume   588.56075665
_cell_formula_units_Z   1
loop_
 _symmetry_equiv_pos_site_id
 _symmetry_equiv_pos_as_xyz
  1  'x, y, z'
loop_
 _atom_site_type_symbol
 _atom_site_label
 _atom_site_symmetry_multiplicity
 _atom_site_fract_x
 _atom_site_fract_y
 _atom_site_fract_z
 _atom_site_occupancy
  K  K0  1  0.96308000  0.15491100  0.63271000  1
  K  K1  1  0.52220100  0.33037000  0.36729000  1
  K  K2  1  0.47779900  0.84508900  0.80816900  1
  K  K3  1  0.03692000  0.66963000  0.19183100  1
  K  K4  1  0.66963000  0.03692000  0.19183100  1
  K  K5  1  0.84508900  0.47779900  0.80816900  1
  K  K6  1  0.33037000  0.52220100  0.36729000  1
  K  K7  1  0.15491100  0.96308000  0.63271000  1
  Sr  Sr8  1  0.50000000  0.50000000  0.00000000  1
  Te  Te9  1  0.50000000  0.00000000  0.50000000  1
  Te  Te10  1  0.00000000  0.50000000  0.50000000  1
  Te  Te11  1  0.88444300  0.88444300  0.30107600  1
  Te  Te12  1  0.58336700  0.58336700  0.69892400  1
  Te  Te13  1  0.41663300  0.11555700  0.00000000  1
  Te  Te14  1  0.11555700  0.41663300  0.00000000  1
