# generated using pymatgen
data_K3NaS2
_symmetry_space_group_name_H-M   'P 1'
_cell_length_a   5.09454125
_cell_length_b   5.09470800
_cell_length_c   7.37288800
_cell_angle_alpha   90.00000000
_cell_angle_beta   90.00000000
_cell_angle_gamma   59.99891723
_symmetry_Int_Tables_number   1
_chemical_formula_structural   K3NaS2
_chemical_formula_sum   'K3 Na1 S2'
_cell_volume   165.72495515
_cell_formula_units_Z   1
loop_
 _symmetry_equiv_pos_site_id
 _symmetry_equiv_pos_as_xyz
  1  'x, y, z'
loop_
 _atom_site_type_symbol
 _atom_site_label
 _atom_site_symmetry_multiplicity
 _atom_site_fract_x
 _atom_site_fract_y
 _atom_site_fract_z
 _atom_site_occupancy
  K  K0  1  0.00000600  0.99999700  0.50229700  1
  K  K1  1  0.00000600  0.99999700  0.99770300  1
  K  K2  1  0.33332200  0.33333900  0.25000000  1
  Na  Na3  1  0.66661700  0.66669200  0.75000000  1
  S  S4  1  0.33336500  0.33331700  0.75000000  1
  S  S5  1  0.66668300  0.66665800  0.25000000  1
