# generated using pymatgen
data_KBaGd(MoO4)3
_symmetry_space_group_name_H-M   'P 1'
_cell_length_a   10.80121847
_cell_length_b   10.80121847
_cell_length_c   5.41785985
_cell_angle_alpha   76.80982700
_cell_angle_beta   76.80982700
_cell_angle_gamma   70.11565252
_symmetry_Int_Tables_number   1
_chemical_formula_structural   KBaGd(MoO4)3
_chemical_formula_sum   'K2 Ba2 Gd2 Mo6 O24'
_cell_volume   570.83659437
_cell_formula_units_Z   2
loop_
 _symmetry_equiv_pos_site_id
 _symmetry_equiv_pos_as_xyz
  1  'x, y, z'
loop_
 _atom_site_type_symbol
 _atom_site_label
 _atom_site_symmetry_multiplicity
 _atom_site_fract_x
 _atom_site_fract_y
 _atom_site_fract_z
 _atom_site_occupancy
  K  K0  1  0.70932800  0.96223000  0.17278500  1
  K  K1  1  0.03777000  0.29067200  0.82721500  1
  Ba  Ba2  1  0.29013300  0.04202800  0.32569500  1
  Ba  Ba3  1  0.95797200  0.70986700  0.67430500  1
  Gd  Gd4  1  0.62216400  0.37783600  0.00000000  1
  Gd  Gd5  1  0.38427300  0.61572700  0.50000000  1
  Mo  Mo6  1  0.85045100  0.14954900  0.50000000  1
  Mo  Mo7  1  0.15070500  0.84929500  0.00000000  1
  Mo  Mo8  1  0.54640500  0.76660800  0.85008000  1
  Mo  Mo9  1  0.23339200  0.45359500  0.14992000  1
  Mo  Mo10  1  0.45425600  0.23325700  0.64915500  1
  Mo  Mo11  1  0.76674300  0.54574400  0.35084500  1
  O  O12  1  0.61308600  0.53774000  0.59580600  1
  O  O13  1  0.46226000  0.38691400  0.40419400  1
  O  O14  1  0.38487700  0.46382800  0.90458500  1
  O  O15  1  0.53617300  0.61512300  0.09541500  1
  O  O16  1  0.01317100  0.14318600  0.32515100  1
  O  O17  1  0.85681400  0.98682900  0.67484900  1
  O  O18  1  0.98933700  0.85340000  0.17663800  1
  O  O19  1  0.14660000  0.01066300  0.82336200  1
  O  O20  1  0.76189400  0.69823800  0.13518800  1
  O  O21  1  0.30176200  0.23810600  0.86481200  1
  O  O22  1  0.24017800  0.30020700  0.36203800  1
  O  O23  1  0.69979300  0.75982200  0.63796200  1
  O  O24  1  0.73011000  0.19259000  0.28332200  1
  O  O25  1  0.80741000  0.26989000  0.71667800  1
  O  O26  1  0.26905200  0.80979000  0.22016000  1
  O  O27  1  0.19021000  0.73094800  0.77984000  1
  O  O28  1  0.79717000  0.42527500  0.14485800  1
  O  O29  1  0.57472500  0.20283000  0.85514200  1
  O  O30  1  0.20124600  0.57640100  0.35625700  1
  O  O31  1  0.42359900  0.79875400  0.64374300  1
  O  O32  1  0.49148000  0.09450800  0.49351700  1
  O  O33  1  0.90549200  0.50852000  0.50648300  1
  O  O34  1  0.50514800  0.90517500  0.00693800  1
  O  O35  1  0.09482500  0.49485200  0.99306200  1
