# generated using pymatgen
data_KAl(SiO3)2
_symmetry_space_group_name_H-M   'P 1'
_cell_length_a   7.51776701
_cell_length_b   7.51776701
_cell_length_c   10.28342500
_cell_angle_alpha   90.00000000
_cell_angle_beta   90.00000000
_cell_angle_gamma   91.94666945
_symmetry_Int_Tables_number   1
_chemical_formula_structural   KAl(SiO3)2
_chemical_formula_sum   'K4 Al4 Si8 O24'
_cell_volume   580.85107241
_cell_formula_units_Z   4
loop_
 _symmetry_equiv_pos_site_id
 _symmetry_equiv_pos_as_xyz
  1  'x, y, z'
loop_
 _atom_site_type_symbol
 _atom_site_label
 _atom_site_symmetry_multiplicity
 _atom_site_fract_x
 _atom_site_fract_y
 _atom_site_fract_z
 _atom_site_occupancy
  K  K0  1  0.29647900  0.70352100  0.25000000  1
  K  K1  1  0.70352100  0.29647900  0.75000000  1
  K  K2  1  0.20369600  0.20369600  0.50000000  1
  K  K3  1  0.79630400  0.79630400  0.00000000  1
  Al  Al4  1  0.85710400  0.35803600  0.06451600  1
  Al  Al5  1  0.14289600  0.64196400  0.56451600  1
  Al  Al6  1  0.64196400  0.14289600  0.43548400  1
  Al  Al7  1  0.35803600  0.85710400  0.93548400  1
  Si  Si8  1  0.86291000  0.64140200  0.31451700  1
  Si  Si9  1  0.13709000  0.35859800  0.81451700  1
  Si  Si10  1  0.64140200  0.86291000  0.68548300  1
  Si  Si11  1  0.35859800  0.13709000  0.18548300  1
  Si  Si12  1  0.94443200  0.05556800  0.25000000  1
  Si  Si13  1  0.05556800  0.94443200  0.75000000  1
  Si  Si14  1  0.55773400  0.55773400  0.50000000  1
  Si  Si15  1  0.44226600  0.44226600  0.00000000  1
  O  O16  1  0.86426200  0.13518700  0.11657100  1
  O  O17  1  0.13573800  0.86481300  0.61657100  1
  O  O18  1  0.65391200  0.64032700  0.36639200  1
  O  O19  1  0.34608800  0.35967300  0.86639200  1
  O  O20  1  0.86481300  0.13573800  0.38342900  1
  O  O21  1  0.13518700  0.86426200  0.88342900  1
  O  O22  1  0.64032700  0.65391200  0.63360800  1
  O  O23  1  0.35967300  0.34608800  0.13360800  1
  O  O24  1  0.00473600  0.39373700  0.93408300  1
  O  O25  1  0.99526400  0.60626200  0.43408300  1
  O  O26  1  0.89085800  0.50746000  0.19319000  1
  O  O27  1  0.10914200  0.49254000  0.69319000  1
  O  O28  1  0.60626200  0.99526400  0.56591700  1
  O  O29  1  0.39373800  0.00473600  0.06591700  1
  O  O30  1  0.50746000  0.89085800  0.80681000  1
  O  O31  1  0.49254000  0.10914200  0.30681000  1
  O  O32  1  0.65278300  0.40670000  0.98905900  1
  O  O33  1  0.34721700  0.59330000  0.48905900  1
  O  O34  1  0.90898000  0.83789300  0.24674300  1
  O  O35  1  0.09102000  0.16210700  0.74674300  1
  O  O36  1  0.59330000  0.34721700  0.51094100  1
  O  O37  1  0.40670000  0.65278300  0.01094100  1
  O  O38  1  0.83789300  0.90898000  0.75325700  1
  O  O39  1  0.16210700  0.09102000  0.25325700  1
