# generated using pymatgen
data_K8CaTe6
_symmetry_space_group_name_H-M   'P 1'
_cell_length_a   10.09773178
_cell_length_b   10.09773178
_cell_length_c   10.09773178
_cell_angle_alpha   95.61040634
_cell_angle_beta   95.61040634
_cell_angle_gamma   143.55936056
_symmetry_Int_Tables_number   1
_chemical_formula_structural   K8CaTe6
_chemical_formula_sum   'K8 Ca1 Te6'
_cell_volume   580.91223422
_cell_formula_units_Z   1
loop_
 _symmetry_equiv_pos_site_id
 _symmetry_equiv_pos_as_xyz
  1  'x, y, z'
loop_
 _atom_site_type_symbol
 _atom_site_label
 _atom_site_symmetry_multiplicity
 _atom_site_fract_x
 _atom_site_fract_y
 _atom_site_fract_z
 _atom_site_occupancy
  K  K0  1  0.66515100  0.47429700  0.63425700  1
  K  K1  1  0.84004000  0.03089500  0.36574300  1
  K  K2  1  0.15996000  0.52570300  0.19085500  1
  K  K3  1  0.33484900  0.96910500  0.80914500  1
  K  K4  1  0.96910500  0.33484900  0.80914500  1
  K  K5  1  0.52570300  0.15996000  0.19085500  1
  K  K6  1  0.03089500  0.84004000  0.36574300  1
  K  K7  1  0.47429700  0.66515100  0.63425700  1
  Ca  Ca8  1  0.50000000  0.50000000  0.00000000  1
  Te  Te9  1  0.58882600  0.88171400  0.00000000  1
  Te  Te10  1  0.88171400  0.58882600  0.00000000  1
  Te  Te11  1  0.11828600  0.11828600  0.70711200  1
  Te  Te12  1  0.41117400  0.41117400  0.29288800  1
  Te  Te13  1  0.50000000  0.00000000  0.50000000  1
  Te  Te14  1  0.00000000  0.50000000  0.50000000  1
