# generated using pymatgen
data_MgAlSi4O15
_symmetry_space_group_name_H-M   'P 1'
_cell_length_a   5.36580200
_cell_length_b   12.84649800
_cell_length_c   18.23494200
_cell_angle_alpha   90.00000000
_cell_angle_beta   90.00000000
_cell_angle_gamma   90.00000000
_symmetry_Int_Tables_number   1
_chemical_formula_structural   MgAlSi4O15
_chemical_formula_sum   'Mg4 Al4 Si16 O60'
_cell_volume   1256.96673056
_cell_formula_units_Z   4
loop_
 _symmetry_equiv_pos_site_id
 _symmetry_equiv_pos_as_xyz
  1  'x, y, z'
loop_
 _atom_site_type_symbol
 _atom_site_label
 _atom_site_symmetry_multiplicity
 _atom_site_fract_x
 _atom_site_fract_y
 _atom_site_fract_z
 _atom_site_occupancy
  Mg  Mg0  1  0.50000000  0.50000000  0.59626700  1
  Mg  Mg1  1  0.50000000  0.00000000  0.90373300  1
  Mg  Mg2  1  0.50000000  0.50000000  0.40373300  1
  Mg  Mg3  1  0.50000000  0.00000000  0.09626700  1
  Al  Al4  1  0.00000000  0.50000000  0.65689000  1
  Al  Al5  1  0.00000000  0.00000000  0.84311000  1
  Al  Al6  1  0.00000000  0.50000000  0.34311000  1
  Al  Al7  1  0.00000000  0.00000000  0.15689000  1
  Si  Si8  1  0.81030900  0.28480800  0.58630500  1
  Si  Si9  1  0.18969100  0.71519200  0.58630500  1
  Si  Si10  1  0.81030900  0.21519200  0.91369500  1
  Si  Si11  1  0.18969100  0.78480800  0.91369500  1
  Si  Si12  1  0.18969100  0.71519200  0.41369500  1
  Si  Si13  1  0.81030900  0.28480800  0.41369500  1
  Si  Si14  1  0.18969100  0.78480800  0.08630500  1
  Si  Si15  1  0.81030900  0.21519200  0.08630500  1
  Si  Si16  1  0.30098100  0.28383900  0.66537400  1
  Si  Si17  1  0.69901900  0.71616100  0.66537400  1
  Si  Si18  1  0.30098100  0.21616100  0.83462600  1
  Si  Si19  1  0.69901900  0.78383900  0.83462600  1
  Si  Si20  1  0.69901900  0.71616100  0.33462600  1
  Si  Si21  1  0.30098100  0.28383900  0.33462600  1
  Si  Si22  1  0.69901900  0.78383900  0.16537400  1
  Si  Si23  1  0.30098100  0.21616100  0.16537400  1
  O  O24  1  0.81795100  0.41198800  0.59660600  1
  O  O25  1  0.18204900  0.58801200  0.59660600  1
  O  O26  1  0.81795100  0.08801200  0.90339400  1
  O  O27  1  0.18204900  0.91198800  0.90339400  1
  O  O28  1  0.18204900  0.58801200  0.40339400  1
  O  O29  1  0.81795100  0.41198800  0.40339400  1
  O  O30  1  0.18204900  0.91198800  0.09660600  1
  O  O31  1  0.81795100  0.08801200  0.09660600  1
  O  O32  1  0.86265000  0.44239800  0.74805000  1
  O  O33  1  0.13735000  0.55760200  0.74805000  1
  O  O34  1  0.86265000  0.05760200  0.75195000  1
  O  O35  1  0.13735000  0.94239800  0.75195000  1
  O  O36  1  0.13735000  0.55760200  0.25195000  1
  O  O37  1  0.86265000  0.44239800  0.25195000  1
  O  O38  1  0.13735000  0.94239800  0.24805000  1
  O  O39  1  0.86265000  0.05760200  0.24805000  1
  O  O40  1  0.82839800  0.25133600  0.50000000  1
  O  O41  1  0.17160200  0.74866400  0.50000000  1
  O  O42  1  0.82839800  0.24866400  0.00000000  1
  O  O43  1  0.17160200  0.75133600  0.00000000  1
  O  O44  1  0.04649700  0.23306600  0.63022200  1
  O  O45  1  0.95350300  0.76693400  0.63022200  1
  O  O46  1  0.04649700  0.26693400  0.86977800  1
  O  O47  1  0.95350300  0.73306600  0.86977800  1
  O  O48  1  0.95350300  0.76693400  0.36977800  1
  O  O49  1  0.04649700  0.23306600  0.36977800  1
  O  O50  1  0.95350300  0.73306600  0.13022200  1
  O  O51  1  0.04649700  0.26693400  0.13022200  1
  O  O52  1  0.33262600  0.25000000  0.75000000  1
  O  O53  1  0.66737400  0.75000000  0.75000000  1
  O  O54  1  0.66737400  0.75000000  0.25000000  1
  O  O55  1  0.33262600  0.25000000  0.25000000  1
  O  O56  1  0.50000000  0.50000000  0.96640400  1
  O  O57  1  0.50000000  0.00000000  0.53359600  1
  O  O58  1  0.50000000  0.50000000  0.03359600  1
  O  O59  1  0.50000000  0.00000000  0.46640400  1
  O  O60  1  0.27736700  0.41120300  0.66047300  1
  O  O61  1  0.72263300  0.58879700  0.66047300  1
  O  O62  1  0.27736700  0.08879700  0.83952700  1
  O  O63  1  0.72263300  0.91120300  0.83952700  1
  O  O64  1  0.72263300  0.58879700  0.33952700  1
  O  O65  1  0.27736700  0.41120300  0.33952700  1
  O  O66  1  0.72263300  0.91120300  0.16047300  1
  O  O67  1  0.27736700  0.08879700  0.16047300  1
  O  O68  1  0.39570300  0.42586800  0.50000000  1
  O  O69  1  0.60429700  0.57413200  0.50000000  1
  O  O70  1  0.39570300  0.07413200  0.00000000  1
  O  O71  1  0.60429700  0.92586800  0.00000000  1
  O  O72  1  0.54424200  0.24302700  0.61918500  1
  O  O73  1  0.45575800  0.75697300  0.61918500  1
  O  O74  1  0.54424200  0.25697300  0.88081500  1
  O  O75  1  0.45575800  0.74302700  0.88081500  1
  O  O76  1  0.45575800  0.75697300  0.38081500  1
  O  O77  1  0.54424200  0.24302700  0.38081500  1
  O  O78  1  0.45575800  0.74302700  0.11918500  1
  O  O79  1  0.54424200  0.25697300  0.11918500  1
  O  O80  1  0.00000000  0.50000000  0.96648200  1
  O  O81  1  0.00000000  0.00000000  0.53351800  1
  O  O82  1  0.00000000  0.50000000  0.03351800  1
  O  O83  1  0.00000000  0.00000000  0.46648200  1
