# generated using pymatgen
data_La10MgTi7O30
_symmetry_space_group_name_H-M   'P 1'
_cell_length_a   5.60378820
_cell_length_b   5.60378820
_cell_length_c   22.20587300
_cell_angle_alpha   90.00000000
_cell_angle_beta   90.00000000
_cell_angle_gamma   120.00000240
_symmetry_Int_Tables_number   1
_chemical_formula_structural   La10MgTi7O30
_chemical_formula_sum   'La10 Mg1 Ti7 O30'
_cell_volume   603.89564560
_cell_formula_units_Z   1
loop_
 _symmetry_equiv_pos_site_id
 _symmetry_equiv_pos_as_xyz
  1  'x, y, z'
loop_
 _atom_site_type_symbol
 _atom_site_label
 _atom_site_symmetry_multiplicity
 _atom_site_fract_x
 _atom_site_fract_y
 _atom_site_fract_z
 _atom_site_occupancy
  La  La0  1  0.33333300  0.66666700  0.24508400  1
  La  La1  1  0.33333300  0.66666700  0.75030900  1
  La  La2  1  0.66666700  0.33333300  0.14175400  1
  La  La3  1  0.66666700  0.33333300  0.64071200  1
  La  La4  1  0.00000000  0.00000000  0.86063800  1
  La  La5  1  0.00000000  0.00000000  0.35461900  1
  La  La6  1  0.00000000  0.00000000  0.04637800  1
  La  La7  1  0.00000000  0.00000000  0.53231500  1
  La  La8  1  0.66666700  0.33333300  0.96962100  1
  La  La9  1  0.66666700  0.33333300  0.45559800  1
  Mg  Mg10  1  0.00000000  0.00000000  0.19866000  1
  Ti  Ti11  1  0.33333300  0.66666700  0.09395600  1
  Ti  Ti12  1  0.33333300  0.66666700  0.58920500  1
  Ti  Ti13  1  0.33333300  0.66666700  0.91116400  1
  Ti  Ti14  1  0.33333300  0.66666700  0.40788400  1
  Ti  Ti15  1  0.00000000  0.00000000  0.69727200  1
  Ti  Ti16  1  0.66666700  0.33333300  0.80336800  1
  Ti  Ti17  1  0.66666700  0.33333300  0.29800600  1
  O  O18  1  0.65343200  0.89466000  0.14857600  1
  O  O19  1  0.24122800  0.34656800  0.14857600  1
  O  O20  1  0.10534000  0.75877200  0.14857600  1
  O  O21  1  0.22797600  0.89293200  0.65215700  1
  O  O22  1  0.66495700  0.77202400  0.65215700  1
  O  O23  1  0.10706800  0.33504300  0.65215700  1
  O  O24  1  0.00231400  0.44141700  0.84691700  1
  O  O25  1  0.43910300  0.99768600  0.84691700  1
  O  O26  1  0.55858300  0.56089700  0.84691700  1
  O  O27  1  0.43561400  0.43602200  0.35219000  1
  O  O28  1  0.00040800  0.56438600  0.35219000  1
  O  O29  1  0.56397800  0.99959200  0.35219000  1
  O  O30  1  0.23161400  0.32769300  0.94537200  1
  O  O31  1  0.09607900  0.76838600  0.94537200  1
  O  O32  1  0.67230700  0.90392100  0.94537200  1
  O  O33  1  0.09132100  0.32700700  0.44772600  1
  O  O34  1  0.23568700  0.90867900  0.44772600  1
  O  O35  1  0.67299300  0.76431300  0.44772600  1
  O  O36  1  0.42885500  0.00831200  0.05177500  1
  O  O37  1  0.57945700  0.57114500  0.05177500  1
  O  O38  1  0.99168800  0.42054300  0.05177500  1
  O  O39  1  0.57181000  0.00552600  0.55413200  1
  O  O40  1  0.43371700  0.42819000  0.55413200  1
  O  O41  1  0.99447400  0.56628300  0.55413200  1
  O  O42  1  0.89547700  0.23670600  0.25282000  1
  O  O43  1  0.34122900  0.10452300  0.25282000  1
  O  O44  1  0.76329400  0.65877100  0.25282000  1
  O  O45  1  0.33353800  0.22809500  0.74949300  1
  O  O46  1  0.89455700  0.66646200  0.74949300  1
  O  O47  1  0.77190500  0.10544300  0.74949300  1
