# generated using pymatgen
data_InHg3
_symmetry_space_group_name_H-M   'P 1'
_cell_length_a   3.26570717
_cell_length_b   3.26570717
_cell_length_c   11.37947700
_cell_angle_alpha   90.00000000
_cell_angle_beta   90.00000000
_cell_angle_gamma   109.46236370
_symmetry_Int_Tables_number   1
_chemical_formula_structural   InHg3
_chemical_formula_sum   'In1 Hg3'
_cell_volume   114.42587710
_cell_formula_units_Z   1
loop_
 _symmetry_equiv_pos_site_id
 _symmetry_equiv_pos_as_xyz
  1  'x, y, z'
loop_
 _atom_site_type_symbol
 _atom_site_label
 _atom_site_symmetry_multiplicity
 _atom_site_fract_x
 _atom_site_fract_y
 _atom_site_fract_z
 _atom_site_occupancy
  In  In0  1  0.50000000  0.50000000  0.50000000  1
  Hg  Hg1  1  0.00000000  0.00000000  0.00000000  1
  Hg  Hg2  1  0.00000000  0.50000000  0.74922400  1
  Hg  Hg3  1  0.50000000  0.00000000  0.25077600  1
