# generated using pymatgen
data_KAl3(SiO4)3
_symmetry_space_group_name_H-M   'P 1'
_cell_length_a   5.29912464
_cell_length_b   5.29912464
_cell_length_c   20.59165109
_cell_angle_alpha   86.73895504
_cell_angle_beta   86.73895504
_cell_angle_gamma   119.95103587
_symmetry_Int_Tables_number   1
_chemical_formula_structural   KAl3(SiO4)3
_chemical_formula_sum   'K2 Al6 Si6 O24'
_cell_volume   497.75921154
_cell_formula_units_Z   2
loop_
 _symmetry_equiv_pos_site_id
 _symmetry_equiv_pos_as_xyz
  1  'x, y, z'
loop_
 _atom_site_type_symbol
 _atom_site_label
 _atom_site_symmetry_multiplicity
 _atom_site_fract_x
 _atom_site_fract_y
 _atom_site_fract_z
 _atom_site_occupancy
  K  K0  1  0.10289900  0.90775500  0.73922000  1
  K  K1  1  0.90775500  0.10289900  0.23922000  1
  Al  Al2  1  0.80597600  0.62525600  0.50287200  1
  Al  Al3  1  0.36716100  0.18159600  0.00307800  1
  Al  Al4  1  0.18159600  0.36716100  0.50307800  1
  Al  Al5  1  0.62525600  0.80597600  0.00287200  1
  Al  Al6  1  0.46201300  0.61218300  0.63523900  1
  Al  Al7  1  0.61218300  0.46201300  0.13523900  1
  Si  Si8  1  0.39189300  0.53677600  0.86637800  1
  Si  Si9  1  0.53677600  0.39189300  0.36637800  1
  Si  Si10  1  0.80465400  0.29584900  0.63743100  1
  Si  Si11  1  0.70545800  0.19185400  0.86665000  1
  Si  Si12  1  0.19185400  0.70545800  0.36665000  1
  Si  Si13  1  0.29584900  0.80465400  0.13743100  1
  O  O14  1  0.70000900  0.51001700  0.66789800  1
  O  O15  1  0.53199500  0.34847100  0.83439700  1
  O  O16  1  0.34847100  0.53199500  0.33439700  1
  O  O17  1  0.51001700  0.70000900  0.16789800  1
  O  O18  1  0.54897600  0.95924500  0.65609200  1
  O  O19  1  0.05776800  0.40832100  0.84464000  1
  O  O20  1  0.40832100  0.05776900  0.34464000  1
  O  O21  1  0.95924500  0.54897600  0.15609200  1
  O  O22  1  0.88216200  0.38047400  0.55601400  1
  O  O23  1  0.61738000  0.12177600  0.94523500  1
  O  O24  1  0.12177600  0.61738000  0.44523500  1
  O  O25  1  0.38047400  0.88216200  0.05601400  1
  O  O26  1  0.10382200  0.35726700  0.66884300  1
  O  O27  1  0.59338000  0.88025400  0.83333200  1
  O  O28  1  0.88025400  0.59338000  0.33333200  1
  O  O29  1  0.35726700  0.10382200  0.16884300  1
  O  O30  1  0.06712100  0.98304600  0.53183100  1
  O  O31  1  0.01456400  0.94360400  0.96576300  1
  O  O32  1  0.94360400  0.01456400  0.46576300  1
  O  O33  1  0.98304600  0.06712100  0.03183100  1
  O  O34  1  0.47911000  0.57789900  0.55061900  1
  O  O35  1  0.41404800  0.52796600  0.94446800  1
  O  O36  1  0.52796600  0.41404800  0.44446800  1
  O  O37  1  0.57789900  0.47911000  0.05061900  1
