# generated using pymatgen
data_LaFe5Bi4O15
_symmetry_space_group_name_H-M   'P 1'
_cell_length_a   5.58313800
_cell_length_b   12.52827421
_cell_length_c   9.67717955
_cell_angle_alpha   97.24303101
_cell_angle_beta   106.78181927
_cell_angle_gamma   102.87975701
_symmetry_Int_Tables_number   1
_chemical_formula_structural   LaFe5Bi4O15
_chemical_formula_sum   'La2 Fe10 Bi8 O30'
_cell_volume   618.46638279
_cell_formula_units_Z   2
loop_
 _symmetry_equiv_pos_site_id
 _symmetry_equiv_pos_as_xyz
  1  'x, y, z'
loop_
 _atom_site_type_symbol
 _atom_site_label
 _atom_site_symmetry_multiplicity
 _atom_site_fract_x
 _atom_site_fract_y
 _atom_site_fract_z
 _atom_site_occupancy
  La  La0  1  0.37070400  0.17311900  0.56723900  1
  La  La1  1  0.16874500  0.56603900  0.76849300  1
  Fe  Fe2  1  0.51506500  0.11414100  0.91320500  1
  Fe  Fe3  1  0.30965500  0.50801400  0.10863300  1
  Fe  Fe4  1  0.10319900  0.90526700  0.30450500  1
  Fe  Fe5  1  0.90475700  0.30698700  0.50770700  1
  Fe  Fe6  1  0.71236000  0.71125300  0.71085400  1
  Fe  Fe7  1  0.60668300  0.40775100  0.80801200  1
  Fe  Fe8  1  0.40456600  0.80590800  0.00818600  1
  Fe  Fe9  1  0.20595900  0.20699300  0.20850300  1
  Fe  Fe10  1  0.01253700  0.61318100  0.40922700  1
  Fe  Fe11  1  0.81450500  0.01041700  0.61095300  1
  Bi  Bi12  1  0.08522800  0.28690000  0.89002500  1
  Bi  Bi13  1  0.87607500  0.68357700  0.08078700  1
  Bi  Bi14  1  0.68278200  0.08562700  0.28214600  1
  Bi  Bi15  1  0.48590600  0.48296600  0.48099000  1
  Bi  Bi16  1  0.29176900  0.88410400  0.68948500  1
  Bi  Bi17  1  0.99065100  0.98357000  0.98985500  1
  Bi  Bi18  1  0.78827000  0.38717800  0.18852300  1
  Bi  Bi19  1  0.58342300  0.78836000  0.38223200  1
  O  O20  1  0.37211400  0.95027400  0.93990400  1
  O  O21  1  0.78056700  0.15189700  0.54090300  1
  O  O22  1  0.57867900  0.54979200  0.74040000  1
  O  O23  1  0.17234300  0.34804800  0.14207600  1
  O  O24  1  0.97091000  0.75165400  0.33640400  1
  O  O25  1  0.19412000  0.05973000  0.71742200  1
  O  O26  1  0.58229400  0.25777200  0.32797300  1
  O  O27  1  0.38535100  0.65828900  0.52084900  1
  O  O28  1  0.99392700  0.45906300  0.92487100  1
  O  O29  1  0.79245000  0.85924100  0.12236800  1
  O  O30  1  0.68086600  0.03004400  0.77884200  1
  O  O31  1  0.07303800  0.22886300  0.37738000  1
  O  O32  1  0.87761100  0.62865500  0.57630000  1
  O  O33  1  0.47592400  0.43293600  0.98059800  1
  O  O34  1  0.27736700  0.83393600  0.18071200  1
  O  O35  1  0.49725500  0.76205800  0.82201300  1
  O  O36  1  0.89448900  0.96154100  0.41595700  1
  O  O37  1  0.70837100  0.36735200  0.62253600  1
  O  O38  1  0.29385400  0.15904400  0.02890000  1
  O  O39  1  0.08903900  0.55540300  0.21788300  1
  O  O40  1  0.81758900  0.84971100  0.63356200  1
  O  O41  1  0.21616400  0.05106900  0.24533200  1
  O  O42  1  0.01726800  0.44776600  0.44395400  1
  O  O43  1  0.61602400  0.25207100  0.84424200  1
  O  O44  1  0.42367300  0.64887000  0.04730100  1
  O  O45  1  0.42351500  0.93415700  0.47602500  1
  O  O46  1  0.83876800  0.13079100  0.08214900  1
  O  O47  1  0.62538500  0.52940600  0.27643800  1
  O  O48  1  0.21961900  0.33868000  0.67839000  1
  O  O49  1  0.02959000  0.73153600  0.87975200  1
