# generated using pymatgen
data_K8La(PSe4)4
_symmetry_space_group_name_H-M   'P 1'
_cell_length_a   11.83550083
_cell_length_b   11.83550083
_cell_length_c   11.83550083
_cell_angle_alpha   133.78951874
_cell_angle_beta   127.98873273
_cell_angle_gamma   72.09030519
_symmetry_Int_Tables_number   1
_chemical_formula_structural   K8La(PSe4)4
_chemical_formula_sum   'K8 La1 P4 Se16'
_cell_volume   922.59417364
_cell_formula_units_Z   1
loop_
 _symmetry_equiv_pos_site_id
 _symmetry_equiv_pos_as_xyz
  1  'x, y, z'
loop_
 _atom_site_type_symbol
 _atom_site_label
 _atom_site_symmetry_multiplicity
 _atom_site_fract_x
 _atom_site_fract_y
 _atom_site_fract_z
 _atom_site_occupancy
  K  K0  1  0.83597100  0.20323100  0.87515500  1
  K  K1  1  0.67192300  0.79676900  0.63274000  1
  K  K2  1  0.16402900  0.03918400  0.36726000  1
  K  K3  1  0.32807700  0.96081600  0.12484500  1
  K  K4  1  0.74268600  0.74268600  0.00000000  1
  K  K5  1  0.25731400  0.25731400  0.00000000  1
  K  K6  1  0.76466500  0.26466500  0.50000000  1
  K  K7  1  0.23533500  0.73533500  0.50000000  1
  La  La8  1  0.50000000  0.50000000  0.00000000  1
  P  P9  1  0.37815400  0.42055600  0.54589400  1
  P  P10  1  0.12533800  0.57944400  0.95759800  1
  P  P11  1  0.62184600  0.16774000  0.04240200  1
  P  P12  1  0.87466200  0.83226000  0.45410600  1
  Se  Se13  1  0.83959700  0.57731200  0.20414100  1
  Se  Se14  1  0.62682800  0.42268800  0.26228500  1
  Se  Se15  1  0.16040300  0.36454400  0.73771500  1
  Se  Se16  1  0.37317200  0.63545600  0.79585900  1
  Se  Se17  1  0.49748000  0.27591000  0.62965700  1
  Se  Se18  1  0.35374700  0.72409000  0.22156900  1
  Se  Se19  1  0.50252000  0.13217800  0.77843100  1
  Se  Se20  1  0.64625300  0.86782200  0.37034300  1
  Se  Se21  1  0.00018400  0.72946200  0.88757000  1
  Se  Se22  1  0.15810800  0.27053800  0.27072200  1
  Se  Se23  1  0.99981600  0.88738600  0.72927800  1
  Se  Se24  1  0.84189200  0.11261400  0.11243000  1
  Se  Se25  1  0.49021100  0.48329800  0.49270800  1
  Se  Se26  1  0.00941000  0.51670200  0.00691400  1
  Se  Se27  1  0.50978900  0.00249700  0.99308600  1
  Se  Se28  1  0.99059000  0.99750300  0.50729200  1
