# generated using pymatgen
data_KLiZnP2O7
_symmetry_space_group_name_H-M   'P 1'
_cell_length_a   5.14956000
_cell_length_b   10.40511818
_cell_length_c   12.51681253
_cell_angle_alpha   90.90201569
_cell_angle_beta   90.00000000
_cell_angle_gamma   90.00000000
_symmetry_Int_Tables_number   1
_chemical_formula_structural   KLiZnP2O7
_chemical_formula_sum   'K4 Li4 Zn4 P8 O28'
_cell_volume   670.58998998
_cell_formula_units_Z   4
loop_
 _symmetry_equiv_pos_site_id
 _symmetry_equiv_pos_as_xyz
  1  'x, y, z'
loop_
 _atom_site_type_symbol
 _atom_site_label
 _atom_site_symmetry_multiplicity
 _atom_site_fract_x
 _atom_site_fract_y
 _atom_site_fract_z
 _atom_site_occupancy
  K  K0  1  0.99706800  0.75664600  0.00549500  1
  K  K1  1  0.00293200  0.25664600  0.00549500  1
  K  K2  1  0.50157200  0.97654600  0.50598600  1
  K  K3  1  0.49842800  0.47654600  0.50598600  1
  Li  Li4  1  0.97433400  0.96883800  0.24934300  1
  Li  Li5  1  0.02566600  0.46883800  0.24934300  1
  Li  Li6  1  0.95038700  0.96316100  0.74978300  1
  Li  Li7  1  0.04961300  0.46316100  0.74978300  1
  Zn  Zn8  1  0.45680900  0.76872000  0.74979300  1
  Zn  Zn9  1  0.54319100  0.26872000  0.74979300  1
  Zn  Zn10  1  0.47124300  0.76107700  0.24911900  1
  Zn  Zn11  1  0.52875700  0.26107700  0.24911900  1
  P  P12  1  0.50642700  0.51045700  0.11481200  1
  P  P13  1  0.49357300  0.01045700  0.11481200  1
  P  P14  1  0.98885500  0.71627900  0.38413200  1
  P  P15  1  0.01114500  0.21627900  0.38413200  1
  P  P16  1  0.56147100  0.52424700  0.87957100  1
  P  P17  1  0.43852900  0.02424700  0.87957100  1
  P  P18  1  0.95545100  0.70673400  0.61861900  1
  P  P19  1  0.04454900  0.20673400  0.61861900  1
  O  O20  1  0.05693100  0.76666800  0.50602900  1
  O  O21  1  0.94306900  0.26666800  0.50602900  1
  O  O22  1  0.13452800  0.81415100  0.31393700  1
  O  O23  1  0.86547200  0.31415100  0.31393700  1
  O  O24  1  0.41848400  0.44371200  0.79259600  1
  O  O25  1  0.58151600  0.94371200  0.79259600  1
  O  O26  1  0.35340700  0.40758200  0.17761700  1
  O  O27  1  0.64659300  0.90758200  0.17761700  1
  O  O28  1  0.02524900  0.56591700  0.62216500  1
  O  O29  1  0.97475100  0.06591700  0.62216500  1
  O  O30  1  0.66053500  0.73375300  0.62073900  1
  O  O31  1  0.33946500  0.23375300  0.62073900  1
  O  O32  1  0.08687500  0.58026700  0.37084100  1
  O  O33  1  0.91312500  0.08026700  0.37084100  1
  O  O34  1  0.09256900  0.79112200  0.70460500  1
  O  O35  1  0.90743100  0.29112200  0.70460500  1
  O  O36  1  0.44685300  0.46691400  0.99101800  1
  O  O37  1  0.55314700  0.96691400  0.99101800  1
  O  O38  1  0.47016900  0.66567900  0.87849700  1
  O  O39  1  0.52983100  0.16567900  0.87849700  1
  O  O40  1  0.37873500  0.64352100  0.13070300  1
  O  O41  1  0.62126500  0.14352100  0.13070300  1
  O  O42  1  0.69238900  0.73242200  0.37377100  1
  O  O43  1  0.30761100  0.23242200  0.37377100  1
  O  O44  1  0.79528400  0.50941800  0.13342700  1
  O  O45  1  0.20471600  0.00941800  0.13342700  1
  O  O46  1  0.85243200  0.50716800  0.87740100  1
  O  O47  1  0.14756800  0.00716800  0.87740100  1
