# generated using pymatgen
data_InTe5Pb4
_symmetry_space_group_name_H-M   'P 1'
_cell_length_a   16.88059915
_cell_length_b   16.88059915
_cell_length_c   16.88059915
_cell_angle_alpha   164.34058756
_cell_angle_beta   164.34058756
_cell_angle_gamma   22.21579490
_symmetry_Int_Tables_number   1
_chemical_formula_structural   InTe5Pb4
_chemical_formula_sum   'In1 Te5 Pb4'
_cell_volume   350.38940124
_cell_formula_units_Z   1
loop_
 _symmetry_equiv_pos_site_id
 _symmetry_equiv_pos_as_xyz
  1  'x, y, z'
loop_
 _atom_site_type_symbol
 _atom_site_label
 _atom_site_symmetry_multiplicity
 _atom_site_fract_x
 _atom_site_fract_y
 _atom_site_fract_z
 _atom_site_occupancy
  In  In0  1  0.00000000  0.00000000  0.00000000  1
  Te  Te1  1  0.50000000  0.50000000  0.00000000  1
  Te  Te2  1  0.69991900  0.69991900  0.00000000  1
  Te  Te3  1  0.09950000  0.09950000  0.00000000  1
  Te  Te4  1  0.90050000  0.90050000  0.00000000  1
  Te  Te5  1  0.30008100  0.30008100  0.00000000  1
  Pb  Pb6  1  0.40012500  0.40012500  0.00000000  1
  Pb  Pb7  1  0.80015800  0.80015800  0.00000000  1
  Pb  Pb8  1  0.19984200  0.19984200  0.00000000  1
  Pb  Pb9  1  0.59987500  0.59987500  0.00000000  1
