# generated using pymatgen
data_KAl3(SiO4)3
_symmetry_space_group_name_H-M   'P 1'
_cell_length_a   5.31785372
_cell_length_b   5.31785372
_cell_length_c   20.64132764
_cell_angle_alpha   87.43271573
_cell_angle_beta   87.43271573
_cell_angle_gamma   120.25621565
_symmetry_Int_Tables_number   1
_chemical_formula_structural   KAl3(SiO4)3
_chemical_formula_sum   'K2 Al6 Si6 O24'
_cell_volume   502.16972986
_cell_formula_units_Z   2
loop_
 _symmetry_equiv_pos_site_id
 _symmetry_equiv_pos_as_xyz
  1  'x, y, z'
loop_
 _atom_site_type_symbol
 _atom_site_label
 _atom_site_symmetry_multiplicity
 _atom_site_fract_x
 _atom_site_fract_y
 _atom_site_fract_z
 _atom_site_occupancy
  K  K0  1  0.10867000  0.90752700  0.73867200  1
  K  K1  1  0.90752700  0.10867000  0.23867200  1
  Al  Al2  1  0.81343700  0.63156600  0.50290900  1
  Al  Al3  1  0.37344000  0.17876700  0.00270000  1
  Al  Al4  1  0.17876700  0.37344000  0.50270000  1
  Al  Al5  1  0.63156600  0.81343700  0.00290900  1
  Al  Al6  1  0.80290400  0.28530700  0.63480000  1
  Al  Al7  1  0.28530700  0.80290400  0.13480000  1
  Si  Si8  1  0.70817100  0.18934800  0.86732100  1
  Si  Si9  1  0.18934800  0.70817100  0.36732100  1
  Si  Si10  1  0.39754900  0.53211100  0.86796200  1
  Si  Si11  1  0.45974700  0.59657200  0.63695600  1
  Si  Si12  1  0.59657200  0.45974700  0.13695600  1
  Si  Si13  1  0.53211100  0.39754900  0.36796200  1
  O  O14  1  0.01329300  0.93865400  0.96496500  1
  O  O15  1  0.08245600  0.99442800  0.52897800  1
  O  O16  1  0.99442800  0.08245600  0.02897800  1
  O  O17  1  0.93865400  0.01329300  0.46496500  1
  O  O18  1  0.06073800  0.39719000  0.84663700  1
  O  O19  1  0.53797800  0.92071300  0.65514600  1
  O  O20  1  0.92071300  0.53797800  0.15514600  1
  O  O21  1  0.39719000  0.06073800  0.34663700  1
  O  O22  1  0.88828200  0.38852100  0.55099900  1
  O  O23  1  0.62284800  0.12557600  0.94454000  1
  O  O24  1  0.12557600  0.62284800  0.44454000  1
  O  O25  1  0.38852100  0.88828200  0.05099900  1
  O  O26  1  0.13019600  0.36216000  0.66816500  1
  O  O27  1  0.58738900  0.87270800  0.83470700  1
  O  O28  1  0.87270800  0.58738900  0.33470700  1
  O  O29  1  0.36216000  0.13019600  0.16816500  1
  O  O30  1  0.43034000  0.52369200  0.94557100  1
  O  O31  1  0.48134400  0.57358000  0.55605600  1
  O  O32  1  0.57358000  0.48134400  0.05605600  1
  O  O33  1  0.52369200  0.43034000  0.44557100  1
  O  O34  1  0.68443000  0.50975900  0.66835800  1
  O  O35  1  0.53955600  0.34905200  0.83455800  1
  O  O36  1  0.34905200  0.53955600  0.33455800  1
  O  O37  1  0.50975900  0.68443000  0.16835800  1
