# generated using pymatgen
data_KFe2F6
_symmetry_space_group_name_H-M   'P 1'
_cell_length_a   12.80949300
_cell_length_b   12.80949300
_cell_length_c   4.02665600
_cell_angle_alpha   90.00000000
_cell_angle_beta   90.00000000
_cell_angle_gamma   90.00000000
_symmetry_Int_Tables_number   1
_chemical_formula_structural   KFe2F6
_chemical_formula_sum   'K5 Fe10 F30'
_cell_volume   660.70624307
_cell_formula_units_Z   5
loop_
 _symmetry_equiv_pos_site_id
 _symmetry_equiv_pos_as_xyz
  1  'x, y, z'
loop_
 _atom_site_type_symbol
 _atom_site_label
 _atom_site_symmetry_multiplicity
 _atom_site_fract_x
 _atom_site_fract_y
 _atom_site_fract_z
 _atom_site_occupancy
  K  K0  1  0.32863500  0.17230600  0.00000000  1
  K  K1  1  0.67136500  0.82769400  0.00000000  1
  K  K2  1  0.82769400  0.32863500  0.00000000  1
  K  K3  1  0.17230600  0.67136500  0.00000000  1
  K  K4  1  0.50000000  0.50000000  0.00000000  1
  Fe  Fe5  1  0.00000000  0.50000000  0.50000000  1
  Fe  Fe6  1  0.50000000  0.00000000  0.50000000  1
  Fe  Fe7  1  0.28582600  0.42381800  0.50000000  1
  Fe  Fe8  1  0.71417400  0.57618200  0.50000000  1
  Fe  Fe9  1  0.79350100  0.07314800  0.50000000  1
  Fe  Fe10  1  0.20649900  0.92685200  0.50000000  1
  Fe  Fe11  1  0.57618200  0.28582600  0.50000000  1
  Fe  Fe12  1  0.42381800  0.71417400  0.50000000  1
  Fe  Fe13  1  0.92685200  0.79350100  0.50000000  1
  Fe  Fe14  1  0.07314800  0.20649900  0.50000000  1
  F  F15  1  0.15600900  0.51045400  0.50000000  1
  F  F16  1  0.84399100  0.48954600  0.50000000  1
  F  F17  1  0.65801900  0.99589100  0.50000000  1
  F  F18  1  0.34198100  0.00410900  0.50000000  1
  F  F19  1  0.48954600  0.15600900  0.50000000  1
  F  F20  1  0.51045400  0.84399100  0.50000000  1
  F  F21  1  0.00410900  0.65801900  0.50000000  1
  F  F22  1  0.99589100  0.34198100  0.50000000  1
  F  F23  1  0.21503400  0.27453300  0.50000000  1
  F  F24  1  0.78496600  0.72546700  0.50000000  1
  F  F25  1  0.72546700  0.21503400  0.50000000  1
  F  F26  1  0.27453300  0.78496600  0.50000000  1
  F  F27  1  0.29115900  0.42154900  0.00000000  1
  F  F28  1  0.70884100  0.57845100  0.00000000  1
  F  F29  1  0.79010500  0.07664200  0.00000000  1
  F  F30  1  0.20989500  0.92335800  0.00000000  1
  F  F31  1  0.57845100  0.29115900  0.00000000  1
  F  F32  1  0.42154900  0.70884100  0.00000000  1
  F  F33  1  0.92335800  0.79010500  0.00000000  1
  F  F34  1  0.07664200  0.20989500  0.00000000  1
  F  F35  1  0.35851000  0.57113100  0.50000000  1
  F  F36  1  0.64149000  0.42886900  0.50000000  1
  F  F37  1  0.85529300  0.93039400  0.50000000  1
  F  F38  1  0.14470700  0.06960600  0.50000000  1
  F  F39  1  0.42886900  0.35851000  0.50000000  1
  F  F40  1  0.57113100  0.64149000  0.50000000  1
  F  F41  1  0.06960600  0.85529300  0.50000000  1
  F  F42  1  0.93039400  0.14470700  0.50000000  1
  F  F43  1  0.00000000  0.50000000  0.00000000  1
  F  F44  1  0.50000000  0.00000000  0.00000000  1
