# generated using pymatgen
data_K2Al2B2O7
_symmetry_space_group_name_H-M   'P 1'
_cell_length_a   8.66720973
_cell_length_b   8.66720973
_cell_length_c   8.58029192
_cell_angle_alpha   89.92082798
_cell_angle_beta   89.92082798
_cell_angle_gamma   59.99224677
_symmetry_Int_Tables_number   1
_chemical_formula_structural   K2Al2B2O7
_chemical_formula_sum   'K6 Al6 B6 O21'
_cell_volume   558.15756979
_cell_formula_units_Z   3
loop_
 _symmetry_equiv_pos_site_id
 _symmetry_equiv_pos_as_xyz
  1  'x, y, z'
loop_
 _atom_site_type_symbol
 _atom_site_label
 _atom_site_symmetry_multiplicity
 _atom_site_fract_x
 _atom_site_fract_y
 _atom_site_fract_z
 _atom_site_occupancy
  K  K0  1  0.00127600  0.64066100  0.50000300  1
  K  K1  1  0.35933900  0.99872400  0.49999700  1
  K  K2  1  0.63930800  0.36069200  0.50000000  1
  K  K3  1  0.69215200  0.30784800  0.00000000  1
  K  K4  1  0.00006000  0.69015800  0.99824200  1
  K  K5  1  0.30984200  0.99994000  0.00175800  1
  Al  Al6  1  0.00580100  0.99429900  0.29855100  1
  Al  Al7  1  0.00570100  0.99419900  0.70144900  1
  Al  Al8  1  0.33349900  0.33290400  0.18637100  1
  Al  Al9  1  0.66709600  0.66650100  0.81362900  1
  Al  Al10  1  0.33324400  0.33336800  0.78271600  1
  Al  Al11  1  0.66663200  0.66675600  0.21728400  1
  B  B12  1  0.33467500  0.66411100  0.74720400  1
  B  B13  1  0.00128700  0.33206100  0.74193100  1
  B  B14  1  0.66593800  0.00140000  0.74296200  1
  B  B15  1  0.99860000  0.33406200  0.25703800  1
  B  B16  1  0.66793900  0.99871300  0.25806900  1
  B  B17  1  0.33588900  0.66532500  0.25279600  1
  O  O18  1  0.33403300  0.33321500  0.98444700  1
  O  O19  1  0.66678500  0.66596700  0.01555300  1
  O  O20  1  0.27238400  0.54869600  0.71172700  1
  O  O21  1  0.17973500  0.27176100  0.71132900  1
  O  O22  1  0.54849100  0.17958400  0.71111700  1
  O  O23  1  0.82041600  0.45150900  0.28888300  1
  O  O24  1  0.72823900  0.82026500  0.28867100  1
  O  O25  1  0.45130400  0.72761600  0.28827300  1
  O  O26  1  0.21477900  0.83949400  0.78516500  1
  O  O27  1  0.94398000  0.21152800  0.76854800  1
  O  O28  1  0.84327700  0.94389900  0.77254300  1
  O  O29  1  0.05610100  0.15672300  0.22745700  1
  O  O30  1  0.78847200  0.05602000  0.23145200  1
  O  O31  1  0.16050600  0.78522100  0.21483500  1
  O  O32  1  0.51550700  0.60215700  0.74374800  1
  O  O33  1  0.88296900  0.51315700  0.74539300  1
  O  O34  1  0.60340900  0.88273300  0.74502800  1
  O  O35  1  0.11726700  0.39659100  0.25497200  1
  O  O36  1  0.48684300  0.11703100  0.25460700  1
  O  O37  1  0.39784300  0.48449300  0.25625200  1
  O  O38  1  0.01918000  0.98082000  0.50000000  1
