# generated using pymatgen
data_In2AgTe3Br
_symmetry_space_group_name_H-M   'P 1'
_cell_length_a   4.30070700
_cell_length_b   4.30070700
_cell_length_c   11.70547000
_cell_angle_alpha   90.00000000
_cell_angle_beta   90.00000000
_cell_angle_gamma   90.00000000
_symmetry_Int_Tables_number   1
_chemical_formula_structural   In2AgTe3Br
_chemical_formula_sum   'In2 Ag1 Te3 Br1'
_cell_volume   216.50531775
_cell_formula_units_Z   1
loop_
 _symmetry_equiv_pos_site_id
 _symmetry_equiv_pos_as_xyz
  1  'x, y, z'
loop_
 _atom_site_type_symbol
 _atom_site_label
 _atom_site_symmetry_multiplicity
 _atom_site_fract_x
 _atom_site_fract_y
 _atom_site_fract_z
 _atom_site_occupancy
  In  In0  1  0.50000000  0.50000000  0.73581300  1
  In  In1  1  0.50000000  0.50000000  0.26418700  1
  Ag  Ag2  1  0.00000000  0.00000000  0.00000000  1
  Te  Te3  1  0.00000000  0.00000000  0.76041200  1
  Te  Te4  1  0.00000000  0.00000000  0.23958800  1
  Te  Te5  1  0.50000000  0.50000000  0.00000000  1
  Br  Br6  1  0.50000000  0.50000000  0.50000000  1
