# generated using pymatgen
data_K5BrCl4
_symmetry_space_group_name_H-M   'P 1'
_cell_length_a   18.85235437
_cell_length_b   18.85235437
_cell_length_c   18.85235486
_cell_angle_alpha   13.91127897
_cell_angle_beta   13.91127897
_cell_angle_gamma   13.91127916
_symmetry_Int_Tables_number   1
_chemical_formula_structural   K5BrCl4
_chemical_formula_sum   'K5 Br1 Cl4'
_cell_volume   337.04943649
_cell_formula_units_Z   1
loop_
 _symmetry_equiv_pos_site_id
 _symmetry_equiv_pos_as_xyz
  1  'x, y, z'
loop_
 _atom_site_type_symbol
 _atom_site_label
 _atom_site_symmetry_multiplicity
 _atom_site_fract_x
 _atom_site_fract_y
 _atom_site_fract_z
 _atom_site_occupancy
  K  K0  1  0.10008500  0.10008500  0.10008500  1
  K  K1  1  0.89991500  0.89991500  0.89991500  1
  K  K2  1  0.50000000  0.50000000  0.50000000  1
  K  K3  1  0.70177000  0.70177000  0.70177000  1
  K  K4  1  0.29823000  0.29823000  0.29823000  1
  Br  Br5  1  0.00000000  0.00000000  0.00000000  1
  Cl  Cl6  1  0.59948600  0.59948600  0.59948600  1
  Cl  Cl7  1  0.19999900  0.19999900  0.19999900  1
  Cl  Cl8  1  0.80000100  0.80000100  0.80000100  1
  Cl  Cl9  1  0.40051400  0.40051400  0.40051400  1
