# generated using pymatgen
data_K2Al2O2F9
_symmetry_space_group_name_H-M   'P 1'
_cell_length_a   11.01362100
_cell_length_b   3.78041300
_cell_length_c   11.19621067
_cell_angle_alpha   89.92091016
_cell_angle_beta   90.00000000
_cell_angle_gamma   90.00000000
_symmetry_Int_Tables_number   1
_chemical_formula_structural   K2Al2O2F9
_chemical_formula_sum   'K4 Al4 O4 F18'
_cell_volume   466.16538632
_cell_formula_units_Z   2
loop_
 _symmetry_equiv_pos_site_id
 _symmetry_equiv_pos_as_xyz
  1  'x, y, z'
loop_
 _atom_site_type_symbol
 _atom_site_label
 _atom_site_symmetry_multiplicity
 _atom_site_fract_x
 _atom_site_fract_y
 _atom_site_fract_z
 _atom_site_occupancy
  K  K0  1  0.81718300  0.99952700  0.85478000  1
  K  K1  1  0.18281700  0.00047300  0.14522000  1
  K  K2  1  0.68281700  0.99952700  0.35478000  1
  K  K3  1  0.31718300  0.00047300  0.64522000  1
  Al  Al4  1  0.60669400  0.49928000  0.63141100  1
  Al  Al5  1  0.39330600  0.50072000  0.36858900  1
  Al  Al6  1  0.89330600  0.49928000  0.13141100  1
  Al  Al7  1  0.10669400  0.50072000  0.86858900  1
  O  O8  1  0.93538800  0.38861300  0.56879800  1
  O  O9  1  0.43538800  0.61138700  0.93120200  1
  O  O10  1  0.06461200  0.61138700  0.43120200  1
  O  O11  1  0.56461200  0.38861300  0.06879800  1
  F  F12  1  0.60026200  0.99954000  0.62099800  1
  F  F13  1  0.39973800  0.00046000  0.37900200  1
  F  F14  1  0.89973800  0.99954000  0.12099800  1
  F  F15  1  0.10026200  0.00046000  0.87900200  1
  F  F16  1  0.70343500  0.49950700  0.75426100  1
  F  F17  1  0.29656500  0.50049300  0.24573900  1
  F  F18  1  0.79656500  0.49950700  0.25426100  1
  F  F19  1  0.20343500  0.50049300  0.74573900  1
  F  F20  1  0.47226900  0.49855400  0.72562400  1
  F  F21  1  0.52773100  0.50144600  0.27437600  1
  F  F22  1  0.02773100  0.49855400  0.22562400  1
  F  F23  1  0.97226900  0.50144600  0.77437600  1
  F  F24  1  0.73233500  0.50126400  0.52418400  1
  F  F25  1  0.26766500  0.49873600  0.47581600  1
  F  F26  1  0.76766500  0.50126400  0.02418400  1
  F  F27  1  0.23233500  0.49873600  0.97581600  1
  F  F28  1  0.50000000  0.50000000  0.50000000  1
  F  F29  1  0.00000000  0.50000000  0.00000000  1
