# generated using pymatgen
data_Na4U3Te5O21
_symmetry_space_group_name_H-M   'P 1'
_cell_length_a   14.79673784
_cell_length_b   14.82516833
_cell_length_c   14.79504420
_cell_angle_alpha   70.50924436
_cell_angle_beta   70.55470993
_cell_angle_gamma   109.58445236
_symmetry_Int_Tables_number   1
_chemical_formula_structural   Na4U3Te5O21
_chemical_formula_sum   'Na16 U12 Te20 O84'
_cell_volume   2495.08615960
_cell_formula_units_Z   4
loop_
 _symmetry_equiv_pos_site_id
 _symmetry_equiv_pos_as_xyz
  1  'x, y, z'
loop_
 _atom_site_type_symbol
 _atom_site_label
 _atom_site_symmetry_multiplicity
 _atom_site_fract_x
 _atom_site_fract_y
 _atom_site_fract_z
 _atom_site_occupancy
  Na  Na0  1  0.75037563  0.97167967  0.77897231  1
  Na  Na1  1  0.22196535  0.25053937  0.52769317  1
  Na  Na2  1  0.47273905  0.72212644  0.24932763  1
  Na  Na3  1  0.27774177  0.75000284  0.97206118  1
  Na  Na4  1  0.02698014  0.77710816  0.75080716  1
  Na  Na5  1  0.24972105  0.52797118  0.72192121  1
  Na  Na6  1  0.75033059  0.77347397  0.97652849  1
  Na  Na7  1  0.02386355  0.25028747  0.72604517  1
  Na  Na8  1  0.27366805  0.52357722  0.24954892  1
  Na  Na9  1  0.47652962  0.75017345  0.77386527  1
  Na  Na10  1  0.22600341  0.97682233  0.74985720  1
  Na  Na11  1  0.25000517  0.72626978  0.52357526  1
  Na  Na12  1  0.84312224  0.84409469  0.42001451  1
  Na  Na13  1  0.58342739  0.34498226  0.65080372  1
  Na  Na14  1  0.35043178  0.08407392  0.15434106  1
  Na  Na15  1  0.91519739  0.26815287  0.23704592  1
  U  U16  1  0.74731408  0.74050168  0.73042289  1
  U  U17  1  0.27090023  0.24705855  0.75802027  1
  U  U18  1  0.24298000  0.77152255  0.25274256  1
  U  U19  1  0.75342928  0.02364455  0.00493165  1
  U  U20  1  0.22866614  0.47184401  0.02395794  1
  U  U21  1  0.25644647  0.00536935  0.46961145  1
  U  U22  1  0.53077122  0.75701735  0.49436248  1
  U  U23  1  0.99367519  0.25199389  0.47589432  1
  U  U24  1  0.97486777  0.72793607  0.02777863  1
  U  U25  1  0.97139492  0.47539342  0.77218176  1
  U  U26  1  0.50506460  0.03046439  0.74352528  1
  U  U27  1  0.52370022  0.49614773  0.24732595  1
  Te  Te28  1  0.78936874  0.54805905  0.95977217  1
  Te  Te29  1  0.04289927  0.29017703  0.94913637  1
  Te  Te30  1  0.04944079  0.54421404  0.21115119  1
  Te  Te31  1  0.71005243  0.75048215  0.24041868  1
  Te  Te32  1  0.45744226  0.50822502  0.75284849  1
  Te  Te33  1  0.45032209  0.23899516  0.50510847  1
  Te  Te34  1  0.49500765  0.95075344  0.26101434  1
  Te  Te35  1  0.76008795  0.20906550  0.74936602  1
  Te  Te36  1  0.24693786  0.95733595  0.99223062  1
  Te  Te37  1  0.00779241  0.74695127  0.54198712  1
  Te  Te38  1  0.73815858  0.99321411  0.55121956  1
  Te  Te39  1  0.25034805  0.25990034  0.29011118  1
  Te  Te40  1  0.50006234  0.52223428  0.00055523  1
  Te  Te41  1  0.99937645  0.99906950  0.97779153  1
  Te  Te42  1  0.02188675  0.49930306  0.50070083  1
  Te  Te43  1  0.47801313  0.97786798  0.52176523  1
  Te  Te44  1  0.00040019  0.00032672  0.52467809  1
  Te  Te45  1  0.47487403  0.50081625  0.49996326  1
  Te  Te46  1  0.50103965  0.97518159  0.99908606  1
  Te  Te47  1  0.02548958  0.52610307  0.97315663  1
  O  O48  1  0.86898288  0.90703848  0.53158424  1
  O  O49  1  0.46855094  0.37018329  0.59330609  1
  O  O50  1  0.40760224  0.96897141  0.12989701  1
  O  O51  1  0.63552009  0.09592821  0.95792667  1
  O  O52  1  0.03278093  0.43990135  0.09766712  1
  O  O53  1  0.09520206  0.96256048  0.44134709  1
  O  O54  1  0.55764738  0.59571040  0.53858810  1
  O  O55  1  0.03894827  0.13404889  0.40452237  1
  O  O56  1  0.90435960  0.53834925  0.05430439  1
  O  O57  1  0.94473602  0.40433048  0.96120473  1
  O  O58  1  0.46265933  0.05772455  0.90406395  1
  O  O59  1  0.59542456  0.54142333  0.36579372  1
  O  O60  1  0.72514830  0.59142362  0.86891178  1
  O  O61  1  0.13203178  0.22505061  0.90902998  1
  O  O62  1  0.09172448  0.63341755  0.27501379  1
  O  O63  1  0.77612736  0.90518026  0.13535574  1
  O  O64  1  0.36868892  0.45919385  0.90687078  1
  O  O65  1  0.40694530  0.13263371  0.45873656  1
  O  O66  1  0.54256087  0.90856097  0.36670787  1
  O  O67  1  0.86534807  0.27404074  0.59374005  1
  O  O68  1  0.09371504  0.86942951  0.04052716  1
  O  O69  1  0.95984091  0.59392447  0.62929570  1
  O  O70  1  0.63394088  0.04253267  0.59057721  1
  O  O71  1  0.40448002  0.36536543  0.22438651  1
  O  O72  1  0.79554324  0.82990718  0.78713038  1
  O  O73  1  0.21309555  0.29492094  0.66966933  1
  O  O74  1  0.33054076  0.71339908  0.20448726  1
  O  O75  1  0.70383176  0.91725791  0.96577870  1
  O  O76  1  0.28746853  0.61790068  0.91733992  1
  O  O77  1  0.16935539  0.96524249  0.61586686  1
  O  O78  1  0.38447394  0.67023863  0.53421556  1
  O  O79  1  0.03430648  0.20497467  0.58154718  1
  O  O80  1  0.08270468  0.78654493  0.88201606  1
  O  O81  1  0.11739793  0.58267301  0.71396829  1
  O  O82  1  0.46550577  0.88444766  0.82995308  1
  O  O83  1  0.41665920  0.53453630  0.29674551  1
  O  O84  1  0.71294366  0.66719975  0.65679848  1
  O  O85  1  0.34339596  0.21260817  0.83256680  1
  O  O86  1  0.16802838  0.84321884  0.28799985  1
  O  O87  1  0.79404413  0.12756337  0.04604759  1
  O  O88  1  0.15659298  0.32533822  0.13152195  1
  O  O89  1  0.33559590  0.04959988  0.32022575  1
  O  O90  1  0.68065477  0.83706886  0.44982302  1
  O  O91  1  0.94869580  0.28491493  0.37087988  1
  O  O92  1  0.87067177  0.66520201  0.17266298  1
  O  O93  1  0.82695555  0.37063840  0.83434974  1
  O  O94  1  0.54959868  0.17979664  0.66411384  1
  O  O95  1  0.62840839  0.45648302  0.20645423  1
  O  O96  1  0.56550451  0.65317335  0.86234610  1
  O  O97  1  0.13789564  0.06614934  0.84627432  1
  O  O98  1  0.15429297  0.63657046  0.43383091  1
  O  O99  1  0.93533250  0.07100061  0.91044946  1
  O  O100  1  0.36282433  0.51708216  0.07091514  1
  O  O101  1  0.34676670  0.91264317  0.51519627  1
  O  O102  1  0.48514193  0.84719535  0.58695612  1
  O  O103  1  0.08604647  0.43367549  0.42721344  1
  O  O104  1  0.92967563  0.86426056  0.97999495  1
  O  O105  1  0.01967521  0.42912048  0.63531253  1
  O  O106  1  0.41316458  0.98472927  0.65282033  1
  O  O107  1  0.57033729  0.59024974  0.06498173  1
  O  O108  1  0.85084500  0.68416427  0.95517409  1
  O  O109  1  0.04656928  0.35156174  0.81392335  1
  O  O110  1  0.18277664  0.54351430  0.14955967  1
  O  O111  1  0.64818335  0.69418450  0.16604980  1
  O  O112  1  0.45620727  0.64107459  0.69303917  1
  O  O113  1  0.31761553  0.16768737  0.63969657  1
  O  O114  1  0.36060284  0.81770128  0.33251543  1
  O  O115  1  0.83488382  0.14826915  0.80551207  1
  O  O116  1  0.30741949  0.95651124  0.85883684  1
  O  O117  1  0.14106132  0.80766847  0.54290716  1
  O  O118  1  0.66668712  0.85990719  0.68406562  1
  O  O119  1  0.19166715  0.33349415  0.35138778  1
  O  O120  1  0.92346215  0.58103813  0.84203385  1
  O  O121  1  0.15887663  0.42433640  0.91827007  1
  O  O122  1  0.08194503  0.65777880  0.07574560  1
  O  O123  1  0.57568046  0.73374426  0.34302666  1
  O  O124  1  0.34230858  0.42444213  0.73313913  1
  O  O125  1  0.41765857  0.34196897  0.42469320  1
  O  O126  1  0.57538142  0.91812806  0.15781054  1
  O  O127  1  0.65760093  0.07515131  0.76587417  1
  O  O128  1  0.26719939  0.84264696  0.07570742  1
  O  O129  1  0.92457806  0.76721514  0.65696222  1
  O  O130  1  0.84217075  0.07492784  0.58296645  1
  O  O131  1  0.23241356  0.15732998  0.42486659  1
