# generated using pymatgen
data_Ta2FeO6
_symmetry_space_group_name_H-M   'P 1'
_cell_length_a   4.82640900
_cell_length_b   9.31667700
_cell_length_c   14.44751100
_cell_angle_alpha   90.00000000
_cell_angle_beta   90.00000000
_cell_angle_gamma   90.00000000
_symmetry_Int_Tables_number   1
_chemical_formula_structural   Ta2FeO6
_chemical_formula_sum   'Ta12 Fe6 O36'
_cell_volume   649.64813369
_cell_formula_units_Z   6
loop_
 _symmetry_equiv_pos_site_id
 _symmetry_equiv_pos_as_xyz
  1  'x, y, z'
loop_
 _atom_site_type_symbol
 _atom_site_label
 _atom_site_symmetry_multiplicity
 _atom_site_fract_x
 _atom_site_fract_y
 _atom_site_fract_z
 _atom_site_occupancy
  Ta  Ta0  1  0.00155800  0.58460500  0.83749400  1
  Ta  Ta1  1  0.00353400  0.23923200  0.82944200  1
  Ta  Ta2  1  0.99844200  0.58460500  0.16250600  1
  Ta  Ta3  1  0.99646600  0.23923200  0.17055800  1
  Ta  Ta4  1  0.00000000  0.24750300  0.50000000  1
  Ta  Ta5  1  0.50000000  0.09246400  0.00000000  1
  Ta  Ta6  1  0.50000000  0.75249700  0.00000000  1
  Ta  Ta7  1  0.49646600  0.76076800  0.32944200  1
  Ta  Ta8  1  0.50353400  0.76076800  0.67055800  1
  Ta  Ta9  1  0.49844200  0.41539500  0.33749400  1
  Ta  Ta10  1  0.50155800  0.41539500  0.66250600  1
  Ta  Ta11  1  0.00000000  0.90753600  0.50000000  1
  Fe  Fe12  1  0.00716100  0.91673400  0.83230400  1
  Fe  Fe13  1  0.99283900  0.91673400  0.16769600  1
  Fe  Fe14  1  0.00000000  0.58228200  0.50000000  1
  Fe  Fe15  1  0.49283900  0.08326600  0.33230400  1
  Fe  Fe16  1  0.50716100  0.08326600  0.66769600  1
  Fe  Fe17  1  0.50000000  0.41771800  0.00000000  1
  O  O18  1  0.21002000  0.09848800  0.09954300  1
  O  O19  1  0.18809700  0.08277800  0.43844800  1
  O  O20  1  0.19706700  0.09928000  0.76322500  1
  O  O21  1  0.17705100  0.42091800  0.10323900  1
  O  O22  1  0.20157900  0.40200500  0.43027000  1
  O  O23  1  0.20598700  0.41767500  0.76980900  1
  O  O24  1  0.20799700  0.73444900  0.09847400  1
  O  O25  1  0.20560200  0.76182500  0.43146700  1
  O  O26  1  0.20486800  0.73262800  0.76332600  1
  O  O27  1  0.31190300  0.91722200  0.93844800  1
  O  O28  1  0.29439800  0.23817500  0.93146700  1
  O  O29  1  0.30293300  0.90072000  0.26322500  1
  O  O30  1  0.28998000  0.90151200  0.59954300  1
  O  O31  1  0.29513200  0.26737200  0.26332600  1
  O  O32  1  0.29200300  0.26555100  0.59847400  1
  O  O33  1  0.29842100  0.59799500  0.93027000  1
  O  O34  1  0.29401300  0.58232500  0.26980900  1
  O  O35  1  0.32294900  0.57908200  0.60323900  1
  O  O36  1  0.67705100  0.57908200  0.39676100  1
  O  O37  1  0.70157900  0.59799500  0.06973000  1
  O  O38  1  0.70598700  0.58232500  0.73019100  1
  O  O39  1  0.68809700  0.91722200  0.06155200  1
  O  O40  1  0.70560200  0.23817500  0.06853300  1
  O  O41  1  0.71002000  0.90151200  0.40045700  1
  O  O42  1  0.70799700  0.26555100  0.40152600  1
  O  O43  1  0.69706700  0.90072000  0.73677500  1
  O  O44  1  0.70486800  0.26737200  0.73667400  1
  O  O45  1  0.79200300  0.73444900  0.90152600  1
  O  O46  1  0.79513200  0.73262800  0.23667400  1
  O  O47  1  0.79439800  0.76182500  0.56853300  1
  O  O48  1  0.82294900  0.42091800  0.89676100  1
  O  O49  1  0.79401300  0.41767500  0.23019100  1
  O  O50  1  0.79842100  0.40200500  0.56973000  1
  O  O51  1  0.78998000  0.09848800  0.90045700  1
  O  O52  1  0.80293300  0.09928000  0.23677500  1
  O  O53  1  0.81190300  0.08277800  0.56155200  1
