# generated using pymatgen
data_SrYbAl2Si2N5O2
_symmetry_space_group_name_H-M   'P 1'
_cell_length_a   6.04803653
_cell_length_b   6.15059240
_cell_length_c   10.03972333
_cell_angle_alpha   89.31704202
_cell_angle_beta   90.25952481
_cell_angle_gamma   119.31279112
_symmetry_Int_Tables_number   1
_chemical_formula_structural   SrYbAl2Si2N5O2
_chemical_formula_sum   'Sr2 Yb2 Al4 Si4 N10 O4'
_cell_volume   325.62543355
_cell_formula_units_Z   2
loop_
 _symmetry_equiv_pos_site_id
 _symmetry_equiv_pos_as_xyz
  1  'x, y, z'
loop_
 _atom_site_type_symbol
 _atom_site_label
 _atom_site_symmetry_multiplicity
 _atom_site_fract_x
 _atom_site_fract_y
 _atom_site_fract_z
 _atom_site_occupancy
  Sr  Sr0  1  0.34271500  0.66535100  0.23043100  1
  Sr  Sr1  1  0.67842600  0.35819700  0.75572200  1
  Yb  Yb2  1  0.32865600  0.65938800  0.87319100  1
  Yb  Yb3  1  0.65950600  0.33013500  0.37443200  1
  Al  Al4  1  0.16702100  0.83559000  0.55819700  1
  Al  Al5  1  0.16940000  0.33867600  0.55870900  1
  Al  Al6  1  0.67426600  0.83335800  0.55955600  1
  Al  Al7  1  0.83349500  0.66342700  0.06346800  1
  Si  Si8  1  0.00746400  0.01123600  0.80065700  1
  Si  Si9  1  0.99972200  0.00000300  0.29706600  1
  Si  Si10  1  0.33959500  0.16277100  0.06134700  1
  Si  Si11  1  0.83005900  0.17483700  0.06032100  1
  N  N12  1  0.12469000  0.82561100  0.74132000  1
  N  N13  1  0.00790700  0.01074300  0.47553000  1
  N  N14  1  0.14878400  0.30402400  0.73972900  1
  N  N15  1  0.29951600  0.14595700  0.23070700  1
  N  N16  1  0.70520400  0.81509600  0.74354600  1
  N  N17  1  0.81138400  0.70162500  0.24335000  1
  N  N18  1  0.51792200  0.03270500  0.00495500  1
  N  N19  1  0.99461300  0.48599600  0.02698900  1
  N  N20  1  0.82839500  0.13332000  0.23223900  1
  N  N21  1  0.00947200  0.01544300  0.98643800  1
  O  O22  1  0.03108100  0.52228200  0.49857200  1
  O  O23  1  0.49775900  0.98837700  0.51954900  1
  O  O24  1  0.49333600  0.51712200  0.50614500  1
  O  O25  1  0.49961300  0.46872700  0.01195500  1
