# generated using pymatgen
data_InAgSe2
_symmetry_space_group_name_H-M   'P 1'
_cell_length_a   7.55943909
_cell_length_b   7.55943909
_cell_length_c   7.55943902
_cell_angle_alpha   33.55121235
_cell_angle_beta   33.55121235
_cell_angle_gamma   33.55121267
_symmetry_Int_Tables_number   1
_chemical_formula_structural   InAgSe2
_chemical_formula_sum   'In1 Ag1 Se2'
_cell_volume   117.53253636
_cell_formula_units_Z   1
loop_
 _symmetry_equiv_pos_site_id
 _symmetry_equiv_pos_as_xyz
  1  'x, y, z'
loop_
 _atom_site_type_symbol
 _atom_site_label
 _atom_site_symmetry_multiplicity
 _atom_site_fract_x
 _atom_site_fract_y
 _atom_site_fract_z
 _atom_site_occupancy
  In  In0  1  0.50769300  0.50769300  0.50769300  1
  Ag  Ag1  1  0.99357300  0.99357300  0.99357300  1
  Se  Se2  1  0.12201300  0.12201300  0.12201300  1
  Se  Se3  1  0.62672000  0.62672000  0.62672000  1
