# generated using pymatgen
data_K2Na(SbO3)3
_symmetry_space_group_name_H-M   'P 1'
_cell_length_a   9.62874600
_cell_length_b   9.62947000
_cell_length_c   9.63062900
_cell_angle_alpha   90.00000000
_cell_angle_beta   90.00000000
_cell_angle_gamma   90.00000000
_symmetry_Int_Tables_number   1
_chemical_formula_structural   K2Na(SbO3)3
_chemical_formula_sum   'K8 Na4 Sb12 O36'
_cell_volume   892.94923148
_cell_formula_units_Z   4
loop_
 _symmetry_equiv_pos_site_id
 _symmetry_equiv_pos_as_xyz
  1  'x, y, z'
loop_
 _atom_site_type_symbol
 _atom_site_label
 _atom_site_symmetry_multiplicity
 _atom_site_fract_x
 _atom_site_fract_y
 _atom_site_fract_z
 _atom_site_occupancy
  K  K0  1  0.85205300  0.90165300  0.14779600  1
  K  K1  1  0.14794700  0.90165300  0.85220400  1
  K  K2  1  0.84882700  0.60245500  0.84858100  1
  K  K3  1  0.15117300  0.60245500  0.15141900  1
  K  K4  1  0.65117300  0.10245500  0.34858100  1
  K  K5  1  0.34882700  0.10245500  0.65141900  1
  K  K6  1  0.64794700  0.40165300  0.64779600  1
  K  K7  1  0.35205300  0.40165300  0.35220400  1
  Na  Na8  1  0.24199000  0.50814200  0.75835400  1
  Na  Na9  1  0.75801000  0.50814200  0.24164600  1
  Na  Na10  1  0.25801000  0.00814200  0.25835400  1
  Na  Na11  1  0.74199000  0.00814200  0.74164600  1
  Sb  Sb12  1  0.50000000  0.09104400  0.00000000  1
  Sb  Sb13  1  0.50000000  0.40943800  0.00000000  1
  Sb  Sb14  1  0.65913600  0.75040000  0.49919300  1
  Sb  Sb15  1  0.34086400  0.75040000  0.50080700  1
  Sb  Sb16  1  0.00022800  0.25039200  0.65951000  1
  Sb  Sb17  1  0.99977200  0.25039200  0.34049000  1
  Sb  Sb18  1  0.00000000  0.90943800  0.50000000  1
  Sb  Sb19  1  0.00000000  0.59104400  0.50000000  1
  Sb  Sb20  1  0.84086400  0.25040000  0.99919300  1
  Sb  Sb21  1  0.15913600  0.25040000  0.00080700  1
  Sb  Sb22  1  0.50022800  0.75039200  0.84049000  1
  Sb  Sb23  1  0.49977200  0.75039200  0.15951000  1
  O  O24  1  0.66287900  0.74790500  0.28761100  1
  O  O25  1  0.33712100  0.74790500  0.71238900  1
  O  O26  1  0.66189800  0.75361500  0.71101000  1
  O  O27  1  0.33810200  0.75361500  0.28899000  1
  O  O28  1  0.00262500  0.46194900  0.66249700  1
  O  O29  1  0.00305700  0.03875000  0.33763700  1
  O  O30  1  0.99694300  0.03875000  0.66236300  1
  O  O31  1  0.99737500  0.46194900  0.33750300  1
  O  O32  1  0.28849500  0.08817000  0.00319300  1
  O  O33  1  0.71167500  0.41311300  0.00244000  1
  O  O34  1  0.71150500  0.08817000  0.99680700  1
  O  O35  1  0.28832500  0.41311300  0.99756000  1
  O  O36  1  0.83810200  0.25361500  0.21101000  1
  O  O37  1  0.16189800  0.25361500  0.78899000  1
  O  O38  1  0.83712100  0.24790500  0.78761100  1
  O  O39  1  0.16287900  0.24790500  0.21238900  1
  O  O40  1  0.49694300  0.53875000  0.83763700  1
  O  O41  1  0.49737500  0.96194900  0.16249700  1
  O  O42  1  0.50262500  0.96194900  0.83750300  1
  O  O43  1  0.50305700  0.53875000  0.16236300  1
  O  O44  1  0.21167500  0.91311300  0.49756000  1
  O  O45  1  0.78849500  0.58817000  0.49680700  1
  O  O46  1  0.78832500  0.91311300  0.50244000  1
  O  O47  1  0.21150500  0.58817000  0.50319300  1
  O  O48  1  0.00000000  0.11222000  0.00000000  1
  O  O49  1  0.00000000  0.38953000  0.00000000  1
  O  O50  1  0.63872200  0.75013700  0.00013300  1
  O  O51  1  0.36127800  0.75013700  0.99986700  1
  O  O52  1  0.00074600  0.75020300  0.63866600  1
  O  O53  1  0.99925400  0.75020300  0.36133400  1
  O  O54  1  0.50000000  0.88953000  0.50000000  1
  O  O55  1  0.50000000  0.61222000  0.50000000  1
  O  O56  1  0.86127800  0.25013700  0.50013300  1
  O  O57  1  0.13872200  0.25013700  0.49986700  1
  O  O58  1  0.50074600  0.25020300  0.86133400  1
  O  O59  1  0.49925400  0.25020300  0.13866600  1
