# generated using pymatgen
data_Ho4HfAl15
_symmetry_space_group_name_H-M   'P 1'
_cell_length_a   4.21681700
_cell_length_b   4.21681700
_cell_length_c   21.09802500
_cell_angle_alpha   90.00000000
_cell_angle_beta   90.00000000
_cell_angle_gamma   90.00000000
_symmetry_Int_Tables_number   1
_chemical_formula_structural   Ho4HfAl15
_chemical_formula_sum   'Ho4 Hf1 Al15'
_cell_volume   375.15549385
_cell_formula_units_Z   1
loop_
 _symmetry_equiv_pos_site_id
 _symmetry_equiv_pos_as_xyz
  1  'x, y, z'
loop_
 _atom_site_type_symbol
 _atom_site_label
 _atom_site_symmetry_multiplicity
 _atom_site_fract_x
 _atom_site_fract_y
 _atom_site_fract_z
 _atom_site_occupancy
  Ho  Ho0  1  0.00000000  0.00000000  0.19662900  1
  Ho  Ho1  1  0.00000000  0.00000000  0.39938400  1
  Ho  Ho2  1  0.00000000  0.00000000  0.60061600  1
  Ho  Ho3  1  0.00000000  0.00000000  0.80337100  1
  Hf  Hf4  1  0.00000000  0.00000000  0.00000000  1
  Al  Al5  1  0.50000000  0.50000000  0.00000000  1
  Al  Al6  1  0.50000000  0.50000000  0.19794100  1
  Al  Al7  1  0.50000000  0.50000000  0.39923600  1
  Al  Al8  1  0.50000000  0.50000000  0.60076400  1
  Al  Al9  1  0.50000000  0.50000000  0.80205900  1
  Al  Al10  1  0.50000000  0.00000000  0.09520100  1
  Al  Al11  1  0.50000000  0.00000000  0.29849800  1
  Al  Al12  1  0.50000000  0.00000000  0.50000000  1
  Al  Al13  1  0.50000000  0.00000000  0.70150200  1
  Al  Al14  1  0.50000000  0.00000000  0.90479900  1
  Al  Al15  1  0.00000000  0.50000000  0.09520100  1
  Al  Al16  1  0.00000000  0.50000000  0.29849800  1
  Al  Al17  1  0.00000000  0.50000000  0.50000000  1
  Al  Al18  1  0.00000000  0.50000000  0.70150200  1
  Al  Al19  1  0.00000000  0.50000000  0.90479900  1
