# generated using pymatgen
data_K3I2Br
_symmetry_space_group_name_H-M   'P 1'
_cell_length_a   4.95169418
_cell_length_b   4.95169418
_cell_length_c   12.24767400
_cell_angle_alpha   90.00000000
_cell_angle_beta   90.00000000
_cell_angle_gamma   120.00000236
_symmetry_Int_Tables_number   1
_chemical_formula_structural   K3I2Br
_chemical_formula_sum   'K3 I2 Br1'
_cell_volume   260.07096428
_cell_formula_units_Z   1
loop_
 _symmetry_equiv_pos_site_id
 _symmetry_equiv_pos_as_xyz
  1  'x, y, z'
loop_
 _atom_site_type_symbol
 _atom_site_label
 _atom_site_symmetry_multiplicity
 _atom_site_fract_x
 _atom_site_fract_y
 _atom_site_fract_z
 _atom_site_occupancy
  K  K0  1  0.00000000  0.00000000  0.50000000  1
  K  K1  1  0.33333300  0.66666700  0.15108100  1
  K  K2  1  0.66666700  0.33333300  0.84891900  1
  I  I3  1  0.33333300  0.66666700  0.67352800  1
  I  I4  1  0.66666700  0.33333300  0.32647200  1
  Br  Br5  1  0.00000000  0.00000000  0.00000000  1
