# generated using pymatgen
data_HoFeCu
_symmetry_space_group_name_H-M   'P 1'
_cell_length_a   5.19995592
_cell_length_b   5.19995592
_cell_length_c   5.19995592
_cell_angle_alpha   121.89192210
_cell_angle_beta   121.25806516
_cell_angle_gamma   87.29393255
_symmetry_Int_Tables_number   1
_chemical_formula_structural   HoFeCu
_chemical_formula_sum   'Ho2 Fe2 Cu2'
_cell_volume   96.93402947
_cell_formula_units_Z   2
loop_
 _symmetry_equiv_pos_site_id
 _symmetry_equiv_pos_as_xyz
  1  'x, y, z'
loop_
 _atom_site_type_symbol
 _atom_site_label
 _atom_site_symmetry_multiplicity
 _atom_site_fract_x
 _atom_site_fract_y
 _atom_site_fract_z
 _atom_site_occupancy
  Ho  Ho0  1  0.37241200  0.12241200  0.25000000  1
  Ho  Ho1  1  0.62758800  0.87758800  0.75000000  1
  Fe  Fe2  1  0.00000000  0.50000000  0.00000000  1
  Fe  Fe3  1  0.00000000  0.00000000  0.50000000  1
  Cu  Cu4  1  0.50000000  0.50000000  0.00000000  1
  Cu  Cu5  1  0.00000000  0.50000000  0.50000000  1
