# generated using pymatgen
data_Hf2FeC2S
_symmetry_space_group_name_H-M   'P 1'
_cell_length_a   3.39799476
_cell_length_b   3.39799476
_cell_length_c   11.21059700
_cell_angle_alpha   90.00000000
_cell_angle_beta   90.00000000
_cell_angle_gamma   120.00001474
_symmetry_Int_Tables_number   1
_chemical_formula_structural   Hf2FeC2S
_chemical_formula_sum   'Hf2 Fe1 C2 S1'
_cell_volume   112.09976879
_cell_formula_units_Z   1
loop_
 _symmetry_equiv_pos_site_id
 _symmetry_equiv_pos_as_xyz
  1  'x, y, z'
loop_
 _atom_site_type_symbol
 _atom_site_label
 _atom_site_symmetry_multiplicity
 _atom_site_fract_x
 _atom_site_fract_y
 _atom_site_fract_z
 _atom_site_occupancy
  Hf  Hf0  1  0.33333300  0.66666700  0.40932800  1
  Hf  Hf1  1  0.33333300  0.66666700  0.07449600  1
  Fe  Fe2  1  0.66666700  0.33333300  0.57224400  1
  C  C3  1  0.00000000  0.00000000  0.52882800  1
  C  C4  1  0.00000000  0.00000000  0.00941200  1
  S  S5  1  0.66666700  0.33333300  0.25469300  1
