# generated using pymatgen
data_K4NaCl5
_symmetry_space_group_name_H-M   'P 1'
_cell_length_a   18.27267550
_cell_length_b   18.27267550
_cell_length_c   18.27267550
_cell_angle_alpha   13.84470190
_cell_angle_beta   13.84470190
_cell_angle_gamma   13.84470313
_symmetry_Int_Tables_number   1
_chemical_formula_structural   K4NaCl5
_chemical_formula_sum   'K4 Na1 Cl5'
_cell_volume   304.01701838
_cell_formula_units_Z   1
loop_
 _symmetry_equiv_pos_site_id
 _symmetry_equiv_pos_as_xyz
  1  'x, y, z'
loop_
 _atom_site_type_symbol
 _atom_site_label
 _atom_site_symmetry_multiplicity
 _atom_site_fract_x
 _atom_site_fract_y
 _atom_site_fract_z
 _atom_site_occupancy
  K  K0  1  0.60352200  0.60352200  0.60352200  1
  K  K1  1  0.20132600  0.20132600  0.20132600  1
  K  K2  1  0.79867400  0.79867400  0.79867400  1
  K  K3  1  0.39647800  0.39647800  0.39647800  1
  Na  Na4  1  0.00000000  0.00000000  0.00000000  1
  Cl  Cl5  1  0.69515600  0.69515600  0.69515600  1
  Cl  Cl6  1  0.50000000  0.50000000  0.50000000  1
  Cl  Cl7  1  0.09759100  0.09759100  0.09759100  1
  Cl  Cl8  1  0.30484400  0.30484400  0.30484400  1
  Cl  Cl9  1  0.90240900  0.90240900  0.90240900  1
