# generated using pymatgen
data_Ho2SbO2
_symmetry_space_group_name_H-M   'P 1'
_cell_length_a   7.18373420
_cell_length_b   7.18373420
_cell_length_c   7.18373420
_cell_angle_alpha   149.04885437
_cell_angle_beta   148.93665225
_cell_angle_gamma   44.42204028
_symmetry_Int_Tables_number   1
_chemical_formula_structural   Ho2SbO2
_chemical_formula_sum   'Ho2 Sb1 O2'
_cell_volume   98.08919707
_cell_formula_units_Z   1
loop_
 _symmetry_equiv_pos_site_id
 _symmetry_equiv_pos_as_xyz
  1  'x, y, z'
loop_
 _atom_site_type_symbol
 _atom_site_label
 _atom_site_symmetry_multiplicity
 _atom_site_fract_x
 _atom_site_fract_y
 _atom_site_fract_z
 _atom_site_occupancy
  Ho  Ho0  1  0.33363500  0.32385300  0.99021800  1
  Ho  Ho1  1  0.66636500  0.65658200  0.99021800  1
  Sb  Sb2  1  0.00000000  0.96567500  0.96567500  1
  O  O3  1  0.75019000  0.23963500  0.48944500  1
  O  O4  1  0.24981000  0.73925500  0.48944500  1
