# generated using pymatgen
data_In2CuAsSe2
_symmetry_space_group_name_H-M   'P 1'
_cell_length_a   4.25285272
_cell_length_b   9.40436597
_cell_length_c   4.25285272
_cell_angle_alpha   103.06819109
_cell_angle_beta   90.00000000
_cell_angle_gamma   103.06819109
_symmetry_Int_Tables_number   1
_chemical_formula_structural   In2CuAsSe2
_chemical_formula_sum   'In2 Cu1 As1 Se2'
_cell_volume   161.16377821
_cell_formula_units_Z   1
loop_
 _symmetry_equiv_pos_site_id
 _symmetry_equiv_pos_as_xyz
  1  'x, y, z'
loop_
 _atom_site_type_symbol
 _atom_site_label
 _atom_site_symmetry_multiplicity
 _atom_site_fract_x
 _atom_site_fract_y
 _atom_site_fract_z
 _atom_site_occupancy
  In  In0  1  0.66099400  0.32198700  0.66099400  1
  In  In1  1  0.33900600  0.67801300  0.33900600  1
  Cu  Cu2  1  0.00000000  0.00000000  0.00000000  1
  As  As3  1  0.75000000  0.50000000  0.25000000  1
  Se  Se4  1  0.43002400  0.86004700  0.93002400  1
  Se  Se5  1  0.06997600  0.13995300  0.56997600  1
