# generated using pymatgen
data_K4Sr2SnAs4
_symmetry_space_group_name_H-M   'P 1'
_cell_length_a   10.54640118
_cell_length_b   10.54640118
_cell_length_c   7.76775537
_cell_angle_alpha   88.69132619
_cell_angle_beta   88.69132619
_cell_angle_gamma   119.46153805
_symmetry_Int_Tables_number   1
_chemical_formula_structural   K4Sr2SnAs4
_chemical_formula_sum   'K8 Sr4 Sn2 As8'
_cell_volume   751.48352169
_cell_formula_units_Z   2
loop_
 _symmetry_equiv_pos_site_id
 _symmetry_equiv_pos_as_xyz
  1  'x, y, z'
loop_
 _atom_site_type_symbol
 _atom_site_label
 _atom_site_symmetry_multiplicity
 _atom_site_fract_x
 _atom_site_fract_y
 _atom_site_fract_z
 _atom_site_occupancy
  K  K0  1  0.47697400  0.95009100  0.38118600  1
  K  K1  1  0.95009100  0.47697400  0.88118600  1
  K  K2  1  0.85992000  0.71577800  0.18082300  1
  K  K3  1  0.28461200  0.13657700  0.21105500  1
  K  K4  1  0.85135500  0.13993600  0.19379400  1
  K  K5  1  0.13657700  0.28461200  0.71105500  1
  K  K6  1  0.71577800  0.85992000  0.68082300  1
  K  K7  1  0.13993600  0.85135500  0.69379400  1
  Sr  Sr8  1  0.06047200  0.52974400  0.38245100  1
  Sr  Sr9  1  0.47677000  0.52934800  0.38041800  1
  Sr  Sr10  1  0.52974400  0.06047200  0.88245100  1
  Sr  Sr11  1  0.52934800  0.47677000  0.88041800  1
  Sn  Sn12  1  0.66417400  0.33170200  0.49718100  1
  Sn  Sn13  1  0.33170200  0.66417400  0.99718100  1
  As  As14  1  0.65536000  0.33314500  0.15131000  1
  As  As15  1  0.33314500  0.65536000  0.65131000  1
  As  As16  1  0.20405900  0.39181300  0.13489200  1
  As  As17  1  0.60836400  0.79571700  0.09220300  1
  As  As18  1  0.19824200  0.80596300  0.10871800  1
  As  As19  1  0.79571700  0.60836400  0.59220300  1
  As  As20  1  0.39181300  0.20405900  0.63489200  1
  As  As21  1  0.80596300  0.19824200  0.60871800  1
