# generated using pymatgen
data_InGa4Sb5
_symmetry_space_group_name_H-M   'P 1'
_cell_length_a   18.36346527
_cell_length_b   18.36346527
_cell_length_c   18.36346538
_cell_angle_alpha   14.00511007
_cell_angle_beta   14.00511007
_cell_angle_gamma   14.00510853
_symmetry_Int_Tables_number   1
_chemical_formula_structural   InGa4Sb5
_chemical_formula_sum   'In1 Ga4 Sb5'
_cell_volume   315.65478961
_cell_formula_units_Z   1
loop_
 _symmetry_equiv_pos_site_id
 _symmetry_equiv_pos_as_xyz
  1  'x, y, z'
loop_
 _atom_site_type_symbol
 _atom_site_label
 _atom_site_symmetry_multiplicity
 _atom_site_fract_x
 _atom_site_fract_y
 _atom_site_fract_z
 _atom_site_occupancy
  In  In0  1  0.60046300  0.60046300  0.60046300  1
  Ga  Ga1  1  0.00118900  0.00118900  0.00118900  1
  Ga  Ga2  1  0.40016800  0.40016800  0.40016800  1
  Ga  Ga3  1  0.79974400  0.79974400  0.79974400  1
  Ga  Ga4  1  0.19850700  0.19850700  0.19850700  1
  Sb  Sb5  1  0.05060900  0.05060900  0.05060900  1
  Sb  Sb6  1  0.45001100  0.45001100  0.45001100  1
  Sb  Sb7  1  0.84932600  0.84932600  0.84932600  1
  Sb  Sb8  1  0.24750000  0.24750000  0.24750000  1
  Sb  Sb9  1  0.65248200  0.65248200  0.65248200  1
