# generated using pymatgen
data_Hg2IBr3
_symmetry_space_group_name_H-M   'P 1'
_cell_length_a   4.43688746
_cell_length_b   4.43688746
_cell_length_c   13.46992252
_cell_angle_alpha   88.82991637
_cell_angle_beta   88.82991637
_cell_angle_gamma   71.04801637
_symmetry_Int_Tables_number   1
_chemical_formula_structural   Hg2IBr3
_chemical_formula_sum   'Hg2 I1 Br3'
_cell_volume   250.71504472
_cell_formula_units_Z   1
loop_
 _symmetry_equiv_pos_site_id
 _symmetry_equiv_pos_as_xyz
  1  'x, y, z'
loop_
 _atom_site_type_symbol
 _atom_site_label
 _atom_site_symmetry_multiplicity
 _atom_site_fract_x
 _atom_site_fract_y
 _atom_site_fract_z
 _atom_site_occupancy
  Hg  Hg0  1  0.83980900  0.83980900  0.43667100  1
  Hg  Hg1  1  0.16453100  0.16453100  0.93315500  1
  I  I2  1  0.57486700  0.57486700  0.30497200  1
  Br  Br3  1  0.42029100  0.42029100  0.80931800  1
  Br  Br4  1  0.09034800  0.09034800  0.56036000  1
  Br  Br5  1  0.91015300  0.91015300  0.05856400  1
