# generated using pymatgen
data_K2RbCO3F
_symmetry_space_group_name_H-M   'P 1'
_cell_length_a   7.14967642
_cell_length_b   7.14967642
_cell_length_c   7.20879551
_cell_angle_alpha   64.53668685
_cell_angle_beta   64.53668685
_cell_angle_gamma   64.68700922
_symmetry_Int_Tables_number   1
_chemical_formula_structural   K2RbCO3F
_chemical_formula_sum   'K4 Rb2 C2 O6 F2'
_cell_volume   286.75907471
_cell_formula_units_Z   2
loop_
 _symmetry_equiv_pos_site_id
 _symmetry_equiv_pos_as_xyz
  1  'x, y, z'
loop_
 _atom_site_type_symbol
 _atom_site_label
 _atom_site_symmetry_multiplicity
 _atom_site_fract_x
 _atom_site_fract_y
 _atom_site_fract_z
 _atom_site_occupancy
  K  K0  1  0.68346300  0.31653700  0.00000000  1
  K  K1  1  0.18358500  0.25024600  0.06625100  1
  K  K2  1  0.31654800  0.68345200  0.50000000  1
  K  K3  1  0.74975400  0.81641500  0.93374900  1
  Rb  Rb4  1  0.25013200  0.18582200  0.56416000  1
  Rb  Rb5  1  0.81417800  0.74986800  0.43584000  1
  C  C6  1  0.25065400  0.74934600  0.00000000  1
  C  C7  1  0.75003100  0.24996900  0.50000000  1
  O  O8  1  0.25206400  0.57754400  0.17067000  1
  O  O9  1  0.42245600  0.74793600  0.82933000  1
  O  O10  1  0.07903200  0.92096800  0.00000000  1
  O  O11  1  0.58024800  0.25133100  0.67265600  1
  O  O12  1  0.92155700  0.07844300  0.50000000  1
  O  O13  1  0.74866900  0.41975200  0.32734400  1
  F  F14  1  0.49855900  0.00093000  0.24000000  1
  F  F15  1  0.99907000  0.50144100  0.76000000  1
