# generated using pymatgen
data_HoGaAg
_symmetry_space_group_name_H-M   'P 1'
_cell_length_a   5.72893125
_cell_length_b   5.72893125
_cell_length_c   7.15762845
_cell_angle_alpha   52.08612804
_cell_angle_beta   52.08612804
_cell_angle_gamma   47.05710813
_symmetry_Int_Tables_number   1
_chemical_formula_structural   HoGaAg
_chemical_formula_sum   'Ho2 Ga2 Ag2'
_cell_volume   127.63184940
_cell_formula_units_Z   2
loop_
 _symmetry_equiv_pos_site_id
 _symmetry_equiv_pos_as_xyz
  1  'x, y, z'
loop_
 _atom_site_type_symbol
 _atom_site_label
 _atom_site_symmetry_multiplicity
 _atom_site_fract_x
 _atom_site_fract_y
 _atom_site_fract_z
 _atom_site_occupancy
  Ho  Ho0  1  0.53636700  0.53636700  0.70923600  1
  Ho  Ho1  1  0.46363300  0.46363300  0.29076400  1
  Ga  Ga2  1  0.84046900  0.84046900  0.11536100  1
  Ga  Ga3  1  0.15953100  0.15953100  0.88463900  1
  Ag  Ag4  1  0.17342500  0.17342500  0.27768100  1
  Ag  Ag5  1  0.82657500  0.82657500  0.72231900  1
