# generated using pymatgen
data_Ho2AlFe3
_symmetry_space_group_name_H-M   'P 1'
_cell_length_a   5.18230317
_cell_length_b   5.18230317
_cell_length_c   5.18230298
_cell_angle_alpha   59.93465785
_cell_angle_beta   59.93465785
_cell_angle_gamma   59.93465726
_symmetry_Int_Tables_number   1
_chemical_formula_structural   Ho2AlFe3
_chemical_formula_sum   'Ho2 Al1 Fe3'
_cell_volume   98.26736184
_cell_formula_units_Z   1
loop_
 _symmetry_equiv_pos_site_id
 _symmetry_equiv_pos_as_xyz
  1  'x, y, z'
loop_
 _atom_site_type_symbol
 _atom_site_label
 _atom_site_symmetry_multiplicity
 _atom_site_fract_x
 _atom_site_fract_y
 _atom_site_fract_z
 _atom_site_occupancy
  Ho  Ho0  1  0.37774400  0.37774400  0.37774400  1
  Ho  Ho1  1  0.62225600  0.62225600  0.62225600  1
  Al  Al2  1  0.00000000  0.00000000  0.00000000  1
  Fe  Fe3  1  0.50000000  0.00000000  0.00000000  1
  Fe  Fe4  1  0.00000000  0.00000000  0.50000000  1
  Fe  Fe5  1  0.00000000  0.50000000  0.00000000  1
