# generated using pymatgen
data_In2AgSe3I
_symmetry_space_group_name_H-M   'P 1'
_cell_length_a   4.23273695
_cell_length_b   7.41322535
_cell_length_c   7.72285230
_cell_angle_alpha   81.54285090
_cell_angle_beta   90.00000000
_cell_angle_gamma   106.58787248
_symmetry_Int_Tables_number   1
_chemical_formula_structural   In2AgSe3I
_chemical_formula_sum   'In2 Ag1 Se3 I1'
_cell_volume   229.49361225
_cell_formula_units_Z   1
loop_
 _symmetry_equiv_pos_site_id
 _symmetry_equiv_pos_as_xyz
  1  'x, y, z'
loop_
 _atom_site_type_symbol
 _atom_site_label
 _atom_site_symmetry_multiplicity
 _atom_site_fract_x
 _atom_site_fract_y
 _atom_site_fract_z
 _atom_site_occupancy
  In  In0  1  0.43739500  0.87478900  0.17967200  1
  In  In1  1  0.18984400  0.37968900  0.93758700  1
  Ag  Ag2  1  0.69385900  0.38771800  0.44968500  1
  Se  Se3  1  0.99749400  0.99498800  0.98327500  1
  Se  Se4  1  0.75429500  0.50859000  0.75721500  1
  Se  Se5  1  0.25096200  0.50192300  0.24521600  1
  I  I6  1  0.48865100  0.97730300  0.50985000  1
