# generated using pymatgen
data_K(VS2)2
_symmetry_space_group_name_H-M   'P 1'
_cell_length_a   3.41783034
_cell_length_b   7.94773119
_cell_length_c   5.86758666
_cell_angle_alpha   77.89073490
_cell_angle_beta   90.00000544
_cell_angle_gamma   90.00000565
_symmetry_Int_Tables_number   1
_chemical_formula_structural   K(VS2)2
_chemical_formula_sum   'K1 V2 S4'
_cell_volume   155.84063506
_cell_formula_units_Z   1
loop_
 _symmetry_equiv_pos_site_id
 _symmetry_equiv_pos_as_xyz
  1  'x, y, z'
loop_
 _atom_site_type_symbol
 _atom_site_label
 _atom_site_symmetry_multiplicity
 _atom_site_fract_x
 _atom_site_fract_y
 _atom_site_fract_z
 _atom_site_occupancy
  K  K0  1  0.50000000  0.49144800  0.65577500  1
  V  V1  1  0.00000000  0.99774600  0.02928700  1
  V  V2  1  0.50000000  0.00173700  0.47445900  1
  S  S3  1  0.00000000  0.80950300  0.39226500  1
  S  S4  1  0.50000000  0.83530300  0.88204600  1
  S  S5  1  0.00000000  0.16388800  0.62265300  1
  S  S6  1  0.50000000  0.19037400  0.11351500  1
