# generated using pymatgen
data_Ho4CdSe7
_symmetry_space_group_name_H-M   'P 1'
_cell_length_a   6.93529738
_cell_length_b   6.93529738
_cell_length_c   12.13255834
_cell_angle_alpha   75.69838182
_cell_angle_beta   75.69838182
_cell_angle_gamma   33.40964904
_symmetry_Int_Tables_number   1
_chemical_formula_structural   Ho4CdSe7
_chemical_formula_sum   'Ho4 Cd1 Se7'
_cell_volume   310.44780195
_cell_formula_units_Z   1
loop_
 _symmetry_equiv_pos_site_id
 _symmetry_equiv_pos_as_xyz
  1  'x, y, z'
loop_
 _atom_site_type_symbol
 _atom_site_label
 _atom_site_symmetry_multiplicity
 _atom_site_fract_x
 _atom_site_fract_y
 _atom_site_fract_z
 _atom_site_occupancy
  Ho  Ho0  1  0.69422500  0.69422500  0.19870000  1
  Ho  Ho1  1  0.30649900  0.30649900  0.80401200  1
  Ho  Ho2  1  0.00003200  0.00003200  0.00239700  1
  Ho  Ho3  1  0.11521000  0.11521000  0.57141100  1
  Cd  Cd4  1  0.88406000  0.88406000  0.42183300  1
  Se  Se5  1  0.74216800  0.74216800  0.64722900  1
  Se  Se6  1  0.25789300  0.25789300  0.35089400  1
  Se  Se7  1  0.33968300  0.33968300  0.04893200  1
  Se  Se8  1  0.66045400  0.66045400  0.94895600  1
  Se  Se9  1  0.03804400  0.03804400  0.21805600  1
  Se  Se10  1  0.96179700  0.96179700  0.78517600  1
  Se  Se11  1  0.49993600  0.49993600  0.50240300  1
