# generated using pymatgen
data_HgBrCl
_symmetry_space_group_name_H-M   'P 1'
_cell_length_a   4.66211700
_cell_length_b   6.91981200
_cell_length_c   13.46800600
_cell_angle_alpha   90.00000000
_cell_angle_beta   90.00000000
_cell_angle_gamma   90.00000000
_symmetry_Int_Tables_number   1
_chemical_formula_structural   HgBrCl
_chemical_formula_sum   'Hg4 Br4 Cl4'
_cell_volume   434.49098011
_cell_formula_units_Z   4
loop_
 _symmetry_equiv_pos_site_id
 _symmetry_equiv_pos_as_xyz
  1  'x, y, z'
loop_
 _atom_site_type_symbol
 _atom_site_label
 _atom_site_symmetry_multiplicity
 _atom_site_fract_x
 _atom_site_fract_y
 _atom_site_fract_z
 _atom_site_occupancy
  Hg  Hg0  1  0.96366700  0.75000000  0.12456300  1
  Hg  Hg1  1  0.53633300  0.75000000  0.62456300  1
  Hg  Hg2  1  0.03633300  0.25000000  0.87543700  1
  Hg  Hg3  1  0.46366700  0.25000000  0.37543700  1
  Br  Br4  1  0.63780000  0.75000000  0.26669200  1
  Br  Br5  1  0.86220000  0.75000000  0.76669200  1
  Br  Br6  1  0.36220000  0.25000000  0.73330800  1
  Br  Br7  1  0.13780000  0.25000000  0.23330800  1
  Cl  Cl8  1  0.27867200  0.75000000  0.99061400  1
  Cl  Cl9  1  0.22132800  0.75000000  0.49061400  1
  Cl  Cl10  1  0.72132800  0.25000000  0.00938600  1
  Cl  Cl11  1  0.77867200  0.25000000  0.50938600  1
