# generated using pymatgen
data_K7Se4NO16
_symmetry_space_group_name_H-M   'P 1'
_cell_length_a   6.02167300
_cell_length_b   7.91800159
_cell_length_c   10.71531050
_cell_angle_alpha   90.29803696
_cell_angle_beta   90.00000000
_cell_angle_gamma   90.00000000
_symmetry_Int_Tables_number   1
_chemical_formula_structural   K7Se4NO16
_chemical_formula_sum   'K7 Se4 N1 O16'
_cell_volume   510.89498219
_cell_formula_units_Z   1
loop_
 _symmetry_equiv_pos_site_id
 _symmetry_equiv_pos_as_xyz
  1  'x, y, z'
loop_
 _atom_site_type_symbol
 _atom_site_label
 _atom_site_symmetry_multiplicity
 _atom_site_fract_x
 _atom_site_fract_y
 _atom_site_fract_z
 _atom_site_occupancy
  K  K0  1  0.25000000  0.48921500  0.79012200  1
  K  K1  1  0.25000000  0.98560900  0.70048200  1
  K  K2  1  0.75000000  0.51659100  0.21574600  1
  K  K3  1  0.75000000  0.99855200  0.29557100  1
  K  K4  1  0.25000000  0.17499300  0.08540300  1
  K  K5  1  0.75000000  0.33324300  0.58005300  1
  K  K6  1  0.75000000  0.82533600  0.91615700  1
  Se  Se7  1  0.25000000  0.72744300  0.07424900  1
  Se  Se8  1  0.25000000  0.23000100  0.42395500  1
  Se  Se9  1  0.75000000  0.27441200  0.92357400  1
  Se  Se10  1  0.75000000  0.77539100  0.58218400  1
  N  N11  1  0.25000000  0.66510400  0.40555600  1
  O  O12  1  0.25000000  0.79140900  0.92403100  1
  O  O13  1  0.25000000  0.29513100  0.57293400  1
  O  O14  1  0.75000000  0.20824500  0.07258500  1
  O  O15  1  0.75000000  0.69281100  0.43744800  1
  O  O16  1  0.01942300  0.80701300  0.13959100  1
  O  O17  1  0.48086100  0.29422700  0.35103300  1
  O  O18  1  0.52199800  0.19864400  0.85229000  1
  O  O19  1  0.97227000  0.70509400  0.66084100  1
  O  O20  1  0.97800200  0.19864400  0.85229000  1
  O  O21  1  0.52773000  0.70509400  0.66084100  1
  O  O22  1  0.48057700  0.80701300  0.13959100  1
  O  O23  1  0.01913900  0.29422700  0.35103300  1
  O  O24  1  0.25000000  0.51693500  0.08031800  1
  O  O25  1  0.25000000  0.01805100  0.41801400  1
  O  O26  1  0.75000000  0.48511700  0.91659400  1
  O  O27  1  0.75000000  0.98645400  0.57751400  1
