# generated using pymatgen
data_InFeCoO4
_symmetry_space_group_name_H-M   'P 1'
_cell_length_a   6.23557482
_cell_length_b   6.23557482
_cell_length_c   6.23557482
_cell_angle_alpha   120.88060387
_cell_angle_beta   119.20022150
_cell_angle_gamma   89.93618517
_symmetry_Int_Tables_number   1
_chemical_formula_structural   InFeCoO4
_chemical_formula_sum   'In2 Fe2 Co2 O8'
_cell_volume   171.28996096
_cell_formula_units_Z   2
loop_
 _symmetry_equiv_pos_site_id
 _symmetry_equiv_pos_as_xyz
  1  'x, y, z'
loop_
 _atom_site_type_symbol
 _atom_site_label
 _atom_site_symmetry_multiplicity
 _atom_site_fract_x
 _atom_site_fract_y
 _atom_site_fract_z
 _atom_site_occupancy
  In  In0  1  0.00000000  0.50000000  0.50000000  1
  In  In1  1  0.50000000  0.50000000  0.00000000  1
  Fe  Fe2  1  0.50000000  0.50000000  0.50000000  1
  Fe  Fe3  1  0.50000000  0.00000000  0.00000000  1
  Co  Co4  1  0.87420800  0.12420800  0.75000000  1
  Co  Co5  1  0.12579200  0.87579200  0.25000000  1
  O  O6  1  0.27755400  0.25145000  0.02610500  1
  O  O7  1  0.72534500  0.25145000  0.47389500  1
  O  O8  1  0.73392600  0.24157600  0.00765100  1
  O  O9  1  0.73392600  0.72627500  0.49234900  1
  O  O10  1  0.72244600  0.74855000  0.97389500  1
  O  O11  1  0.27465500  0.74855000  0.52610500  1
  O  O12  1  0.26607400  0.75842400  0.99234900  1
  O  O13  1  0.26607400  0.27372500  0.50765100  1
