# generated using pymatgen
data_Sr5Fe3F19
_symmetry_space_group_name_H-M   'P 1'
_cell_length_a   7.41489350
_cell_length_b   10.85784622
_cell_length_c   10.95662074
_cell_angle_alpha   84.64336515
_cell_angle_beta   71.98386192
_cell_angle_gamma   72.30726435
_symmetry_Int_Tables_number   1
_chemical_formula_structural   Sr5Fe3F19
_chemical_formula_sum   'Sr10 Fe6 F38'
_cell_volume   799.18598613
_cell_formula_units_Z   2
loop_
 _symmetry_equiv_pos_site_id
 _symmetry_equiv_pos_as_xyz
  1  'x, y, z'
loop_
 _atom_site_type_symbol
 _atom_site_label
 _atom_site_symmetry_multiplicity
 _atom_site_fract_x
 _atom_site_fract_y
 _atom_site_fract_z
 _atom_site_occupancy
  Sr  Sr0  1  0.08048300  0.67835200  0.17763400  1
  Sr  Sr1  1  0.28163200  0.27543300  0.16050300  1
  Sr  Sr2  1  0.26631100  0.49372200  0.47564600  1
  Sr  Sr3  1  0.26087700  0.81771000  0.67460300  1
  Sr  Sr4  1  0.45006800  0.83516300  0.27415800  1
  Sr  Sr5  1  0.54699100  0.17534800  0.71991100  1
  Sr  Sr6  1  0.73228900  0.18743600  0.32060800  1
  Sr  Sr7  1  0.72736000  0.51218300  0.51830700  1
  Sr  Sr8  1  0.73280100  0.72009500  0.82887900  1
  Sr  Sr9  1  0.92327300  0.32355800  0.80854300  1
  Fe  Fe10  1  0.28638400  0.99629600  0.99198600  1
  Fe  Fe11  1  0.15164700  0.16343700  0.51136800  1
  Fe  Fe12  1  0.78663100  0.00508900  0.00015400  1
  Fe  Fe13  1  0.31668900  0.51863500  0.83679000  1
  Fe  Fe14  1  0.68876500  0.48226400  0.15512500  1
  Fe  Fe15  1  0.84183700  0.83978500  0.48349500  1
  F  F16  1  0.02978400  0.19095700  0.37328000  1
  F  F17  1  0.28120700  0.03907700  0.16162300  1
  F  F18  1  0.03989100  0.35253800  0.54360000  1
  F  F19  1  0.15259200  0.46412800  0.29257500  1
  F  F20  1  0.24928900  0.48542400  0.01765600  1
  F  F21  1  0.08113600  0.84775900  0.34471200  1
  F  F22  1  0.25634400  0.16489900  0.65535200  1
  F  F23  1  0.29056800  0.17168900  0.94071500  1
  F  F24  1  0.07031300  0.65671900  0.85052000  1
  F  F25  1  0.37481000  0.21204800  0.38590500  1
  F  F26  1  0.29567100  0.82495800  0.05913100  1
  F  F27  1  0.22212500  0.38569800  0.79188100  1
  F  F28  1  0.43017900  0.61708600  0.19414900  1
  F  F29  1  0.61954900  0.07979200  0.16637100  1
  F  F30  1  0.57619000  0.34442900  0.14777600  1
  F  F31  1  0.26766700  0.97865700  0.48690200  1
  F  F32  1  0.37515100  0.56356900  0.65141300  1
  F  F33  1  0.41556000  0.69134600  0.45312900  1
  F  F34  1  0.57287100  0.31244200  0.53639900  1
  F  F35  1  0.62083100  0.44232200  0.34135100  1
  F  F36  1  0.72678200  0.02476600  0.51354900  1
  F  F37  1  0.43288700  0.65593200  0.84355800  1
  F  F38  1  0.58241700  0.38978700  0.78520600  1
  F  F39  1  0.78243500  0.61517100  0.19976100  1
  F  F40  1  0.35673200  0.94437600  0.81659900  1
  F  F41  1  0.70599400  0.17068900  0.91809200  1
  F  F42  1  0.62475300  0.78261700  0.61110800  1
  F  F43  1  0.93144400  0.33857100  0.14808000  1
  F  F44  1  0.82481900  0.83747000  0.08123700  1
  F  F45  1  0.72163300  0.85027600  0.34897400  1
  F  F46  1  0.90952600  0.15882200  0.64764500  1
  F  F47  1  0.76336700  0.51127900  0.97190500  1
  F  F48  1  0.86568800  0.53658900  0.69569500  1
  F  F49  1  0.95506000  0.65165200  0.44406800  1
  F  F50  1  0.99599300  0.05552200  0.04317900  1
  F  F51  1  0.58680000  0.94821300  0.94503400  1
  F  F52  1  0.95577000  0.81101400  0.62612200  1
  F  F53  1  0.96463400  0.93531100  0.83973800  1
