# generated using pymatgen
data_Sr4Nd3Ta2Al5O21
_symmetry_space_group_name_H-M   'P 1'
_cell_length_a   15.96771912
_cell_length_b   15.96771912
_cell_length_c   15.96771851
_cell_angle_alpha   19.70611561
_cell_angle_beta   19.70611561
_cell_angle_gamma   19.70611430
_symmetry_Int_Tables_number   1
_chemical_formula_structural   Sr4Nd3Ta2Al5O21
_chemical_formula_sum   'Sr4 Nd3 Ta2 Al5 O21'
_cell_volume   404.83914704
_cell_formula_units_Z   1
loop_
 _symmetry_equiv_pos_site_id
 _symmetry_equiv_pos_as_xyz
  1  'x, y, z'
loop_
 _atom_site_type_symbol
 _atom_site_label
 _atom_site_symmetry_multiplicity
 _atom_site_fract_x
 _atom_site_fract_y
 _atom_site_fract_z
 _atom_site_occupancy
  Sr  Sr0  1  0.14250100  0.14250100  0.14250100  1
  Sr  Sr1  1  0.85749900  0.85749900  0.85749900  1
  Sr  Sr2  1  0.57442400  0.57442400  0.57442400  1
  Sr  Sr3  1  0.42557600  0.42557600  0.42557600  1
  Nd  Nd4  1  0.28946800  0.28946800  0.28946800  1
  Nd  Nd5  1  0.00000000  0.00000000  0.00000000  1
  Nd  Nd6  1  0.71053200  0.71053200  0.71053200  1
  Ta  Ta7  1  0.78505100  0.78505100  0.78505100  1
  Ta  Ta8  1  0.21494900  0.21494900  0.21494900  1
  Al  Al9  1  0.50000000  0.50000000  0.50000000  1
  Al  Al10  1  0.93083600  0.93083600  0.93083600  1
  Al  Al11  1  0.64254800  0.64254800  0.64254800  1
  Al  Al12  1  0.35745200  0.35745200  0.35745200  1
  Al  Al13  1  0.06916400  0.06916400  0.06916400  1
  O  O14  1  0.14843900  0.64031800  0.64031800  1
  O  O15  1  0.64031800  0.64031800  0.14843900  1
  O  O16  1  0.85156100  0.35968200  0.35968200  1
  O  O17  1  0.35968200  0.35968200  0.85156100  1
  O  O18  1  0.64031800  0.14843900  0.64031800  1
  O  O19  1  0.57732700  0.07181800  0.07181800  1
  O  O20  1  0.07181800  0.07181800  0.57732700  1
  O  O21  1  0.35968200  0.85156100  0.35968200  1
  O  O22  1  0.28222200  0.79042100  0.79042100  1
  O  O23  1  0.79042100  0.79042100  0.28222200  1
  O  O24  1  0.07181800  0.57732700  0.07181800  1
  O  O25  1  0.00000000  0.50000000  0.50000000  1
  O  O26  1  0.50000000  0.50000000  0.00000000  1
  O  O27  1  0.79042100  0.28222200  0.79042100  1
  O  O28  1  0.71777800  0.20957900  0.20957900  1
  O  O29  1  0.20957900  0.20957900  0.71777800  1
  O  O30  1  0.50000000  0.00000000  0.50000000  1
  O  O31  1  0.42267300  0.92818200  0.92818200  1
  O  O32  1  0.92818200  0.92818200  0.42267300  1
  O  O33  1  0.20957900  0.71777800  0.20957900  1
  O  O34  1  0.92818200  0.42267300  0.92818200  1
