# generated using pymatgen
data_In5S8
_symmetry_space_group_name_H-M   'P 1'
_cell_length_a   7.68162482
_cell_length_b   7.68162482
_cell_length_c   7.68162482
_cell_angle_alpha   60.00000000
_cell_angle_beta   60.00000000
_cell_angle_gamma   60.00000000
_symmetry_Int_Tables_number   1
_chemical_formula_structural   In5S8
_chemical_formula_sum   'In5 S8'
_cell_volume   320.51198776
_cell_formula_units_Z   1
loop_
 _symmetry_equiv_pos_site_id
 _symmetry_equiv_pos_as_xyz
  1  'x, y, z'
loop_
 _atom_site_type_symbol
 _atom_site_label
 _atom_site_symmetry_multiplicity
 _atom_site_fract_x
 _atom_site_fract_y
 _atom_site_fract_z
 _atom_site_occupancy
  In  In0  1  0.35266300  0.88244600  0.88244600  1
  In  In1  1  0.88244600  0.35266300  0.88244600  1
  In  In2  1  0.88244600  0.88244600  0.35266300  1
  In  In3  1  0.88244600  0.88244600  0.88244600  1
  In  In4  1  0.50000000  0.50000000  0.50000000  1
  S  S5  1  0.09692200  0.63435900  0.63435900  1
  S  S6  1  0.63435900  0.09692200  0.63435900  1
  S  S7  1  0.63435900  0.63435900  0.09692200  1
  S  S8  1  0.63435900  0.63435900  0.63435900  1
  S  S9  1  0.63450500  0.12183200  0.12183200  1
  S  S10  1  0.12183200  0.63450500  0.12183200  1
  S  S11  1  0.12183200  0.12183200  0.63450500  1
  S  S12  1  0.12183200  0.12183200  0.12183200  1
