# generated using pymatgen
data_HfZrS6
_symmetry_space_group_name_H-M   'P 1'
_cell_length_a   3.63272500
_cell_length_b   5.17874100
_cell_length_c   9.23402947
_cell_angle_alpha   83.61709767
_cell_angle_beta   90.00000000
_cell_angle_gamma   90.00000000
_symmetry_Int_Tables_number   1
_chemical_formula_structural   HfZrS6
_chemical_formula_sum   'Hf1 Zr1 S6'
_cell_volume   172.64239828
_cell_formula_units_Z   1
loop_
 _symmetry_equiv_pos_site_id
 _symmetry_equiv_pos_as_xyz
  1  'x, y, z'
loop_
 _atom_site_type_symbol
 _atom_site_label
 _atom_site_symmetry_multiplicity
 _atom_site_fract_x
 _atom_site_fract_y
 _atom_site_fract_z
 _atom_site_occupancy
  Hf  Hf0  1  0.50000000  0.72194600  0.65118700  1
  Zr  Zr1  1  0.00000000  0.27773200  0.34949400  1
  S  S2  1  0.50000000  0.51563200  0.17886700  1
  S  S3  1  0.00000000  0.48476900  0.81874000  1
  S  S4  1  0.50000000  0.11698300  0.17439000  1
  S  S5  1  0.00000000  0.88535500  0.82267000  1
  S  S6  1  0.50000000  0.23921600  0.55560800  1
  S  S7  1  0.00000000  0.75836800  0.44904500  1
