# generated using pymatgen
data_Ho6Mg(GeS7)2
_symmetry_space_group_name_H-M   'P 1'
_cell_length_a   9.78170833
_cell_length_b   9.78170833
_cell_length_c   5.87919000
_cell_angle_alpha   90.00000000
_cell_angle_beta   90.00000000
_cell_angle_gamma   120.00000222
_symmetry_Int_Tables_number   1
_chemical_formula_structural   Ho6Mg(GeS7)2
_chemical_formula_sum   'Ho6 Mg1 Ge2 S14'
_cell_volume   487.16663348
_cell_formula_units_Z   1
loop_
 _symmetry_equiv_pos_site_id
 _symmetry_equiv_pos_as_xyz
  1  'x, y, z'
loop_
 _atom_site_type_symbol
 _atom_site_label
 _atom_site_symmetry_multiplicity
 _atom_site_fract_x
 _atom_site_fract_y
 _atom_site_fract_z
 _atom_site_occupancy
  Ho  Ho0  1  0.97194100  0.52786100  0.26132000  1
  Ho  Ho1  1  0.55592100  0.02805900  0.26132000  1
  Ho  Ho2  1  0.47213900  0.44407900  0.26132000  1
  Ho  Ho3  1  0.69080200  0.80476100  0.76548900  1
  Ho  Ho4  1  0.11395900  0.30919800  0.76548900  1
  Ho  Ho5  1  0.19523900  0.88604100  0.76548900  1
  Mg  Mg6  1  0.33333300  0.66666700  0.45616300  1
  Ge  Ge7  1  0.66666700  0.33333300  0.84107900  1
  Ge  Ge8  1  0.00000000  0.00000000  0.34515400  1
  S  S9  1  0.66666700  0.33333300  0.46501000  1
  S  S10  1  0.00000000  0.00000000  0.96798100  1
  S  S11  1  0.42923900  0.18552400  0.00269300  1
  S  S12  1  0.75628500  0.57076100  0.00269300  1
  S  S13  1  0.81447600  0.24371500  0.00269300  1
  S  S14  1  0.23729900  0.14662000  0.50773900  1
  S  S15  1  0.90932100  0.76270100  0.50773900  1
  S  S16  1  0.85338000  0.09067900  0.50773900  1
  S  S17  1  0.18122600  0.41453300  0.21095900  1
  S  S18  1  0.23330700  0.81877400  0.21095900  1
  S  S19  1  0.58546700  0.76669300  0.21095900  1
  S  S20  1  0.48301100  0.91769100  0.69421900  1
  S  S21  1  0.43468000  0.51698900  0.69421900  1
  S  S22  1  0.08230900  0.56532000  0.69421900  1
