# generated using pymatgen
data_Sr4Fe3O10
_symmetry_space_group_name_H-M   'P 1'
_cell_length_a   10.97172808
_cell_length_b   7.71426375
_cell_length_c   8.95070472
_cell_angle_alpha   90.43208261
_cell_angle_beta   71.27598723
_cell_angle_gamma   46.64662134
_symmetry_Int_Tables_number   1
_chemical_formula_structural   Sr4Fe3O10
_chemical_formula_sum   'Sr8 Fe6 O20'
_cell_volume   492.30562519
_cell_formula_units_Z   2
loop_
 _symmetry_equiv_pos_site_id
 _symmetry_equiv_pos_as_xyz
  1  'x, y, z'
loop_
 _atom_site_type_symbol
 _atom_site_label
 _atom_site_symmetry_multiplicity
 _atom_site_fract_x
 _atom_site_fract_y
 _atom_site_fract_z
 _atom_site_occupancy
  Sr  Sr0  1  0.13590700  0.10826100  0.23317900  1
  Sr  Sr1  1  0.15600700  0.58545700  0.22177200  1
  Sr  Sr2  1  0.62152300  0.13266500  0.22280900  1
  Sr  Sr3  1  0.34399300  0.41454300  0.77822800  1
  Sr  Sr4  1  0.62967200  0.62689100  0.23404900  1
  Sr  Sr5  1  0.36409300  0.89173900  0.76682100  1
  Sr  Sr6  1  0.87032800  0.37310900  0.76595100  1
  Sr  Sr7  1  0.87847700  0.86733500  0.77719100  1
  Fe  Fe8  1  0.99448500  0.00670500  0.00957200  1
  Fe  Fe9  1  0.50551500  0.99329500  0.99042800  1
  Fe  Fe10  1  0.49902300  0.50226300  0.00060200  1
  Fe  Fe11  1  0.77420500  0.17477500  0.50063200  1
  Fe  Fe12  1  0.00097700  0.49773700  0.99939800  1
  Fe  Fe13  1  0.72579500  0.82522500  0.49936800  1
  O  O14  1  0.95953300  0.12527400  0.50075400  1
  O  O15  1  0.99594500  0.24644800  0.01084600  1
  O  O16  1  0.37829000  0.12646500  0.22418900  1
  O  O17  1  0.10377200  0.40241300  0.76671700  1
  O  O18  1  0.25274000  0.74652600  0.01357500  1
  O  O19  1  0.24726000  0.25347400  0.98642500  1
  O  O20  1  0.39622800  0.59758700  0.23328300  1
  O  O21  1  0.12171000  0.87353500  0.77581100  1
  O  O22  1  0.59735200  0.17643300  0.49962300  1
  O  O23  1  0.50405500  0.75355200  0.98915400  1
  O  O24  1  0.51534200  0.22605300  0.97098100  1
  O  O25  1  0.83331900  0.18178800  0.27122700  1
  O  O26  1  0.60401300  0.40849500  0.72433400  1
  O  O27  1  0.54046700  0.87472600  0.49924600  1
  O  O28  1  0.75513100  0.74357900  0.01707800  1
  O  O29  1  0.74486900  0.25642100  0.98292200  1
  O  O30  1  0.89598700  0.59150500  0.27566600  1
  O  O31  1  0.66668100  0.81821200  0.72877300  1
  O  O32  1  0.98465800  0.77394700  0.02901900  1
  O  O33  1  0.90264800  0.82356700  0.50037700  1
