# generated using pymatgen
data_KMg2As2H31O23
_symmetry_space_group_name_H-M   'P 1'
_cell_length_a   6.45852600
_cell_length_b   6.68379021
_cell_length_c   12.90144809
_cell_angle_alpha   86.65531173
_cell_angle_beta   83.75537598
_cell_angle_gamma   88.38919782
_symmetry_Int_Tables_number   1
_chemical_formula_structural   KMg2As2H31O23
_chemical_formula_sum   'K1 Mg2 As2 H31 O23'
_cell_volume   552.54196977
_cell_formula_units_Z   1
loop_
 _symmetry_equiv_pos_site_id
 _symmetry_equiv_pos_as_xyz
  1  'x, y, z'
loop_
 _atom_site_type_symbol
 _atom_site_label
 _atom_site_symmetry_multiplicity
 _atom_site_fract_x
 _atom_site_fract_y
 _atom_site_fract_z
 _atom_site_occupancy
  K  K0  1  0.48570900  0.41504400  0.27691600  1
  Mg  Mg1  1  0.00926100  0.49945100  0.49375800  1
  Mg  Mg2  1  0.49909200  0.49915500  0.99803800  1
  As  As3  1  0.87517300  0.95465800  0.19002400  1
  As  As4  1  0.13451400  0.06170300  0.80070500  1
  H  H5  1  0.70616300  0.20754500  0.56841900  1
  H  H6  1  0.31287800  0.76744200  0.41701600  1
  H  H7  1  0.81206900  0.99487000  0.66667700  1
  H  H8  1  0.19517400  0.01623600  0.32947000  1
  H  H9  1  0.00624900  0.99336100  0.98032000  1
  H  H10  1  0.72279600  0.28587000  0.45014900  1
  H  H11  1  0.32007200  0.59598600  0.66093400  1
  H  H12  1  0.75725300  0.83443600  0.52683800  1
  H  H13  1  0.24966600  0.14769000  0.47263300  1
  H  H14  1  0.01219600  0.70544800  0.67519200  1
  H  H15  1  0.97776300  0.29346500  0.31186700  1
  H  H16  1  0.53806100  0.49577900  0.62944600  1
  H  H17  1  0.38512700  0.62245600  0.50917600  1
  H  H18  1  0.53920600  0.20793100  0.85587400  1
  H  H19  1  0.46342300  0.79640700  0.14122400  1
  H  H20  1  0.01440500  0.46654400  0.71181700  1
  H  H21  1  0.97969400  0.53715700  0.27749900  1
  H  H22  1  0.75568800  0.81216400  0.90893900  1
  H  H23  1  0.22939100  0.19274600  0.09057300  1
  H  H24  1  0.56064500  0.00559900  0.68679200  1
  H  H25  1  0.44619500  0.98722300  0.30100300  1
  H  H26  1  0.52936200  0.84407300  0.87124600  1
  H  H27  1  0.46458000  0.14102500  0.11535300  1
  H  H28  1  0.84884900  0.55417400  0.10747200  1
  H  H29  1  0.15238100  0.44872400  0.89098400  1
  H  H30  1  0.85207500  0.32584900  0.07272700  1
  H  H31  1  0.14462600  0.67224900  0.93047800  1
  H  H32  1  0.76916000  0.30060100  0.85906900  1
  H  H33  1  0.22965800  0.70694700  0.13927700  1
  H  H34  1  0.87343800  0.87275700  0.41144700  1
  H  H35  1  0.13011200  0.12683500  0.58656800  1
  O  O36  1  0.68089400  0.01348000  0.63099200  1
  O  O37  1  0.33223700  0.00534200  0.36037000  1
  O  O38  1  0.61938400  0.74918700  0.90940300  1
  O  O39  1  0.36812700  0.25225100  0.09616400  1
  O  O40  1  0.62244500  0.30123900  0.89138500  1
  O  O41  1  0.38289200  0.68124200  0.12182500  1
  O  O42  1  0.01833100  0.56658100  0.65028700  1
  O  O43  1  0.99335900  0.43231700  0.33592200  1
  O  O44  1  0.72995000  0.33498100  0.51909600  1
  O  O45  1  0.30521800  0.62518700  0.44581800  1
  O  O46  1  0.76276700  0.44986900  0.08079700  1
  O  O47  1  0.21806800  0.54110800  0.93567200  1
  O  O48  1  0.84002500  0.76819100  0.46870500  1
  O  O49  1  0.17443200  0.22613600  0.52803500  1
  O  O50  1  0.96792100  0.71093800  0.18020300  1
  O  O51  1  0.03790800  0.30194400  0.81297600  1
  O  O52  1  0.60682400  0.96930400  0.19377600  1
  O  O53  1  0.39778500  0.03839800  0.80142800  1
  O  O54  1  0.98759000  0.09782600  0.08322500  1
  O  O55  1  0.01557600  0.91542700  0.91165100  1
  O  O56  1  0.94432300  0.04702000  0.30398400  1
  O  O57  1  0.05060000  0.95910100  0.69460900  1
  O  O58  1  0.46123800  0.62333000  0.62775600  1
