# generated using pymatgen
data_K2ZnSi3O8
_symmetry_space_group_name_H-M   'P 1'
_cell_length_a   5.36874800
_cell_length_b   6.83182583
_cell_length_c   6.90556866
_cell_angle_alpha   76.37979176
_cell_angle_beta   68.52250957
_cell_angle_gamma   67.35782218
_symmetry_Int_Tables_number   1
_chemical_formula_structural   K2ZnSi3O8
_chemical_formula_sum   'K2 Zn1 Si3 O8'
_cell_volume   216.20954062
_cell_formula_units_Z   1
loop_
 _symmetry_equiv_pos_site_id
 _symmetry_equiv_pos_as_xyz
  1  'x, y, z'
loop_
 _atom_site_type_symbol
 _atom_site_label
 _atom_site_symmetry_multiplicity
 _atom_site_fract_x
 _atom_site_fract_y
 _atom_site_fract_z
 _atom_site_occupancy
  K  K0  1  0.94774300  0.29166100  0.81792800  1
  K  K1  1  0.12118700  0.66972900  0.13816000  1
  Zn  Zn2  1  0.66562100  0.88082200  0.77770100  1
  Si  Si3  1  0.32097700  0.09446900  0.25812500  1
  Si  Si4  1  0.65852800  0.29499300  0.39697900  1
  Si  Si5  1  0.33813900  0.70463000  0.60971400  1
  O  O6  1  0.99721100  0.26359700  0.25608100  1
  O  O7  1  0.52938600  0.66109700  0.75835300  1
  O  O8  1  0.51121700  0.24484400  0.24596600  1
  O  O9  1  0.04152700  0.66986800  0.75131000  1
  O  O10  1  0.28283900  0.95286400  0.48782500  1
  O  O11  1  0.62001200  0.16279800  0.62311200  1
  O  O12  1  0.45935600  0.95694800  0.06584400  1
  O  O13  1  0.50625600  0.55368100  0.41090200  1
