# generated using pymatgen
data_K12Mo4S11Cl4O5
_symmetry_space_group_name_H-M   'P 1'
_cell_length_a   6.35317400
_cell_length_b   12.57893632
_cell_length_c   12.70277032
_cell_angle_alpha   90.01131881
_cell_angle_beta   90.43899271
_cell_angle_gamma   90.54655968
_symmetry_Int_Tables_number   1
_chemical_formula_structural   K12Mo4S11Cl4O5
_chemical_formula_sum   'K12 Mo4 S11 Cl4 O5'
_cell_volume   1015.08074646
_cell_formula_units_Z   1
loop_
 _symmetry_equiv_pos_site_id
 _symmetry_equiv_pos_as_xyz
  1  'x, y, z'
loop_
 _atom_site_type_symbol
 _atom_site_label
 _atom_site_symmetry_multiplicity
 _atom_site_fract_x
 _atom_site_fract_y
 _atom_site_fract_z
 _atom_site_occupancy
  K  K0  1  0.90495000  0.73474200  0.26923000  1
  K  K1  1  0.09719500  0.23501200  0.73298500  1
  K  K2  1  0.90288600  0.23493000  0.23310200  1
  K  K3  1  0.09666200  0.73473300  0.76747600  1
  K  K4  1  0.92056600  0.99781200  0.97957500  1
  K  K5  1  0.07927200  0.49795200  0.02049800  1
  K  K6  1  0.92429000  0.50166400  0.51984600  1
  K  K7  1  0.07850100  0.99844500  0.47920900  1
  K  K8  1  0.46473300  0.98942400  0.20452200  1
  K  K9  1  0.53554900  0.49003100  0.79579700  1
  K  K10  1  0.46526300  0.48968200  0.29608300  1
  K  K11  1  0.53595700  0.98906800  0.70360800  1
  Mo  Mo12  1  0.50223700  0.74250100  0.00553900  1
  Mo  Mo13  1  0.49820400  0.24217600  0.99463200  1
  Mo  Mo14  1  0.50198800  0.24252300  0.49490600  1
  Mo  Mo15  1  0.49645200  0.73776200  0.50143900  1
  S  S16  1  0.40482900  0.72167100  0.17224200  1
  S  S17  1  0.59502500  0.22174700  0.82791800  1
  S  S18  1  0.40415900  0.22176000  0.32760700  1
  S  S19  1  0.58908800  0.72081500  0.67151600  1
  S  S20  1  0.57321600  0.90496100  0.45146900  1
  S  S21  1  0.42076300  0.40571900  0.54791000  1
  S  S22  1  0.58026700  0.40593900  0.04811500  1
  S  S23  1  0.42048800  0.90555200  0.95203600  1
  S  S24  1  0.84937300  0.72524400  0.99613600  1
  S  S25  1  0.15037900  0.22495300  0.00397000  1
  S  S26  1  0.84952400  0.22542800  0.50430200  1
  Cl  Cl27  1  0.97589200  0.98209100  0.23157800  1
  Cl  Cl28  1  0.02459100  0.48256300  0.76810000  1
  Cl  Cl29  1  0.97625100  0.48266300  0.26881400  1
  Cl  Cl30  1  0.02524400  0.98172100  0.73081700  1
  O  O31  1  0.64247800  0.64657400  0.42406600  1
  O  O32  1  0.37214200  0.14758800  0.57475300  1
  O  O33  1  0.62745100  0.14771800  0.07492600  1
  O  O34  1  0.37143800  0.64732500  0.92524200  1
  O  O35  1  0.22169800  0.71508900  0.48734000  1
