# generated using pymatgen
data_Sr3La4O9
_symmetry_space_group_name_H-M   'P 1'
_cell_length_a   7.36437300
_cell_length_b   9.78151672
_cell_length_c   10.38960404
_cell_angle_alpha   76.92197816
_cell_angle_beta   71.44589084
_cell_angle_gamma   74.58469234
_symmetry_Int_Tables_number   1
_chemical_formula_structural   Sr3La4O9
_chemical_formula_sum   'Sr6 La8 O18'
_cell_volume   675.71660529
_cell_formula_units_Z   2
loop_
 _symmetry_equiv_pos_site_id
 _symmetry_equiv_pos_as_xyz
  1  'x, y, z'
loop_
 _atom_site_type_symbol
 _atom_site_label
 _atom_site_symmetry_multiplicity
 _atom_site_fract_x
 _atom_site_fract_y
 _atom_site_fract_z
 _atom_site_occupancy
  Sr  Sr0  1  0.05201400  0.44545300  0.07245200  1
  Sr  Sr1  1  0.38237100  0.17739600  0.22980000  1
  Sr  Sr2  1  0.00927000  0.90458900  0.72170400  1
  Sr  Sr3  1  0.67511600  0.42437100  0.45595800  1
  Sr  Sr4  1  0.87338600  0.17801600  0.94250000  1
  Sr  Sr5  1  0.81062200  0.74442600  0.46431400  1
  La  La6  1  0.40556100  0.16021400  0.88589300  1
  La  La7  1  0.20117400  0.86134600  0.05044900  1
  La  La8  1  0.42371500  0.10520100  0.56771400  1
  La  La9  1  0.30757700  0.80237700  0.38508800  1
  La  La10  1  0.57003300  0.54186300  0.86898300  1
  La  La11  1  0.88967100  0.10913500  0.30022700  1
  La  La12  1  0.70825100  0.82590700  0.08190300  1
  La  La13  1  0.07790700  0.47320700  0.67760800  1
  O  O14  1  0.98391100  0.31900200  0.30581900  1
  O  O15  1  0.24560500  0.01357400  0.47300200  1
  O  O16  1  0.20255400  0.04114300  0.80300600  1
  O  O17  1  0.10674400  0.69540900  0.59694700  1
  O  O18  1  0.07969200  0.79412100  0.28140000  1
  O  O19  1  0.05426800  0.72118500  0.97099800  1
  O  O20  1  0.43805200  0.34538000  0.98923800  1
  O  O21  1  0.56454900  0.24582900  0.36387100  1
  O  O22  1  0.38962300  0.32080100  0.67157100  1
  O  O23  1  0.38974900  0.94630000  0.16486100  1
  O  O24  1  0.51516300  0.72330300  0.98324700  1
  O  O25  1  0.71462300  0.01829900  0.87730400  1
  O  O26  1  0.76920200  0.52028300  0.63639000  1
  O  O27  1  0.63000900  0.67635100  0.32953500  1
  O  O28  1  0.11409100  0.17577900  0.05855000  1
  O  O29  1  0.87995000  0.44298800  0.89685300  1
  O  O30  1  0.77204800  0.02317600  0.15349000  1
  O  O31  1  0.73350000  0.97917600  0.52492200  1
