# generated using pymatgen
data_In9Ag17
_symmetry_space_group_name_H-M   'P 1'
_cell_length_a   10.09042105
_cell_length_b   10.09042105
_cell_length_c   10.16064162
_cell_angle_alpha   89.75132453
_cell_angle_beta   89.75132453
_cell_angle_gamma   90.06499674
_symmetry_Int_Tables_number   1
_chemical_formula_structural   In9Ag17
_chemical_formula_sum   'In18 Ag34'
_cell_volume   1034.50177650
_cell_formula_units_Z   2
loop_
 _symmetry_equiv_pos_site_id
 _symmetry_equiv_pos_as_xyz
  1  'x, y, z'
loop_
 _atom_site_type_symbol
 _atom_site_label
 _atom_site_symmetry_multiplicity
 _atom_site_fract_x
 _atom_site_fract_y
 _atom_site_fract_z
 _atom_site_occupancy
  In  In0  1  0.53572400  0.80969400  0.18936300  1
  In  In1  1  0.81001500  0.81001500  0.46449800  1
  In  In2  1  0.80969400  0.53572400  0.18936300  1
  In  In3  1  0.53607900  0.19114300  0.81383200  1
  In  In4  1  0.81315100  0.19057700  0.53634500  1
  In  In5  1  0.80912400  0.46469800  0.81029600  1
  In  In6  1  0.46469800  0.80912400  0.81029600  1
  In  In7  1  0.19057700  0.81315100  0.53634500  1
  In  In8  1  0.19114300  0.53607900  0.81383200  1
  In  In9  1  0.46387900  0.19136300  0.18644400  1
  In  In10  1  0.18753400  0.18753400  0.46351500  1
  In  In11  1  0.19136300  0.46387900  0.18644400  1
  In  In12  1  0.49970500  0.14206100  0.50010600  1
  In  In13  1  0.14206100  0.49970500  0.50010600  1
  In  In14  1  0.11715300  0.11715300  0.88207300  1
  In  In15  1  0.11645700  0.88246800  0.11681500  1
  In  In16  1  0.88246800  0.11645700  0.11681500  1
  In  In17  1  0.88312500  0.88312500  0.88360000  1
  Ag  Ag18  1  0.82902600  0.82902600  0.17066300  1
  Ag  Ag19  1  0.82915600  0.17054300  0.82918100  1
  Ag  Ag20  1  0.17054300  0.82915600  0.82918100  1
  Ag  Ag21  1  0.17064100  0.17064100  0.17070600  1
  Ag  Ag22  1  0.60422600  0.60422600  0.39568200  1
  Ag  Ag23  1  0.60445500  0.39656300  0.60465400  1
  Ag  Ag24  1  0.39656300  0.60445400  0.60465400  1
  Ag  Ag25  1  0.39607600  0.39607600  0.39529500  1
  Ag  Ag26  1  0.03245600  0.31416600  0.68636400  1
  Ag  Ag27  1  0.31497800  0.31497800  0.96650500  1
  Ag  Ag28  1  0.31416600  0.03245600  0.68636400  1
  Ag  Ag29  1  0.03199700  0.68601700  0.31398400  1
  Ag  Ag30  1  0.31535000  0.68541400  0.03287300  1
  Ag  Ag31  1  0.31439900  0.96621100  0.31399600  1
  Ag  Ag32  1  0.96621100  0.31439900  0.31399600  1
  Ag  Ag33  1  0.68541400  0.31535000  0.03287300  1
  Ag  Ag34  1  0.68601700  0.03199700  0.31398400  1
  Ag  Ag35  1  0.96681000  0.68575900  0.68582000  1
  Ag  Ag36  1  0.68487500  0.68487500  0.96734300  1
  Ag  Ag37  1  0.68575900  0.96681000  0.68582000  1
  Ag  Ag38  1  0.32581500  0.32581500  0.67556700  1
  Ag  Ag39  1  0.32663200  0.67493400  0.32522500  1
  Ag  Ag40  1  0.67493400  0.32663200  0.32522500  1
  Ag  Ag41  1  0.67423600  0.67423600  0.67390100  1
  Ag  Ag42  1  0.99970200  0.99970200  0.64308500  1
  Ag  Ag43  1  0.99973100  0.35733100  0.00000500  1
  Ag  Ag44  1  0.35733100  0.99973100  0.00000500  1
  Ag  Ag45  1  0.99979100  0.99979100  0.35700700  1
  Ag  Ag46  1  0.99966000  0.64284700  0.99990500  1
  Ag  Ag47  1  0.64284700  0.99966000  0.99990500  1
  Ag  Ag48  1  0.50000900  0.50000900  0.14334200  1
  Ag  Ag49  1  0.50000600  0.85630100  0.50007500  1
  Ag  Ag50  1  0.85630100  0.50000600  0.50007500  1
  Ag  Ag51  1  0.49994000  0.49994000  0.85664800  1
