# generated using pymatgen
data_InGaS3
_symmetry_space_group_name_H-M   'P 1'
_cell_length_a   6.75637900
_cell_length_b   6.75735581
_cell_length_c   15.58159360
_cell_angle_alpha   81.41070760
_cell_angle_beta   85.32545575
_cell_angle_gamma   60.01131650
_symmetry_Int_Tables_number   1
_chemical_formula_structural   InGaS3
_chemical_formula_sum   'In5 Ga5 S15'
_cell_volume   609.21487279
_cell_formula_units_Z   5
loop_
 _symmetry_equiv_pos_site_id
 _symmetry_equiv_pos_as_xyz
  1  'x, y, z'
loop_
 _atom_site_type_symbol
 _atom_site_label
 _atom_site_symmetry_multiplicity
 _atom_site_fract_x
 _atom_site_fract_y
 _atom_site_fract_z
 _atom_site_occupancy
  In  In0  1  0.66641000  0.65566000  0.00627900  1
  In  In1  1  0.34147800  0.32969400  0.00890100  1
  In  In2  1  0.98840900  0.00888500  0.00702000  1
  In  In3  1  0.00231400  0.41663500  0.74931600  1
  In  In4  1  0.66532200  0.08236600  0.74926900  1
  Ga  Ga5  1  0.32854500  0.92539000  0.25440000  1
  Ga  Ga6  1  0.00741900  0.56985000  0.25405200  1
  Ga  Ga7  1  0.00166500  0.84896100  0.44688200  1
  Ga  Ga8  1  0.66718900  0.51880200  0.44683200  1
  Ga  Ga9  1  0.33070600  0.75035200  0.75894200  1
  S  S10  1  0.98189900  0.52149300  0.48823900  1
  S  S11  1  0.68825700  0.17084000  0.48675900  1
  S  S12  1  0.33329400  0.82034000  0.48578500  1
  S  S13  1  0.99579600  0.63954700  0.09092700  1
  S  S14  1  0.66329300  0.30541700  0.09169300  1
  S  S15  1  0.33042400  0.96681100  0.09117200  1
  S  S16  1  0.64178500  0.46241800  0.69269700  1
  S  S17  1  0.33415200  0.07831900  0.68841600  1
  S  S18  1  0.02730000  0.77065500  0.68982000  1
  S  S19  1  0.01045700  0.36173800  0.91056200  1
  S  S20  1  0.66659500  0.02274800  0.91064500  1
  S  S21  1  0.32698200  0.70364300  0.90704400  1
  S  S22  1  0.66380700  0.57956800  0.28552100  1
  S  S23  1  0.33203300  0.23869200  0.28100000  1
  S  S24  1  0.00463700  0.89504400  0.28572700  1
