# generated using pymatgen
data_Ho4FeSe7
_symmetry_space_group_name_H-M   'P 1'
_cell_length_a   6.61916794
_cell_length_b   6.61916794
_cell_length_c   11.76371167
_cell_angle_alpha   76.49188197
_cell_angle_beta   76.49188197
_cell_angle_gamma   34.39138747
_symmetry_Int_Tables_number   1
_chemical_formula_structural   Ho4FeSe7
_chemical_formula_sum   'Ho4 Fe1 Se7'
_cell_volume   282.28782502
_cell_formula_units_Z   1
loop_
 _symmetry_equiv_pos_site_id
 _symmetry_equiv_pos_as_xyz
  1  'x, y, z'
loop_
 _atom_site_type_symbol
 _atom_site_label
 _atom_site_symmetry_multiplicity
 _atom_site_fract_x
 _atom_site_fract_y
 _atom_site_fract_z
 _atom_site_occupancy
  Ho  Ho0  1  0.69579400  0.69579400  0.21342900  1
  Ho  Ho1  1  0.30562700  0.30562700  0.79745000  1
  Ho  Ho2  1  0.99887100  0.99887100  0.01102300  1
  Ho  Ho3  1  0.10704800  0.10704800  0.55686400  1
  Fe  Fe4  1  0.88845000  0.88845000  0.42813700  1
  Se  Se5  1  0.75072500  0.75072500  0.62529500  1
  Se  Se6  1  0.28220000  0.28220000  0.35963100  1
  Se  Se7  1  0.33435900  0.33435900  0.05363600  1
  Se  Se8  1  0.66067400  0.66067400  0.94721600  1
  Se  Se9  1  0.02745400  0.02745400  0.23824900  1
  Se  Se10  1  0.96844300  0.96844300  0.78342900  1
  Se  Se11  1  0.48035500  0.48035500  0.48564000  1
