# generated using pymatgen
data_La3Si(Mo2O7)2
_symmetry_space_group_name_H-M   'P 1'
_cell_length_a   6.11773200
_cell_length_b   10.91170400
_cell_length_c   18.28395300
_cell_angle_alpha   90.00000000
_cell_angle_beta   90.00000000
_cell_angle_gamma   90.00000000
_symmetry_Int_Tables_number   1
_chemical_formula_structural   La3Si(Mo2O7)2
_chemical_formula_sum   'La12 Si4 Mo16 O56'
_cell_volume   1220.54310189
_cell_formula_units_Z   4
loop_
 _symmetry_equiv_pos_site_id
 _symmetry_equiv_pos_as_xyz
  1  'x, y, z'
loop_
 _atom_site_type_symbol
 _atom_site_label
 _atom_site_symmetry_multiplicity
 _atom_site_fract_x
 _atom_site_fract_y
 _atom_site_fract_z
 _atom_site_occupancy
  La  La0  1  0.74676800  0.20342900  0.02972100  1
  La  La1  1  0.74676800  0.29657100  0.52972100  1
  La  La2  1  0.24676800  0.79657100  0.97027900  1
  La  La3  1  0.24676800  0.70342900  0.47027900  1
  La  La4  1  0.75328900  0.98004600  0.84187000  1
  La  La5  1  0.75328900  0.51995400  0.34187000  1
  La  La6  1  0.25328900  0.01995400  0.15813000  1
  La  La7  1  0.25328900  0.48004600  0.65813000  1
  La  La8  1  0.75040900  0.62870000  0.83285200  1
  La  La9  1  0.75040900  0.87130000  0.33285200  1
  La  La10  1  0.25040900  0.37130000  0.16714800  1
  La  La11  1  0.25040900  0.12870000  0.66714800  1
  Si  Si12  1  0.74760700  0.60031400  0.55613800  1
  Si  Si13  1  0.74760700  0.89968600  0.05613800  1
  Si  Si14  1  0.24760700  0.39968600  0.44386200  1
  Si  Si15  1  0.24760700  0.10031400  0.94386200  1
  Mo  Mo16  1  0.75148800  0.36794400  0.70294400  1
  Mo  Mo17  1  0.75148800  0.13205600  0.20294400  1
  Mo  Mo18  1  0.25148800  0.63205600  0.29705600  1
  Mo  Mo19  1  0.25148800  0.86794400  0.79705600  1
  Mo  Mo20  1  0.49041400  0.32188400  0.84741700  1
  Mo  Mo21  1  0.00868300  0.18213700  0.34359700  1
  Mo  Mo22  1  0.99041400  0.67811600  0.15258300  1
  Mo  Mo23  1  0.50868300  0.81786300  0.65640300  1
  Mo  Mo24  1  0.50868300  0.68213700  0.15640300  1
  Mo  Mo25  1  0.99041400  0.82188400  0.65258300  1
  Mo  Mo26  1  0.00868300  0.31786300  0.84359700  1
  Mo  Mo27  1  0.49041400  0.17811600  0.34741700  1
  Mo  Mo28  1  0.74857500  0.50516800  0.00385400  1
  Mo  Mo29  1  0.24857500  0.49483200  0.99614600  1
  Mo  Mo30  1  0.24857500  0.00516800  0.49614600  1
  Mo  Mo31  1  0.74857500  0.99483200  0.50385400  1
  O  O32  1  0.25943000  0.90760500  0.59517400  1
  O  O33  1  0.25943000  0.59239500  0.09517400  1
  O  O34  1  0.75943000  0.09239500  0.40482600  1
  O  O35  1  0.75943000  0.40760500  0.90482600  1
  O  O36  1  0.51801300  0.67713200  0.57371300  1
  O  O37  1  0.97657800  0.82294900  0.07206000  1
  O  O38  1  0.01801300  0.32286800  0.42628700  1
  O  O39  1  0.47657800  0.17705100  0.92794000  1
  O  O40  1  0.47657800  0.32294900  0.42794000  1
  O  O41  1  0.01801300  0.17713200  0.92628700  1
  O  O42  1  0.97657800  0.67705100  0.57206000  1
  O  O43  1  0.51801300  0.82286800  0.07371300  1
  O  O44  1  0.75560500  0.26648100  0.29025300  1
  O  O45  1  0.75560500  0.23351900  0.79025300  1
  O  O46  1  0.25560500  0.73351900  0.70974700  1
  O  O47  1  0.25560500  0.76648100  0.20974700  1
  O  O48  1  0.74600100  0.54123600  0.47421600  1
  O  O49  1  0.74600100  0.95876400  0.97421600  1
  O  O50  1  0.24600100  0.45876400  0.52578400  1
  O  O51  1  0.24600100  0.04123600  0.02578400  1
  O  O52  1  0.49801000  0.29754000  0.64704700  1
  O  O53  1  0.00348000  0.20040300  0.14609300  1
  O  O54  1  0.99801000  0.70246000  0.35295300  1
  O  O55  1  0.50348000  0.79959700  0.85390700  1
  O  O56  1  0.50348000  0.70040300  0.35390700  1
  O  O57  1  0.99801000  0.79754000  0.85295300  1
  O  O58  1  0.00348000  0.29959700  0.64609300  1
  O  O59  1  0.49801000  0.20246000  0.14704700  1
  O  O60  1  0.50002500  0.11272000  0.54106700  1
  O  O61  1  0.99824500  0.39266900  0.04415000  1
  O  O62  1  0.00002500  0.88728000  0.45893300  1
  O  O63  1  0.49824500  0.60733100  0.95585000  1
  O  O64  1  0.49824500  0.89266900  0.45585000  1
  O  O65  1  0.00002500  0.61272000  0.95893300  1
  O  O66  1  0.99824500  0.10733100  0.54415000  1
  O  O67  1  0.50002500  0.38728000  0.04106700  1
  O  O68  1  0.23906400  0.23562300  0.78466500  1
  O  O69  1  0.23906400  0.26437700  0.28466500  1
  O  O70  1  0.73906400  0.76437700  0.21533500  1
  O  O71  1  0.73906400  0.73562300  0.71533500  1
  O  O72  1  0.02408700  0.53585600  0.23568300  1
  O  O73  1  0.48059300  0.96328900  0.73579000  1
  O  O74  1  0.52408700  0.46414400  0.76431700  1
  O  O75  1  0.98059300  0.03671100  0.26421000  1
  O  O76  1  0.98059300  0.46328900  0.76421000  1
  O  O77  1  0.52408700  0.03585600  0.26431700  1
  O  O78  1  0.48059300  0.53671100  0.23579000  1
  O  O79  1  0.02408700  0.96414400  0.73568300  1
  O  O80  1  0.74390900  0.48476100  0.61300600  1
  O  O81  1  0.74390900  0.01523900  0.11300600  1
  O  O82  1  0.24390900  0.51523900  0.38699400  1
  O  O83  1  0.24390900  0.98476100  0.88699400  1
  O  O84  1  0.23392800  0.08906600  0.40090200  1
  O  O85  1  0.23392800  0.41093400  0.90090200  1
  O  O86  1  0.73392800  0.91093400  0.59909800  1
  O  O87  1  0.73392800  0.58906600  0.09909800  1
