# generated using pymatgen
data_HfSeS
_symmetry_space_group_name_H-M   'P 1'
_cell_length_a   3.71352735
_cell_length_b   3.71353200
_cell_length_c   6.54179400
_cell_angle_alpha   89.99848740
_cell_angle_beta   89.99858712
_cell_angle_gamma   60.00103305
_symmetry_Int_Tables_number   1
_chemical_formula_structural   HfSeS
_chemical_formula_sum   'Hf1 Se1 S1'
_cell_volume   78.12783936
_cell_formula_units_Z   1
loop_
 _symmetry_equiv_pos_site_id
 _symmetry_equiv_pos_as_xyz
  1  'x, y, z'
loop_
 _atom_site_type_symbol
 _atom_site_label
 _atom_site_symmetry_multiplicity
 _atom_site_fract_x
 _atom_site_fract_y
 _atom_site_fract_z
 _atom_site_occupancy
  Hf  Hf0  1  0.00000500  0.00000500  0.01220300  1
  Se  Se1  1  0.33334200  0.33334100  0.76341700  1
  S  S2  1  0.66665300  0.66665400  0.22438000  1
