# generated using pymatgen
data_KVFeP2H5O11
_symmetry_space_group_name_H-M   'P 1'
_cell_length_a   9.80013300
_cell_length_b   9.84633600
_cell_length_c   12.39218938
_cell_angle_alpha   51.19545010
_cell_angle_beta   90.00000000
_cell_angle_gamma   90.00000000
_symmetry_Int_Tables_number   1
_chemical_formula_structural   KVFeP2H5O11
_chemical_formula_sum   'K4 V4 Fe4 P8 H20 O44'
_cell_volume   931.86449572
_cell_formula_units_Z   4
loop_
 _symmetry_equiv_pos_site_id
 _symmetry_equiv_pos_as_xyz
  1  'x, y, z'
loop_
 _atom_site_type_symbol
 _atom_site_label
 _atom_site_symmetry_multiplicity
 _atom_site_fract_x
 _atom_site_fract_y
 _atom_site_fract_z
 _atom_site_occupancy
  K  K0  1  0.69594700  0.88165000  0.60054000  1
  K  K1  1  0.19594700  0.11835000  0.89946000  1
  K  K2  1  0.30405300  0.11835000  0.39946000  1
  K  K3  1  0.80405300  0.88165000  0.10054000  1
  V  V4  1  0.95173200  0.52238000  0.86876900  1
  V  V5  1  0.45173200  0.47762000  0.63123100  1
  V  V6  1  0.04826800  0.47762000  0.13123100  1
  V  V7  1  0.54826800  0.52238000  0.36876900  1
  Fe  Fe8  1  0.72901400  0.21506200  0.18900700  1
  Fe  Fe9  1  0.22901400  0.78493800  0.31099300  1
  Fe  Fe10  1  0.27098600  0.78493800  0.81099300  1
  Fe  Fe11  1  0.77098600  0.21506200  0.68900700  1
  P  P12  1  0.82171400  0.34006700  0.37152600  1
  P  P13  1  0.32171400  0.65993300  0.12847400  1
  P  P14  1  0.17828600  0.65993300  0.62847400  1
  P  P15  1  0.67828600  0.34006700  0.87152600  1
  P  P16  1  0.02910900  0.14246800  0.14742900  1
  P  P17  1  0.52910900  0.85753200  0.35257100  1
  P  P18  1  0.97089100  0.85753200  0.85257100  1
  P  P19  1  0.47089100  0.14246800  0.64742900  1
  H  H20  1  0.47462200  0.35207200  0.10216100  1
  H  H21  1  0.97462200  0.64792800  0.39783900  1
  H  H22  1  0.52537800  0.64792800  0.89783900  1
  H  H23  1  0.02537800  0.35207200  0.60216100  1
  H  H24  1  0.52466900  0.43599500  0.17505100  1
  H  H25  1  0.02466900  0.56400500  0.32494900  1
  H  H26  1  0.47533100  0.56400500  0.82494900  1
  H  H27  1  0.97533100  0.43599500  0.67505100  1
  H  H28  1  0.58632300  0.70321800  0.03352800  1
  H  H29  1  0.08632300  0.29678200  0.46647200  1
  H  H30  1  0.41367700  0.29678200  0.96647200  1
  H  H31  1  0.91367700  0.70321800  0.53352800  1
  H  H32  1  0.65087800  0.84089400  0.88512000  1
  H  H33  1  0.15087800  0.15910600  0.61488000  1
  H  H34  1  0.34912200  0.15910600  0.11488000  1
  H  H35  1  0.84912200  0.84089400  0.38512000  1
  H  H36  1  0.79633700  0.54242500  0.02939000  1
  H  H37  1  0.29633700  0.45757500  0.47061000  1
  H  H38  1  0.20366300  0.45757500  0.97061000  1
  H  H39  1  0.70366300  0.54242500  0.52939000  1
  O  O40  1  0.12258200  0.99898500  0.17590100  1
  O  O41  1  0.62258200  0.00101500  0.32409900  1
  O  O42  1  0.87741800  0.00101500  0.82409900  1
  O  O43  1  0.37741800  0.99898500  0.67590100  1
  O  O44  1  0.83510400  0.23553800  0.52880900  1
  O  O45  1  0.33510400  0.76446200  0.97119100  1
  O  O46  1  0.16489600  0.76446200  0.47119100  1
  O  O47  1  0.66489600  0.23553800  0.02880900  1
  O  O48  1  0.64928700  0.71577700  0.96562800  1
  O  O49  1  0.14928700  0.28422300  0.53437200  1
  O  O50  1  0.35071300  0.28422300  0.03437200  1
  O  O51  1  0.85071300  0.71577700  0.46562800  1
  O  O52  1  0.54856500  0.35405600  0.15634800  1
  O  O53  1  0.04856500  0.64594400  0.34365200  1
  O  O54  1  0.45143500  0.64594400  0.84365200  1
  O  O55  1  0.95143500  0.35405600  0.65634800  1
  O  O56  1  0.72846400  0.50133300  0.30168400  1
  O  O57  1  0.22846400  0.49866700  0.19831600  1
  O  O58  1  0.27153600  0.49866700  0.69831600  1
  O  O59  1  0.77153600  0.50133300  0.80168400  1
  O  O60  1  0.77269600  0.21435600  0.34516900  1
  O  O61  1  0.27269600  0.78564400  0.15483100  1
  O  O62  1  0.22730400  0.78564400  0.65483100  1
  O  O63  1  0.72730400  0.21435600  0.84516900  1
  O  O64  1  0.88771600  0.06388200  0.21887000  1
  O  O65  1  0.38771600  0.93611800  0.28113000  1
  O  O66  1  0.11228400  0.93611800  0.78113000  1
  O  O67  1  0.61228400  0.06388200  0.71887000  1
  O  O68  1  0.96929700  0.40969000  0.30928500  1
  O  O69  1  0.46929700  0.59031000  0.19071500  1
  O  O70  1  0.03070300  0.59031000  0.69071500  1
  O  O71  1  0.53070300  0.40969000  0.80928500  1
  O  O72  1  0.85724500  0.44386600  0.05939800  1
  O  O73  1  0.35724500  0.55613400  0.44060200  1
  O  O74  1  0.14275500  0.55613400  0.94060200  1
  O  O75  1  0.64275500  0.44386600  0.55939800  1
  O  O76  1  0.09349000  0.23695500  0.19885300  1
  O  O77  1  0.59349000  0.76304500  0.30114700  1
  O  O78  1  0.90651000  0.76304500  0.80114700  1
  O  O79  1  0.40651000  0.23695500  0.69885300  1
  O  O80  1  0.01005600  0.27312500  0.98755300  1
  O  O81  1  0.51005600  0.72687500  0.51244700  1
  O  O82  1  0.98994400  0.72687500  0.01244700  1
  O  O83  1  0.48994400  0.27312500  0.48755300  1
