# generated using pymatgen
data_Ho4CoSn8
_symmetry_space_group_name_H-M   'P 1'
_cell_length_a   4.38318500
_cell_length_b   4.43398900
_cell_length_c   16.70875300
_cell_angle_alpha   90.00000000
_cell_angle_beta   90.00000000
_cell_angle_gamma   90.00000000
_symmetry_Int_Tables_number   1
_chemical_formula_structural   Ho4CoSn8
_chemical_formula_sum   'Ho4 Co1 Sn8'
_cell_volume   324.73451556
_cell_formula_units_Z   1
loop_
 _symmetry_equiv_pos_site_id
 _symmetry_equiv_pos_as_xyz
  1  'x, y, z'
loop_
 _atom_site_type_symbol
 _atom_site_label
 _atom_site_symmetry_multiplicity
 _atom_site_fract_x
 _atom_site_fract_y
 _atom_site_fract_z
 _atom_site_occupancy
  Ho  Ho0  1  0.25000000  0.00000000  0.09806700  1
  Ho  Ho1  1  0.25000000  0.50000000  0.60110700  1
  Ho  Ho2  1  0.75000000  0.50000000  0.39647300  1
  Ho  Ho3  1  0.75000000  0.00000000  0.89991300  1
  Co  Co4  1  0.25000000  0.00000000  0.30662600  1
  Sn  Sn5  1  0.25000000  0.00000000  0.45285700  1
  Sn  Sn6  1  0.25000000  0.50000000  0.93750700  1
  Sn  Sn7  1  0.75000000  0.50000000  0.06266600  1
  Sn  Sn8  1  0.75000000  0.00000000  0.57107000  1
  Sn  Sn9  1  0.25000000  0.50000000  0.23587200  1
  Sn  Sn10  1  0.25000000  0.00000000  0.74527000  1
  Sn  Sn11  1  0.75000000  0.00000000  0.23808700  1
  Sn  Sn12  1  0.75000000  0.50000000  0.75448500  1
