# generated using pymatgen
data_K4Gd2C3O9F4
_symmetry_space_group_name_H-M   'P 1'
_cell_length_a   7.00925863
_cell_length_b   7.00925863
_cell_length_c   7.06114690
_cell_angle_alpha   81.40163060
_cell_angle_beta   81.40163060
_cell_angle_gamma   81.12830056
_symmetry_Int_Tables_number   1
_chemical_formula_structural   K4Gd2C3O9F4
_chemical_formula_sum   'K4 Gd2 C3 O9 F4'
_cell_volume   336.05828316
_cell_formula_units_Z   1
loop_
 _symmetry_equiv_pos_site_id
 _symmetry_equiv_pos_as_xyz
  1  'x, y, z'
loop_
 _atom_site_type_symbol
 _atom_site_label
 _atom_site_symmetry_multiplicity
 _atom_site_fract_x
 _atom_site_fract_y
 _atom_site_fract_z
 _atom_site_occupancy
  K  K0  1  0.87218500  0.50279900  0.12013800  1
  K  K1  1  0.13487000  0.86513000  0.50000000  1
  K  K2  1  0.49720100  0.12781500  0.87986200  1
  K  K3  1  0.99886400  0.00113600  0.00000000  1
  Gd  Gd4  1  0.35158300  0.36005600  0.35587200  1
  Gd  Gd5  1  0.63994400  0.64841700  0.64412800  1
  C  C6  1  0.65000900  0.00709200  0.36285200  1
  C  C7  1  0.35617000  0.64383000  0.00000000  1
  C  C8  1  0.99290800  0.34999100  0.63714800  1
  O  O9  1  0.13095100  0.20639600  0.63614100  1
  O  O10  1  0.64506100  0.15771500  0.23021400  1
  O  O11  1  0.21779100  0.64506900  0.14516600  1
  O  O12  1  0.35493100  0.78220900  0.85483400  1
  O  O13  1  0.79360400  0.86904900  0.36385900  1
  O  O14  1  0.84228500  0.35493900  0.76978600  1
  O  O15  1  0.50249600  0.99852900  0.50017400  1
  O  O16  1  0.49802400  0.50197600  0.00000000  1
  O  O17  1  0.00147100  0.49750400  0.49982600  1
  F  F18  1  0.19333600  0.19466500  0.19440200  1
  F  F19  1  0.80533500  0.80666400  0.80559800  1
  F  F20  1  0.56319000  0.59200700  0.35047100  1
  F  F21  1  0.40799300  0.43680900  0.64952900  1
