# generated using pymatgen
data_Hf3GeMo8
_symmetry_space_group_name_H-M   'P 1'
_cell_length_a   5.35712942
_cell_length_b   5.35712942
_cell_length_c   8.60395500
_cell_angle_alpha   90.00000000
_cell_angle_beta   90.00000000
_cell_angle_gamma   119.99999282
_symmetry_Int_Tables_number   1
_chemical_formula_structural   Hf3GeMo8
_chemical_formula_sum   'Hf3 Ge1 Mo8'
_cell_volume   213.84203071
_cell_formula_units_Z   1
loop_
 _symmetry_equiv_pos_site_id
 _symmetry_equiv_pos_as_xyz
  1  'x, y, z'
loop_
 _atom_site_type_symbol
 _atom_site_label
 _atom_site_symmetry_multiplicity
 _atom_site_fract_x
 _atom_site_fract_y
 _atom_site_fract_z
 _atom_site_occupancy
  Hf  Hf0  1  0.66666700  0.33333300  0.44153600  1
  Hf  Hf1  1  0.66666700  0.33333300  0.06172200  1
  Hf  Hf2  1  0.33333300  0.66666700  0.93955400  1
  Ge  Ge3  1  0.33333300  0.66666700  0.56479700  1
  Mo  Mo4  1  0.00000000  0.00000000  0.49830000  1
  Mo  Mo5  1  0.00000000  0.00000000  0.99752800  1
  Mo  Mo6  1  0.82870800  0.17129200  0.74720400  1
  Mo  Mo7  1  0.34258400  0.17129200  0.74720400  1
  Mo  Mo8  1  0.82870800  0.65741600  0.74720400  1
  Mo  Mo9  1  0.17055700  0.82944300  0.25163100  1
  Mo  Mo10  1  0.65888500  0.82944300  0.25163100  1
  Mo  Mo11  1  0.17055700  0.34111500  0.25163100  1
