# generated using pymatgen
data_Ge2SeS
_symmetry_space_group_name_H-M   'P 1'
_cell_length_a   3.78568800
_cell_length_b   4.48394900
_cell_length_c   10.91548500
_cell_angle_alpha   90.00000000
_cell_angle_beta   90.00000000
_cell_angle_gamma   90.00000000
_symmetry_Int_Tables_number   1
_chemical_formula_structural   Ge2SeS
_chemical_formula_sum   'Ge4 Se2 S2'
_cell_volume   185.28852322
_cell_formula_units_Z   2
loop_
 _symmetry_equiv_pos_site_id
 _symmetry_equiv_pos_as_xyz
  1  'x, y, z'
loop_
 _atom_site_type_symbol
 _atom_site_label
 _atom_site_symmetry_multiplicity
 _atom_site_fract_x
 _atom_site_fract_y
 _atom_site_fract_z
 _atom_site_occupancy
  Ge  Ge0  1  0.00000000  0.14568500  0.62799100  1
  Ge  Ge1  1  0.00000000  0.85431500  0.12799100  1
  Ge  Ge2  1  0.50000000  0.39128400  0.37843500  1
  Ge  Ge3  1  0.50000000  0.60871600  0.87843500  1
  Se  Se4  1  0.50000000  0.24282100  0.14682500  1
  Se  Se5  1  0.50000000  0.75717900  0.64682500  1
  S  S6  1  0.00000000  0.25885100  0.84674800  1
  S  S7  1  0.00000000  0.74114900  0.34674800  1
