# generated using pymatgen
data_GeTe(PbSe)2
_symmetry_space_group_name_H-M   'P 1'
_cell_length_a   4.32052576
_cell_length_b   4.32052576
_cell_length_c   10.83392300
_cell_angle_alpha   90.00000000
_cell_angle_beta   90.00000000
_cell_angle_gamma   119.99999637
_symmetry_Int_Tables_number   1
_chemical_formula_structural   GeTe(PbSe)2
_chemical_formula_sum   'Ge1 Te1 Pb2 Se2'
_cell_volume   175.14171195
_cell_formula_units_Z   1
loop_
 _symmetry_equiv_pos_site_id
 _symmetry_equiv_pos_as_xyz
  1  'x, y, z'
loop_
 _atom_site_type_symbol
 _atom_site_label
 _atom_site_symmetry_multiplicity
 _atom_site_fract_x
 _atom_site_fract_y
 _atom_site_fract_z
 _atom_site_occupancy
  Ge  Ge0  1  0.00000000  0.00000000  0.00620300  1
  Te  Te1  1  0.66666700  0.33333300  0.86465400  1
  Pb  Pb2  1  0.66666700  0.33333300  0.31331800  1
  Pb  Pb3  1  0.33333300  0.66666700  0.65422400  1
  Se  Se4  1  0.33333300  0.66666700  0.16036700  1
  Se  Se5  1  0.00000000  0.00000000  0.50123300  1
