# generated using pymatgen
data_InSnBr3
_symmetry_space_group_name_H-M   'P 1'
_cell_length_a   12.54999285
_cell_length_b   12.06325353
_cell_length_c   11.93547416
_cell_angle_alpha   63.05723904
_cell_angle_beta   58.96863430
_cell_angle_gamma   57.97412667
_symmetry_Int_Tables_number   1
_chemical_formula_structural   InSnBr3
_chemical_formula_sum   'In8 Sn8 Br24'
_cell_volume   1271.90242382
_cell_formula_units_Z   8
loop_
 _symmetry_equiv_pos_site_id
 _symmetry_equiv_pos_as_xyz
  1  'x, y, z'
loop_
 _atom_site_type_symbol
 _atom_site_label
 _atom_site_symmetry_multiplicity
 _atom_site_fract_x
 _atom_site_fract_y
 _atom_site_fract_z
 _atom_site_occupancy
  In  In0  1  0.00138300  0.50124300  0.49875700  1
  In  In1  1  0.50124300  0.00138300  0.99861700  1
  In  In2  1  0.64864200  0.01848000  0.35135800  1
  In  In3  1  0.47690400  0.52170300  0.85745900  1
  In  In4  1  0.14254100  0.85606600  0.52309600  1
  In  In5  1  0.01848000  0.64864200  0.98152000  1
  In  In6  1  0.52170300  0.47690400  0.14393400  1
  In  In7  1  0.85606600  0.14254100  0.47829700  1
  Sn  Sn8  1  0.64916000  0.64916000  0.35084000  1
  Sn  Sn9  1  0.36857400  0.36857400  0.63142600  1
  Sn  Sn10  1  0.14885800  0.84356200  0.15643800  1
  Sn  Sn11  1  0.84356200  0.14885800  0.85114200  1
  Sn  Sn12  1  0.75172700  0.75172700  0.74827300  1
  Sn  Sn13  1  0.25172700  0.25172700  0.24827300  1
  Sn  Sn14  1  0.98951900  0.33334300  0.01048100  1
  Sn  Sn15  1  0.33334300  0.98951900  0.66665700  1
  Br  Br16  1  0.87727000  0.14041000  0.12273000  1
  Br  Br17  1  0.38262300  0.61336800  0.61737700  1
  Br  Br18  1  0.14041000  0.87727000  0.85959000  1
  Br  Br19  1  0.61336800  0.38262300  0.38663200  1
  Br  Br20  1  0.18696300  0.18696300  0.81303700  1
  Br  Br21  1  0.81198700  0.81198700  0.18801300  1
  Br  Br22  1  0.69224100  0.31279500  0.68720500  1
  Br  Br23  1  0.31279500  0.69224100  0.30775900  1
  Br  Br24  1  0.92681100  0.83535900  0.43705400  1
  Br  Br25  1  0.80793800  0.43274700  0.84340700  1
  Br  Br26  1  0.41998500  0.93857600  0.35215300  1
  Br  Br27  1  0.29079100  0.33724900  0.93903900  1
  Br  Br28  1  0.64784700  0.71071400  0.58001500  1
  Br  Br29  1  0.06096100  0.56707800  0.70920900  1
  Br  Br30  1  0.56294600  0.19922400  0.07318900  1
  Br  Br31  1  0.15659300  0.08409300  0.19206200  1
  Br  Br32  1  0.08409300  0.15659300  0.56725300  1
  Br  Br33  1  0.19922400  0.56294600  0.16464100  1
  Br  Br34  1  0.56707800  0.06096100  0.66275100  1
  Br  Br35  1  0.71071400  0.64784700  0.06142400  1
  Br  Br36  1  0.33724900  0.29079100  0.43292200  1
  Br  Br37  1  0.93857600  0.41998500  0.28928600  1
  Br  Br38  1  0.43274700  0.80793800  0.91590700  1
  Br  Br39  1  0.83535900  0.92681100  0.80077600  1
