# generated using pymatgen
data_HfO2
_symmetry_space_group_name_H-M   'P 1'
_cell_length_a   4.93704200
_cell_length_b   5.13372400
_cell_length_c   5.21084800
_cell_angle_alpha   90.00000000
_cell_angle_beta   90.00000000
_cell_angle_gamma   90.00000000
_symmetry_Int_Tables_number   1
_chemical_formula_structural   HfO2
_chemical_formula_sum   'Hf4 O8'
_cell_volume   132.07108424
_cell_formula_units_Z   4
loop_
 _symmetry_equiv_pos_site_id
 _symmetry_equiv_pos_as_xyz
  1  'x, y, z'
loop_
 _atom_site_type_symbol
 _atom_site_label
 _atom_site_symmetry_multiplicity
 _atom_site_fract_x
 _atom_site_fract_y
 _atom_site_fract_z
 _atom_site_occupancy
  Hf  Hf0  1  0.72807400  0.27750200  0.28235600  1
  Hf  Hf1  1  0.27192600  0.77750200  0.21764400  1
  Hf  Hf2  1  0.72807400  0.72249800  0.71764400  1
  Hf  Hf3  1  0.27192600  0.22249800  0.78235600  1
  O  O4  1  0.42591600  0.50000000  0.50000000  1
  O  O5  1  0.57408400  0.00000000  0.00000000  1
  O  O6  1  0.51063000  0.50000000  0.00000000  1
  O  O7  1  0.48937000  0.00000000  0.50000000  1
  O  O8  1  0.89682600  0.31387000  0.66298400  1
  O  O9  1  0.10317400  0.81387000  0.83701600  1
  O  O10  1  0.89682600  0.68613000  0.33701600  1
  O  O11  1  0.10317400  0.18613000  0.16298400  1
