# generated using pymatgen
data_Sr2La4Mg2RuO12
_symmetry_space_group_name_H-M   'P 1'
_cell_length_a   3.94049126
_cell_length_b   3.94049080
_cell_length_c   41.44904041
_cell_angle_alpha   106.59147177
_cell_angle_beta   106.59147078
_cell_angle_gamma   89.72326667
_symmetry_Int_Tables_number   1
_chemical_formula_structural   Sr2La4Mg2RuO12
_chemical_formula_sum   'Sr4 La8 Mg4 Ru2 O24'
_cell_volume   589.05689454
_cell_formula_units_Z   2
loop_
 _symmetry_equiv_pos_site_id
 _symmetry_equiv_pos_as_xyz
  1  'x, y, z'
loop_
 _atom_site_type_symbol
 _atom_site_label
 _atom_site_symmetry_multiplicity
 _atom_site_fract_x
 _atom_site_fract_y
 _atom_site_fract_z
 _atom_site_occupancy
  Sr  Sr0  1  0.35661800  0.35661800  0.95096400  1
  Sr  Sr1  1  0.35264200  0.35264200  0.11799200  1
  Sr  Sr2  1  0.64338200  0.64338200  0.21570200  1
  Sr  Sr3  1  0.64735800  0.64735800  0.04867500  1
  La  La4  1  0.34330100  0.34330100  0.78654100  1
  La  La5  1  0.66300900  0.66300900  0.87782200  1
  La  La6  1  0.34760400  0.34760400  0.62080000  1
  La  La7  1  0.64937200  0.64937200  0.71165900  1
  La  La8  1  0.35062800  0.35062800  0.45500700  1
  La  La9  1  0.65239600  0.65239600  0.54586700  1
  La  La10  1  0.33699100  0.33699100  0.28884500  1
  La  La11  1  0.65669900  0.65669900  0.38012600  1
  Mg  Mg12  1  0.99689300  0.99689300  0.83218800  1
  Mg  Mg13  1  0.99926700  0.99926700  0.66636200  1
  Mg  Mg14  1  0.00310700  0.00310700  0.33447800  1
  Mg  Mg15  1  0.00073300  0.00073300  0.50030500  1
  Ru  Ru16  1  0.00126900  0.00126900  0.16740400  1
  Ru  Ru17  1  0.99873100  0.99873100  0.99926300  1
  O  O18  1  0.99404900  0.49499600  0.83189100  1
  O  O19  1  0.13284500  0.13284500  0.88923900  1
  O  O20  1  0.99894300  0.49899200  0.66624800  1
  O  O21  1  0.15725500  0.15725500  0.72540600  1
  O  O22  1  0.49499600  0.99404900  0.83189100  1
  O  O23  1  0.00105700  0.50100800  0.50041900  1
  O  O24  1  0.15858600  0.15858600  0.55964800  1
  O  O25  1  0.83466500  0.83466500  0.94351800  1
  O  O26  1  0.49899200  0.99894300  0.66624800  1
  O  O27  1  0.00595100  0.50500400  0.33477500  1
  O  O28  1  0.16144600  0.16144600  0.39392600  1
  O  O29  1  0.83855400  0.83855400  0.77274000  1
  O  O30  1  0.50100800  0.00105700  0.50041900  1
  O  O31  1  0.00037200  0.50019400  0.16696900  1
  O  O32  1  0.16533500  0.16533500  0.22314900  1
  O  O33  1  0.84141400  0.84141400  0.60701900  1
  O  O34  1  0.50500400  0.00595100  0.33477500  1
  O  O35  1  0.15979200  0.15979200  0.05408700  1
  O  O36  1  0.84274500  0.84274500  0.44126100  1
  O  O37  1  0.50019400  0.00037200  0.16696900  1
  O  O38  1  0.86715500  0.86715500  0.27742700  1
  O  O39  1  0.49980600  0.99962800  0.99969800  1
  O  O40  1  0.84020800  0.84020800  0.11258000  1
  O  O41  1  0.99962800  0.49980600  0.99969800  1
