# generated using pymatgen
data_Na3CrC6O17
_symmetry_space_group_name_H-M   'P 1'
_cell_length_a   10.73770272
_cell_length_b   10.73770272
_cell_length_c   14.18375336
_cell_angle_alpha   80.26654810
_cell_angle_beta   80.26654810
_cell_angle_gamma   75.07630026
_symmetry_Int_Tables_number   1
_chemical_formula_structural   Na3CrC6O17
_chemical_formula_sum   'Na12 Cr4 C24 O68'
_cell_volume   1543.86601607
_cell_formula_units_Z   4
loop_
 _symmetry_equiv_pos_site_id
 _symmetry_equiv_pos_as_xyz
  1  'x, y, z'
loop_
 _atom_site_type_symbol
 _atom_site_label
 _atom_site_symmetry_multiplicity
 _atom_site_fract_x
 _atom_site_fract_y
 _atom_site_fract_z
 _atom_site_occupancy
  Na  Na0  1  0.75565500  0.02298500  0.96187000  1
  Na  Na1  1  0.02298500  0.75565500  0.46187000  1
  Na  Na2  1  0.35228800  0.34739400  0.71572800  1
  Na  Na3  1  0.34739400  0.35228800  0.21572800  1
  Na  Na4  1  0.93367000  0.66399700  0.96624200  1
  Na  Na5  1  0.66399700  0.93367000  0.46624200  1
  Na  Na6  1  0.58757200  0.38101600  0.93898700  1
  Na  Na7  1  0.38101600  0.58757200  0.43898700  1
  Na  Na8  1  0.07838800  0.62118300  0.71638400  1
  Na  Na9  1  0.62118300  0.07838800  0.21638400  1
  Na  Na10  1  0.11575600  0.28996900  0.99456800  1
  Na  Na11  1  0.28996900  0.11575600  0.49456800  1
  Cr  Cr12  1  0.90779500  0.17522500  0.72330800  1
  Cr  Cr13  1  0.17522500  0.90779500  0.22330800  1
  Cr  Cr14  1  0.52437200  0.79272300  0.70654800  1
  Cr  Cr15  1  0.79272300  0.52437200  0.20654800  1
  C  C16  1  0.38993300  0.05552200  0.68111900  1
  C  C17  1  0.05552200  0.38993300  0.18111900  1
  C  C18  1  0.96111900  0.90458900  0.78141200  1
  C  C19  1  0.90458900  0.96111900  0.28141200  1
  C  C20  1  0.07617400  0.30154900  0.77717100  1
  C  C21  1  0.30154900  0.07617400  0.27717100  1
  C  C22  1  0.33721900  0.64807700  0.75820700  1
  C  C23  1  0.64807700  0.33721900  0.25820700  1
  C  C24  1  0.66256700  0.23936800  0.65781800  1
  C  C25  1  0.23936800  0.66256700  0.15781800  1
  C  C26  1  0.39945600  0.62341800  0.65229700  1
  C  C27  1  0.62341800  0.39945600  0.15229700  1
  C  C28  1  0.64434900  0.31027600  0.74916900  1
  C  C29  1  0.31027600  0.64434900  0.24916900  1
  C  C30  1  0.46046200  0.03612900  0.77287800  1
  C  C31  1  0.03612900  0.46046200  0.27287800  1
  C  C32  1  0.05240500  0.36321600  0.67108100  1
  C  C33  1  0.36321600  0.05240500  0.17108100  1
  C  C34  1  0.79538300  0.74270100  0.65146100  1
  C  C35  1  0.74270100  0.79538300  0.15146100  1
  C  C36  1  0.77134400  0.64518800  0.74434400  1
  C  C37  1  0.64518800  0.77134400  0.24434400  1
  C  C38  1  0.05518200  0.92777700  0.68638300  1
  C  C39  1  0.92777700  0.05518200  0.18638300  1
  O  O40  1  0.54769900  0.15563000  0.95368500  1
  O  O41  1  0.15563000  0.54769900  0.45368500  1
  O  O42  1  0.41530800  0.95290800  0.63786300  1
  O  O43  1  0.95290800  0.41530800  0.13786300  1
  O  O44  1  0.02275800  0.20579800  0.81026200  1
  O  O45  1  0.20579800  0.02275800  0.31026200  1
  O  O46  1  0.65183000  0.64657300  0.77434900  1
  O  O47  1  0.64657300  0.65183000  0.27434900  1
  O  O48  1  0.18596700  0.94009300  0.93921500  1
  O  O49  1  0.94009300  0.18596700  0.43921500  1
  O  O50  1  0.56774000  0.25489800  0.61401500  1
  O  O51  1  0.25489800  0.56774000  0.11401500  1
  O  O52  1  0.74769200  0.28586200  0.79149800  1
  O  O53  1  0.28586200  0.74769200  0.29149800  1
  O  O54  1  0.31918300  0.16171300  0.65288600  1
  O  O55  1  0.16171300  0.31918300  0.15288600  1
  O  O56  1  0.05205100  0.04721600  0.65447600  1
  O  O57  1  0.04721600  0.05205100  0.15447600  1
  O  O58  1  0.84589500  0.22291100  0.99045000  1
  O  O59  1  0.22291100  0.84589500  0.49045000  1
  O  O60  1  0.15014700  0.53902800  0.97603600  1
  O  O61  1  0.53902800  0.15014700  0.47603600  1
  O  O62  1  0.96412800  0.79309600  0.82315300  1
  O  O63  1  0.79309600  0.96412800  0.32315300  1
  O  O64  1  0.11586500  0.44298600  0.62838800  1
  O  O65  1  0.44298600  0.11586500  0.12838800  1
  O  O66  1  0.49363700  0.67901900  0.61891700  1
  O  O67  1  0.67901900  0.49363700  0.11891700  1
  O  O68  1  0.07506900  0.91521500  0.97434200  1
  O  O69  1  0.91521500  0.07506900  0.47434200  1
  O  O70  1  0.14137900  0.34643200  0.82198900  1
  O  O71  1  0.34643200  0.14137900  0.32198900  1
  O  O72  1  0.69045900  0.81839600  0.62222500  1
  O  O73  1  0.81839600  0.69045900  0.12222500  1
  O  O74  1  0.86862800  0.57498000  0.78018000  1
  O  O75  1  0.57498000  0.86862800  0.28018000  1
  O  O76  1  0.84607500  0.47746700  0.93920000  1
  O  O77  1  0.47746700  0.84607500  0.43920000  1
  O  O78  1  0.35618200  0.55601900  0.60843900  1
  O  O79  1  0.55601900  0.35618200  0.10843900  1
  O  O80  1  0.76042500  0.55430400  0.48404300  1
  O  O81  1  0.55430400  0.76042500  0.98404300  1
  O  O82  1  0.88471600  0.00987400  0.80997400  1
  O  O83  1  0.00987400  0.88471600  0.30997400  1
  O  O84  1  0.25751600  0.58456800  0.80057100  1
  O  O85  1  0.58456800  0.25751600  0.30057100  1
  O  O86  1  0.90755500  0.74177500  0.61182700  1
  O  O87  1  0.74177500  0.90755500  0.11182700  1
  O  O88  1  0.53786900  0.37964800  0.77840600  1
  O  O89  1  0.37964800  0.53786900  0.27840600  1
  O  O90  1  0.37578500  0.73444400  0.79076900  1
  O  O91  1  0.73444400  0.37578500  0.29076900  1
  O  O92  1  0.12477500  0.83028400  0.65056700  1
  O  O93  1  0.83028400  0.12477500  0.15056700  1
  O  O94  1  0.44586000  0.13134300  0.81637200  1
  O  O95  1  0.13134300  0.44586000  0.31637200  1
  O  O96  1  0.96643200  0.32403900  0.63840700  1
  O  O97  1  0.32403900  0.96643200  0.13840700  1
  O  O98  1  0.66850200  0.78438100  0.95522000  1
  O  O99  1  0.78438100  0.66850200  0.45522000  1
  O  O100  1  0.53080500  0.92073500  0.79251600  1
  O  O101  1  0.92073500  0.53080500  0.29251600  1
  O  O102  1  0.77759600  0.16711500  0.63943200  1
  O  O103  1  0.16711500  0.77759600  0.13943200  1
  O  O104  1  0.21366800  0.03944600  0.96332200  1
  O  O105  1  0.03944600  0.21366800  0.46332200  1
  O  O106  1  0.54120500  0.64721300  0.97753200  1
  O  O107  1  0.64721300  0.54120500  0.47753200  1
