# generated using pymatgen
data_GeBiPd6
_symmetry_space_group_name_H-M   'P 1'
_cell_length_a   7.85968564
_cell_length_b   7.85968564
_cell_length_c   7.85968523
_cell_angle_alpha   33.74172092
_cell_angle_beta   33.74172092
_cell_angle_gamma   33.74172241
_symmetry_Int_Tables_number   1
_chemical_formula_structural   GeBiPd6
_chemical_formula_sum   'Ge1 Bi1 Pd6'
_cell_volume   133.46904550
_cell_formula_units_Z   1
loop_
 _symmetry_equiv_pos_site_id
 _symmetry_equiv_pos_as_xyz
  1  'x, y, z'
loop_
 _atom_site_type_symbol
 _atom_site_label
 _atom_site_symmetry_multiplicity
 _atom_site_fract_x
 _atom_site_fract_y
 _atom_site_fract_z
 _atom_site_occupancy
  Ge  Ge0  1  0.50000000  0.50000000  0.50000000  1
  Bi  Bi1  1  0.00000000  0.00000000  0.00000000  1
  Pd  Pd2  1  0.61205200  0.61205200  0.61205200  1
  Pd  Pd3  1  0.13339300  0.13339300  0.13339300  1
  Pd  Pd4  1  0.86660700  0.86660700  0.86660700  1
  Pd  Pd5  1  0.38794800  0.38794800  0.38794800  1
  Pd  Pd6  1  0.25488800  0.25488800  0.25488800  1
  Pd  Pd7  1  0.74511200  0.74511200  0.74511200  1
