# generated using pymatgen
data_K3Sm4(CuTe2)5
_symmetry_space_group_name_H-M   'P 1'
_cell_length_a   4.39017000
_cell_length_b   16.71750100
_cell_length_c   18.07974600
_cell_angle_alpha   90.00000000
_cell_angle_beta   90.00000000
_cell_angle_gamma   90.00000000
_symmetry_Int_Tables_number   1
_chemical_formula_structural   K3Sm4(CuTe2)5
_chemical_formula_sum   'K6 Sm8 Cu10 Te20'
_cell_volume   1326.92085654
_cell_formula_units_Z   2
loop_
 _symmetry_equiv_pos_site_id
 _symmetry_equiv_pos_as_xyz
  1  'x, y, z'
loop_
 _atom_site_type_symbol
 _atom_site_label
 _atom_site_symmetry_multiplicity
 _atom_site_fract_x
 _atom_site_fract_y
 _atom_site_fract_z
 _atom_site_occupancy
  K  K0  1  0.50000000  0.07830600  0.33664900  1
  K  K1  1  0.50000000  0.42302800  0.66152400  1
  K  K2  1  0.00000000  0.57697200  0.16152400  1
  K  K3  1  0.00000000  0.92169400  0.83664900  1
  K  K4  1  0.50000000  0.24960000  0.49878600  1
  K  K5  1  0.00000000  0.75040000  0.99878600  1
  Sm  Sm6  1  0.50000000  0.31408300  0.21549600  1
  Sm  Sm7  1  0.50000000  0.18313500  0.78516900  1
  Sm  Sm8  1  0.00000000  0.81686500  0.28516900  1
  Sm  Sm9  1  0.00000000  0.68591700  0.71549600  1
  Sm  Sm10  1  0.50000000  0.53545100  0.44894400  1
  Sm  Sm11  1  0.50000000  0.95969400  0.55368300  1
  Sm  Sm12  1  0.00000000  0.04030600  0.05368300  1
  Sm  Sm13  1  0.00000000  0.46454900  0.94894400  1
  Cu  Cu14  1  0.50000000  0.31346500  0.04098600  1
  Cu  Cu15  1  0.50000000  0.18493800  0.96005200  1
  Cu  Cu16  1  0.00000000  0.81506200  0.46005200  1
  Cu  Cu17  1  0.00000000  0.68653500  0.54098600  1
  Cu  Cu18  1  0.50000000  0.59159300  0.84550400  1
  Cu  Cu19  1  0.50000000  0.91045700  0.15472300  1
  Cu  Cu20  1  0.00000000  0.08954300  0.65472300  1
  Cu  Cu21  1  0.00000000  0.40840700  0.34550400  1
  Cu  Cu22  1  0.50000000  0.65732200  0.30909600  1
  Cu  Cu23  1  0.00000000  0.34267800  0.80909600  1
  Te  Te24  1  0.50000000  0.87860800  0.39810200  1
  Te  Te25  1  0.50000000  0.62090100  0.60009100  1
  Te  Te26  1  0.00000000  0.37909900  0.10009100  1
  Te  Te27  1  0.00000000  0.12139200  0.89810200  1
  Te  Te28  1  0.50000000  0.33331800  0.89426500  1
  Te  Te29  1  0.50000000  0.16563200  0.10315900  1
  Te  Te30  1  0.00000000  0.83436800  0.60315900  1
  Te  Te31  1  0.00000000  0.66668200  0.39426500  1
  Te  Te32  1  0.50000000  0.74334600  0.18431800  1
  Te  Te33  1  0.50000000  0.74835200  0.81840200  1
  Te  Te34  1  0.00000000  0.25164800  0.31840200  1
  Te  Te35  1  0.00000000  0.25665400  0.68431800  1
  Te  Te36  1  0.50000000  0.58199900  0.99337000  1
  Te  Te37  1  0.50000000  0.91729200  0.00806700  1
  Te  Te38  1  0.00000000  0.08270800  0.50806700  1
  Te  Te39  1  0.00000000  0.41800100  0.49337000  1
  Te  Te40  1  0.50000000  0.48350200  0.28666400  1
  Te  Te41  1  0.50000000  0.02150900  0.71315100  1
  Te  Te42  1  0.00000000  0.97849100  0.21315100  1
  Te  Te43  1  0.00000000  0.51649800  0.78666300  1
