# generated using pymatgen
data_Hf2Te3
_symmetry_space_group_name_H-M   'P 1'
_cell_length_a   7.79230124
_cell_length_b   7.79230124
_cell_length_c   7.79230100
_cell_angle_alpha   53.31738920
_cell_angle_beta   53.31738920
_cell_angle_gamma   53.31739763
_symmetry_Int_Tables_number   1
_chemical_formula_structural   Hf2Te3
_chemical_formula_sum   'Hf4 Te6'
_cell_volume   282.21787343
_cell_formula_units_Z   2
loop_
 _symmetry_equiv_pos_site_id
 _symmetry_equiv_pos_as_xyz
  1  'x, y, z'
loop_
 _atom_site_type_symbol
 _atom_site_label
 _atom_site_symmetry_multiplicity
 _atom_site_fract_x
 _atom_site_fract_y
 _atom_site_fract_z
 _atom_site_occupancy
  Hf  Hf0  1  0.00000000  0.00000000  0.00000000  1
  Hf  Hf1  1  0.33986600  0.33986600  0.33986600  1
  Hf  Hf2  1  0.66013400  0.66013400  0.66013400  1
  Hf  Hf3  1  0.50000000  0.50000000  0.50000000  1
  Te  Te4  1  0.92771400  0.57590100  0.23261100  1
  Te  Te5  1  0.57590100  0.23261100  0.92771400  1
  Te  Te6  1  0.23261100  0.92771400  0.57590100  1
  Te  Te7  1  0.76738900  0.07228600  0.42409900  1
  Te  Te8  1  0.42409900  0.76738900  0.07228600  1
  Te  Te9  1  0.07228600  0.42409900  0.76738900  1
