# generated using pymatgen
data_K3Nb4Mo4(PO4)12
_symmetry_space_group_name_H-M   'P 1'
_cell_length_a   12.65660600
_cell_length_b   9.02434600
_cell_length_c   9.33531340
_cell_angle_alpha   89.77907287
_cell_angle_beta   90.00000000
_cell_angle_gamma   90.00000000
_symmetry_Int_Tables_number   1
_chemical_formula_structural   K3Nb4Mo4(PO4)12
_chemical_formula_sum   'K3 Nb4 Mo4 P12 O48'
_cell_volume   1066.24908789
_cell_formula_units_Z   1
loop_
 _symmetry_equiv_pos_site_id
 _symmetry_equiv_pos_as_xyz
  1  'x, y, z'
loop_
 _atom_site_type_symbol
 _atom_site_label
 _atom_site_symmetry_multiplicity
 _atom_site_fract_x
 _atom_site_fract_y
 _atom_site_fract_z
 _atom_site_occupancy
  K  K0  1  0.50000000  0.16873100  0.65681000  1
  K  K1  1  0.00000000  0.83661000  0.33482300  1
  K  K2  1  0.00000000  0.16361900  0.83596000  1
  Nb  Nb3  1  0.65046000  0.75440000  0.52337900  1
  Nb  Nb4  1  0.34973000  0.24533700  0.02633600  1
  Nb  Nb5  1  0.34954000  0.75440000  0.52337900  1
  Nb  Nb6  1  0.65027000  0.24533700  0.02633600  1
  Mo  Mo7  1  0.14684300  0.24839800  0.47207700  1
  Mo  Mo8  1  0.85301200  0.75102900  0.97198900  1
  Mo  Mo9  1  0.85315700  0.24839800  0.47207700  1
  Mo  Mo10  1  0.14698800  0.75102900  0.97198900  1
  P  P11  1  0.75067600  0.02887400  0.75069300  1
  P  P12  1  0.24906900  0.97136400  0.25036300  1
  P  P13  1  0.75093100  0.97136400  0.25036300  1
  P  P14  1  0.24932400  0.02887400  0.75069300  1
  P  P15  1  0.61831500  0.59799400  0.86684600  1
  P  P16  1  0.11673400  0.40258900  0.13191500  1
  P  P17  1  0.88355100  0.59661700  0.63246300  1
  P  P18  1  0.38095600  0.40291900  0.36653700  1
  P  P19  1  0.88326600  0.40258900  0.13191500  1
  P  P20  1  0.38168500  0.59799400  0.86684600  1
  P  P21  1  0.61904400  0.40291900  0.36653700  1
  P  P22  1  0.11644900  0.59661700  0.63246300  1
  O  O23  1  0.63015300  0.56896300  0.40126400  1
  O  O24  1  0.12678700  0.43397400  0.60079800  1
  O  O25  1  0.87359400  0.56582700  0.10127600  1
  O  O26  1  0.37110100  0.43019700  0.89988500  1
  O  O27  1  0.87321300  0.43397400  0.60079800  1
  O  O28  1  0.36984700  0.56896300  0.40126400  1
  O  O29  1  0.62889900  0.43019700  0.89988500  1
  O  O30  1  0.12640600  0.56582700  0.10127600  1
  O  O31  1  0.80989600  0.69802600  0.54196300  1
  O  O32  1  0.31597400  0.30026200  0.45998600  1
  O  O33  1  0.68680000  0.69688400  0.95672700  1
  O  O34  1  0.18917100  0.30254700  0.03978900  1
  O  O35  1  0.68402600  0.30026200  0.45998600  1
  O  O36  1  0.19010400  0.69802600  0.54196300  1
  O  O37  1  0.81082900  0.30254700  0.03978900  1
  O  O38  1  0.31320000  0.69688400  0.95672700  1
  O  O39  1  0.62871100  0.62336200  0.70377600  1
  O  O40  1  0.12648300  0.37862900  0.29099900  1
  O  O41  1  0.87468400  0.62033000  0.79139100  1
  O  O42  1  0.37068000  0.37815400  0.20541400  1
  O  O43  1  0.87351700  0.37862900  0.29099900  1
  O  O44  1  0.37128900  0.62336200  0.70377600  1
  O  O45  1  0.62932000  0.37815400  0.20541400  1
  O  O46  1  0.12531600  0.62033000  0.79139100  1
  O  O47  1  0.50000000  0.79043500  0.52164700  1
  O  O48  1  0.00000000  0.18434000  0.48946900  1
  O  O49  1  0.00000000  0.81506200  0.99158500  1
  O  O50  1  0.50000000  0.21155400  0.01734700  1
  O  O51  1  0.50000000  0.64436800  0.91051000  1
  O  O52  1  0.00000000  0.34628500  0.08051500  1
  O  O53  1  0.00000000  0.65313400  0.57912700  1
  O  O54  1  0.50000000  0.35569400  0.41268600  1
  O  O55  1  0.67576900  0.93244500  0.65384600  1
  O  O56  1  0.17711000  0.06237200  0.34522400  1
  O  O57  1  0.82294500  0.93776600  0.84549500  1
  O  O58  1  0.32246300  0.07111300  0.15449700  1
  O  O59  1  0.82289000  0.06237200  0.34522400  1
  O  O60  1  0.32423100  0.93244500  0.65384600  1
  O  O61  1  0.67753700  0.07111300  0.15449700  1
  O  O62  1  0.17705500  0.93776600  0.84549500  1
  O  O63  1  0.67660400  0.87547200  0.35094900  1
  O  O64  1  0.18070000  0.13141700  0.66166300  1
  O  O65  1  0.81849300  0.86847900  0.16182100  1
  O  O66  1  0.32619900  0.12455200  0.84581900  1
  O  O67  1  0.81930000  0.13141700  0.66166300  1
  O  O68  1  0.32339600  0.87547200  0.35094900  1
  O  O69  1  0.67380100  0.12455200  0.84581900  1
  O  O70  1  0.18150700  0.86847900  0.16182100  1
