# generated using pymatgen
data_H2CBrCl
_symmetry_space_group_name_H-M   'P 1'
_cell_length_a   6.78590675
_cell_length_b   6.78590675
_cell_length_c   16.62209401
_cell_angle_alpha   69.99201230
_cell_angle_beta   69.99201230
_cell_angle_gamma   41.99004290
_symmetry_Int_Tables_number   1
_chemical_formula_structural   H2CBrCl
_chemical_formula_sum   'H8 C4 Br4 Cl4'
_cell_volume   476.44211096
_cell_formula_units_Z   4
loop_
 _symmetry_equiv_pos_site_id
 _symmetry_equiv_pos_as_xyz
  1  'x, y, z'
loop_
 _atom_site_type_symbol
 _atom_site_label
 _atom_site_symmetry_multiplicity
 _atom_site_fract_x
 _atom_site_fract_y
 _atom_site_fract_z
 _atom_site_occupancy
  H  H0  1  0.21291400  0.44113600  0.54122600  1
  H  H1  1  0.55886400  0.78708600  0.95877400  1
  H  H2  1  0.78708600  0.55886400  0.45877400  1
  H  H3  1  0.44113600  0.21291400  0.04122600  1
  H  H4  1  0.04681400  0.50582100  0.65275200  1
  H  H5  1  0.49417900  0.95318600  0.84724800  1
  H  H6  1  0.95318600  0.49417900  0.34724800  1
  H  H7  1  0.50582100  0.04681400  0.15275200  1
  C  C8  1  0.23956800  0.34646000  0.60913900  1
  C  C9  1  0.65354000  0.76043200  0.89086100  1
  C  C10  1  0.76043200  0.65354000  0.39086100  1
  C  C11  1  0.34646000  0.23956800  0.10913900  1
  Br  Br12  1  0.57568200  0.24465800  0.63005200  1
  Br  Br13  1  0.75534200  0.42431800  0.86994800  1
  Br  Br14  1  0.42431800  0.75534200  0.36994800  1
  Br  Br15  1  0.24465800  0.57568200  0.13005200  1
  Cl  Cl16  1  0.29722000  0.03433800  0.63017000  1
  Cl  Cl17  1  0.96566200  0.70278000  0.86983000  1
  Cl  Cl18  1  0.70278000  0.96566200  0.36983000  1
  Cl  Cl19  1  0.03433800  0.29722000  0.13017000  1
