# generated using pymatgen
data_Hf(Ti2Se5)2
_symmetry_space_group_name_H-M   'P 1'
_cell_length_a   3.60750837
_cell_length_b   3.60750837
_cell_length_c   34.02445700
_cell_angle_alpha   90.00000000
_cell_angle_beta   90.00000000
_cell_angle_gamma   120.00000679
_symmetry_Int_Tables_number   1
_chemical_formula_structural   Hf(Ti2Se5)2
_chemical_formula_sum   'Hf1 Ti4 Se10'
_cell_volume   383.47450881
_cell_formula_units_Z   1
loop_
 _symmetry_equiv_pos_site_id
 _symmetry_equiv_pos_as_xyz
  1  'x, y, z'
loop_
 _atom_site_type_symbol
 _atom_site_label
 _atom_site_symmetry_multiplicity
 _atom_site_fract_x
 _atom_site_fract_y
 _atom_site_fract_z
 _atom_site_occupancy
  Hf  Hf0  1  0.00000000  0.00000000  0.00000000  1
  Ti  Ti1  1  0.00000000  0.00000000  0.79904000  1
  Ti  Ti2  1  0.00000000  0.00000000  0.60007300  1
  Ti  Ti3  1  0.00000000  0.00000000  0.39992700  1
  Ti  Ti4  1  0.00000000  0.00000000  0.20096000  1
  Se  Se5  1  0.66666700  0.33333300  0.75426600  1
  Se  Se6  1  0.66666700  0.33333300  0.55525700  1
  Se  Se7  1  0.66666700  0.33333300  0.35511300  1
  Se  Se8  1  0.66666700  0.33333300  0.15612100  1
  Se  Se9  1  0.66666700  0.33333300  0.95164400  1
  Se  Se10  1  0.33333300  0.66666700  0.64488700  1
  Se  Se11  1  0.33333300  0.66666700  0.44474300  1
  Se  Se12  1  0.33333300  0.66666700  0.24573400  1
  Se  Se13  1  0.33333300  0.66666700  0.04835600  1
  Se  Se14  1  0.33333300  0.66666700  0.84387900  1
