# generated using pymatgen
data_K4PdPt(NO2)8
_symmetry_space_group_name_H-M   'P 1'
_cell_length_a   12.95841400
_cell_length_b   7.90730500
_cell_length_c   9.52911712
_cell_angle_alpha   83.78726566
_cell_angle_beta   90.00000000
_cell_angle_gamma   90.00000000
_symmetry_Int_Tables_number   1
_chemical_formula_structural   K4PdPt(NO2)8
_chemical_formula_sum   'K8 Pd2 Pt2 N16 O32'
_cell_volume   970.67724153
_cell_formula_units_Z   2
loop_
 _symmetry_equiv_pos_site_id
 _symmetry_equiv_pos_as_xyz
  1  'x, y, z'
loop_
 _atom_site_type_symbol
 _atom_site_label
 _atom_site_symmetry_multiplicity
 _atom_site_fract_x
 _atom_site_fract_y
 _atom_site_fract_z
 _atom_site_occupancy
  K  K0  1  0.65647800  0.08267900  0.18490000  1
  K  K1  1  0.15647800  0.41732100  0.81510000  1
  K  K2  1  0.34352200  0.91732100  0.81510000  1
  K  K3  1  0.84352200  0.58267900  0.18490000  1
  K  K4  1  0.81941000  0.35150600  0.65517200  1
  K  K5  1  0.31941000  0.14849400  0.34482800  1
  K  K6  1  0.18059000  0.64849400  0.34482800  1
  K  K7  1  0.68059000  0.85150600  0.65517200  1
  Pd  Pd8  1  0.50000000  0.50000000  0.50000000  1
  Pd  Pd9  1  0.00000000  0.00000000  0.50000000  1
  Pt  Pt10  1  0.00000000  0.00000000  0.00000000  1
  Pt  Pt11  1  0.50000000  0.50000000  0.00000000  1
  N  N12  1  0.52370000  0.24659200  0.58202300  1
  N  N13  1  0.02370000  0.25340800  0.41797700  1
  N  N14  1  0.47630000  0.75340800  0.41797700  1
  N  N15  1  0.97630000  0.74659200  0.58202300  1
  N  N16  1  0.93218400  0.23109900  0.01192000  1
  N  N17  1  0.43218400  0.26890100  0.98808000  1
  N  N18  1  0.06781600  0.76890100  0.98808000  1
  N  N19  1  0.56781600  0.73109900  0.01192000  1
  N  N20  1  0.63837800  0.48916200  0.39462300  1
  N  N21  1  0.13837800  0.01083800  0.60537700  1
  N  N22  1  0.36162200  0.51083800  0.60537700  1
  N  N23  1  0.86162200  0.98916200  0.39462300  1
  N  N24  1  0.12743500  0.06765400  0.10873600  1
  N  N25  1  0.62743500  0.43234600  0.89126400  1
  N  N26  1  0.87256500  0.93234600  0.89126400  1
  N  N27  1  0.37256500  0.56765400  0.10873600  1
  O  O28  1  0.64999600  0.39827300  0.29666900  1
  O  O29  1  0.14999600  0.10172700  0.70333100  1
  O  O30  1  0.35000400  0.60172700  0.70333100  1
  O  O31  1  0.85000400  0.89827300  0.29666900  1
  O  O32  1  0.61136300  0.20041400  0.62540900  1
  O  O33  1  0.11136300  0.29958600  0.37459100  1
  O  O34  1  0.38863700  0.79958600  0.37459100  1
  O  O35  1  0.88863700  0.70041400  0.62540900  1
  O  O36  1  0.17394400  0.20365200  0.07101300  1
  O  O37  1  0.67394400  0.29634800  0.92898700  1
  O  O38  1  0.82605600  0.79634800  0.92898700  1
  O  O39  1  0.32605600  0.70365200  0.07101300  1
  O  O40  1  0.87191700  0.25072600  0.11135800  1
  O  O41  1  0.37191700  0.24927400  0.88864200  1
  O  O42  1  0.12808300  0.74927400  0.88864200  1
  O  O43  1  0.62808300  0.75072600  0.11135800  1
  O  O44  1  0.94992900  0.35174800  0.91854600  1
  O  O45  1  0.44992900  0.14825200  0.08145400  1
  O  O46  1  0.05007100  0.64825200  0.08145400  1
  O  O47  1  0.55007100  0.85174800  0.91854600  1
  O  O48  1  0.45133800  0.14125800  0.58649400  1
  O  O49  1  0.95133800  0.35874200  0.41350600  1
  O  O50  1  0.54866200  0.85874200  0.41350600  1
  O  O51  1  0.04866200  0.64125800  0.58649400  1
  O  O52  1  0.71279000  0.57408800  0.43409200  1
  O  O53  1  0.21279000  0.92591200  0.56590800  1
  O  O54  1  0.28721000  0.42591200  0.56590800  1
  O  O55  1  0.78721000  0.07408800  0.43409200  1
  O  O56  1  0.15948000  0.97182900  0.21315400  1
  O  O57  1  0.65948000  0.52817100  0.78684600  1
  O  O58  1  0.84052000  0.02817100  0.78684600  1
  O  O59  1  0.34052000  0.47182900  0.21315400  1
