# generated using pymatgen
data_In6Sn8S19
_symmetry_space_group_name_H-M   'P 1'
_cell_length_a   3.86470300
_cell_length_b   15.06539956
_cell_length_c   15.09622044
_cell_angle_alpha   62.50061093
_cell_angle_beta   83.30818998
_cell_angle_gamma   82.83868943
_symmetry_Int_Tables_number   1
_chemical_formula_structural   In6Sn8S19
_chemical_formula_sum   'In6 Sn8 S19'
_cell_volume   771.82384578
_cell_formula_units_Z   1
loop_
 _symmetry_equiv_pos_site_id
 _symmetry_equiv_pos_as_xyz
  1  'x, y, z'
loop_
 _atom_site_type_symbol
 _atom_site_label
 _atom_site_symmetry_multiplicity
 _atom_site_fract_x
 _atom_site_fract_y
 _atom_site_fract_z
 _atom_site_occupancy
  In  In0  1  0.39547400  0.07669900  0.13518500  1
  In  In1  1  0.60530400  0.92154500  0.86486100  1
  In  In2  1  0.98608000  0.14538100  0.88400400  1
  In  In3  1  0.01417200  0.85420400  0.11584100  1
  In  In4  1  0.25664000  0.89240400  0.59476800  1
  In  In5  1  0.20940500  0.34537400  0.23440800  1
  Sn  Sn6  1  0.67152900  0.59740300  0.06990800  1
  Sn  Sn7  1  0.32598500  0.39870400  0.93902400  1
  Sn  Sn8  1  0.57553300  0.22620800  0.61758900  1
  Sn  Sn9  1  0.42300200  0.77614100  0.38029700  1
  Sn  Sn10  1  0.74319400  0.10845800  0.40629900  1
  Sn  Sn11  1  0.79051200  0.65401500  0.76447000  1
  Sn  Sn12  1  0.64428500  0.53235400  0.36688300  1
  Sn  Sn13  1  0.35564200  0.47038900  0.63226600  1
  S  S14  1  0.67330500  0.29422300  0.36592300  1
  S  S15  1  0.32826300  0.69945700  0.63460200  1
  S  S16  1  0.91878200  0.94546300  0.22683200  1
  S  S17  1  0.08218700  0.05225800  0.77278900  1
  S  S18  1  0.71554700  0.84239900  0.73351300  1
  S  S19  1  0.28633300  0.15053100  0.26984300  1
  S  S20  1  0.80292200  0.92107300  0.46407400  1
  S  S21  1  0.19708500  0.08554000  0.53263800  1
  S  S22  1  0.88792200  0.19787200  0.02679300  1
  S  S23  1  0.11160900  0.80213200  0.97469700  1
  S  S24  1  0.74988000  0.40565100  0.09444600  1
  S  S25  1  0.25253600  0.59943900  0.89870600  1
  S  S26  1  0.52656000  0.73765000  0.22053900  1
  S  S27  1  0.47270100  0.26264400  0.78037100  1
  S  S28  1  0.96481300  0.62811600  0.44917600  1
  S  S29  1  0.03559300  0.37231200  0.55021000  1
  S  S30  1  0.49929500  0.00125900  0.99941700  1
  S  S31  1  0.86469300  0.47280600  0.78386300  1
  S  S32  1  0.13321600  0.52989600  0.21576200  1
