# generated using pymatgen
data_K5HfIn(MoO4)6
_symmetry_space_group_name_H-M   'P 1'
_cell_length_a   14.26020705
_cell_length_b   14.26020705
_cell_length_c   14.26020721
_cell_angle_alpha   44.44746809
_cell_angle_beta   44.44746809
_cell_angle_gamma   44.44747150
_symmetry_Int_Tables_number   1
_chemical_formula_structural   K5HfIn(MoO4)6
_chemical_formula_sum   'K10 Hf2 In2 Mo12 O48'
_cell_volume   1292.74091648
_cell_formula_units_Z   2
loop_
 _symmetry_equiv_pos_site_id
 _symmetry_equiv_pos_as_xyz
  1  'x, y, z'
loop_
 _atom_site_type_symbol
 _atom_site_label
 _atom_site_symmetry_multiplicity
 _atom_site_fract_x
 _atom_site_fract_y
 _atom_site_fract_z
 _atom_site_occupancy
  K  K0  1  0.85307600  0.85307600  0.85307600  1
  K  K1  1  0.35384300  0.35384300  0.35384300  1
  K  K2  1  0.14615300  0.14615300  0.14615300  1
  K  K3  1  0.64679000  0.64679000  0.64679000  1
  K  K4  1  0.75000100  0.36459600  0.13686900  1
  K  K5  1  0.36459600  0.13686900  0.75000100  1
  K  K6  1  0.13686900  0.75000100  0.36459600  1
  K  K7  1  0.63627800  0.86253700  0.24984100  1
  K  K8  1  0.86253700  0.24984100  0.63627800  1
  K  K9  1  0.24984100  0.63627800  0.86253700  1
  Hf  Hf10  1  0.00076100  0.00076100  0.00076100  1
  Hf  Hf11  1  0.24923000  0.24923000  0.24923000  1
  In  In12  1  0.49944100  0.49944100  0.49944100  1
  In  In13  1  0.75068300  0.75068300  0.75068300  1
  Mo  Mo14  1  0.47674200  0.23812100  0.88280200  1
  Mo  Mo15  1  0.23812100  0.88280200  0.47674200  1
  Mo  Mo16  1  0.88280200  0.47674200  0.23812100  1
  Mo  Mo17  1  0.38180700  0.73857200  0.97716000  1
  Mo  Mo18  1  0.73857200  0.97716000  0.38180700  1
  Mo  Mo19  1  0.97716000  0.38180700  0.73857200  1
  Mo  Mo20  1  0.52267200  0.76271600  0.11753000  1
  Mo  Mo21  1  0.76271600  0.11753000  0.52267200  1
  Mo  Mo22  1  0.11753000  0.52267200  0.76271600  1
  Mo  Mo23  1  0.61787000  0.26062700  0.02349100  1
  Mo  Mo24  1  0.26062700  0.02349100  0.61787000  1
  Mo  Mo25  1  0.02349100  0.61787000  0.26062700  1
  O  O26  1  0.64240700  0.11231400  0.90606100  1
  O  O27  1  0.11231400  0.90606100  0.64240700  1
  O  O28  1  0.90606100  0.64240700  0.11231400  1
  O  O29  1  0.40600500  0.61126300  0.14210200  1
  O  O30  1  0.61126300  0.14210200  0.40600500  1
  O  O31  1  0.14210200  0.40600500  0.61126300  1
  O  O32  1  0.35643400  0.88897200  0.09350100  1
  O  O33  1  0.88897200  0.09350100  0.35643400  1
  O  O34  1  0.09350100  0.35643400  0.88897200  1
  O  O35  1  0.59438800  0.38743900  0.85883800  1
  O  O36  1  0.38743900  0.85883800  0.59438800  1
  O  O37  1  0.85883800  0.59438800  0.38743900  1
  O  O38  1  0.32066200  0.29823100  0.03777800  1
  O  O39  1  0.29823100  0.03777800  0.32066200  1
  O  O40  1  0.03777800  0.32066200  0.29823100  1
  O  O41  1  0.52941500  0.80055900  0.82180900  1
  O  O42  1  0.80055900  0.82180900  0.52941500  1
  O  O43  1  0.82180900  0.52941500  0.80055900  1
  O  O44  1  0.67875300  0.69792700  0.97047300  1
  O  O45  1  0.69792700  0.97047300  0.67875300  1
  O  O46  1  0.97047300  0.67875300  0.69792700  1
  O  O47  1  0.46340900  0.20263000  0.17852400  1
  O  O48  1  0.20263000  0.17852400  0.46340900  1
  O  O49  1  0.17852400  0.46340900  0.20263100  1
  O  O50  1  0.50468200  0.39352800  0.70605400  1
  O  O51  1  0.39352800  0.70605400  0.50468200  1
  O  O52  1  0.70605400  0.50468200  0.39352800  1
  O  O53  1  0.19816400  0.89632900  0.00380600  1
  O  O54  1  0.89632900  0.00380600  0.19816400  1
  O  O55  1  0.00380600  0.19816400  0.89632900  1
  O  O56  1  0.49533500  0.60596300  0.29479100  1
  O  O57  1  0.60596300  0.29479100  0.49533500  1
  O  O58  1  0.29479100  0.49533500  0.60596300  1
  O  O59  1  0.80033400  0.10444600  0.99615900  1
  O  O60  1  0.10444600  0.99615900  0.80033400  1
  O  O61  1  0.99615900  0.80033400  0.10444600  1
  O  O62  1  0.42932700  0.15380000  0.88253800  1
  O  O63  1  0.15380000  0.88253800  0.42932700  1
  O  O64  1  0.88253800  0.42932700  0.15380000  1
  O  O65  1  0.38246400  0.65328100  0.92965700  1
  O  O66  1  0.65328100  0.92965700  0.38246400  1
  O  O67  1  0.92965700  0.38246400  0.65328100  1
  O  O68  1  0.57059900  0.84707800  0.11805800  1
  O  O69  1  0.84707800  0.11805800  0.57059900  1
  O  O70  1  0.11805800  0.57059900  0.84707800  1
  O  O71  1  0.61700600  0.34599400  0.07050400  1
  O  O72  1  0.34599400  0.07050400  0.61700600  1
  O  O73  1  0.07050400  0.61700600  0.34599400  1
