# generated using pymatgen
data_Ho5(Sn3Rh)6
_symmetry_space_group_name_H-M   'P 1'
_cell_length_a   9.89485349
_cell_length_b   9.89485349
_cell_length_c   9.89485349
_cell_angle_alpha   60.00000000
_cell_angle_beta   60.00000000
_cell_angle_gamma   60.00000000
_symmetry_Int_Tables_number   1
_chemical_formula_structural   Ho5(Sn3Rh)6
_chemical_formula_sum   'Ho5 Sn18 Rh6'
_cell_volume   685.03554433
_cell_formula_units_Z   1
loop_
 _symmetry_equiv_pos_site_id
 _symmetry_equiv_pos_as_xyz
  1  'x, y, z'
loop_
 _atom_site_type_symbol
 _atom_site_label
 _atom_site_symmetry_multiplicity
 _atom_site_fract_x
 _atom_site_fract_y
 _atom_site_fract_z
 _atom_site_occupancy
  Ho  Ho0  1  0.00000000  0.00000000  0.00000000  1
  Ho  Ho1  1  0.37013000  0.37013000  0.88961100  1
  Ho  Ho2  1  0.37013000  0.88961100  0.37013000  1
  Ho  Ho3  1  0.88961100  0.37013000  0.37013000  1
  Ho  Ho4  1  0.37013000  0.37013000  0.37013000  1
  Sn  Sn5  1  0.58816900  0.58816900  0.23549400  1
  Sn  Sn6  1  0.58816900  0.23549400  0.58816900  1
  Sn  Sn7  1  0.23549400  0.58816900  0.58816900  1
  Sn  Sn8  1  0.58816900  0.58816900  0.58816900  1
  Sn  Sn9  1  0.75000000  0.75000000  0.75000000  1
  Sn  Sn10  1  0.99242000  0.35726600  0.65789300  1
  Sn  Sn11  1  0.99242000  0.99242000  0.65789300  1
  Sn  Sn12  1  0.35726600  0.99242000  0.65789300  1
  Sn  Sn13  1  0.99242000  0.65789300  0.35726600  1
  Sn  Sn14  1  0.35726600  0.65789300  0.99242000  1
  Sn  Sn15  1  0.99242000  0.65789300  0.99242000  1
  Sn  Sn16  1  0.65789300  0.99242000  0.99242000  1
  Sn  Sn17  1  0.65789300  0.35726600  0.99242000  1
  Sn  Sn18  1  0.65789300  0.99242000  0.35726600  1
  Sn  Sn19  1  0.35726600  0.99242000  0.99242000  1
  Sn  Sn20  1  0.99242000  0.99242000  0.35726600  1
  Sn  Sn21  1  0.99242000  0.35726600  0.99242000  1
  Sn  Sn22  1  0.25000000  0.25000000  0.25000000  1
  Rh  Rh23  1  0.25411100  0.25411100  0.74588900  1
  Rh  Rh24  1  0.74588900  0.25411100  0.74588900  1
  Rh  Rh25  1  0.25411100  0.74588900  0.74588900  1
  Rh  Rh26  1  0.74588900  0.74588900  0.25411100  1
  Rh  Rh27  1  0.25411100  0.74588900  0.25411100  1
  Rh  Rh28  1  0.74588900  0.25411100  0.25411100  1
