# generated using pymatgen
data_KCaPO4
_symmetry_space_group_name_H-M   'P 1'
_cell_length_a   7.30337632
_cell_length_b   7.30337647
_cell_length_c   7.21367323
_cell_angle_alpha   89.28971735
_cell_angle_beta   89.28971650
_cell_angle_gamma   62.71766381
_symmetry_Int_Tables_number   1
_chemical_formula_structural   KCaPO4
_chemical_formula_sum   'K2 Ca2 P2 O8'
_cell_volume   341.93367591
_cell_formula_units_Z   2
loop_
 _symmetry_equiv_pos_site_id
 _symmetry_equiv_pos_as_xyz
  1  'x, y, z'
loop_
 _atom_site_type_symbol
 _atom_site_label
 _atom_site_symmetry_multiplicity
 _atom_site_fract_x
 _atom_site_fract_y
 _atom_site_fract_z
 _atom_site_occupancy
  K  K0  1  0.00000000  0.00000000  0.00000000  1
  K  K1  1  0.00000000  0.00000000  0.50000000  1
  Ca  Ca2  1  0.30224800  0.30224800  0.69041700  1
  Ca  Ca3  1  0.69775200  0.69775200  0.30958300  1
  P  P4  1  0.45554000  0.45554000  0.28616100  1
  P  P5  1  0.54446000  0.54446000  0.71383900  1
  O  O6  1  0.34359900  0.34359900  0.36401100  1
  O  O7  1  0.65640100  0.65640100  0.63598900  1
  O  O8  1  0.85137100  0.85137100  0.24930100  1
  O  O9  1  0.35009400  0.68429700  0.25197300  1
  O  O10  1  0.68429700  0.35009400  0.25197300  1
  O  O11  1  0.14862900  0.14862900  0.75069900  1
  O  O12  1  0.64990600  0.31570300  0.74802700  1
  O  O13  1  0.31570300  0.64990600  0.74802700  1
