# generated using pymatgen
data_Ho2PbS4
_symmetry_space_group_name_H-M   'P 1'
_cell_length_a   14.93165628
_cell_length_b   14.93165628
_cell_length_c   12.14436000
_cell_angle_alpha   90.00000000
_cell_angle_beta   90.00000000
_cell_angle_gamma   149.09869131
_symmetry_Int_Tables_number   1
_chemical_formula_structural   Ho2PbS4
_chemical_formula_sum   'Ho16 Pb8 S32'
_cell_volume   1390.53687565
_cell_formula_units_Z   8
loop_
 _symmetry_equiv_pos_site_id
 _symmetry_equiv_pos_as_xyz
  1  'x, y, z'
loop_
 _atom_site_type_symbol
 _atom_site_label
 _atom_site_symmetry_multiplicity
 _atom_site_fract_x
 _atom_site_fract_y
 _atom_site_fract_z
 _atom_site_occupancy
  Ho  Ho0  1  0.43056800  0.06969300  0.78505300  1
  Ho  Ho1  1  0.93030700  0.56943200  0.78505300  1
  Ho  Ho2  1  0.56943200  0.93030700  0.28505300  1
  Ho  Ho3  1  0.06969300  0.43056800  0.28505300  1
  Ho  Ho4  1  0.06885600  0.93114400  0.91460300  1
  Ho  Ho5  1  0.93114400  0.06885600  0.41460300  1
  Ho  Ho6  1  0.56940200  0.43059800  0.92467200  1
  Ho  Ho7  1  0.43059800  0.56940200  0.42467200  1
  Ho  Ho8  1  0.17656700  0.82343300  0.42935200  1
  Ho  Ho9  1  0.82343300  0.17656700  0.92935200  1
  Ho  Ho10  1  0.67382200  0.32617800  0.43274900  1
  Ho  Ho11  1  0.32617800  0.67382200  0.93274900  1
  Ho  Ho12  1  0.32574800  0.17183400  0.26801000  1
  Ho  Ho13  1  0.82816600  0.67425200  0.26801000  1
  Ho  Ho14  1  0.67425200  0.82816600  0.76801000  1
  Ho  Ho15  1  0.17183400  0.32574800  0.76801000  1
  Pb  Pb16  1  0.04808400  0.95191600  0.56207900  1
  Pb  Pb17  1  0.95191600  0.04808400  0.06207900  1
  Pb  Pb18  1  0.53746300  0.46253700  0.62843600  1
  Pb  Pb19  1  0.46253700  0.53746300  0.12843600  1
  Pb  Pb20  1  0.46036500  0.04078800  0.09487100  1
  Pb  Pb21  1  0.95921200  0.53963500  0.09487100  1
  Pb  Pb22  1  0.53963500  0.95921200  0.59487100  1
  Pb  Pb23  1  0.04078800  0.46036500  0.59487100  1
  S  S24  1  0.13994800  0.86005200  0.22228400  1
  S  S25  1  0.86005200  0.13994800  0.72228400  1
  S  S26  1  0.35936100  0.13360300  0.47781400  1
  S  S27  1  0.86639700  0.64063900  0.47781400  1
  S  S28  1  0.64063900  0.86639700  0.97781400  1
  S  S29  1  0.13360300  0.35936100  0.97781400  1
  S  S30  1  0.63885200  0.36114800  0.22385900  1
  S  S31  1  0.36114800  0.63885200  0.72385900  1
  S  S32  1  0.51637900  0.48362100  0.32091500  1
  S  S33  1  0.48362100  0.51637900  0.82091500  1
  S  S34  1  0.28665300  0.20733400  0.05949900  1
  S  S35  1  0.79266600  0.71334700  0.05949900  1
  S  S36  1  0.71334700  0.79266600  0.55949900  1
  S  S37  1  0.20733400  0.28665300  0.55949900  1
  S  S38  1  0.34057400  0.16665500  0.76971200  1
  S  S39  1  0.83334500  0.65942600  0.76971200  1
  S  S40  1  0.65942600  0.83334500  0.26971200  1
  S  S41  1  0.16665500  0.34057400  0.26971200  1
  S  S42  1  0.01976700  0.98023300  0.33701100  1
  S  S43  1  0.98023300  0.01976700  0.83701100  1
  S  S44  1  0.70948600  0.29051400  0.64475500  1
  S  S45  1  0.29051400  0.70948600  0.14475500  1
  S  S46  1  0.48880600  0.02001900  0.38000000  1
  S  S47  1  0.97998100  0.51119400  0.38000000  1
  S  S48  1  0.51119400  0.97998100  0.88000000  1
  S  S49  1  0.02001900  0.48880600  0.88000000  1
  S  S50  1  0.66373600  0.33626400  0.93901700  1
  S  S51  1  0.33626400  0.66373600  0.43901700  1
  S  S52  1  0.16273200  0.83726800  0.93573200  1
  S  S53  1  0.83726800  0.16273200  0.43573200  1
  S  S54  1  0.21105200  0.78894800  0.64382000  1
  S  S55  1  0.78894800  0.21105200  0.14382000  1
