# generated using pymatgen
data_Sr2FeMoO6
_symmetry_space_group_name_H-M   'P 1'
_cell_length_a   5.66523148
_cell_length_b   5.67179088
_cell_length_c   56.67127079
_cell_angle_alpha   119.94654861
_cell_angle_beta   119.96639150
_cell_angle_gamma   90.11262685
_symmetry_Int_Tables_number   1
_chemical_formula_structural   Sr2FeMoO6
_chemical_formula_sum   'Sr20 Fe10 Mo10 O60'
_cell_volume   1288.04074343
_cell_formula_units_Z   10
loop_
 _symmetry_equiv_pos_site_id
 _symmetry_equiv_pos_as_xyz
  1  'x, y, z'
loop_
 _atom_site_type_symbol
 _atom_site_label
 _atom_site_symmetry_multiplicity
 _atom_site_fract_x
 _atom_site_fract_y
 _atom_site_fract_z
 _atom_site_occupancy
  Sr  Sr0  1  0.25118861  0.75034741  0.95035957  1
  Sr  Sr1  1  0.24149352  0.74127233  0.84827304  1
  Sr  Sr2  1  0.75693883  0.25437285  0.95137397  1
  Sr  Sr3  1  0.24910360  0.74900553  0.74973766  1
  Sr  Sr4  1  0.74231818  0.24383765  0.84866709  1
  Sr  Sr5  1  0.25010493  0.75000189  0.65000093  1
  Sr  Sr6  1  0.74814420  0.24787488  0.74953672  1
  Sr  Sr7  1  0.25054572  0.75054301  0.55009874  1
  Sr  Sr8  1  0.74968017  0.24959471  0.64995353  1
  Sr  Sr9  1  0.25151378  0.75148166  0.45028362  1
  Sr  Sr10  1  0.75008626  0.25004806  0.55003770  1
  Sr  Sr11  1  0.25361415  0.75371643  0.35071616  1
  Sr  Sr12  1  0.75106446  0.25103235  0.45022802  1
  Sr  Sr13  1  0.25980575  0.76016389  0.25202838  1
  Sr  Sr14  1  0.75332238  0.25334127  0.35067676  1
  Sr  Sr15  1  0.24679616  0.74743937  0.14959279  1
  Sr  Sr16  1  0.75829599  0.25832205  0.25169557  1
  Sr  Sr17  1  0.24443766  0.74475679  0.04890664  1
  Sr  Sr18  1  0.74666734  0.24881140  0.14972044  1
  Sr  Sr19  1  0.74563835  0.24414414  0.04894244  1
  Fe  Fe20  1  0.00533034  0.00491163  0.90115995  1
  Fe  Fe21  1  0.99818332  0.99835865  0.79955818  1
  Fe  Fe22  1  -0.00017291  0.99976342  0.69992103  1
  Fe  Fe23  1  0.00000577  -0.00002301  0.60000608  1
  Fe  Fe24  1  0.00054363  0.00051946  0.50010798  1
  Fe  Fe25  1  0.00177694  0.00177722  0.40035492  1
  Fe  Fe26  1  0.00193942  0.00198828  0.30039895  1
  Fe  Fe27  1  0.99530322  0.99588073  0.19921080  1
  Fe  Fe28  1  0.50501653  0.50560394  0.10123912  1
  Fe  Fe29  1  0.49396068  0.49287426  0.99877331  1
  Mo  Mo30  1  0.49412314  0.49347421  0.89882002  1
  Mo  Mo31  1  0.49911182  0.49921988  0.79967922  1
  Mo  Mo32  1  0.49923032  0.49913796  0.69981801  1
  Mo  Mo33  1  0.49986911  0.49982291  0.59997766  1
  Mo  Mo34  1  0.50045505  0.50045310  0.50009441  1
  Mo  Mo35  1  0.50220514  0.50220041  0.40043818  1
  Mo  Mo36  1  0.50235251  0.50241887  0.30047656  1
  Mo  Mo37  1  0.99316211  0.99396141  0.09878440  1
  Mo  Mo38  1  0.50347583  0.50379516  0.20083348  1
  Mo  Mo39  1  0.00466161  0.00388241  0.00087856  1
  O  O40  1  0.24580925  0.24554906  0.94954706  1
  O  O41  1  0.20785417  0.70956342  0.89895733  1
  O  O42  1  0.29609473  0.22738070  0.90036732  1
  O  O43  1  0.24971386  0.24910217  0.84966035  1
  O  O44  1  0.75711610  0.75525000  0.95107449  1
  O  O45  1  0.70526841  0.77417057  0.89991827  1
  O  O46  1  0.20981122  0.71047923  0.79933535  1
  O  O47  1  0.78160537  0.27908082  0.89890138  1
  O  O48  1  0.28449153  0.21153016  0.79957013  1
  O  O49  1  0.25719855  0.25779159  0.75128060  1
  O  O50  1  0.74506999  0.74378329  0.84856965  1
  O  O51  1  0.71326849  0.78713449  0.79975145  1
  O  O52  1  0.21167830  0.71357015  0.69991687  1
  O  O53  1  0.78408260  0.28328897  0.79915213  1
  O  O54  1  0.28519001  0.21092820  0.69982041  1
  O  O55  1  0.25723554  0.25751389  0.65144191  1
  O  O56  1  0.74183599  0.74129187  0.74828639  1
  O  O57  1  0.71390631  0.78798481  0.69991901  1
  O  O58  1  0.21188744  0.71386350  0.60001120  1
  O  O59  1  0.78716876  0.28517483  0.69982530  1
  O  O60  1  0.28588779  0.21127197  0.59996820  1
  O  O61  1  0.25777242  0.25802541  0.55157139  1
  O  O62  1  0.74238610  0.74213503  0.64846529  1
  O  O63  1  0.71384098  0.78837517  0.59997932  1
  O  O64  1  0.21238519  0.71425428  0.50010002  1
  O  O65  1  0.78779828  0.28577262  0.59993756  1
  O  O66  1  0.28641960  0.21177135  0.50005309  1
  O  O67  1  0.25796132  0.25828798  0.45162717  1
  O  O68  1  0.74278361  0.74251154  0.54854819  1
  O  O69  1  0.71410949  0.78873068  0.50005977  1
  O  O70  1  0.21377002  0.71580559  0.40029548  1
  O  O71  1  0.78818819  0.28631987  0.50002124  1
  O  O72  1  0.28696749  0.21321543  0.40026425  1
  O  O73  1  0.25878283  0.25908530  0.35177916  1
  O  O74  1  0.74308625  0.74281889  0.44861209  1
  O  O75  1  0.71558111  0.78932394  0.40024796  1
  O  O76  1  0.21466850  0.71541859  0.30066831  1
  O  O77  1  0.78878891  0.28675845  0.40021586  1
  O  O78  1  0.29225564  0.21476481  0.30078843  1
  O  O79  1  0.25684239  0.25718758  0.25142099  1
  O  O80  1  0.74422832  0.74385864  0.34881209  1
  O  O81  1  0.71547091  0.79308846  0.30078323  1
  O  O82  1  0.21850211  0.70261620  0.20039814  1
  O  O83  1  0.79152281  0.29081052  0.30058138  1
  O  O84  1  0.29781215  0.20680246  0.20043100  1
  O  O85  1  0.24837934  0.24820507  0.14978598  1
  O  O86  1  0.75163960  0.75106170  0.25031720  1
  O  O87  1  0.70574797  0.79665169  0.20046346  1
  O  O88  1  0.21044190  0.70925514  0.09922924  1
  O  O89  1  0.78457168  0.30046104  0.20033168  1
  O  O90  1  0.27256750  0.20150470  0.09897192  1
  O  O91  1  0.24656117  0.25217303  0.04937291  1
  O  O92  1  0.74913565  0.74840715  0.15007615  1
  O  O93  1  0.72182024  0.79313164  0.09987792  1
  O  O94  1  0.21158879  0.71563234  0.00014488  1
  O  O95  1  0.77925595  0.28203058  0.09907244  1
  O  O96  1  0.28812098  0.21375099  0.00038340  1
  O  O97  1  0.75004112  0.75207214  0.04952938  1
  O  O98  1  0.71388898  0.78535535  0.99965539  1
  O  O99  1  0.79085048  0.28673838  0.00048822  1
