# generated using pymatgen
data_K4NaNb5O15
_symmetry_space_group_name_H-M   'P 1'
_cell_length_a   4.01148100
_cell_length_b   5.78992600
_cell_length_c   29.13265568
_cell_angle_alpha   89.24957649
_cell_angle_beta   90.00000000
_cell_angle_gamma   90.00000000
_symmetry_Int_Tables_number   1
_chemical_formula_structural   K4NaNb5O15
_chemical_formula_sum   'K8 Na2 Nb10 O30'
_cell_volume   676.58221574
_cell_formula_units_Z   2
loop_
 _symmetry_equiv_pos_site_id
 _symmetry_equiv_pos_as_xyz
  1  'x, y, z'
loop_
 _atom_site_type_symbol
 _atom_site_label
 _atom_site_symmetry_multiplicity
 _atom_site_fract_x
 _atom_site_fract_y
 _atom_site_fract_z
 _atom_site_occupancy
  K  K0  1  0.00000000  0.50668200  0.40413600  1
  K  K1  1  0.00000000  0.50646500  0.60460300  1
  K  K2  1  0.00000000  0.50646800  0.80501400  1
  K  K3  1  0.00000000  0.99518500  0.10425700  1
  K  K4  1  0.00000000  0.99707900  0.30392500  1
  K  K5  1  0.00000000  0.99664200  0.50443000  1
  K  K6  1  0.00000000  0.99663000  0.70474300  1
  K  K7  1  0.00000000  0.99494200  0.90486800  1
  Na  Na8  1  0.00000000  0.51617700  0.00887100  1
  Na  Na9  1  0.00000000  0.51661000  0.20850500  1
  Nb  Nb10  1  0.50000000  0.00791000  0.00728700  1
  Nb  Nb11  1  0.50000000  0.00892500  0.20619900  1
  Nb  Nb12  1  0.50000000  0.00674100  0.40681700  1
  Nb  Nb13  1  0.50000000  0.00642900  0.60740400  1
  Nb  Nb14  1  0.50000000  0.00580900  0.80791100  1
  Nb  Nb15  1  0.50000000  0.49945500  0.10715000  1
  Nb  Nb16  1  0.50000000  0.50205600  0.30581500  1
  Nb  Nb17  1  0.50000000  0.50088600  0.50723900  1
  Nb  Nb18  1  0.50000000  0.50044900  0.70759000  1
  Nb  Nb19  1  0.50000000  0.49809400  0.90878300  1
  O  O20  1  0.00000000  0.49888800  0.09773600  1
  O  O21  1  0.00000000  0.49872300  0.29660200  1
  O  O22  1  0.00000000  0.49890600  0.49918600  1
  O  O23  1  0.00000000  0.49880200  0.69938200  1
  O  O24  1  0.00000000  0.49910500  0.90048000  1
  O  O25  1  0.00000000  0.99720700  0.99985200  1
  O  O26  1  0.00000000  0.99794600  0.19912900  1
  O  O27  1  0.00000000  0.00260400  0.39887800  1
  O  O28  1  0.00000000  0.00240900  0.59928100  1
  O  O29  1  0.00000000  0.00191000  0.79963800  1
  O  O30  1  0.50000000  0.26958300  0.04532900  1
  O  O31  1  0.50000000  0.26960000  0.24462700  1
  O  O32  1  0.50000000  0.25626300  0.44747500  1
  O  O33  1  0.50000000  0.25643700  0.64790500  1
  O  O34  1  0.50000000  0.25636800  0.84821400  1
  O  O35  1  0.50000000  0.23237300  0.14608200  1
  O  O36  1  0.50000000  0.24227600  0.34675500  1
  O  O37  1  0.50000000  0.24164000  0.54782900  1
  O  O38  1  0.50000000  0.24135900  0.74818600  1
  O  O39  1  0.50000000  0.23178200  0.94737500  1
  O  O40  1  0.50000000  0.76940100  0.05328500  1
  O  O41  1  0.50000000  0.76946600  0.25188300  1
  O  O42  1  0.50000000  0.76438100  0.45146200  1
  O  O43  1  0.50000000  0.76388400  0.65189500  1
  O  O44  1  0.50000000  0.76418200  0.85291500  1
  O  O45  1  0.50000000  0.72194000  0.15372000  1
  O  O46  1  0.50000000  0.73273400  0.35092000  1
  O  O47  1  0.50000000  0.73387900  0.55164300  1
  O  O48  1  0.50000000  0.73365900  0.75201300  1
  O  O49  1  0.50000000  0.72266100  0.95477300  1
