# generated using pymatgen
data_K2MgFe(SiO3)8
_symmetry_space_group_name_H-M   'P 1'
_cell_length_a   5.24782100
_cell_length_b   9.10369125
_cell_length_c   10.96520551
_cell_angle_alpha   100.30479552
_cell_angle_beta   97.48604693
_cell_angle_gamma   89.89860866
_symmetry_Int_Tables_number   1
_chemical_formula_structural   K2MgFe(SiO3)8
_chemical_formula_sum   'K2 Mg1 Fe1 Si8 O24'
_cell_volume   510.89031217
_cell_formula_units_Z   1
loop_
 _symmetry_equiv_pos_site_id
 _symmetry_equiv_pos_as_xyz
  1  'x, y, z'
loop_
 _atom_site_type_symbol
 _atom_site_label
 _atom_site_symmetry_multiplicity
 _atom_site_fract_x
 _atom_site_fract_y
 _atom_site_fract_z
 _atom_site_occupancy
  K  K0  1  0.25982400  0.24772700  0.50207200  1
  K  K1  1  0.76003300  0.74493500  0.50253700  1
  Mg  Mg2  1  0.40690100  0.85746000  0.00249600  1
  Fe  Fe3  1  0.94441400  0.34999300  0.99885800  1
  Si  Si4  1  0.72294400  0.36721300  0.27311300  1
  Si  Si5  1  0.20926100  0.86924800  0.27950800  1
  Si  Si6  1  0.70605200  0.03261000  0.27925000  1
  Si  Si7  1  0.21402900  0.53131500  0.27528400  1
  Si  Si8  1  0.80983500  0.12553100  0.72248300  1
  Si  Si9  1  0.31053100  0.62648900  0.72577700  1
  Si  Si10  1  0.80904100  0.45371000  0.72423400  1
  Si  Si11  1  0.31178300  0.95492500  0.72436900  1
  O  O12  1  0.71377100  0.21398400  0.33404100  1
  O  O13  1  0.21390000  0.71181500  0.33456900  1
  O  O14  1  0.99212100  0.45874500  0.34295600  1
  O  O15  1  0.48202200  0.95878000  0.34564100  1
  O  O16  1  0.79912600  0.27532500  0.65490200  1
  O  O17  1  0.30462300  0.77532100  0.65746500  1
  O  O18  1  0.53712500  0.03357300  0.66347200  1
  O  O19  1  0.03689100  0.53450300  0.66705600  1
  O  O20  1  0.49535100  0.47308000  0.33161600  1
  O  O21  1  0.98045200  0.97008500  0.34152400  1
  O  O22  1  0.03541600  0.01837500  0.66489900  1
  O  O23  1  0.53598200  0.52057300  0.66567800  1
  O  O24  1  0.14661100  0.25421100  0.13388800  1
  O  O25  1  0.78430100  0.76816400  0.09074000  1
  O  O26  1  0.19508100  0.29402500  0.86972800  1
  O  O27  1  0.70981600  0.77960500  0.88796700  1
  O  O28  1  0.70468100  0.33912500  0.12298900  1
  O  O29  1  0.18004000  0.84548700  0.12969800  1
  O  O30  1  0.65165200  0.99629800  0.12926000  1
  O  O31  1  0.16769400  0.49991700  0.12435200  1
  O  O32  1  0.83879000  0.16373500  0.87356300  1
  O  O33  1  0.33947600  0.66309300  0.87657800  1
  O  O34  1  0.84260600  0.47599800  0.87418700  1
  O  O35  1  0.35342100  0.97982700  0.87324800  1
