# generated using pymatgen
data_Ge5O11
_symmetry_space_group_name_H-M   'P 1'
_cell_length_a   8.31194066
_cell_length_b   8.31194066
_cell_length_c   7.99685254
_cell_angle_alpha   86.76733891
_cell_angle_beta   86.76733891
_cell_angle_gamma   126.49522223
_symmetry_Int_Tables_number   1
_chemical_formula_structural   Ge5O11
_chemical_formula_sum   'Ge10 O22'
_cell_volume   440.65082820
_cell_formula_units_Z   2
loop_
 _symmetry_equiv_pos_site_id
 _symmetry_equiv_pos_as_xyz
  1  'x, y, z'
loop_
 _atom_site_type_symbol
 _atom_site_label
 _atom_site_symmetry_multiplicity
 _atom_site_fract_x
 _atom_site_fract_y
 _atom_site_fract_z
 _atom_site_occupancy
  Ge  Ge0  1  0.28755700  0.28755700  0.17537900  1
  Ge  Ge1  1  0.72112700  0.72112700  0.81744200  1
  Ge  Ge2  1  0.84929500  0.84929500  0.19801300  1
  Ge  Ge3  1  0.14123000  0.14123000  0.82539200  1
  Ge  Ge4  1  0.71710200  0.40304700  0.30101900  1
  Ge  Ge5  1  0.40304700  0.71710200  0.30101900  1
  Ge  Ge6  1  0.28794900  0.59237100  0.69055200  1
  Ge  Ge7  1  0.59237100  0.28794900  0.69055200  1
  Ge  Ge8  1  0.85690200  0.27234300  0.96301300  1
  Ge  Ge9  1  0.27234300  0.85690200  0.96301300  1
  O  O10  1  0.85261000  0.66065800  0.31895300  1
  O  O11  1  0.66065800  0.85261000  0.31895300  1
  O  O12  1  0.13788400  0.33244700  0.68978100  1
  O  O13  1  0.33244700  0.13788400  0.68978100  1
  O  O14  1  0.71112600  0.28884400  0.49953200  1
  O  O15  1  0.28884400  0.71112600  0.49953200  1
  O  O16  1  0.33304900  0.33304900  0.95319200  1
  O  O17  1  0.69435400  0.69435400  0.04080900  1
  O  O18  1  0.12086900  0.87077800  0.50572800  1
  O  O19  1  0.87077800  0.12086900  0.50572800  1
  O  O20  1  0.06209500  0.06209500  0.27073500  1
  O  O21  1  0.94246000  0.94246000  0.71515700  1
  O  O22  1  0.92895700  0.11534400  0.98768600  1
  O  O23  1  0.11534400  0.92895700  0.98768600  1
  O  O24  1  0.46778000  0.26914500  0.26015900  1
  O  O25  1  0.26914500  0.46778000  0.26015900  1
  O  O26  1  0.53291800  0.73489600  0.74377700  1
  O  O27  1  0.73489600  0.53291800  0.74377700  1
  O  O28  1  0.85657100  0.36297700  0.15403500  1
  O  O29  1  0.36297700  0.85657100  0.15403500  1
  O  O30  1  0.15178000  0.62233800  0.86210600  1
  O  O31  1  0.62233800  0.15178000  0.86210600  1
