# generated using pymatgen
data_H6I3NO9
_symmetry_space_group_name_H-M   'P 1'
_cell_length_a   8.41909333
_cell_length_b   8.44249443
_cell_length_c   8.51601065
_cell_angle_alpha   86.43693654
_cell_angle_beta   65.60576339
_cell_angle_gamma   61.02181458
_symmetry_Int_Tables_number   1
_chemical_formula_structural   H6I3NO9
_chemical_formula_sum   'H12 I6 N2 O18'
_cell_volume   474.96416482
_cell_formula_units_Z   2
loop_
 _symmetry_equiv_pos_site_id
 _symmetry_equiv_pos_as_xyz
  1  'x, y, z'
loop_
 _atom_site_type_symbol
 _atom_site_label
 _atom_site_symmetry_multiplicity
 _atom_site_fract_x
 _atom_site_fract_y
 _atom_site_fract_z
 _atom_site_occupancy
  H  H0  1  0.05366100  0.78776200  0.10111100  1
  H  H1  1  0.94721900  0.21086500  0.89775000  1
  H  H2  1  0.10076400  0.70659800  0.27100800  1
  H  H3  1  0.89929900  0.29392500  0.72845300  1
  H  H4  1  0.87676400  0.89259800  0.31350800  1
  H  H5  1  0.12422000  0.10713400  0.68487300  1
  H  H6  1  0.22894500  0.13579100  0.01965400  1
  H  H7  1  0.77210500  0.86474900  0.97736500  1
  H  H8  1  0.92794700  0.68539900  0.23529700  1
  H  H9  1  0.07145100  0.31375900  0.76588500  1
  H  H10  1  0.48790800  0.47484000  0.01970600  1
  H  H11  1  0.98925200  0.53290300  0.52048000  1
  I  I12  1  0.94668900  0.31348000  0.31220300  1
  I  I13  1  0.06698400  0.69382000  0.69119000  1
  I  I14  1  0.40914100  0.80290800  0.30302600  1
  I  I15  1  0.59127900  0.19151300  0.69395900  1
  I  I16  1  0.52615700  0.25637300  0.23498100  1
  I  I17  1  0.47223000  0.73940100  0.77859100  1
  N  N18  1  0.98932400  0.76842300  0.22872500  1
  N  N19  1  0.01102500  0.23097300  0.77048800  1
  O  O20  1  0.21772800  0.76696600  0.85788000  1
  O  O21  1  0.77474500  0.23370500  0.14118400  1
  O  O22  1  0.40932500  0.97244100  0.84316600  1
  O  O23  1  0.58410300  0.03116600  0.15592300  1
  O  O24  1  0.53091000  0.63181000  0.95707000  1
  O  O25  1  0.45647400  0.36887500  0.05058700  1
  O  O26  1  0.13042800  0.27107800  0.07029600  1
  O  O27  1  0.87256800  0.73029500  0.92604200  1
  O  O28  1  0.66590500  0.36876300  0.63807900  1
  O  O29  1  0.33207300  0.62514000  0.36582100  1
  O  O30  1  0.78562400  0.55408700  0.31145300  1
  O  O31  1  0.21686200  0.45055200  0.68628400  1
  O  O32  1  0.34568700  0.89758300  0.52146800  1
  O  O33  1  0.65185100  0.10135200  0.47370400  1
  O  O34  1  0.91234400  0.66522300  0.59090500  1
  O  O35  1  0.08927800  0.34596300  0.41041200  1
  O  O36  1  0.18601000  0.97017000  0.27582500  1
  O  O37  1  0.81551700  0.02251600  0.72025100  1
