# generated using pymatgen
data_K2YbTi(PO4)3
_symmetry_space_group_name_H-M   'P 1'
_cell_length_a   10.29821500
_cell_length_b   10.29821500
_cell_length_c   10.29821500
_cell_angle_alpha   90.00000000
_cell_angle_beta   90.00000000
_cell_angle_gamma   90.00000000
_symmetry_Int_Tables_number   1
_chemical_formula_structural   K2YbTi(PO4)3
_chemical_formula_sum   'K8 Yb4 Ti4 P12 O48'
_cell_volume   1092.15898650
_cell_formula_units_Z   4
loop_
 _symmetry_equiv_pos_site_id
 _symmetry_equiv_pos_as_xyz
  1  'x, y, z'
loop_
 _atom_site_type_symbol
 _atom_site_label
 _atom_site_symmetry_multiplicity
 _atom_site_fract_x
 _atom_site_fract_y
 _atom_site_fract_z
 _atom_site_occupancy
  K  K0  1  0.54390300  0.95609700  0.04390300  1
  K  K1  1  0.95609700  0.04390300  0.54390300  1
  K  K2  1  0.45609700  0.45609700  0.45609700  1
  K  K3  1  0.04390300  0.54390300  0.95609700  1
  K  K4  1  0.32577900  0.17422100  0.82577900  1
  K  K5  1  0.17422100  0.82577900  0.32577900  1
  K  K6  1  0.67422100  0.67422100  0.67422100  1
  K  K7  1  0.82577900  0.32577900  0.17422100  1
  Yb  Yb8  1  0.16916700  0.16916700  0.16916700  1
  Yb  Yb9  1  0.83083300  0.66916700  0.33083300  1
  Yb  Yb10  1  0.66916700  0.33083300  0.83083300  1
  Yb  Yb11  1  0.33083300  0.83083300  0.66916700  1
  Ti  Ti12  1  0.39542300  0.60457700  0.10457700  1
  Ti  Ti13  1  0.89542300  0.89542300  0.89542300  1
  Ti  Ti14  1  0.10457700  0.39542300  0.60457700  1
  Ti  Ti15  1  0.60457700  0.10457700  0.39542300  1
  P  P16  1  0.20441000  0.86407600  0.99550500  1
  P  P17  1  0.00449500  0.70441000  0.63592400  1
  P  P18  1  0.36407600  0.50449500  0.79559000  1
  P  P19  1  0.70441000  0.63592400  0.00449500  1
  P  P20  1  0.50449500  0.79559000  0.36407600  1
  P  P21  1  0.86407600  0.99550500  0.20441000  1
  P  P22  1  0.79559000  0.36407600  0.50449500  1
  P  P23  1  0.99550500  0.20441000  0.86407600  1
  P  P24  1  0.63592400  0.00449500  0.70441000  1
  P  P25  1  0.29559000  0.13592400  0.49550500  1
  P  P26  1  0.49550500  0.29559000  0.13592400  1
  P  P27  1  0.13592400  0.49550500  0.29559000  1
  O  O28  1  0.05445900  0.83547900  0.98679800  1
  O  O29  1  0.01320200  0.55445900  0.66452100  1
  O  O30  1  0.33547900  0.51320200  0.94554100  1
  O  O31  1  0.55445900  0.66452100  0.01320200  1
  O  O32  1  0.51320200  0.94554100  0.33547900  1
  O  O33  1  0.83547900  0.98679800  0.05445900  1
  O  O34  1  0.94554100  0.33547900  0.51320200  1
  O  O35  1  0.98679800  0.05445900  0.83547900  1
  O  O36  1  0.66452100  0.01320200  0.55445900  1
  O  O37  1  0.44554100  0.16452100  0.48679800  1
  O  O38  1  0.48679800  0.44554100  0.16452100  1
  O  O39  1  0.16452100  0.48679800  0.44554100  1
  O  O40  1  0.26965900  0.73444800  0.04361100  1
  O  O41  1  0.95638900  0.76965900  0.76555200  1
  O  O42  1  0.23444800  0.45638900  0.73034100  1
  O  O43  1  0.76965900  0.76555200  0.95638900  1
  O  O44  1  0.45638900  0.73034100  0.23444800  1
  O  O45  1  0.73444800  0.04361100  0.26965900  1
  O  O46  1  0.73034100  0.23444800  0.45638900  1
  O  O47  1  0.04361100  0.26965900  0.73444800  1
  O  O48  1  0.76555200  0.95638900  0.76965900  1
  O  O49  1  0.23034100  0.26555200  0.54361100  1
  O  O50  1  0.54361100  0.23034100  0.26555200  1
  O  O51  1  0.26555200  0.54361100  0.23034100  1
  O  O52  1  0.26037300  0.90232300  0.86435600  1
  O  O53  1  0.13564400  0.76037300  0.59767700  1
  O  O54  1  0.40232300  0.63564400  0.73962700  1
  O  O55  1  0.76037300  0.59767700  0.13564400  1
  O  O56  1  0.63564400  0.73962700  0.40232300  1
  O  O57  1  0.90232300  0.86435600  0.26037300  1
  O  O58  1  0.73962700  0.40232300  0.63564400  1
  O  O59  1  0.86435600  0.26037300  0.90232300  1
  O  O60  1  0.59767700  0.13564400  0.76037300  1
  O  O61  1  0.23962700  0.09767700  0.36435600  1
  O  O62  1  0.36435600  0.23962700  0.09767700  1
  O  O63  1  0.09767700  0.36435600  0.23962700  1
  O  O64  1  0.22928200  0.96692200  0.09951500  1
  O  O65  1  0.90048500  0.72928200  0.53307800  1
  O  O66  1  0.46692200  0.40048500  0.77071800  1
  O  O67  1  0.72928200  0.53307800  0.90048500  1
  O  O68  1  0.40048500  0.77071800  0.46692200  1
  O  O69  1  0.96692200  0.09951500  0.22928200  1
  O  O70  1  0.77071800  0.46692200  0.40048500  1
  O  O71  1  0.09951500  0.22928200  0.96692200  1
  O  O72  1  0.53307800  0.90048500  0.72928200  1
  O  O73  1  0.27071800  0.03307800  0.59951500  1
  O  O74  1  0.59951500  0.27071800  0.03307800  1
  O  O75  1  0.03307800  0.59951500  0.27071800  1
