# generated using pymatgen
data_GdZr3F15
_symmetry_space_group_name_H-M   'P 1'
_cell_length_a   8.25726620
_cell_length_b   8.25726620
_cell_length_c   8.23564671
_cell_angle_alpha   79.86348075
_cell_angle_beta   79.86348075
_cell_angle_gamma   100.30906113
_symmetry_Int_Tables_number   1
_chemical_formula_structural   GdZr3F15
_chemical_formula_sum   'Gd2 Zr6 F30'
_cell_volume   531.21125691
_cell_formula_units_Z   2
loop_
 _symmetry_equiv_pos_site_id
 _symmetry_equiv_pos_as_xyz
  1  'x, y, z'
loop_
 _atom_site_type_symbol
 _atom_site_label
 _atom_site_symmetry_multiplicity
 _atom_site_fract_x
 _atom_site_fract_y
 _atom_site_fract_z
 _atom_site_occupancy
  Gd  Gd0  1  0.67724900  0.32275100  0.75000000  1
  Gd  Gd1  1  0.32275100  0.67724900  0.25000000  1
  Zr  Zr2  1  0.25102900  0.74897100  0.75000000  1
  Zr  Zr3  1  0.74897100  0.25102900  0.25000000  1
  Zr  Zr4  1  0.82291300  0.75317800  0.32404800  1
  Zr  Zr5  1  0.24682200  0.17708700  0.17595200  1
  Zr  Zr6  1  0.17708700  0.24682200  0.67595200  1
  Zr  Zr7  1  0.75317800  0.82291300  0.82404800  1
  F  F8  1  0.15111700  0.18461800  0.94718000  1
  F  F9  1  0.68724200  0.56673900  0.85064100  1
  F  F10  1  0.03533800  0.65434300  0.31703000  1
  F  F11  1  0.65434300  0.03533800  0.81703000  1
  F  F12  1  0.56673900  0.68724200  0.35064100  1
  F  F13  1  0.18461800  0.15111700  0.44718000  1
  F  F14  1  0.84888300  0.81538200  0.05282000  1
  F  F15  1  0.31275800  0.43326100  0.14935900  1
  F  F16  1  0.96466200  0.34565700  0.68297000  1
  F  F17  1  0.34565700  0.96466200  0.18297000  1
  F  F18  1  0.43326100  0.31275800  0.64935900  1
  F  F19  1  0.81538200  0.84888300  0.55282000  1
  F  F20  1  0.21704200  0.72666300  0.00254800  1
  F  F21  1  0.22509200  0.49422800  0.77931600  1
  F  F22  1  0.99397700  0.72547400  0.77517200  1
  F  F23  1  0.72547400  0.99397700  0.27517200  1
  F  F24  1  0.49422800  0.22509200  0.27931600  1
  F  F25  1  0.72666300  0.21704200  0.50254800  1
  F  F26  1  0.78295800  0.27333700  0.99745200  1
  F  F27  1  0.77490800  0.50577200  0.22068400  1
  F  F28  1  0.00602300  0.27452600  0.22482800  1
  F  F29  1  0.27452600  0.00602300  0.72482800  1
  F  F30  1  0.50577200  0.77490800  0.72068400  1
  F  F31  1  0.27333700  0.78295800  0.49745200  1
  F  F32  1  0.96589100  0.03410900  0.75000000  1
  F  F33  1  0.54766000  0.75372600  0.02612400  1
  F  F34  1  0.24627400  0.45234000  0.47387600  1
  F  F35  1  0.45234000  0.24627400  0.97387600  1
  F  F36  1  0.75372600  0.54766000  0.52612400  1
  F  F37  1  0.03410900  0.96589100  0.25000000  1
