# generated using pymatgen
data_La20Al3Si9O52
_symmetry_space_group_name_H-M   'P 1'
_cell_length_a   7.28055900
_cell_length_b   9.86561317
_cell_length_c   17.08022172
_cell_angle_alpha   90.01298026
_cell_angle_beta   90.04507120
_cell_angle_gamma   90.01068603
_symmetry_Int_Tables_number   1
_chemical_formula_structural   La20Al3Si9O52
_chemical_formula_sum   'La20 Al3 Si9 O52'
_cell_volume   1226.82370667
_cell_formula_units_Z   1
loop_
 _symmetry_equiv_pos_site_id
 _symmetry_equiv_pos_as_xyz
  1  'x, y, z'
loop_
 _atom_site_type_symbol
 _atom_site_label
 _atom_site_symmetry_multiplicity
 _atom_site_fract_x
 _atom_site_fract_y
 _atom_site_fract_z
 _atom_site_occupancy
  La  La0  1  0.50020300  0.99730300  0.33467300  1
  La  La1  1  0.50191400  0.49872300  0.83465300  1
  La  La2  1  0.99790400  0.49472700  0.16714700  1
  La  La3  1  0.99933400  0.00102700  0.66887400  1
  La  La4  1  0.74628000  0.88949300  0.12175400  1
  La  La5  1  0.74681600  0.38315600  0.62017700  1
  La  La6  1  0.74689300  0.73526800  0.49467600  1
  La  La7  1  0.74617100  0.23591800  0.99998200  1
  La  La8  1  0.74724200  0.37795500  0.38130300  1
  La  La9  1  0.74696100  0.88483700  0.88197300  1
  La  La10  1  0.24697200  0.62000000  0.38371700  1
  La  La11  1  0.24694000  0.11088700  0.87907200  1
  La  La12  1  0.24657500  0.76380100  0.00341200  1
  La  La13  1  0.24727000  0.26024300  0.50142800  1
  La  La14  1  0.24664200  0.12552300  0.11580800  1
  La  La15  1  0.24608100  0.62665500  0.61553900  1
  La  La16  1  0.99664900  0.99851400  0.33417800  1
  La  La17  1  0.99491100  0.49859200  0.83463000  1
  La  La18  1  0.49943100  0.49626000  0.16759300  1
  La  La19  1  0.49759500  0.00077700  0.66792900  1
  Al  Al20  1  0.74873900  0.21387400  0.18729500  1
  Al  Al21  1  0.74866400  0.17374800  0.79891800  1
  Al  Al22  1  0.24878000  0.88943200  0.48665800  1
  Si  Si23  1  0.74846500  0.71504000  0.68556400  1
  Si  Si24  1  0.74957400  0.67038100  0.29855400  1
  Si  Si25  1  0.74871900  0.61594700  0.01537800  1
  Si  Si26  1  0.74914800  0.11238300  0.51521900  1
  Si  Si27  1  0.24911300  0.28385800  0.31379100  1
  Si  Si28  1  0.24931100  0.78243500  0.81446600  1
  Si  Si29  1  0.24851500  0.82788000  0.20042400  1
  Si  Si30  1  0.24893500  0.33100800  0.70078700  1
  Si  Si31  1  0.24910400  0.38743600  0.98477600  1
  O  O32  1  0.94277900  0.22314800  0.12406000  1
  O  O33  1  0.93206800  0.71816200  0.62882100  1
  O  O34  1  0.93331300  0.58349600  0.32581700  1
  O  O35  1  0.94249300  0.07451400  0.82641400  1
  O  O36  1  0.93288300  0.69866400  0.04608000  1
  O  O37  1  0.93286700  0.19790700  0.54416300  1
  O  O38  1  0.43290500  0.28309400  0.37094200  1
  O  O39  1  0.43237100  0.77800000  0.87204700  1
  O  O40  1  0.43169600  0.91520700  0.17348600  1
  O  O41  1  0.43259400  0.41803100  0.67390300  1
  O  O42  1  0.44183700  0.79705100  0.45108500  1
  O  O43  1  0.43244700  0.30438300  0.95419600  1
  O  O44  1  0.74521000  0.37285600  0.23581300  1
  O  O45  1  0.74466000  0.86082000  0.73350700  1
  O  O46  1  0.74531500  0.67140300  0.20155700  1
  O  O47  1  0.74511000  0.16865500  0.69509400  1
  O  O48  1  0.74462900  0.47003900  0.06347500  1
  O  O49  1  0.74541900  0.96728100  0.56368500  1
  O  O50  1  0.24512700  0.13837900  0.26553000  1
  O  O51  1  0.24510400  0.63790200  0.76507700  1
  O  O52  1  0.24457900  0.82991400  0.29729300  1
  O  O53  1  0.24516400  0.33096600  0.79779300  1
  O  O54  1  0.24516800  0.04153800  0.43158300  1
  O  O55  1  0.24502900  0.53285800  0.93604000  1
  O  O56  1  0.73674500  0.99858000  0.00155500  1
  O  O57  1  0.73538600  0.49718000  0.49958200  1
  O  O58  1  0.23507600  0.99754800  0.99975900  1
  O  O59  1  0.23609300  0.49810700  0.50119200  1
  O  O60  1  0.55819200  0.21349400  0.12189400  1
  O  O61  1  0.56784800  0.71118900  0.62702300  1
  O  O62  1  0.56846700  0.58453600  0.32968600  1
  O  O63  1  0.55851400  0.07622600  0.83220600  1
  O  O64  1  0.56752400  0.70457800  0.04342500  1
  O  O65  1  0.56786400  0.20300700  0.54144200  1
  O  O66  1  0.06799800  0.28972900  0.37225400  1
  O  O67  1  0.06893100  0.78470100  0.87340600  1
  O  O68  1  0.06829000  0.91417900  0.16908200  1
  O  O69  1  0.06793200  0.41679700  0.66962800  1
  O  O70  1  0.05931300  0.78915200  0.45495600  1
  O  O71  1  0.06871400  0.29833200  0.95671700  1
  O  O72  1  0.75023300  0.07176400  0.24918700  1
  O  O73  1  0.75066100  0.58432000  0.74503900  1
  O  O74  1  0.75159200  0.82348600  0.33589500  1
  O  O75  1  0.74993400  0.33776500  0.83902700  1
  O  O76  1  0.75103100  0.08997400  0.41988600  1
  O  O77  1  0.75085700  0.59505900  0.92010000  1
  O  O78  1  0.25103300  0.41467500  0.25426600  1
  O  O79  1  0.25159500  0.91518900  0.75667100  1
  O  O80  1  0.25098700  0.67323800  0.16477500  1
  O  O81  1  0.25092300  0.17647200  0.66491600  1
  O  O82  1  0.25151600  0.41248500  0.07979500  1
  O  O83  1  0.25013400  0.91089100  0.58883200  1
