# generated using pymatgen
data_K8Zr3Si12SnO40
_symmetry_space_group_name_H-M   'P 1'
_cell_length_a   7.24679300
_cell_length_b   10.33907464
_cell_length_c   13.53332192
_cell_angle_alpha   90.29605169
_cell_angle_beta   90.05466107
_cell_angle_gamma   90.08221076
_symmetry_Int_Tables_number   1
_chemical_formula_structural   K8Zr3Si12SnO40
_chemical_formula_sum   'K8 Zr3 Si12 Sn1 O40'
_cell_volume   1013.97090614
_cell_formula_units_Z   1
loop_
 _symmetry_equiv_pos_site_id
 _symmetry_equiv_pos_as_xyz
  1  'x, y, z'
loop_
 _atom_site_type_symbol
 _atom_site_label
 _atom_site_symmetry_multiplicity
 _atom_site_fract_x
 _atom_site_fract_y
 _atom_site_fract_z
 _atom_site_occupancy
  K  K0  1  0.65591700  0.21948900  0.13777900  1
  K  K1  1  0.15830200  0.28048400  0.86310700  1
  K  K2  1  0.34337000  0.72077700  0.36264600  1
  K  K3  1  0.84222200  0.77432900  0.63555900  1
  K  K4  1  0.21697100  0.43314300  0.58245200  1
  K  K5  1  0.72036000  0.06997800  0.41866800  1
  K  K6  1  0.78129700  0.92966600  0.91753600  1
  K  K7  1  0.28034800  0.56888400  0.08135000  1
  Zr  Zr8  1  0.25868800  0.05455500  0.29238300  1
  Zr  Zr9  1  0.24353900  0.94573000  0.79111300  1
  Zr  Zr10  1  0.74216000  0.55329000  0.20865900  1
  Si  Si11  1  0.23060600  0.03386500  0.54928700  1
  Si  Si12  1  0.73118000  0.46857600  0.45457900  1
  Si  Si13  1  0.76827200  0.52775600  0.95027300  1
  Si  Si14  1  0.27025200  0.96897100  0.04838000  1
  Si  Si15  1  0.08013400  0.63282000  0.83100700  1
  Si  Si16  1  0.58421800  0.86580600  0.16659900  1
  Si  Si17  1  0.91689900  0.13772800  0.66799400  1
  Si  Si18  1  0.41643300  0.36717000  0.33470900  1
  Si  Si19  1  0.50379600  0.17723900  0.67445700  1
  Si  Si20  1  0.00199000  0.32739200  0.32788000  1
  Si  Si21  1  0.49608500  0.66822400  0.82432100  1
  Si  Si22  1  0.99794500  0.82692100  0.17250400  1
  Sn  Sn23  1  0.75850900  0.44452800  0.71006300  1
  O  O24  1  0.31312700  0.72446400  0.57193400  1
  O  O25  1  0.81274600  0.77625600  0.42795500  1
  O  O26  1  0.68410000  0.21986200  0.92778300  1
  O  O27  1  0.18561000  0.27597400  0.07191300  1
  O  O28  1  0.77799200  0.51265600  0.56616900  1
  O  O29  1  0.27387900  0.98971300  0.43770800  1
  O  O30  1  0.22796900  0.01200900  0.93649400  1
  O  O31  1  0.72766000  0.48524000  0.06222700  1
  O  O32  1  0.74633600  0.41025100  0.86700300  1
  O  O33  1  0.24625000  0.08422800  0.13188900  1
  O  O34  1  0.25439700  0.91783000  0.63150200  1
  O  O35  1  0.75687100  0.58278600  0.37041400  1
  O  O36  1  0.94285500  0.29259400  0.68749400  1
  O  O37  1  0.44086600  0.21281400  0.31583700  1
  O  O38  1  0.05966000  0.78772300  0.81370700  1
  O  O39  1  0.56022100  0.71154300  0.18473000  1
  O  O40  1  0.99853600  0.55071000  0.73771200  1
  O  O41  1  0.50403300  0.94980000  0.25861100  1
  O  O42  1  0.99971400  0.05360600  0.75882600  1
  O  O43  1  0.49639300  0.45023500  0.24274500  1
  O  O44  1  0.59842400  0.60730800  0.72841000  1
  O  O45  1  0.09761800  0.89028400  0.26807800  1
  O  O46  1  0.40496500  0.11108000  0.76903500  1
  O  O47  1  0.90340500  0.38992800  0.23234700  1
  O  O48  1  0.36901600  0.15687000  0.57682600  1
  O  O49  1  0.86745700  0.34530800  0.42567800  1
  O  O50  1  0.62676500  0.64844800  0.92341200  1
  O  O51  1  0.13166200  0.84600900  0.07441200  1
  O  O52  1  0.01733100  0.09054200  0.56275700  1
  O  O53  1  0.51607800  0.41518200  0.44010900  1
  O  O54  1  0.98128900  0.58519900  0.93610000  1
  O  O55  1  0.48409300  0.91339600  0.06149300  1
  O  O56  1  0.69836900  0.10175500  0.64633000  1
  O  O57  1  0.19718500  0.40379900  0.35576600  1
  O  O58  1  0.29895700  0.59324400  0.84978100  1
  O  O59  1  0.80303200  0.90288600  0.14505100  1
  O  O60  1  0.52990700  0.33241600  0.68718100  1
  O  O61  1  0.03356900  0.17309300  0.31446100  1
  O  O62  1  0.46563900  0.82285000  0.81168100  1
  O  O63  1  0.96653300  0.67279100  0.18513300  1
