# generated using pymatgen
data_In9Ga3(BiS6)4
_symmetry_space_group_name_H-M   'P 1'
_cell_length_a   3.88425700
_cell_length_b   20.47284027
_cell_length_c   12.59901753
_cell_angle_alpha   83.63688405
_cell_angle_beta   90.00000000
_cell_angle_gamma   90.00000000
_symmetry_Int_Tables_number   1
_chemical_formula_structural   In9Ga3(BiS6)4
_chemical_formula_sum   'In9 Ga3 Bi4 S24'
_cell_volume   995.72400312
_cell_formula_units_Z   1
loop_
 _symmetry_equiv_pos_site_id
 _symmetry_equiv_pos_as_xyz
  1  'x, y, z'
loop_
 _atom_site_type_symbol
 _atom_site_label
 _atom_site_symmetry_multiplicity
 _atom_site_fract_x
 _atom_site_fract_y
 _atom_site_fract_z
 _atom_site_occupancy
  In  In0  1  0.75000000  0.12788700  0.09600800  1
  In  In1  1  0.75000000  0.62847900  0.59618000  1
  In  In2  1  0.25000000  0.37074100  0.39786400  1
  In  In3  1  0.25000000  0.87171800  0.90412300  1
  In  In4  1  0.75000000  0.02498600  0.61762200  1
  In  In5  1  0.75000000  0.52566800  0.11739500  1
  In  In6  1  0.25000000  0.47584500  0.88545000  1
  In  In7  1  0.25000000  0.97484000  0.38235400  1
  In  In8  1  0.75000000  0.41352600  0.67637700  1
  Ga  Ga9  1  0.75000000  0.91673200  0.17762500  1
  Ga  Ga10  1  0.25000000  0.08318300  0.82246900  1
  Ga  Ga11  1  0.25000000  0.58294400  0.32246700  1
  Bi  Bi12  1  0.75000000  0.20448600  0.40567400  1
  Bi  Bi13  1  0.75000000  0.70542500  0.90581400  1
  Bi  Bi14  1  0.25000000  0.29451400  0.09304100  1
  Bi  Bi15  1  0.25000000  0.79474200  0.59424100  1
  S  S16  1  0.75000000  0.42311000  0.01101200  1
  S  S17  1  0.75000000  0.92295300  0.50927700  1
  S  S18  1  0.25000000  0.07763800  0.49021900  1
  S  S19  1  0.25000000  0.57887300  0.99184000  1
  S  S20  1  0.75000000  0.02010900  0.24484500  1
  S  S21  1  0.75000000  0.52444500  0.75067500  1
  S  S22  1  0.25000000  0.48051800  0.25200500  1
  S  S23  1  0.25000000  0.98008100  0.75505900  1
  S  S24  1  0.75000000  0.31931300  0.27864400  1
  S  S25  1  0.75000000  0.82151100  0.78258000  1
  S  S26  1  0.25000000  0.17866500  0.21780500  1
  S  S27  1  0.25000000  0.67973800  0.71730800  1
  S  S28  1  0.75000000  0.24241500  0.98128800  1
  S  S29  1  0.75000000  0.74304400  0.48069800  1
  S  S30  1  0.25000000  0.25757100  0.51822500  1
  S  S31  1  0.25000000  0.75694900  0.01890700  1
  S  S32  1  0.75000000  0.12914400  0.73790100  1
  S  S33  1  0.75000000  0.62930600  0.23907000  1
  S  S34  1  0.25000000  0.36529700  0.77984300  1
  S  S35  1  0.25000000  0.87094300  0.26201200  1
  S  S36  1  0.75000000  0.43058200  0.48092100  1
  S  S37  1  0.75000000  0.92755600  0.99541100  1
  S  S38  1  0.25000000  0.07237400  0.00441400  1
  S  S39  1  0.25000000  0.57214900  0.50533700  1
