# generated using pymatgen
data_GdTiNbBi2O9
_symmetry_space_group_name_H-M   'P 1'
_cell_length_a   5.50872200
_cell_length_b   5.43065400
_cell_length_c   12.91968858
_cell_angle_alpha   78.29209116
_cell_angle_beta   90.00000000
_cell_angle_gamma   90.00000000
_symmetry_Int_Tables_number   1
_chemical_formula_structural   GdTiNbBi2O9
_chemical_formula_sum   'Gd2 Ti2 Nb2 Bi4 O18'
_cell_volume   378.46361907
_cell_formula_units_Z   2
loop_
 _symmetry_equiv_pos_site_id
 _symmetry_equiv_pos_as_xyz
  1  'x, y, z'
loop_
 _atom_site_type_symbol
 _atom_site_label
 _atom_site_symmetry_multiplicity
 _atom_site_fract_x
 _atom_site_fract_y
 _atom_site_fract_z
 _atom_site_occupancy
  Gd  Gd0  1  0.49065900  0.24177000  0.00021600  1
  Gd  Gd1  1  0.99065900  0.75823000  0.99978400  1
  Ti  Ti2  1  0.52908800  0.66495300  0.16867600  1
  Ti  Ti3  1  0.02908800  0.33504700  0.83132400  1
  Nb  Nb4  1  0.53383900  0.82288600  0.83115500  1
  Nb  Nb5  1  0.03383900  0.17711400  0.16884500  1
  Bi  Bi6  1  0.48021700  0.02112000  0.39737900  1
  Bi  Bi7  1  0.47510200  0.42594600  0.60198200  1
  Bi  Bi8  1  0.98021700  0.97888000  0.60262100  1
  Bi  Bi9  1  0.97510200  0.57405400  0.39801800  1
  O  O10  1  0.74566300  0.25786000  0.49893300  1
  O  O11  1  0.74413600  0.75531700  0.50124100  1
  O  O12  1  0.24566300  0.74214000  0.50106700  1
  O  O13  1  0.24413600  0.24468300  0.49875900  1
  O  O14  1  0.57876500  0.65752900  0.99955500  1
  O  O15  1  0.07876500  0.34247100  0.00044500  1
  O  O16  1  0.85387200  0.47578700  0.17336800  1
  O  O17  1  0.85889800  0.64107600  0.82692400  1
  O  O18  1  0.35387200  0.52421300  0.82663200  1
  O  O19  1  0.35889800  0.35892400  0.17307600  1
  O  O20  1  0.54886500  0.68050300  0.30668000  1
  O  O21  1  0.54508600  0.98357800  0.68722800  1
  O  O22  1  0.04886500  0.31949700  0.69332000  1
  O  O23  1  0.04508600  0.01642200  0.31277200  1
  O  O24  1  0.76729400  0.98239500  0.11847400  1
  O  O25  1  0.76831500  0.10001300  0.88125900  1
  O  O26  1  0.26729400  0.01760500  0.88152600  1
  O  O27  1  0.26831500  0.89998700  0.11874100  1
