# generated using pymatgen
data_KMg2P2H31O23
_symmetry_space_group_name_H-M   'P 1'
_cell_length_a   6.60255100
_cell_length_b   6.81102367
_cell_length_c   12.28446184
_cell_angle_alpha   85.02494407
_cell_angle_beta   81.75803835
_cell_angle_gamma   88.81215254
_symmetry_Int_Tables_number   1
_chemical_formula_structural   KMg2P2H31O23
_chemical_formula_sum   'K1 Mg2 P2 H31 O23'
_cell_volume   544.64898637
_cell_formula_units_Z   1
loop_
 _symmetry_equiv_pos_site_id
 _symmetry_equiv_pos_as_xyz
  1  'x, y, z'
loop_
 _atom_site_type_symbol
 _atom_site_label
 _atom_site_symmetry_multiplicity
 _atom_site_fract_x
 _atom_site_fract_y
 _atom_site_fract_z
 _atom_site_occupancy
  K  K0  1  0.44959300  0.46283600  0.21233800  1
  Mg  Mg1  1  0.01068500  0.50115600  0.49671500  1
  Mg  Mg2  1  0.46352700  0.01358100  0.94208500  1
  P  P3  1  0.87916200  0.96040400  0.20075100  1
  P  P4  1  0.09218500  0.05000100  0.80663100  1
  H  H5  1  0.88085600  0.87173000  0.41064800  1
  H  H6  1  0.11556700  0.13463700  0.59380200  1
  H  H7  1  0.77920900  0.26680100  0.85423200  1
  H  H8  1  0.23245500  0.79187800  0.12446500  1
  H  H9  1  0.79521200  0.98852900  0.67591400  1
  H  H10  1  0.20341100  0.02436600  0.32903300  1
  H  H11  1  0.56451100  0.66637200  0.87011600  1
  H  H12  1  0.43796900  0.11004800  0.13259700  1
  H  H13  1  0.54990900  0.99193200  0.69080000  1
  H  H14  1  0.45552000  0.99726000  0.30821500  1
  H  H15  1  0.89768300  0.56520900  0.11178000  1
  H  H16  1  0.14365600  0.43664300  0.88866500  1
  H  H17  1  0.69561100  0.21505700  0.57228500  1
  H  H18  1  0.31733100  0.77983500  0.42161300  1
  H  H19  1  0.77051500  0.76816200  0.89688000  1
  H  H20  1  0.21061900  0.14851600  0.09719700  1
  H  H21  1  0.77129100  0.83042000  0.53419600  1
  H  H22  1  0.24096300  0.16294100  0.47356700  1
  H  H23  1  0.56234700  0.49327300  0.63260600  1
  H  H24  1  0.41377400  0.59997900  0.48762600  1
  H  H25  1  0.88379600  0.34239800  0.08187200  1
  H  H26  1  0.13019800  0.64837800  0.92806600  1
  H  H27  1  0.01477800  0.45490100  0.71951600  1
  H  H28  1  0.98421900  0.54984100  0.27707100  1
  H  H29  1  0.01238800  0.69414100  0.68557200  1
  H  H30  1  0.97800900  0.30671100  0.30901300  1
  H  H31  1  0.55623800  0.34470100  0.83087700  1
  H  H32  1  0.47022500  0.83685400  0.13622700  1
  H  H33  1  0.97554600  0.99307800  0.98952900  1
  H  H34  1  0.70917000  0.30787400  0.44934900  1
  H  H35  1  0.35824600  0.56730900  0.69824700  1
  O  O36  1  0.64076900  0.95188200  0.20714100  1
  O  O37  1  0.32232800  0.03415900  0.81081600  1
  O  O38  1  0.67346800  0.01012900  0.63508200  1
  O  O39  1  0.33032600  0.01449700  0.36500000  1
  O  O40  1  0.80641600  0.46762600  0.09030900  1
  O  O41  1  0.22511200  0.53807900  0.91481700  1
  O  O42  1  0.62680000  0.25584000  0.88037400  1
  O  O43  1  0.37742500  0.79355600  0.08533300  1
  O  O44  1  0.84867300  0.76486100  0.47185100  1
  O  O45  1  0.16236800  0.23579800  0.53227100  1
  O  O46  1  0.01967700  0.56151400  0.65749800  1
  O  O47  1  0.01626300  0.43738900  0.33124800  1
  O  O48  1  0.71781300  0.34635900  0.52333500  1
  O  O49  1  0.30702900  0.63353000  0.44177500  1
  O  O50  1  0.63165900  0.78960000  0.87847200  1
  O  O51  1  0.36121600  0.18546400  0.07953600  1
  O  O52  1  0.98228100  0.75307600  0.19306200  1
  O  O53  1  0.01418300  0.26433000  0.81357200  1
  O  O54  1  0.97219200  0.09066300  0.09412100  1
  O  O55  1  0.98291600  0.92251600  0.91617400  1
  O  O56  1  0.93840800  0.05380400  0.30376500  1
  O  O57  1  0.02989900  0.95617600  0.70682900  1
  O  O58  1  0.50640400  0.56140500  0.69752100  1
