# generated using pymatgen
data_HfTi4(PbO3)5
_symmetry_space_group_name_H-M   'P 1'
_cell_length_a   3.97143100
_cell_length_b   19.70525400
_cell_length_c   4.33295600
_cell_angle_alpha   90.00000000
_cell_angle_beta   90.00000000
_cell_angle_gamma   90.00000000
_symmetry_Int_Tables_number   1
_chemical_formula_structural   HfTi4(PbO3)5
_chemical_formula_sum   'Hf1 Ti4 Pb5 O15'
_cell_volume   339.08871589
_cell_formula_units_Z   1
loop_
 _symmetry_equiv_pos_site_id
 _symmetry_equiv_pos_as_xyz
  1  'x, y, z'
loop_
 _atom_site_type_symbol
 _atom_site_label
 _atom_site_symmetry_multiplicity
 _atom_site_fract_x
 _atom_site_fract_y
 _atom_site_fract_z
 _atom_site_occupancy
  Hf  Hf0  1  0.50000000  0.10000000  0.53615700  1
  Ti  Ti1  1  0.50000000  0.30199500  0.52461300  1
  Ti  Ti2  1  0.50000000  0.50029800  0.52446400  1
  Ti  Ti3  1  0.50000000  0.69970200  0.52446400  1
  Ti  Ti4  1  0.50000000  0.89800500  0.52461300  1
  Pb  Pb5  1  0.00000000  0.99650800  0.98618700  1
  Pb  Pb6  1  0.00000000  0.20349200  0.98618700  1
  Pb  Pb7  1  0.00000000  0.40055000  0.97678800  1
  Pb  Pb8  1  0.00000000  0.60000000  0.97559600  1
  Pb  Pb9  1  0.00000000  0.79945000  0.97678800  1
  O  O10  1  0.50000000  0.10000000  0.07933200  1
  O  O11  1  0.50000000  0.30093900  0.11637300  1
  O  O12  1  0.50000000  0.50006900  0.11843000  1
  O  O13  1  0.50000000  0.69993100  0.11843000  1
  O  O14  1  0.50000000  0.89906100  0.11637300  1
  O  O15  1  0.00000000  0.10000000  0.62149400  1
  O  O16  1  0.00000000  0.30147600  0.61288000  1
  O  O17  1  0.00000000  0.50007400  0.61301900  1
  O  O18  1  0.00000000  0.69992600  0.61301900  1
  O  O19  1  0.00000000  0.89852400  0.61288000  1
  O  O20  1  0.50000000  0.99525700  0.61381000  1
  O  O21  1  0.50000000  0.20474300  0.61381000  1
  O  O22  1  0.50000000  0.40107600  0.61518900  1
  O  O23  1  0.50000000  0.60000000  0.61391400  1
  O  O24  1  0.50000000  0.79892400  0.61518900  1
