# generated using pymatgen
data_K2MgH8(SO6)2
_symmetry_space_group_name_H-M   'P 1'
_cell_length_a   8.06651825
_cell_length_b   8.06651825
_cell_length_c   9.80504240
_cell_angle_alpha   94.71453130
_cell_angle_beta   94.71453130
_cell_angle_gamma   85.47097359
_symmetry_Int_Tables_number   1
_chemical_formula_structural   K2MgH8(SO6)2
_chemical_formula_sum   'K4 Mg2 H16 S4 O24'
_cell_volume   632.01473323
_cell_formula_units_Z   2
loop_
 _symmetry_equiv_pos_site_id
 _symmetry_equiv_pos_as_xyz
  1  'x, y, z'
loop_
 _atom_site_type_symbol
 _atom_site_label
 _atom_site_symmetry_multiplicity
 _atom_site_fract_x
 _atom_site_fract_y
 _atom_site_fract_z
 _atom_site_occupancy
  K  K0  1  0.09948800  0.54023400  0.29577900  1
  K  K1  1  0.53340300  0.11687000  0.29432500  1
  K  K2  1  0.88313000  0.46659700  0.70567500  1
  K  K3  1  0.45976600  0.90051200  0.70422100  1
  Mg  Mg4  1  0.00354100  0.99645900  0.00000000  1
  Mg  Mg5  1  0.50411200  0.49588800  0.00000000  1
  H  H6  1  0.19076300  0.69397000  0.95116400  1
  H  H7  1  0.71736600  0.19275400  0.93364500  1
  H  H8  1  0.80724600  0.28263400  0.06635500  1
  H  H9  1  0.30603000  0.80923700  0.04883600  1
  H  H10  1  0.14195200  0.68792700  0.63226800  1
  H  H11  1  0.69658300  0.14166300  0.63060600  1
  H  H12  1  0.85833700  0.30341700  0.36939400  1
  H  H13  1  0.31207300  0.85804800  0.36773200  1
  H  H14  1  0.93960500  0.93115300  0.25600900  1
  H  H15  1  0.06884700  0.06039500  0.74399100  1
  H  H16  1  0.95307200  0.91158600  0.71903800  1
  H  H17  1  0.08841400  0.04692800  0.28096200  1
  H  H18  1  0.28377600  0.54185100  0.63062700  1
  H  H19  1  0.54325800  0.27308800  0.63046400  1
  H  H20  1  0.72691200  0.45674200  0.36953600  1
  H  H21  1  0.45814900  0.71622400  0.36937300  1
  S  S22  1  0.78716500  0.78980000  0.47626000  1
  S  S23  1  0.21020000  0.21283500  0.52374000  1
  S  S24  1  0.29608300  0.30229700  0.00787900  1
  S  S25  1  0.69770300  0.70391700  0.99212100  1
  O  O26  1  0.24872000  0.64917500  0.67931100  1
  O  O27  1  0.64893000  0.24026800  0.68395600  1
  O  O28  1  0.75973200  0.35107000  0.31604400  1
  O  O29  1  0.35082500  0.75128000  0.32068900  1
  O  O30  1  0.82508600  0.82047300  0.98722700  1
  O  O31  1  0.17952700  0.17491400  0.01277300  1
  O  O32  1  0.35272300  0.37837600  0.14870700  1
  O  O33  1  0.62162400  0.64727700  0.85129300  1
  O  O34  1  0.19518500  0.80481500  0.00000000  1
  O  O35  1  0.81448600  0.18551400  0.00000000  1
  O  O36  1  0.98816400  0.00027000  0.78971600  1
  O  O37  1  0.99973000  0.01183600  0.21028400  1
  O  O38  1  0.23041500  0.44788200  0.92794400  1
  O  O39  1  0.45668800  0.23812500  0.94668500  1
  O  O40  1  0.76187500  0.54331200  0.05331500  1
  O  O41  1  0.55211800  0.76958500  0.07205600  1
  O  O42  1  0.34706700  0.32882600  0.52800600  1
  O  O43  1  0.67117400  0.65293300  0.47199400  1
  O  O44  1  0.86137200  0.78823400  0.34234100  1
  O  O45  1  0.21176600  0.13862800  0.65765900  1
  O  O46  1  0.92335800  0.76041600  0.58853800  1
  O  O47  1  0.69252700  0.95244800  0.50887800  1
  O  O48  1  0.04755200  0.30747300  0.49112200  1
  O  O49  1  0.23958400  0.07664200  0.41146200  1
