# generated using pymatgen
data_MgSc8Ga15Cu29
_symmetry_space_group_name_H-M   'P 1'
_cell_length_a   8.31655800
_cell_length_b   8.47183400
_cell_length_c   11.77731336
_cell_angle_alpha   69.33276064
_cell_angle_beta   90.00000000
_cell_angle_gamma   90.00000000
_symmetry_Int_Tables_number   1
_chemical_formula_structural   MgSc8Ga15Cu29
_chemical_formula_sum   'Mg1 Sc8 Ga15 Cu29'
_cell_volume   776.38806135
_cell_formula_units_Z   1
loop_
 _symmetry_equiv_pos_site_id
 _symmetry_equiv_pos_as_xyz
  1  'x, y, z'
loop_
 _atom_site_type_symbol
 _atom_site_label
 _atom_site_symmetry_multiplicity
 _atom_site_fract_x
 _atom_site_fract_y
 _atom_site_fract_z
 _atom_site_occupancy
  Mg  Mg0  1  0.00000000  0.17316700  0.48515600  1
  Sc  Sc1  1  0.72543800  0.80990900  0.37392600  1
  Sc  Sc2  1  0.71268100  0.18914800  0.63480500  1
  Sc  Sc3  1  0.28731900  0.18914800  0.63480500  1
  Sc  Sc4  1  0.27456200  0.80990900  0.37392600  1
  Sc  Sc5  1  0.50000000  0.69654600  0.99988300  1
  Sc  Sc6  1  0.50000000  0.30143400  0.00091300  1
  Sc  Sc7  1  0.00000000  0.60872500  0.77516800  1
  Sc  Sc8  1  0.00000000  0.39674500  0.21421800  1
  Ga  Ga9  1  0.50000000  0.63708100  0.26245100  1
  Ga  Ga10  1  0.50000000  0.36496800  0.74091700  1
  Ga  Ga11  1  0.50000000  0.89874900  0.73919600  1
  Ga  Ga12  1  0.50000000  0.09748100  0.26051100  1
  Ga  Ga13  1  0.66035000  0.59298400  0.81615300  1
  Ga  Ga14  1  0.65974100  0.40957200  0.18137800  1
  Ga  Ga15  1  0.34025900  0.40957200  0.18137800  1
  Ga  Ga16  1  0.33965000  0.59298400  0.81615300  1
  Ga  Ga17  1  0.50000000  0.06419400  0.87417000  1
  Ga  Ga18  1  0.50000000  0.93467300  0.12450100  1
  Ga  Ga19  1  0.50000000  0.50089700  0.50084900  1
  Ga  Ga20  1  0.50000000  0.00127600  0.49994500  1
  Ga  Ga21  1  0.50000000  0.70393900  0.59693400  1
  Ga  Ga22  1  0.50000000  0.29983800  0.40370900  1
  Ga  Ga23  1  0.00000000  0.50894100  0.50097700  1
  Cu  Cu24  1  0.77553200  0.70231600  0.15441900  1
  Cu  Cu25  1  0.77874400  0.30078500  0.84502300  1
  Cu  Cu26  1  0.22299900  0.85450200  0.84570600  1
  Cu  Cu27  1  0.22033300  0.14300100  0.15618000  1
  Cu  Cu28  1  0.22125600  0.30078500  0.84502300  1
  Cu  Cu29  1  0.22446800  0.70231600  0.15441900  1
  Cu  Cu30  1  0.77966700  0.14300100  0.15618000  1
  Cu  Cu31  1  0.77700100  0.85450200  0.84570600  1
  Cu  Cu32  1  0.76105500  0.53851900  0.62224900  1
  Cu  Cu33  1  0.76463600  0.46092800  0.37881200  1
  Cu  Cu34  1  0.25199200  0.14936200  0.37272400  1
  Cu  Cu35  1  0.24046100  0.85928800  0.61827700  1
  Cu  Cu36  1  0.23536400  0.46092800  0.37881200  1
  Cu  Cu37  1  0.23894500  0.53851900  0.62224900  1
  Cu  Cu38  1  0.75953900  0.85928800  0.61827700  1
  Cu  Cu39  1  0.74800800  0.14936200  0.37272400  1
  Cu  Cu40  1  0.00000000  0.94340300  0.12456700  1
  Cu  Cu41  1  0.00000000  0.05819900  0.87742700  1
  Cu  Cu42  1  0.74837200  0.00114400  0.99953700  1
  Cu  Cu43  1  0.25162800  0.00114400  0.99953700  1
  Cu  Cu44  1  0.00000000  0.68462600  0.29748200  1
  Cu  Cu45  1  0.00000000  0.30737900  0.69681400  1
  Cu  Cu46  1  0.00000000  0.97135200  0.69827300  1
  Cu  Cu47  1  0.00000000  0.02213500  0.31291900  1
  Cu  Cu48  1  0.00000000  0.74734700  0.00178700  1
  Cu  Cu49  1  0.00000000  0.25422300  0.99876400  1
  Cu  Cu50  1  0.83034100  0.50169800  0.99789600  1
  Cu  Cu51  1  0.16965900  0.50169800  0.99789600  1
  Cu  Cu52  1  0.00000000  0.79637200  0.51829600  1
