# generated using pymatgen
data_Gd2ScNbO7
_symmetry_space_group_name_H-M   'P 1'
_cell_length_a   7.43226465
_cell_length_b   7.43226465
_cell_length_c   7.43226465
_cell_angle_alpha   120.57262681
_cell_angle_beta   119.40253256
_cell_angle_gamma   90.02449978
_symmetry_Int_Tables_number   1
_chemical_formula_structural   Gd2ScNbO7
_chemical_formula_sum   'Gd4 Sc2 Nb2 O14'
_cell_volume   290.31762482
_cell_formula_units_Z   2
loop_
 _symmetry_equiv_pos_site_id
 _symmetry_equiv_pos_as_xyz
  1  'x, y, z'
loop_
 _atom_site_type_symbol
 _atom_site_label
 _atom_site_symmetry_multiplicity
 _atom_site_fract_x
 _atom_site_fract_y
 _atom_site_fract_z
 _atom_site_occupancy
  Gd  Gd0  1  0.00000000  0.50000000  0.00000000  1
  Gd  Gd1  1  0.00000000  0.00000000  0.50000000  1
  Gd  Gd2  1  0.00000000  0.50000000  0.50000000  1
  Gd  Gd3  1  0.50000000  0.50000000  0.00000000  1
  Sc  Sc4  1  0.50000000  0.00000000  0.00000000  1
  Sc  Sc5  1  0.50000000  0.50000000  0.50000000  1
  Nb  Nb6  1  0.50000000  0.00000000  0.50000000  1
  Nb  Nb7  1  0.00000000  0.00000000  0.00000000  1
  O  O8  1  0.87851500  0.62851500  0.25000000  1
  O  O9  1  0.12148500  0.37148500  0.75000000  1
  O  O10  1  0.82315100  0.07315100  0.75000000  1
  O  O11  1  0.40205900  0.65205900  0.75000000  1
  O  O12  1  0.84169600  0.67305400  0.76533900  1
  O  O13  1  0.40771500  0.07635800  0.73466100  1
  O  O14  1  0.84169600  0.07635800  0.16864200  1
  O  O15  1  0.40771500  0.67305400  0.33135800  1
  O  O16  1  0.17684900  0.92684900  0.25000000  1
  O  O17  1  0.59794100  0.34794100  0.25000000  1
  O  O18  1  0.15830400  0.32694600  0.23466100  1
  O  O19  1  0.59228500  0.92364200  0.26533900  1
  O  O20  1  0.15830400  0.92364200  0.83135800  1
  O  O21  1  0.59228500  0.32694600  0.66864200  1
