# generated using pymatgen
data_KSr4Si8H17O29
_symmetry_space_group_name_H-M   'P 1'
_cell_length_a   9.25827700
_cell_length_b   9.25827700
_cell_length_c   16.47701700
_cell_angle_alpha   90.00000000
_cell_angle_beta   90.00000000
_cell_angle_gamma   90.00000000
_symmetry_Int_Tables_number   1
_chemical_formula_structural   KSr4Si8H17O29
_chemical_formula_sum   'K2 Sr8 Si16 H34 O58'
_cell_volume   1412.33893087
_cell_formula_units_Z   2
loop_
 _symmetry_equiv_pos_site_id
 _symmetry_equiv_pos_as_xyz
  1  'x, y, z'
loop_
 _atom_site_type_symbol
 _atom_site_label
 _atom_site_symmetry_multiplicity
 _atom_site_fract_x
 _atom_site_fract_y
 _atom_site_fract_z
 _atom_site_occupancy
  K  K0  1  0.00000000  0.00000000  0.50040700  1
  K  K1  1  0.50000000  0.50000000  0.00040700  1
  Sr  Sr2  1  0.39149600  0.23920600  0.50183800  1
  Sr  Sr3  1  0.60850400  0.76079400  0.50183800  1
  Sr  Sr4  1  0.10850400  0.73920600  0.00183800  1
  Sr  Sr5  1  0.89149600  0.26079400  0.00183800  1
  Sr  Sr6  1  0.23920600  0.60850400  0.50183800  1
  Sr  Sr7  1  0.76079400  0.39149600  0.50183800  1
  Sr  Sr8  1  0.73920600  0.89149600  0.00183800  1
  Sr  Sr9  1  0.26079400  0.10850400  0.00183800  1
  Si  Si10  1  0.59354500  0.28129000  0.30766400  1
  Si  Si11  1  0.40645500  0.71871000  0.30766400  1
  Si  Si12  1  0.90645500  0.78129000  0.80766400  1
  Si  Si13  1  0.09354500  0.21871000  0.80766400  1
  Si  Si14  1  0.28129000  0.40645500  0.30766400  1
  Si  Si15  1  0.71871000  0.59354500  0.30766400  1
  Si  Si16  1  0.78129000  0.09354500  0.80766400  1
  Si  Si17  1  0.21871000  0.90645500  0.80766400  1
  Si  Si18  1  0.40673200  0.71912300  0.69207700  1
  Si  Si19  1  0.59326800  0.28087700  0.69207700  1
  Si  Si20  1  0.09326800  0.21912300  0.19207700  1
  Si  Si21  1  0.90673200  0.78087700  0.19207700  1
  Si  Si22  1  0.71912300  0.59326800  0.69207700  1
  Si  Si23  1  0.28087700  0.40673200  0.69207700  1
  Si  Si24  1  0.21912300  0.90673200  0.19207700  1
  Si  Si25  1  0.78087700  0.09326800  0.19207700  1
  H  H26  1  0.67195600  0.07443300  0.40995800  1
  H  H27  1  0.32804400  0.92556700  0.40995800  1
  H  H28  1  0.82804400  0.57443300  0.90995800  1
  H  H29  1  0.17195600  0.42556700  0.90995800  1
  H  H30  1  0.07443300  0.32804400  0.40995800  1
  H  H31  1  0.92556700  0.67195600  0.40995800  1
  H  H32  1  0.57443300  0.17195600  0.90995800  1
  H  H33  1  0.42556700  0.82804400  0.90995800  1
  H  H34  1  0.32715900  0.92592100  0.59057100  1
  H  H35  1  0.67284100  0.07407900  0.59057100  1
  H  H36  1  0.17284100  0.42592100  0.09057100  1
  H  H37  1  0.82715900  0.57407900  0.09057100  1
  H  H38  1  0.92592100  0.67284100  0.59057100  1
  H  H39  1  0.07407900  0.32715900  0.59057100  1
  H  H40  1  0.42592100  0.82715900  0.09057100  1
  H  H41  1  0.57407900  0.17284100  0.09057100  1
  H  H42  1  0.26684500  0.04831800  0.64664300  1
  H  H43  1  0.73315500  0.95168200  0.64664300  1
  H  H44  1  0.23315500  0.54831800  0.14664300  1
  H  H45  1  0.76684500  0.45168200  0.14664300  1
  H  H46  1  0.04831800  0.73315500  0.64664300  1
  H  H47  1  0.95168200  0.26684500  0.64664300  1
  H  H48  1  0.54831800  0.76684500  0.14664300  1
  H  H49  1  0.45168200  0.23315500  0.14664300  1
  H  H50  1  0.73161300  0.95172400  0.35416200  1
  H  H51  1  0.26838700  0.04827600  0.35416200  1
  H  H52  1  0.76838700  0.45172400  0.85416200  1
  H  H53  1  0.23161300  0.54827600  0.85416200  1
  H  H54  1  0.95172400  0.26838700  0.35416200  1
  H  H55  1  0.04827600  0.73161300  0.35416200  1
  H  H56  1  0.45172400  0.23161300  0.85416200  1
  H  H57  1  0.54827600  0.76838700  0.85416200  1
  H  H58  1  0.50000000  0.50000000  0.43799000  1
  H  H59  1  0.00000000  0.00000000  0.93799000  1
  O  O60  1  0.28191700  0.02610200  0.58936500  1
  O  O61  1  0.71808300  0.97389800  0.58936500  1
  O  O62  1  0.21808300  0.52610200  0.08936500  1
  O  O63  1  0.78191700  0.47389800  0.08936500  1
  O  O64  1  0.02610200  0.71808300  0.58936500  1
  O  O65  1  0.97389800  0.28191700  0.58936500  1
  O  O66  1  0.52610200  0.78191700  0.08936500  1
  O  O67  1  0.47389800  0.21808300  0.08936500  1
  O  O68  1  0.71697500  0.97433200  0.41137300  1
  O  O69  1  0.28302500  0.02566800  0.41137300  1
  O  O70  1  0.78302500  0.47433100  0.91137300  1
  O  O71  1  0.21697500  0.52566800  0.91137300  1
  O  O72  1  0.97433200  0.28302500  0.41137300  1
  O  O73  1  0.02566800  0.71697500  0.41137300  1
  O  O74  1  0.47433100  0.21697500  0.91137300  1
  O  O75  1  0.52566800  0.78302500  0.91137300  1
  O  O76  1  0.42420300  0.31103800  0.28053600  1
  O  O77  1  0.57579700  0.68896200  0.28053600  1
  O  O78  1  0.07579700  0.81103800  0.78053600  1
  O  O79  1  0.92420300  0.18896200  0.78053600  1
  O  O80  1  0.31103800  0.57579700  0.28053600  1
  O  O81  1  0.68896200  0.42420300  0.28053600  1
  O  O82  1  0.81103800  0.92420300  0.78053600  1
  O  O83  1  0.18896200  0.07579700  0.78053600  1
  O  O84  1  0.57619400  0.68906200  0.71852400  1
  O  O85  1  0.42380600  0.31093800  0.71852400  1
  O  O86  1  0.92380600  0.18906200  0.21852400  1
  O  O87  1  0.07619400  0.81093800  0.21852400  1
  O  O88  1  0.68906200  0.42380600  0.71852400  1
  O  O89  1  0.31093800  0.57619400  0.71852400  1
  O  O90  1  0.18906200  0.07619400  0.21852400  1
  O  O91  1  0.81093800  0.92380600  0.21852400  1
  O  O92  1  0.64843700  0.14753000  0.25050300  1
  O  O93  1  0.35156300  0.85247000  0.25050300  1
  O  O94  1  0.85156300  0.64753000  0.75050300  1
  O  O95  1  0.14843700  0.35247000  0.75050300  1
  O  O96  1  0.14753000  0.35156300  0.25050300  1
  O  O97  1  0.85247000  0.64843700  0.25050300  1
  O  O98  1  0.64753000  0.14843700  0.75050300  1
  O  O99  1  0.35247000  0.85156300  0.75050300  1
  O  O100  1  0.60738300  0.24168400  0.40272800  1
  O  O101  1  0.39261700  0.75831600  0.40272800  1
  O  O102  1  0.89261700  0.74168400  0.90272800  1
  O  O103  1  0.10738300  0.25831600  0.90272800  1
  O  O104  1  0.24168400  0.39261700  0.40272800  1
  O  O105  1  0.75831600  0.60738300  0.40272800  1
  O  O106  1  0.74168400  0.10738300  0.90272800  1
  O  O107  1  0.25831600  0.89261700  0.90272800  1
  O  O108  1  0.39167900  0.76158000  0.59769200  1
  O  O109  1  0.60832100  0.23842000  0.59769200  1
  O  O110  1  0.10832100  0.26158000  0.09769200  1
  O  O111  1  0.89167900  0.73842000  0.09769200  1
  O  O112  1  0.76158000  0.60832100  0.59769200  1
  O  O113  1  0.23842000  0.39167900  0.59769200  1
  O  O114  1  0.26158000  0.89167900  0.09769200  1
  O  O115  1  0.73842000  0.10832100  0.09769200  1
  O  O116  1  0.50000000  0.50000000  0.49706000  1
  O  O117  1  0.00000000  0.00000000  0.99706000  1
