# generated using pymatgen
data_K14P16Pd9O56
_symmetry_space_group_name_H-M   'P 1'
_cell_length_a   11.95238507
_cell_length_b   11.95238507
_cell_length_c   12.42171215
_cell_angle_alpha   66.42744387
_cell_angle_beta   66.42744387
_cell_angle_gamma   72.53823051
_symmetry_Int_Tables_number   1
_chemical_formula_structural   K14P16Pd9O56
_chemical_formula_sum   'K14 P16 Pd9 O56'
_cell_volume   1469.86821638
_cell_formula_units_Z   1
loop_
 _symmetry_equiv_pos_site_id
 _symmetry_equiv_pos_as_xyz
  1  'x, y, z'
loop_
 _atom_site_type_symbol
 _atom_site_label
 _atom_site_symmetry_multiplicity
 _atom_site_fract_x
 _atom_site_fract_y
 _atom_site_fract_z
 _atom_site_occupancy
  K  K0  1  0.58579300  0.12087500  0.41717700  1
  K  K1  1  0.12087500  0.58579300  0.41717700  1
  K  K2  1  0.41515000  0.87837500  0.58278000  1
  K  K3  1  0.87837500  0.41515000  0.58278000  1
  K  K4  1  0.64807700  0.11353700  0.09833600  1
  K  K5  1  0.11353700  0.64807700  0.09833600  1
  K  K6  1  0.35413400  0.88371900  0.90129600  1
  K  K7  1  0.88371900  0.35413400  0.90129600  1
  K  K8  1  0.84140400  0.84140400  0.40708400  1
  K  K9  1  0.15749200  0.15749200  0.59415100  1
  K  K10  1  0.99924500  0.99924500  0.50114400  1
  K  K11  1  0.25896500  0.74094200  0.50016000  1
  K  K12  1  0.74094200  0.25896500  0.50016000  1
  K  K13  1  0.25285000  0.25285000  0.99926400  1
  P  P14  1  0.13969600  0.92416800  0.19616300  1
  P  P15  1  0.92416800  0.13969600  0.19616300  1
  P  P16  1  0.85994900  0.07548400  0.80369100  1
  P  P17  1  0.07548400  0.85994900  0.80369100  1
  P  P18  1  0.60436600  0.81922700  0.31080200  1
  P  P19  1  0.81922700  0.60436600  0.31080200  1
  P  P20  1  0.39579200  0.18063200  0.68844500  1
  P  P21  1  0.18063200  0.39579200  0.68844500  1
  P  P22  1  0.32093400  0.10889300  0.30092700  1
  P  P23  1  0.10889300  0.32093400  0.30092700  1
  P  P24  1  0.68002600  0.89072100  0.69990000  1
  P  P25  1  0.89072100  0.68002600  0.69990000  1
  P  P26  1  0.42549000  0.62817800  0.19289100  1
  P  P27  1  0.62817800  0.42549000  0.19289100  1
  P  P28  1  0.57584600  0.37167000  0.80669200  1
  P  P29  1  0.37167000  0.57584600  0.80669200  1
  Pd  Pd30  1  0.43453900  0.43453900  0.45248800  1
  Pd  Pd31  1  0.56603400  0.56603400  0.54693900  1
  Pd  Pd32  1  0.41316800  0.91563100  0.15630000  1
  Pd  Pd33  1  0.91563100  0.41316800  0.15630000  1
  Pd  Pd34  1  0.58796300  0.08325800  0.84358800  1
  Pd  Pd35  1  0.08325800  0.58796300  0.84358800  1
  Pd  Pd36  1  0.00004400  0.00004400  0.99956500  1
  Pd  Pd37  1  0.37379300  0.37379300  0.24283700  1
  Pd  Pd38  1  0.62695400  0.62695400  0.75676900  1
  O  O39  1  0.60643300  0.93174400  0.33800500  1
  O  O40  1  0.93174400  0.60643300  0.33800500  1
  O  O41  1  0.39360800  0.06794200  0.66242400  1
  O  O42  1  0.06794200  0.39360800  0.66242400  1
  O  O43  1  0.20330600  0.20330600  0.25857000  1
  O  O44  1  0.79762500  0.79762500  0.74001400  1
  O  O45  1  0.41447400  0.76456200  0.11552000  1
  O  O46  1  0.76456200  0.41447400  0.11552000  1
  O  O47  1  0.58285200  0.23561300  0.88585700  1
  O  O48  1  0.23561300  0.58285200  0.88585700  1
  O  O49  1  0.25297100  0.99025300  0.10921200  1
  O  O50  1  0.99025300  0.25297100  0.10921200  1
  O  O51  1  0.74598200  0.01207000  0.89065200  1
  O  O52  1  0.01207000  0.74598200  0.89065200  1
  O  O53  1  0.27260100  0.00511700  0.41601700  1
  O  O54  1  0.00511700  0.27260100  0.41601700  1
  O  O55  1  0.72749200  0.99483000  0.58373100  1
  O  O56  1  0.99483000  0.72749200  0.58373100  1
  O  O57  1  0.34796300  0.56449700  0.16643700  1
  O  O58  1  0.56449700  0.34796300  0.16643700  1
  O  O59  1  0.65215100  0.43542900  0.83373800  1
  O  O60  1  0.43542900  0.65215100  0.83373800  1
  O  O61  1  0.09085600  0.88177800  0.12219700  1
  O  O62  1  0.88177800  0.09085600  0.12219700  1
  O  O63  1  0.90961700  0.11803800  0.87747700  1
  O  O64  1  0.11803800  0.90961700  0.87747700  1
  O  O65  1  0.74719000  0.74719000  0.28676400  1
  O  O66  1  0.25250900  0.25250900  0.71376300  1
  O  O67  1  0.38557500  0.18683700  0.32686300  1
  O  O68  1  0.18683700  0.38557500  0.32686300  1
  O  O69  1  0.61440200  0.81323100  0.67371900  1
  O  O70  1  0.81323100  0.61440200  0.67371900  1
  O  O71  1  0.51992400  0.73170500  0.42471200  1
  O  O72  1  0.73170500  0.51992400  0.42471200  1
  O  O73  1  0.48008700  0.26820500  0.57575600  1
  O  O74  1  0.26820500  0.48008700  0.57575600  1
  O  O75  1  0.15332200  0.82244400  0.31255500  1
  O  O76  1  0.82244400  0.15332200  0.31255500  1
  O  O77  1  0.84786500  0.17811400  0.68682200  1
  O  O78  1  0.17811400  0.84786500  0.68682200  1
  O  O79  1  0.40523500  0.07635700  0.18152800  1
  O  O80  1  0.07635700  0.40523500  0.18152800  1
  O  O81  1  0.59270900  0.92573300  0.81674200  1
  O  O82  1  0.92573300  0.59270900  0.81674200  1
  O  O83  1  0.56948400  0.56948400  0.14206400  1
  O  O84  1  0.43019000  0.43019000  0.85808400  1
  O  O85  1  0.39170300  0.60593100  0.33288500  1
  O  O86  1  0.60593100  0.39170300  0.33288500  1
  O  O87  1  0.60820300  0.39370100  0.66732900  1
  O  O88  1  0.39370100  0.60820300  0.66732900  1
  O  O89  1  0.02986300  0.02986300  0.24666000  1
  O  O90  1  0.97049700  0.97049700  0.75287700  1
  O  O91  1  0.57813100  0.84675300  0.19030100  1
  O  O92  1  0.84675300  0.57813100  0.19030100  1
  O  O93  1  0.42005500  0.15412300  0.81045400  1
  O  O94  1  0.15412300  0.42005500  0.81045400  1
