# generated using pymatgen
data_InAg(MoO4)2
_symmetry_space_group_name_H-M   'P 1'
_cell_length_a   5.10457282
_cell_length_b   5.03737794
_cell_length_c   19.31771563
_cell_angle_alpha   82.60836835
_cell_angle_beta   82.50655406
_cell_angle_gamma   90.75093941
_symmetry_Int_Tables_number   1
_chemical_formula_structural   InAg(MoO4)2
_chemical_formula_sum   'In3 Ag3 Mo6 O24'
_cell_volume   488.16882529
_cell_formula_units_Z   3
loop_
 _symmetry_equiv_pos_site_id
 _symmetry_equiv_pos_as_xyz
  1  'x, y, z'
loop_
 _atom_site_type_symbol
 _atom_site_label
 _atom_site_symmetry_multiplicity
 _atom_site_fract_x
 _atom_site_fract_y
 _atom_site_fract_z
 _atom_site_occupancy
  In  In0  1  0.42324200  0.92324200  0.15351500  1
  In  In1  1  0.67736600  0.67736600  0.64526700  1
  In  In2  1  0.07224100  0.57224100  0.85551800  1
  Ag  Ag3  1  0.25769200  0.75769200  0.48461700  1
  Ag  Ag4  1  0.49782900  0.49782900  0.00434300  1
  Ag  Ag5  1  0.32607500  0.32607500  0.34785000  1
  Mo  Mo6  1  0.90305100  0.40305100  0.19389700  1
  Mo  Mo7  1  0.15205100  0.15205100  0.69589700  1
  Mo  Mo8  1  0.74610000  0.24610000  0.50779900  1
  Mo  Mo9  1  0.99924800  0.99924800  0.00150500  1
  Mo  Mo10  1  0.84538800  0.84538800  0.30922500  1
  Mo  Mo11  1  0.59605800  0.09605800  0.80788400  1
  O  O12  1  0.58397000  0.67453200  0.36837100  1
  O  O13  1  0.04765900  0.95709600  0.36837100  1
  O  O14  1  0.41767900  0.30844500  0.86490800  1
  O  O15  1  0.71741200  0.82664700  0.86490800  1
  O  O16  1  0.52619400  0.12533800  0.45491400  1
  O  O17  1  0.01889200  0.41974800  0.45491400  1
  O  O18  1  0.88732300  0.28425300  0.94658700  1
  O  O19  1  0.16608900  0.76916000  0.94658700  1
  O  O20  1  0.70087700  0.27196800  0.13252500  1
  O  O21  1  0.16659800  0.59550700  0.13252500  1
  O  O22  1  0.02814400  0.41733400  0.63994400  1
  O  O23  1  0.33191200  0.94272300  0.63994400  1
  O  O24  1  0.56306100  0.47647400  0.56181000  1
  O  O25  1  0.87512900  0.96171600  0.56181000  1
  O  O26  1  0.23571700  0.11418700  0.05287400  1
  O  O27  1  0.71140900  0.83293900  0.05287400  1
  O  O28  1  0.11481600  0.09134100  0.21486700  1
  O  O29  1  0.67031700  0.69379200  0.21486700  1
  O  O30  1  0.82697500  0.92934400  0.71958200  1
  O  O31  1  0.45344300  0.35107400  0.71958200  1
  O  O32  1  0.67161800  0.16439400  0.27641100  1
  O  O33  1  0.05197000  0.55919400  0.27641100  1
  O  O34  1  0.92190600  0.31877700  0.78554700  1
  O  O35  1  0.29254700  0.89567600  0.78554700  1
