# generated using pymatgen
data_GdYCu4
_symmetry_space_group_name_H-M   'P 1'
_cell_length_a   5.53436027
_cell_length_b   5.53436027
_cell_length_c   5.53436027
_cell_angle_alpha   133.64109654
_cell_angle_beta   101.77628241
_cell_angle_gamma   96.07155296
_symmetry_Int_Tables_number   1
_chemical_formula_structural   GdYCu4
_chemical_formula_sum   'Gd1 Y1 Cu4'
_cell_volume   112.57894224
_cell_formula_units_Z   1
loop_
 _symmetry_equiv_pos_site_id
 _symmetry_equiv_pos_as_xyz
  1  'x, y, z'
loop_
 _atom_site_type_symbol
 _atom_site_label
 _atom_site_symmetry_multiplicity
 _atom_site_fract_x
 _atom_site_fract_y
 _atom_site_fract_z
 _atom_site_occupancy
  Gd  Gd0  1  0.46132000  0.46132000  0.00000000  1
  Y  Y1  1  0.03835900  0.53835900  0.50000000  1
  Cu  Cu2  1  0.63587600  0.83502600  0.80085000  1
  Cu  Cu3  1  0.86466100  0.16529000  0.69937100  1
  Cu  Cu4  1  0.46592000  0.16529000  0.30062900  1
  Cu  Cu5  1  0.03417600  0.83502600  0.19915000  1
