# generated using pymatgen
data_Fe2AsSO9
_symmetry_space_group_name_H-M   'P 1'
_cell_length_a   5.28047353
_cell_length_b   5.19874690
_cell_length_c   8.12196109
_cell_angle_alpha   103.23100245
_cell_angle_beta   114.18866652
_cell_angle_gamma   94.00865165
_symmetry_Int_Tables_number   1
_chemical_formula_structural   Fe2AsSO9
_chemical_formula_sum   'Fe2 As1 S1 O9'
_cell_volume   194.59521546
_cell_formula_units_Z   1
loop_
 _symmetry_equiv_pos_site_id
 _symmetry_equiv_pos_as_xyz
  1  'x, y, z'
loop_
 _atom_site_type_symbol
 _atom_site_label
 _atom_site_symmetry_multiplicity
 _atom_site_fract_x
 _atom_site_fract_y
 _atom_site_fract_z
 _atom_site_occupancy
  Fe  Fe0  1  0.02582500  0.06524300  0.55248500  1
  Fe  Fe1  1  0.02411600  0.47292500  0.95184000  1
  As  As2  1  0.36144400  0.12335500  0.25505600  1
  S  S3  1  0.62324300  0.86002100  0.74338800  1
  O  O4  1  0.29864600  0.39790000  0.17044200  1
  O  O5  1  0.67559500  0.63628900  0.83318700  1
  O  O6  1  0.22011900  0.84256800  0.06762500  1
  O  O7  1  0.73678500  0.12584000  0.88703100  1
  O  O8  1  0.72260200  0.15200800  0.35613900  1
  O  O9  1  0.30830000  0.82269200  0.64313500  1
  O  O10  1  0.24915000  0.15010000  0.42582000  1
  O  O11  1  0.74840300  0.83021200  0.60709700  1
  O  O12  1  0.12377000  0.34684700  0.76075300  1
