# generated using pymatgen
data_K5H3(S2O9)2
_symmetry_space_group_name_H-M   'P 1'
_cell_length_a   8.84430912
_cell_length_b   9.99813145
_cell_length_c   10.80960100
_cell_angle_alpha   90.00000000
_cell_angle_beta   90.00000000
_cell_angle_gamma   104.89753823
_symmetry_Int_Tables_number   1
_chemical_formula_structural   K5H3(S2O9)2
_chemical_formula_sum   'K10 H6 S8 O36'
_cell_volume   923.72682399
_cell_formula_units_Z   2
loop_
 _symmetry_equiv_pos_site_id
 _symmetry_equiv_pos_as_xyz
  1  'x, y, z'
loop_
 _atom_site_type_symbol
 _atom_site_label
 _atom_site_symmetry_multiplicity
 _atom_site_fract_x
 _atom_site_fract_y
 _atom_site_fract_z
 _atom_site_occupancy
  K  K0  1  0.73775800  0.26227200  0.87421600  1
  K  K1  1  0.76224200  0.73772800  0.37421600  1
  K  K2  1  0.25471200  0.73706500  0.12481100  1
  K  K3  1  0.24528800  0.26293500  0.62481100  1
  K  K4  1  0.49516200  0.99778300  0.50141200  1
  K  K5  1  0.00483800  0.00221700  0.00141200  1
  K  K6  1  0.04525300  0.68792500  0.72941000  1
  K  K7  1  0.45474700  0.31207500  0.22941000  1
  K  K8  1  0.96497200  0.31412900  0.27224100  1
  K  K9  1  0.53502800  0.68587100  0.77224100  1
  H  H10  1  0.87455900  0.21352300  0.59191500  1
  H  H11  1  0.62544100  0.78647700  0.09191500  1
  H  H12  1  0.12546700  0.78869800  0.40518600  1
  H  H13  1  0.37453300  0.21130200  0.90518600  1
  H  H14  1  0.49743100  0.00502300  0.01671000  1
  H  H15  1  0.00256900  0.99497700  0.51671000  1
  S  S16  1  0.34414200  0.95686500  0.83005300  1
  S  S17  1  0.15585800  0.04313500  0.33005300  1
  S  S18  1  0.66135700  0.04462400  0.17603600  1
  S  S19  1  0.83864300  0.95537600  0.67603600  1
  S  S20  1  0.70194700  0.42233600  0.54743000  1
  S  S21  1  0.79805300  0.57766400  0.04743000  1
  S  S22  1  0.29821500  0.57869100  0.45269900  1
  S  S23  1  0.20178500  0.42130900  0.95269900  1
  O  O24  1  0.50087800  0.97594900  0.89538400  1
  O  O25  1  0.99912200  0.02405100  0.39538400  1
  O  O26  1  0.49615900  0.02894500  0.11649000  1
  O  O27  1  0.00384100  0.97105500  0.61649000  1
  O  O28  1  0.87529400  0.40695300  0.60145500  1
  O  O29  1  0.62470600  0.59304700  0.10145500  1
  O  O30  1  0.12545100  0.59472200  0.39873900  1
  O  O31  1  0.37454900  0.40527800  0.89873900  1
  O  O32  1  0.32039700  0.09755500  0.80498300  1
  O  O33  1  0.17960300  0.90244500  0.30498300  1
  O  O34  1  0.67956300  0.90247800  0.19642200  1
  O  O35  1  0.82043700  0.09752200  0.69642200  1
  O  O36  1  0.92200600  0.29529400  0.53606100  1
  O  O37  1  0.57799400  0.70470600  0.03606100  1
  O  O38  1  0.07967800  0.70724100  0.46337900  1
  O  O39  1  0.42032200  0.29275900  0.96337900  1
  O  O40  1  0.70017000  0.54924000  0.61391200  1
  O  O41  1  0.79983000  0.45076000  0.11391200  1
  O  O42  1  0.29894300  0.45150500  0.38624000  1
  O  O43  1  0.20105700  0.54849500  0.88624000  1
  O  O44  1  0.34984500  0.88208200  0.71339400  1
  O  O45  1  0.15015500  0.11791800  0.21339400  1
  O  O46  1  0.65817500  0.11873700  0.29221700  1
  O  O47  1  0.84182500  0.88126300  0.79221700  1
  O  O48  1  0.71661200  0.43769300  0.41345100  1
  O  O49  1  0.78338800  0.56230700  0.91345100  1
  O  O50  1  0.28335800  0.56293700  0.58671400  1
  O  O51  1  0.21664200  0.43706300  0.08671400  1
  O  O52  1  0.21892100  0.87782300  0.91280000  1
  O  O53  1  0.28107900  0.12217700  0.41280000  1
  O  O54  1  0.77860500  0.12181300  0.08765500  1
  O  O55  1  0.72139500  0.87818700  0.58765500  1
  O  O56  1  0.58633000  0.29788100  0.58886900  1
  O  O57  1  0.91367000  0.70211900  0.08886900  1
  O  O58  1  0.41486600  0.70256900  0.41171600  1
  O  O59  1  0.08513400  0.29743100  0.91171600  1
