# generated using pymatgen
data_Gd3Si2BrO8
_symmetry_space_group_name_H-M   'P 1'
_cell_length_a   10.33129983
_cell_length_b   10.33129983
_cell_length_c   10.33129983
_cell_angle_alpha   144.26020196
_cell_angle_beta   140.42741937
_cell_angle_gamma   54.37369586
_symmetry_Int_Tables_number   1
_chemical_formula_structural   Gd3Si2BrO8
_chemical_formula_sum   'Gd6 Si4 Br2 O16'
_cell_volume   407.56025562
_cell_formula_units_Z   2
loop_
 _symmetry_equiv_pos_site_id
 _symmetry_equiv_pos_as_xyz
  1  'x, y, z'
loop_
 _atom_site_type_symbol
 _atom_site_label
 _atom_site_symmetry_multiplicity
 _atom_site_fract_x
 _atom_site_fract_y
 _atom_site_fract_z
 _atom_site_occupancy
  Gd  Gd0  1  0.09159700  0.71781800  0.63448800  1
  Gd  Gd1  1  0.91666900  0.28218200  0.37377800  1
  Gd  Gd2  1  0.59159700  0.95710900  0.37377800  1
  Gd  Gd3  1  0.41666900  0.04289100  0.63448800  1
  Gd  Gd4  1  0.98379200  0.61981000  0.10360200  1
  Gd  Gd5  1  0.48379200  0.38019000  0.36398300  1
  Si  Si6  1  0.09538300  0.22051100  0.11670300  1
  Si  Si7  1  0.89619200  0.77948900  0.87487200  1
  Si  Si8  1  0.59538300  0.47868000  0.87487200  1
  Si  Si9  1  0.39619200  0.52132000  0.11670300  1
  Br  Br10  1  0.24638100  0.98528600  0.73166700  1
  Br  Br11  1  0.74638100  0.01471400  0.26109400  1
  O  O12  1  0.16290700  0.44303000  0.25518700  1
  O  O13  1  0.81215700  0.55697000  0.71987700  1
  O  O14  1  0.66290700  0.40772000  0.71987700  1
  O  O15  1  0.31215700  0.59228000  0.25518700  1
  O  O16  1  0.80040000  0.64193900  0.21598200  1
  O  O17  1  0.57404200  0.35806100  0.15846100  1
  O  O18  1  0.30040000  0.08441900  0.15846100  1
  O  O19  1  0.07404200  0.91558100  0.21598200  1
  O  O20  1  0.22712600  0.35330500  0.77105800  1
  O  O21  1  0.41775300  0.64669500  0.87382100  1
  O  O22  1  0.72712600  0.95606800  0.87382100  1
  O  O23  1  0.91775300  0.04393200  0.77105800  1
  O  O24  1  0.03514100  0.32237200  0.29243200  1
  O  O25  1  0.97006000  0.67762800  0.71276900  1
  O  O26  1  0.53514100  0.24271000  0.71276900  1
  O  O27  1  0.47006000  0.75729000  0.29243200  1
