# generated using pymatgen
data_La9Ga5S21
_symmetry_space_group_name_H-M   'P 1'
_cell_length_a   11.87805652
_cell_length_b   11.87805652
_cell_length_c   11.87805620
_cell_angle_alpha   94.67921299
_cell_angle_beta   94.67921299
_cell_angle_gamma   94.67920878
_symmetry_Int_Tables_number   1
_chemical_formula_structural   La9Ga5S21
_chemical_formula_sum   'La18 Ga10 S42'
_cell_volume   1658.12160700
_cell_formula_units_Z   2
loop_
 _symmetry_equiv_pos_site_id
 _symmetry_equiv_pos_as_xyz
  1  'x, y, z'
loop_
 _atom_site_type_symbol
 _atom_site_label
 _atom_site_symmetry_multiplicity
 _atom_site_fract_x
 _atom_site_fract_y
 _atom_site_fract_z
 _atom_site_occupancy
  La  La0  1  0.90558000  0.07505500  0.28109100  1
  La  La1  1  0.56317300  0.73481700  0.94315900  1
  La  La2  1  0.24377100  0.41115100  0.61919600  1
  La  La3  1  0.73481700  0.94315900  0.56317300  1
  La  La4  1  0.41115100  0.61919600  0.24377100  1
  La  La5  1  0.07505500  0.28109100  0.90558000  1
  La  La6  1  0.61919600  0.24377100  0.41115100  1
  La  La7  1  0.28109100  0.90558000  0.07505500  1
  La  La8  1  0.94315900  0.56317300  0.73481700  1
  La  La9  1  0.76737700  0.60173000  0.39173400  1
  La  La10  1  0.43118100  0.25918800  0.05107700  1
  La  La11  1  0.10694400  0.93637500  0.73156500  1
  La  La12  1  0.93637500  0.73156500  0.10694400  1
  La  La13  1  0.60173000  0.39173400  0.76737700  1
  La  La14  1  0.25918800  0.05107700  0.43118100  1
  La  La15  1  0.05107700  0.43118100  0.25918800  1
  La  La16  1  0.73156500  0.10694400  0.93637500  1
  La  La17  1  0.39173400  0.76737700  0.60173000  1
  Ga  Ga18  1  0.11301000  0.77832300  0.44801500  1
  Ga  Ga19  1  0.77832300  0.44801500  0.11301000  1
  Ga  Ga20  1  0.44801500  0.11301000  0.77832300  1
  Ga  Ga21  1  0.27831200  0.61324100  0.94804800  1
  Ga  Ga22  1  0.94804800  0.27831200  0.61324100  1
  Ga  Ga23  1  0.61324100  0.94804800  0.27831200  1
  Ga  Ga24  1  0.14376100  0.14376100  0.14376100  1
  Ga  Ga25  1  0.84011500  0.84011500  0.84011500  1
  Ga  Ga26  1  0.34017500  0.34017500  0.34017500  1
  Ga  Ga27  1  0.64349600  0.64349600  0.64349600  1
  S  S28  1  0.32552700  0.99204500  0.65819300  1
  S  S29  1  0.99204500  0.65819300  0.32552700  1
  S  S30  1  0.65819300  0.32552700  0.99204500  1
  S  S31  1  0.15810500  0.49207700  0.82567200  1
  S  S32  1  0.82567200  0.15810500  0.49207700  1
  S  S33  1  0.49207700  0.82567200  0.15810500  1
  S  S34  1  0.20103600  0.66848900  0.11271100  1
  S  S35  1  0.86830000  0.32849800  0.77962400  1
  S  S36  1  0.53386000  0.00733100  0.44031000  1
  S  S37  1  0.32849800  0.77962400  0.86830000  1
  S  S38  1  0.00733100  0.44031000  0.53386000  1
  S  S39  1  0.66848900  0.11271100  0.20103600  1
  S  S40  1  0.44031000  0.53386000  0.00733100  1
  S  S41  1  0.11271100  0.20103600  0.66848900  1
  S  S42  1  0.77962400  0.86830000  0.32849800  1
  S  S43  1  0.28760400  0.81329400  0.37800200  1
  S  S44  1  0.94930000  0.49161400  0.04108000  1
  S  S45  1  0.61981400  0.15158900  0.70783100  1
  S  S46  1  0.15158900  0.70783100  0.61981400  1
  S  S47  1  0.81329400  0.37800200  0.28760400  1
  S  S48  1  0.49161400  0.04108000  0.94930000  1
  S  S49  1  0.04108000  0.94930000  0.49161400  1
  S  S50  1  0.70783100  0.61981400  0.15158900  1
  S  S51  1  0.37800200  0.28760400  0.81329400  1
  S  S52  1  0.21994800  0.34324900  0.11602100  1
  S  S53  1  0.88327100  0.01371500  0.77225500  1
  S  S54  1  0.56424300  0.69807900  0.45534000  1
  S  S55  1  0.01371500  0.77225500  0.88327100  1
  S  S56  1  0.69807900  0.45534000  0.56424300  1
  S  S57  1  0.34324900  0.11602100  0.21994800  1
  S  S58  1  0.45534000  0.56424300  0.69807900  1
  S  S59  1  0.11602100  0.21994800  0.34324900  1
  S  S60  1  0.77225500  0.88327100  0.01371500  1
  S  S61  1  0.08022300  0.94742600  0.19039700  1
  S  S62  1  0.73281400  0.60948900  0.83685400  1
  S  S63  1  0.39673700  0.26546100  0.50692200  1
  S  S64  1  0.26546100  0.50692200  0.39673700  1
  S  S65  1  0.94742600  0.19039700  0.08022300  1
  S  S66  1  0.60948900  0.83685400  0.73281400  1
  S  S67  1  0.83685400  0.73281400  0.60948900  1
  S  S68  1  0.50692200  0.39673700  0.26546100  1
  S  S69  1  0.19039700  0.08022300  0.94742600  1
