# generated using pymatgen
data_K6As8O19
_symmetry_space_group_name_H-M   'P 1'
_cell_length_a   5.39692100
_cell_length_b   11.12776497
_cell_length_c   12.94356433
_cell_angle_alpha   103.58976953
_cell_angle_beta   101.83521261
_cell_angle_gamma   104.00610261
_symmetry_Int_Tables_number   1
_chemical_formula_structural   K6As8O19
_chemical_formula_sum   'K6 As8 O19'
_cell_volume   704.25871869
_cell_formula_units_Z   1
loop_
 _symmetry_equiv_pos_site_id
 _symmetry_equiv_pos_as_xyz
  1  'x, y, z'
loop_
 _atom_site_type_symbol
 _atom_site_label
 _atom_site_symmetry_multiplicity
 _atom_site_fract_x
 _atom_site_fract_y
 _atom_site_fract_z
 _atom_site_occupancy
  K  K0  1  0.83671500  0.02216200  0.65462700  1
  K  K1  1  0.21277700  0.02201300  0.39585500  1
  K  K2  1  0.78189800  0.59884200  0.96568100  1
  K  K3  1  0.20623000  0.38516700  0.01888800  1
  K  K4  1  0.34267700  0.81819000  0.85654000  1
  K  K5  1  0.66831100  0.17642300  0.14597600  1
  As  As6  1  0.49757200  0.28552000  0.70707600  1
  As  As7  1  0.49995900  0.70161400  0.29269000  1
  As  As8  1  0.68357600  0.68087100  0.67697400  1
  As  As9  1  0.32866400  0.33187700  0.32055000  1
  As  As10  1  0.12076100  0.46873000  0.77150000  1
  As  As11  1  0.87819800  0.52708900  0.22457800  1
  As  As12  1  0.13469700  0.71636200  0.54413600  1
  As  As13  1  0.86487300  0.27266500  0.45468300  1
  O  O14  1  0.78496200  0.74238700  0.81890600  1
  O  O15  1  0.22471100  0.26916000  0.17915600  1
  O  O16  1  0.33894400  0.36648100  0.80341000  1
  O  O17  1  0.83494500  0.36143800  0.80168800  1
  O  O18  1  0.66070500  0.63418400  0.19666900  1
  O  O19  1  0.17336500  0.63539900  0.19818600  1
  O  O20  1  0.14936500  0.82102700  0.46696000  1
  O  O21  1  0.81617900  0.13739000  0.49828200  1
  O  O22  1  0.41590000  0.12911900  0.71088000  1
  O  O23  1  0.55310800  0.87632900  0.25884500  1
  O  O24  1  0.23941000  0.58335000  0.89898600  1
  O  O25  1  0.76127800  0.41809700  0.09568600  1
  O  O26  1  0.97186200  0.78514500  0.64774700  1
  O  O27  1  0.46825700  0.78443600  0.64816600  1
  O  O28  1  0.04126000  0.22578200  0.34982400  1
  O  O29  1  0.54207800  0.22654300  0.34730200  1
  O  O30  1  0.31492600  0.09180500  0.91916400  1
  O  O31  1  0.56687200  0.87395500  0.15778800  1
  O  O32  1  0.07206200  0.06294800  0.91429900  1
