# generated using pymatgen
data_Gd2CoB3
_symmetry_space_group_name_H-M   'P 1'
_cell_length_a   3.39918067
_cell_length_b   3.39918067
_cell_length_c   8.19269100
_cell_angle_alpha   90.00000000
_cell_angle_beta   90.00000000
_cell_angle_gamma   120.00001294
_symmetry_Int_Tables_number   1
_chemical_formula_structural   Gd2CoB3
_chemical_formula_sum   'Gd2 Co1 B3'
_cell_volume   81.97957182
_cell_formula_units_Z   1
loop_
 _symmetry_equiv_pos_site_id
 _symmetry_equiv_pos_as_xyz
  1  'x, y, z'
loop_
 _atom_site_type_symbol
 _atom_site_label
 _atom_site_symmetry_multiplicity
 _atom_site_fract_x
 _atom_site_fract_y
 _atom_site_fract_z
 _atom_site_occupancy
  Gd  Gd0  1  0.33333300  0.66666700  0.76469900  1
  Gd  Gd1  1  0.33333300  0.66666700  0.23530100  1
  Co  Co2  1  0.66666700  0.33333300  0.50000000  1
  B  B3  1  0.66666700  0.33333300  0.00000000  1
  B  B4  1  0.00000000  0.00000000  0.50000000  1
  B  B5  1  0.00000000  0.00000000  0.00000000  1
