# generated using pymatgen
data_Ga2Si4Mo3
_symmetry_space_group_name_H-M   'P 1'
_cell_length_a   4.73747750
_cell_length_b   4.73728947
_cell_length_c   6.57127710
_cell_angle_alpha   89.80898628
_cell_angle_beta   90.18922013
_cell_angle_gamma   59.93264117
_symmetry_Int_Tables_number   1
_chemical_formula_structural   Ga2Si4Mo3
_chemical_formula_sum   'Ga2 Si4 Mo3'
_cell_volume   127.62998967
_cell_formula_units_Z   1
loop_
 _symmetry_equiv_pos_site_id
 _symmetry_equiv_pos_as_xyz
  1  'x, y, z'
loop_
 _atom_site_type_symbol
 _atom_site_label
 _atom_site_symmetry_multiplicity
 _atom_site_fract_x
 _atom_site_fract_y
 _atom_site_fract_z
 _atom_site_occupancy
  Ga  Ga0  1  0.16291200  0.66930300  0.67020200  1
  Ga  Ga1  1  0.66931300  0.16291900  0.99645900  1
  Si  Si2  1  0.15949500  0.15962300  0.33335900  1
  Si  Si3  1  0.84127400  0.32430900  0.66516900  1
  Si  Si4  1  0.32442100  0.84132000  0.00149500  1
  Si  Si5  1  0.84039000  0.84036700  0.33335400  1
  Mo  Mo6  1  0.49676400  0.99738500  0.65764100  1
  Mo  Mo7  1  0.99731200  0.49684100  0.00900100  1
  Mo  Mo8  1  0.50352000  0.50353300  0.33332000  1
