# generated using pymatgen
data_GaAgSeS
_symmetry_space_group_name_H-M   'P 1'
_cell_length_a   5.93540130
_cell_length_b   5.93540130
_cell_length_c   6.81149103
_cell_angle_alpha   64.65791440
_cell_angle_beta   64.65791440
_cell_angle_gamma   90.00659378
_symmetry_Int_Tables_number   1
_chemical_formula_structural   GaAgSeS
_chemical_formula_sum   'Ga2 Ag2 Se2 S2'
_cell_volume   191.00012534
_cell_formula_units_Z   2
loop_
 _symmetry_equiv_pos_site_id
 _symmetry_equiv_pos_as_xyz
  1  'x, y, z'
loop_
 _atom_site_type_symbol
 _atom_site_label
 _atom_site_symmetry_multiplicity
 _atom_site_fract_x
 _atom_site_fract_y
 _atom_site_fract_z
 _atom_site_occupancy
  Ga  Ga0  1  0.25253300  0.48698700  0.49971400  1
  Ga  Ga1  1  0.48698700  0.25253300  0.99971400  1
  Ag  Ag2  1  0.75169900  0.01610900  0.50037400  1
  Ag  Ag3  1  0.01610900  0.75169900  0.00037400  1
  Se  Se4  1  0.87483700  0.59248900  0.74950200  1
  Se  Se5  1  0.59248900  0.87483700  0.24950200  1
  S  S6  1  0.37385700  0.16148900  0.75041000  1
  S  S7  1  0.16148900  0.37385700  0.25041000  1
