# generated using pymatgen
data_Ga2CuAgSe4
_symmetry_space_group_name_H-M   'P 1'
_cell_length_a   6.97727806
_cell_length_b   6.97727806
_cell_length_c   6.97727806
_cell_angle_alpha   130.52483638
_cell_angle_beta   130.52483638
_cell_angle_gamma   72.56910997
_symmetry_Int_Tables_number   1
_chemical_formula_structural   Ga2CuAgSe4
_chemical_formula_sum   'Ga2 Cu1 Ag1 Se4'
_cell_volume   191.78488278
_cell_formula_units_Z   1
loop_
 _symmetry_equiv_pos_site_id
 _symmetry_equiv_pos_as_xyz
  1  'x, y, z'
loop_
 _atom_site_type_symbol
 _atom_site_label
 _atom_site_symmetry_multiplicity
 _atom_site_fract_x
 _atom_site_fract_y
 _atom_site_fract_z
 _atom_site_occupancy
  Ga  Ga0  1  0.75000000  0.25000000  0.50000000  1
  Ga  Ga1  1  0.50000000  0.50000000  0.00000000  1
  Cu  Cu2  1  0.00000000  0.00000000  0.00000000  1
  Ag  Ag3  1  0.25000000  0.75000000  0.50000000  1
  Se  Se4  1  0.64612800  0.61886900  0.50149800  1
  Se  Se5  1  0.11737100  0.14463000  0.49850200  1
  Se  Se6  1  0.85537000  0.35387200  0.97274000  1
  Se  Se7  1  0.38113100  0.88262900  0.02726000  1
