# generated using pymatgen
data_Mn5Cu(Te2O5)6
_symmetry_space_group_name_H-M   'P 1'
_cell_length_a   8.94230884
_cell_length_b   15.83750307
_cell_length_c   22.14869505
_cell_angle_alpha   88.23025706
_cell_angle_beta   89.13773956
_cell_angle_gamma   90.60318437
_symmetry_Int_Tables_number   1
_chemical_formula_structural   Mn5Cu(Te2O5)6
_chemical_formula_sum   'Mn20 Cu4 Te48 O120'
_cell_volume   3134.74244960
_cell_formula_units_Z   4
loop_
 _symmetry_equiv_pos_site_id
 _symmetry_equiv_pos_as_xyz
  1  'x, y, z'
loop_
 _atom_site_type_symbol
 _atom_site_label
 _atom_site_symmetry_multiplicity
 _atom_site_fract_x
 _atom_site_fract_y
 _atom_site_fract_z
 _atom_site_occupancy
  Mn  Mn0  1  0.24977998  0.74947363  0.74970493  1
  Mn  Mn1  1  0.25018155  0.41609304  0.08307669  1
  Mn  Mn2  1  0.25003880  0.08282606  0.41638076  1
  Mn  Mn3  1  0.74989541  0.91655724  0.58327578  1
  Mn  Mn4  1  0.75000928  0.58213680  0.91611610  1
  Mn  Mn5  1  0.75006993  0.24984996  0.24992793  1
  Mn  Mn6  1  0.75008363  0.58357842  0.41679147  1
  Mn  Mn7  1  0.75001424  0.25110419  0.75055724  1
  Mn  Mn8  1  0.74996499  0.91682018  0.08342814  1
  Mn  Mn9  1  0.24989553  0.41728118  0.58362900  1
  Mn  Mn10  1  0.24997606  0.08382488  0.91703623  1
  Mn  Mn11  1  0.25007060  0.75055783  0.25026179  1
  Mn  Mn12  1  0.75002799  0.08332606  0.16667842  1
  Mn  Mn13  1  0.75007134  0.75002994  0.50001395  1
  Mn  Mn14  1  0.75005615  0.74968995  0.99988750  1
  Mn  Mn15  1  0.75003552  0.41669377  0.33328424  1
  Mn  Mn16  1  0.74994734  0.08362210  0.66684447  1
  Mn  Mn17  1  0.24998289  0.58330846  0.16641266  1
  Mn  Mn18  1  0.25014063  0.25001918  0.50021540  1
  Mn  Mn19  1  0.24971226  0.91660776  0.83341607  1
  Cu  Cu20  1  0.24966046  0.24985142  0.00009136  1
  Cu  Cu21  1  0.25008702  0.91667446  0.33337425  1
  Cu  Cu22  1  0.25048830  0.58346763  0.66657880  1
  Cu  Cu23  1  0.74998389  0.41667293  0.83330480  1
  Te  Te24  1  0.57067574  0.42330017  0.69517384  1
  Te  Te25  1  0.56619987  0.08905249  0.02756255  1
  Te  Te26  1  0.56624749  0.75571349  0.36092047  1
  Te  Te27  1  0.43222181  0.59057035  0.52763364  1
  Te  Te28  1  0.43096763  0.25720637  0.86136351  1
  Te  Te29  1  0.43222753  0.92395271  0.19424680  1
  Te  Te30  1  0.06783577  0.73373371  0.38456727  1
  Te  Te31  1  0.06895883  0.40096059  0.71769761  1
  Te  Te32  1  0.06778799  0.06699411  0.05118887  1
  Te  Te33  1  0.93381514  0.56641301  0.55027979  1
  Te  Te34  1  0.92930713  0.23469756  0.88378166  1
  Te  Te35  1  0.93368357  0.89974251  0.21690702  1
  Te  Te36  1  0.53653067  0.76449695  0.85032575  1
  Te  Te37  1  0.53529990  0.43215740  0.18395607  1
  Te  Te38  1  0.53538691  0.09900927  0.51751041  1
  Te  Te39  1  0.46214488  0.93108019  0.68426743  1
  Te  Te40  1  0.46231946  0.59775091  0.01728886  1
  Te  Te41  1  0.46216092  0.26463869  0.35078219  1
  Te  Te42  1  0.03785295  0.05592031  0.55957214  1
  Te  Te43  1  0.03760548  0.72244190  0.89277996  1
  Te  Te44  1  0.03788337  0.38927227  0.22594382  1
  Te  Te45  1  0.96471280  0.88959267  0.72692005  1
  Te  Te46  1  0.96346069  0.55529195  0.05957137  1
  Te  Te47  1  0.96465311  0.22275760  0.39347887  1
  Te  Te48  1  0.43612726  0.24469490  0.64044148  1
  Te  Te49  1  0.43591682  0.91047662  0.97289719  1
  Te  Te50  1  0.43581281  0.57735944  0.30627204  1
  Te  Te51  1  0.56249035  0.07738656  0.80751244  1
  Te  Te52  1  0.56304881  0.74369835  0.14064142  1
  Te  Te53  1  0.56332440  0.41053645  0.47407515  1
  Te  Te54  1  0.93684053  0.93559544  0.94890483  1
  Te  Te55  1  0.93681929  0.60230395  0.28224005  1
  Te  Te56  1  0.93745738  0.26912982  0.61570931  1
  Te  Te57  1  0.06384463  0.10216132  0.78288630  1
  Te  Te58  1  0.06406760  0.76741554  0.11600413  1
  Te  Te59  1  0.06425511  0.43429748  0.44942029  1
  Te  Te60  1  0.46587943  0.90017163  0.48325656  1
  Te  Te61  1  0.46709909  0.56415038  0.81734421  1
  Te  Te62  1  0.46593871  0.23342399  0.14998445  1
  Te  Te63  1  0.53581553  0.73178897  0.64982410  1
  Te  Te64  1  0.53399624  0.39799184  0.98353755  1
  Te  Te65  1  0.53550478  0.06518957  0.31651419  1
  Te  Te66  1  0.96594478  0.61075047  0.77084841  1
  Te  Te67  1  0.96421653  0.27701805  0.10451366  1
  Te  Te68  1  0.96452467  0.94381285  0.43796401  1
  Te  Te69  1  0.03407402  0.77773641  0.60564470  1
  Te  Te70  1  0.03292883  0.44451860  0.93695738  1
  Te  Te71  1  0.03407924  0.11101848  0.27230357  1
  O  O72  1  0.11750536  0.48339078  0.65485191  1
  O  O73  1  0.11439552  0.15053736  0.98890462  1
  O  O74  1  0.11471573  0.81722874  0.32227333  1
  O  O75  1  0.89530169  0.64602027  0.48609787  1
  O  O76  1  0.88391384  0.31704299  0.82118046  1
  O  O77  1  0.89513611  0.97930119  0.15269234  1
  O  O78  1  0.60473504  0.69662854  0.43539769  1
  O  O79  1  0.61595257  0.36729667  0.77096221  1
  O  O80  1  0.60471525  0.03000552  0.10202728  1
  O  O81  1  0.38565060  0.53537512  0.60410180  1
  O  O82  1  0.38257490  0.20086931  0.93727728  1
  O  O83  1  0.38525340  0.86877851  0.27071413  1
  O  O84  1  0.67078800  0.95599392  0.67643281  1
  O  O85  1  0.67113304  0.62219320  0.00963125  1
  O  O86  1  0.67092054  0.28927571  0.34305271  1
  O  O87  1  0.32866350  0.78859415  0.84345194  1
  O  O88  1  0.32747258  0.45616618  0.17713881  1
  O  O89  1  0.32766938  0.12300701  0.51042168  1
  O  O90  1  0.17251412  0.88825929  0.74522754  1
  O  O91  1  0.17134976  0.55409571  0.07787975  1
  O  O92  1  0.17234901  0.22148148  0.41183432  1
  O  O93  1  0.82911310  0.05380903  0.57861014  1
  O  O94  1  0.82882710  0.72023787  0.91163954  1
  O  O95  1  0.82921623  0.38711650  0.24510270  1
  O  O96  1  0.89705280  0.18842826  0.67972395  1
  O  O97  1  0.89674015  0.85475050  0.01285171  1
  O  O98  1  0.89681756  0.52150675  0.34623096  1
  O  O99  1  0.10145521  0.02149410  0.84654451  1
  O  O100  1  0.10225862  0.68695265  0.17964037  1
  O  O101  1  0.10225761  0.35368199  0.51297663  1
  O  O102  1  0.39765725  0.96848436  0.89804142  1
  O  O103  1  0.39797343  0.63528953  0.23136418  1
  O  O104  1  0.39868525  0.30263014  0.56541648  1
  O  O105  1  0.60281884  0.13582883  0.73236881  1
  O  O106  1  0.60317919  0.80211795  0.06546343  1
  O  O107  1  0.60318798  0.46886583  0.39886235  1
  O  O108  1  0.32772046  0.70209692  0.65854156  1
  O  O109  1  0.32575714  0.36889201  0.99287841  1
  O  O110  1  0.32737053  0.03546883  0.32509373  1
  O  O111  1  0.67390860  0.87707978  0.49094259  1
  O  O112  1  0.67460775  0.53580208  0.82590776  1
  O  O113  1  0.67397500  0.21041139  0.15757209  1
  O  O114  1  0.82606271  0.78021037  0.58776824  1
  O  O115  1  0.82540823  0.44650829  0.91519902  1
  O  O116  1  0.82602565  0.11364250  0.25439561  1
  O  O117  1  0.17418651  0.61350170  0.74829073  1
  O  O118  1  0.17227398  0.27878236  0.08185003  1
  O  O119  1  0.17267032  0.94530335  0.41528461  1
  O  O120  1  0.38050153  0.37126107  0.67884118  1
  O  O121  1  0.37663507  0.03801997  0.00994597  1
  O  O122  1  0.37652975  0.70487509  0.34322969  1
  O  O123  1  0.62156150  0.53869849  0.51100894  1
  O  O124  1  0.62005438  0.20489580  0.84474248  1
  O  O125  1  0.62157539  0.87216139  0.17769582  1
  O  O126  1  0.87852753  0.69430264  0.35549500  1
  O  O127  1  0.87991860  0.36126331  0.68835715  1
  O  O128  1  0.87842438  0.02765615  0.02218440  1
  O  O129  1  0.12348283  0.52595018  0.52214316  1
  O  O130  1  0.11948766  0.19560998  0.85452681  1
  O  O131  1  0.12332224  0.85923538  0.18876971  1
  O  O132  1  0.52013334  0.99050116  0.55842690  1
  O  O133  1  0.52454889  0.65535853  0.89122400  1
  O  O134  1  0.52023963  0.32363968  0.22497034  1
  O  O135  1  0.47394670  0.82142816  0.72434293  1
  O  O136  1  0.47319013  0.48889737  0.05800067  1
  O  O137  1  0.47380589  0.15526549  0.39089452  1
  O  O138  1  0.02667051  0.74029951  0.80663377  1
  O  O139  1  0.02621974  0.40630795  0.13950786  1
  O  O140  1  0.02617261  0.07279883  0.47322594  1
  O  O141  1  0.97977490  0.90795632  0.64090490  1
  O  O142  1  0.97543726  0.57340633  0.97318586  1
  O  O143  1  0.97982387  0.24117072  0.30746035  1
  O  O144  1  0.62706507  0.29410636  0.65932956  1
  O  O145  1  0.62620716  0.96071180  0.99039614  1
  O  O146  1  0.62618862  0.62750437  0.32383173  1
  O  O147  1  0.37216155  0.12670047  0.82668871  1
  O  O148  1  0.37359740  0.79395517  0.16000901  1
  O  O149  1  0.37361449  0.46054490  0.49334401  1
  O  O150  1  0.12641838  0.97805625  0.97594082  1
  O  O151  1  0.12644044  0.64465365  0.30919610  1
  O  O152  1  0.12778575  0.31111883  0.64224721  1
  O  O153  1  0.87291492  0.14380811  0.80959009  1
  O  O154  1  0.87374803  0.80744629  0.14362825  1
  O  O155  1  0.87386498  0.47427393  0.47710681  1
  O  O156  1  0.48664280  0.67309810  0.77676170  1
  O  O157  1  0.48151916  0.34236754  0.10957496  1
  O  O158  1  0.48152724  0.00911378  0.44290019  1
  O  O159  1  0.51697293  0.84056084  0.60965959  1
  O  O160  1  0.51538545  0.50697354  0.94337764  1
  O  O161  1  0.51670809  0.17396045  0.27626593  1
  O  O162  1  0.98312340  0.92628136  0.52388912  1
  O  O163  1  0.98450790  0.59355301  0.85689637  1
  O  O164  1  0.98326862  0.25983730  0.19045568  1
  O  O165  1  0.01852411  0.76034237  0.69176338  1
  O  O166  1  0.01329216  0.42674264  0.02313319  1
  O  O167  1  0.01855528  0.09348635  0.35840520  1
  O  O168  1  0.55291574  0.68426673  0.56568967  1
  O  O169  1  0.54628365  0.34871254  0.90128842  1
  O  O170  1  0.55276536  0.01765749  0.23242337  1
  O  O171  1  0.45581331  0.51465512  0.73528658  1
  O  O172  1  0.45461729  0.18173840  0.06827211  1
  O  O173  1  0.45461911  0.84842075  0.40163564  1
  O  O174  1  0.04541866  0.65159270  0.59852107  1
  O  O175  1  0.04412321  0.31863569  0.93133531  1
  O  O176  1  0.04526789  0.98491605  0.26508347  1
  O  O177  1  0.94725178  0.81573228  0.43427560  1
  O  O178  1  0.95361418  0.48462585  0.76544296  1
  O  O179  1  0.94720030  0.14906488  0.10099466  1
  O  O180  1  0.05430019  0.85154449  0.89867225  1
  O  O181  1  0.05401398  0.51800665  0.23190442  1
  O  O182  1  0.05415510  0.18457679  0.56525075  1
  O  O183  1  0.94728375  0.01786177  0.73294725  1
  O  O184  1  0.94794177  0.68366989  0.06544798  1
  O  O185  1  0.94748569  0.35086354  0.39914959  1
  O  O186  1  0.55275657  0.14992009  0.60095218  1
  O  O187  1  0.55205534  0.81516195  0.93395228  1
  O  O188  1  0.55256668  0.48246755  0.26746085  1
  O  O189  1  0.44588067  0.98176929  0.76800503  1
  O  O190  1  0.44568882  0.64876488  0.10133434  1
  O  O191  1  0.44592528  0.31534086  0.43474589  1
