# generated using pymatgen
data_GaAgSeS
_symmetry_space_group_name_H-M   'P 1'
_cell_length_a   6.88539082
_cell_length_b   6.88539082
_cell_length_c   6.88539082
_cell_angle_alpha   129.53612708
_cell_angle_beta   128.55792728
_cell_angle_gamma   74.93764056
_symmetry_Int_Tables_number   1
_chemical_formula_structural   GaAgSeS
_chemical_formula_sum   'Ga2 Ag2 Se2 S2'
_cell_volume   191.72197329
_cell_formula_units_Z   2
loop_
 _symmetry_equiv_pos_site_id
 _symmetry_equiv_pos_as_xyz
  1  'x, y, z'
loop_
 _atom_site_type_symbol
 _atom_site_label
 _atom_site_symmetry_multiplicity
 _atom_site_fract_x
 _atom_site_fract_y
 _atom_site_fract_z
 _atom_site_occupancy
  Ga  Ga0  1  0.13151300  0.38151300  0.75000000  1
  Ga  Ga1  1  0.36848700  0.11848700  0.25000000  1
  Ag  Ag2  1  0.63386600  0.88386600  0.75000000  1
  Ag  Ag3  1  0.86613400  0.61613400  0.25000000  1
  Se  Se4  1  0.25000000  0.03015500  0.78015500  1
  Se  Se5  1  0.75000000  0.46984500  0.71984500  1
  S  S6  1  0.45998800  0.75000000  0.20998800  1
  S  S7  1  0.04001200  0.25000000  0.29001200  1
