# generated using pymatgen
data_Ga2Ag2SeS3
_symmetry_space_group_name_H-M   'P 1'
_cell_length_a   5.83337000
_cell_length_b   5.87611509
_cell_length_c   6.75300673
_cell_angle_alpha   64.82328088
_cell_angle_beta   64.41123239
_cell_angle_gamma   90.00000000
_symmetry_Int_Tables_number   1
_chemical_formula_structural   Ga2Ag2SeS3
_chemical_formula_sum   'Ga2 Ag2 Se1 S3'
_cell_volume   184.09003197
_cell_formula_units_Z   1
loop_
 _symmetry_equiv_pos_site_id
 _symmetry_equiv_pos_as_xyz
  1  'x, y, z'
loop_
 _atom_site_type_symbol
 _atom_site_label
 _atom_site_symmetry_multiplicity
 _atom_site_fract_x
 _atom_site_fract_y
 _atom_site_fract_z
 _atom_site_occupancy
  Ga  Ga0  1  0.75873100  0.26027100  0.49399300  1
  Ga  Ga1  1  0.50272500  0.48972900  0.00600700  1
  Ag  Ag2  1  0.24341700  0.74513100  0.49103200  1
  Ag  Ag3  1  0.98444900  0.00486900  0.00896800  1
  Se  Se4  1  0.40611200  0.87500000  0.75000000  1
  S  S5  1  0.62727500  0.58656600  0.24934600  1
  S  S6  1  0.12662000  0.16343400  0.25065400  1
  S  S7  1  0.84067100  0.37500000  0.75000000  1
