# generated using pymatgen
data_FeReB
_symmetry_space_group_name_H-M   'P 1'
_cell_length_a   4.41498284
_cell_length_b   4.37143842
_cell_length_c   4.37143842
_cell_angle_alpha   61.57968070
_cell_angle_beta   74.96271615
_cell_angle_gamma   105.03728385
_symmetry_Int_Tables_number   1
_chemical_formula_structural   FeReB
_chemical_formula_sum   'Fe2 Re2 B2'
_cell_volume   63.96325972
_cell_formula_units_Z   2
loop_
 _symmetry_equiv_pos_site_id
 _symmetry_equiv_pos_as_xyz
  1  'x, y, z'
loop_
 _atom_site_type_symbol
 _atom_site_label
 _atom_site_symmetry_multiplicity
 _atom_site_fract_x
 _atom_site_fract_y
 _atom_site_fract_z
 _atom_site_occupancy
  Fe  Fe0  1  0.50000000  0.32584900  0.82584900  1
  Fe  Fe1  1  0.50000000  0.67415100  0.17415100  1
  Re  Re2  1  0.16981700  0.83490900  0.66509100  1
  Re  Re3  1  0.83018300  0.16509100  0.33490900  1
  B  B4  1  0.00000000  0.25000000  0.75000000  1
  B  B5  1  0.00000000  0.75000000  0.25000000  1
