# generated using pymatgen
data_KCa2(SiO3)8
_symmetry_space_group_name_H-M   'P 1'
_cell_length_a   23.36096900
_cell_length_b   6.64644300
_cell_length_c   7.12925589
_cell_angle_alpha   89.92637566
_cell_angle_beta   90.00000000
_cell_angle_gamma   90.00000000
_symmetry_Int_Tables_number   1
_chemical_formula_structural   KCa2(SiO3)8
_chemical_formula_sum   'K2 Ca4 Si16 O48'
_cell_volume   1106.93974703
_cell_formula_units_Z   2
loop_
 _symmetry_equiv_pos_site_id
 _symmetry_equiv_pos_as_xyz
  1  'x, y, z'
loop_
 _atom_site_type_symbol
 _atom_site_label
 _atom_site_symmetry_multiplicity
 _atom_site_fract_x
 _atom_site_fract_y
 _atom_site_fract_z
 _atom_site_occupancy
  K  K0  1  0.25000000  0.57654500  0.00153400  1
  K  K1  1  0.75000000  0.42345500  0.99846600  1
  Ca  Ca2  1  0.50000000  0.50000000  0.00000000  1
  Ca  Ca3  1  0.00000000  0.50000000  0.00000000  1
  Ca  Ca4  1  0.50000000  0.50000000  0.50000000  1
  Ca  Ca5  1  0.00000000  0.50000000  0.50000000  1
  Si  Si6  1  0.31689900  0.45420000  0.49968900  1
  Si  Si7  1  0.68310100  0.54580000  0.50031100  1
  Si  Si8  1  0.18310100  0.45420000  0.49968900  1
  Si  Si9  1  0.81689900  0.54580000  0.50031100  1
  Si  Si10  1  0.38321300  0.71112800  0.78088600  1
  Si  Si11  1  0.61689100  0.28804200  0.78180300  1
  Si  Si12  1  0.11678700  0.71112800  0.78088600  1
  Si  Si13  1  0.88310900  0.28804200  0.78180300  1
  Si  Si14  1  0.61678700  0.28887200  0.21911400  1
  Si  Si15  1  0.38310900  0.71195800  0.21819700  1
  Si  Si16  1  0.88321300  0.28887200  0.21911400  1
  Si  Si17  1  0.11689100  0.71195800  0.21819700  1
  Si  Si18  1  0.40209100  0.06696700  0.49909700  1
  Si  Si19  1  0.59790900  0.93303300  0.50090300  1
  Si  Si20  1  0.09790900  0.06696700  0.49909700  1
  Si  Si21  1  0.90209100  0.93303300  0.50090300  1
  O  O22  1  0.32743100  0.59058200  0.68752700  1
  O  O23  1  0.67268000  0.40909700  0.68843500  1
  O  O24  1  0.17256900  0.59058200  0.68752700  1
  O  O25  1  0.82732000  0.40909700  0.68843500  1
  O  O26  1  0.67256900  0.40941800  0.31247300  1
  O  O27  1  0.32732000  0.59090300  0.31156500  1
  O  O28  1  0.82743100  0.40941800  0.31247300  1
  O  O29  1  0.17268000  0.59090300  0.31156500  1
  O  O30  1  0.46680200  0.15801300  0.49911900  1
  O  O31  1  0.53319800  0.84198700  0.50088100  1
  O  O32  1  0.03319800  0.15801300  0.49911900  1
  O  O33  1  0.96680200  0.84198700  0.50088100  1
  O  O34  1  0.20270000  0.17860700  0.94980800  1
  O  O35  1  0.79730000  0.82139300  0.05019200  1
  O  O36  1  0.29730000  0.17860700  0.94980800  1
  O  O37  1  0.70270000  0.82139300  0.05019200  1
  O  O38  1  0.25000000  0.38201200  0.50048300  1
  O  O39  1  0.75000000  0.61798800  0.49951700  1
  O  O40  1  0.48087700  0.06384600  0.99946600  1
  O  O41  1  0.51912300  0.93615400  0.00053400  1
  O  O42  1  0.01912300  0.06384600  0.99946600  1
  O  O43  1  0.98087700  0.93615400  0.00053400  1
  O  O44  1  0.44115400  0.58520200  0.76019400  1
  O  O45  1  0.55887700  0.41345400  0.76014700  1
  O  O46  1  0.05884600  0.58520200  0.76019400  1
  O  O47  1  0.94112300  0.41345400  0.76014700  1
  O  O48  1  0.55884600  0.41479800  0.23980600  1
  O  O49  1  0.44112300  0.58654600  0.23985300  1
  O  O50  1  0.94115400  0.41479800  0.23980600  1
  O  O51  1  0.05887700  0.58654600  0.23985300  1
  O  O52  1  0.36226100  0.74368300  0.99940400  1
  O  O53  1  0.63773900  0.25631700  0.00059600  1
  O  O54  1  0.13773900  0.74368300  0.99940400  1
  O  O55  1  0.86226100  0.25631700  0.00059600  1
  O  O56  1  0.35788300  0.25896700  0.49959600  1
  O  O57  1  0.64211700  0.74103300  0.50040400  1
  O  O58  1  0.14211700  0.25896700  0.49959600  1
  O  O59  1  0.85788300  0.74103300  0.50040400  1
  O  O60  1  0.38693100  0.93411400  0.68565100  1
  O  O61  1  0.61348400  0.06415100  0.68824700  1
  O  O62  1  0.11306900  0.93411400  0.68565100  1
  O  O63  1  0.88651600  0.06415100  0.68824700  1
  O  O64  1  0.61306900  0.06588600  0.31434900  1
  O  O65  1  0.38651600  0.93584900  0.31175300  1
  O  O66  1  0.88693100  0.06588600  0.31434900  1
  O  O67  1  0.11348400  0.93584900  0.31175300  1
  O  O68  1  0.25000000  0.08191900  0.92354900  1
  O  O69  1  0.75000000  0.91808100  0.07645100  1
