# generated using pymatgen
data_P2H24AuC8I
_symmetry_space_group_name_H-M   'P 1'
_cell_length_a   11.75447279
_cell_length_b   11.75447279
_cell_length_c   7.85626500
_cell_angle_alpha   90.00000000
_cell_angle_beta   90.00000000
_cell_angle_gamma   119.24655167
_symmetry_Int_Tables_number   1
_chemical_formula_structural   P2H24AuC8I
_chemical_formula_sum   'P4 H48 Au2 C16 I2'
_cell_volume   947.11021179
_cell_formula_units_Z   2
loop_
 _symmetry_equiv_pos_site_id
 _symmetry_equiv_pos_as_xyz
  1  'x, y, z'
loop_
 _atom_site_type_symbol
 _atom_site_label
 _atom_site_symmetry_multiplicity
 _atom_site_fract_x
 _atom_site_fract_y
 _atom_site_fract_z
 _atom_site_occupancy
  P  P0  1  0.51130400  0.80654700  0.25000000  1
  P  P1  1  0.80654700  0.51130400  0.75000000  1
  P  P2  1  0.48869600  0.19345300  0.75000000  1
  P  P3  1  0.19345300  0.48869600  0.25000000  1
  H  H4  1  0.69058700  0.72167100  0.25000000  1
  H  H5  1  0.72167100  0.69058700  0.75000000  1
  H  H6  1  0.30941300  0.27832900  0.75000000  1
  H  H7  1  0.27832900  0.30941300  0.25000000  1
  H  H8  1  0.64255500  0.57328400  0.13668800  1
  H  H9  1  0.57328400  0.64255500  0.86331200  1
  H  H10  1  0.64255500  0.57328400  0.36331200  1
  H  H11  1  0.57328400  0.64255500  0.63668800  1
  H  H12  1  0.35744500  0.42671600  0.86331200  1
  H  H13  1  0.42671600  0.35744500  0.13668800  1
  H  H14  1  0.35744500  0.42671600  0.63668800  1
  H  H15  1  0.42671600  0.35744500  0.36331200  1
  H  H16  1  0.66587200  0.98960100  0.41635100  1
  H  H17  1  0.98960100  0.66587200  0.58364900  1
  H  H18  1  0.66587200  0.98960100  0.08364900  1
  H  H19  1  0.98960100  0.66587200  0.91635100  1
  H  H20  1  0.33412800  0.01039900  0.58364900  1
  H  H21  1  0.01039900  0.33412800  0.41635100  1
  H  H22  1  0.33412800  0.01039900  0.91635100  1
  H  H23  1  0.01039900  0.33412800  0.08364900  1
  H  H24  1  0.68903600  0.85089400  0.44627300  1
  H  H25  1  0.85089400  0.68903600  0.55372700  1
  H  H26  1  0.68903600  0.85089400  0.05372700  1
  H  H27  1  0.85089400  0.68903600  0.94627400  1
  H  H28  1  0.31096400  0.14910600  0.55372700  1
  H  H29  1  0.14910600  0.31096400  0.44627400  1
  H  H30  1  0.31096400  0.14910600  0.94627300  1
  H  H31  1  0.14910600  0.31096400  0.05372700  1
  H  H32  1  0.55625500  0.85654200  0.54979200  1
  H  H33  1  0.85654200  0.55625500  0.45020800  1
  H  H34  1  0.55625500  0.85654200  0.95020800  1
  H  H35  1  0.85654200  0.55625500  0.04979200  1
  H  H36  1  0.44374500  0.14345800  0.45020800  1
  H  H37  1  0.14345800  0.44374500  0.54979200  1
  H  H38  1  0.44374500  0.14345800  0.04979200  1
  H  H39  1  0.14345800  0.44374500  0.95020800  1
  H  H40  1  0.34289800  0.84564000  0.36494900  1
  H  H41  1  0.84564000  0.34289800  0.63505100  1
  H  H42  1  0.34289800  0.84564000  0.13505100  1
  H  H43  1  0.84564000  0.34289800  0.86494900  1
  H  H44  1  0.65710200  0.15436000  0.63505100  1
  H  H45  1  0.15436000  0.65710200  0.36494900  1
  H  H46  1  0.65710200  0.15436000  0.86494900  1
  H  H47  1  0.15436000  0.65710200  0.13505100  1
  H  H48  1  0.46467200  0.98372000  0.25000000  1
  H  H49  1  0.98372000  0.46467200  0.75000000  1
  H  H50  1  0.53532800  0.01628000  0.75000000  1
  H  H51  1  0.01628100  0.53532800  0.25000000  1
  Au  Au52  1  0.42663800  0.57336200  0.25000000  1
  Au  Au53  1  0.57336200  0.42663800  0.75000000  1
  C  C54  1  0.62422700  0.61629800  0.25000000  1
  C  C55  1  0.61629800  0.62422700  0.75000000  1
  C  C56  1  0.37577300  0.38370200  0.75000000  1
  C  C57  1  0.38370200  0.37577300  0.25000000  1
  C  C58  1  0.61639800  0.88303200  0.43389700  1
  C  C59  1  0.88303200  0.61639800  0.56610300  1
  C  C60  1  0.61639800  0.88303200  0.06610300  1
  C  C61  1  0.88303200  0.61639800  0.93389700  1
  C  C62  1  0.38360200  0.11696800  0.56610300  1
  C  C63  1  0.11696800  0.38360200  0.43389700  1
  C  C64  1  0.38360200  0.11696800  0.93389700  1
  C  C65  1  0.11696800  0.38360200  0.06610300  1
  C  C66  1  0.40376500  0.87685000  0.25000000  1
  C  C67  1  0.87685000  0.40376500  0.75000000  1
  C  C68  1  0.59623500  0.12315000  0.75000000  1
  C  C69  1  0.12315000  0.59623500  0.25000000  1
  I  I70  1  0.72609900  0.27390100  0.25000000  1
  I  I71  1  0.27390100  0.72609900  0.75000000  1
