# generated using pymatgen
data_Ge2Pb5SO12
_symmetry_space_group_name_H-M   'P 1'
_cell_length_a   7.49013600
_cell_length_b   10.26967100
_cell_length_c   10.27875203
_cell_angle_alpha   60.21932109
_cell_angle_beta   90.00000000
_cell_angle_gamma   90.00000000
_symmetry_Int_Tables_number   1
_chemical_formula_structural   Ge2Pb5SO12
_chemical_formula_sum   'Ge4 Pb10 S2 O24'
_cell_volume   686.23492971
_cell_formula_units_Z   2
loop_
 _symmetry_equiv_pos_site_id
 _symmetry_equiv_pos_as_xyz
  1  'x, y, z'
loop_
 _atom_site_type_symbol
 _atom_site_label
 _atom_site_symmetry_multiplicity
 _atom_site_fract_x
 _atom_site_fract_y
 _atom_site_fract_z
 _atom_site_occupancy
  Ge  Ge0  1  0.50000000  0.37805800  0.60049100  1
  Ge  Ge1  1  0.00000000  0.98025300  0.62389800  1
  Ge  Ge2  1  0.00000000  0.39478900  0.98538000  1
  Ge  Ge3  1  0.00000000  0.62540100  0.39422700  1
  Pb  Pb4  1  0.50000000  0.74789900  0.26212800  1
  Pb  Pb5  1  0.50000000  0.01581000  0.74161400  1
  Pb  Pb6  1  0.50000000  0.28131500  0.96486100  1
  Pb  Pb7  1  0.00000000  0.26281800  0.74604500  1
  Pb  Pb8  1  0.00000000  0.97296400  0.27319300  1
  Pb  Pb9  1  0.00000000  0.76458600  0.96611900  1
  Pb  Pb10  1  0.76865800  0.33266300  0.34423900  1
  Pb  Pb11  1  0.23809900  0.65057800  0.67728200  1
  Pb  Pb12  1  0.76190100  0.65057800  0.67728200  1
  Pb  Pb13  1  0.23134200  0.33266300  0.34423900  1
  S  S14  1  0.50000000  0.01903700  0.37783900  1
  S  S15  1  0.50000000  0.60079300  0.01930300  1
  O  O16  1  0.66169400  0.07421800  0.28185500  1
  O  O17  1  0.66146000  0.64479200  0.07299600  1
  O  O18  1  0.68490900  0.25374400  0.64739000  1
  O  O19  1  0.18438600  0.91018100  0.75056500  1
  O  O20  1  0.18748000  0.35418700  0.90433400  1
  O  O21  1  0.18538900  0.74997300  0.34153500  1
  O  O22  1  0.81561400  0.91018100  0.75056500  1
  O  O23  1  0.81252000  0.35418700  0.90433400  1
  O  O24  1  0.81461100  0.74997300  0.34153500  1
  O  O25  1  0.33830600  0.07421800  0.28185500  1
  O  O26  1  0.33854000  0.64479200  0.07299600  1
  O  O27  1  0.31509100  0.25374400  0.64739000  1
  O  O28  1  0.50000000  0.08365300  0.48216100  1
  O  O29  1  0.50000000  0.43230400  0.08535400  1
  O  O30  1  0.50000000  0.50138400  0.40370000  1
  O  O31  1  0.00000000  0.88113300  0.52139300  1
  O  O32  1  0.00000000  0.59909100  0.88089600  1
  O  O33  1  0.00000000  0.52115400  0.59742300  1
  O  O34  1  0.50000000  0.85115200  0.46921200  1
  O  O35  1  0.50000000  0.67297500  0.85237100  1
  O  O36  1  0.50000000  0.47805500  0.70212500  1
  O  O37  1  0.00000000  0.17773700  0.50810600  1
  O  O38  1  0.00000000  0.31398200  0.18115400  1
  O  O39  1  0.00000000  0.50298500  0.32061300  1
