# generated using pymatgen
data_Gd7Y5Nb4O28
_symmetry_space_group_name_H-M   'P 1'
_cell_length_a   6.54260300
_cell_length_b   7.56597736
_cell_length_c   12.59656883
_cell_angle_alpha   89.92624991
_cell_angle_beta   79.30883804
_cell_angle_gamma   89.95473725
_symmetry_Int_Tables_number   1
_chemical_formula_structural   Gd7Y5Nb4O28
_chemical_formula_sum   'Gd7 Y5 Nb4 O28'
_cell_volume   612.72064022
_cell_formula_units_Z   1
loop_
 _symmetry_equiv_pos_site_id
 _symmetry_equiv_pos_as_xyz
  1  'x, y, z'
loop_
 _atom_site_type_symbol
 _atom_site_label
 _atom_site_symmetry_multiplicity
 _atom_site_fract_x
 _atom_site_fract_y
 _atom_site_fract_z
 _atom_site_occupancy
  Gd  Gd0  1  0.23165300  0.00785200  0.76784200  1
  Gd  Gd1  1  0.46522800  0.99253800  0.00089000  1
  Gd  Gd2  1  0.96429100  0.99244300  0.49964800  1
  Gd  Gd3  1  0.26807500  0.74903100  0.26700600  1
  Gd  Gd4  1  0.76696300  0.74848700  0.76732200  1
  Gd  Gd5  1  0.23253100  0.25078300  0.23369300  1
  Gd  Gd6  1  0.73246400  0.25139900  0.73329400  1
  Y  Y7  1  0.76869800  0.50765200  0.23160600  1
  Y  Y8  1  0.26895500  0.50765000  0.73164000  1
  Y  Y9  1  0.03761300  0.49213500  0.49945900  1
  Y  Y10  1  0.53703700  0.49207900  0.00013800  1
  Y  Y11  1  0.73236700  0.00716100  0.26768900  1
  Nb  Nb12  1  0.50293000  0.74876100  0.50103500  1
  Nb  Nb13  1  0.00210700  0.74875800  0.00199800  1
  Nb  Nb14  1  0.99853600  0.25085600  0.99880100  1
  Nb  Nb15  1  0.49981600  0.25133800  0.49752500  1
  O  O16  1  0.89677600  0.79396300  0.15429200  1
  O  O17  1  0.39933100  0.79134400  0.65399000  1
  O  O18  1  0.21807400  0.20914800  0.47226000  1
  O  O19  1  0.71759000  0.21003900  0.97270000  1
  O  O20  1  0.60346800  0.29426200  0.34562900  1
  O  O21  1  0.10234900  0.29713400  0.84710900  1
  O  O22  1  0.28061200  0.70319400  0.02645900  1
  O  O23  1  0.78123300  0.70265700  0.52522700  1
  O  O24  1  0.05365700  0.49988900  0.31511500  1
  O  O25  1  0.55338800  0.50005100  0.81545400  1
  O  O26  1  0.44689600  0.00119800  0.18685200  1
  O  O27  1  0.94360800  0.99997400  0.68528100  1
  O  O28  1  0.89470900  0.50001400  0.03652000  1
  O  O29  1  0.39574700  0.49989000  0.53388600  1
  O  O30  1  0.60011400  0.99992800  0.46561300  1
  O  O31  1  0.09899000  0.00004700  0.96724000  1
  O  O32  1  0.04002300  0.99940000  0.31873000  1
  O  O33  1  0.54188300  0.00002800  0.81972300  1
  O  O34  1  0.46160100  0.50018500  0.18002100  1
  O  O35  1  0.96190800  0.49997600  0.67925900  1
  O  O36  1  0.21198800  0.77040900  0.45778300  1
  O  O37  1  0.71113500  0.77006900  0.95852600  1
  O  O38  1  0.91594300  0.22654600  0.16523300  1
  O  O39  1  0.41813800  0.22903800  0.66467600  1
  O  O40  1  0.28683900  0.27593100  0.04147800  1
  O  O41  1  0.78737000  0.27623900  0.54015600  1
  O  O42  1  0.58450100  0.72631900  0.33515100  1
  O  O43  1  0.08286700  0.72420500  0.83605100  1
