# generated using pymatgen
data_Fe3Ni3Pt2
_symmetry_space_group_name_H-M   'P 1'
_cell_length_a   3.64784400
_cell_length_b   3.68160500
_cell_length_c   7.23053100
_cell_angle_alpha   90.00000000
_cell_angle_beta   90.00000000
_cell_angle_gamma   90.00000000
_symmetry_Int_Tables_number   1
_chemical_formula_structural   Fe3Ni3Pt2
_chemical_formula_sum   'Fe3 Ni3 Pt2'
_cell_volume   97.10545802
_cell_formula_units_Z   1
loop_
 _symmetry_equiv_pos_site_id
 _symmetry_equiv_pos_as_xyz
  1  'x, y, z'
loop_
 _atom_site_type_symbol
 _atom_site_label
 _atom_site_symmetry_multiplicity
 _atom_site_fract_x
 _atom_site_fract_y
 _atom_site_fract_z
 _atom_site_occupancy
  Fe  Fe0  1  0.50000000  0.50000000  0.25385600  1
  Fe  Fe1  1  0.50000000  0.50000000  0.74614400  1
  Fe  Fe2  1  0.00000000  0.50000000  0.50000000  1
  Ni  Ni3  1  0.00000000  0.50000000  0.00000000  1
  Ni  Ni4  1  0.50000000  0.00000000  0.50000000  1
  Ni  Ni5  1  0.50000000  0.00000000  0.00000000  1
  Pt  Pt6  1  0.00000000  0.00000000  0.24957900  1
  Pt  Pt7  1  0.00000000  0.00000000  0.75042100  1
