# generated using pymatgen
data_Gd3ErNi4
_symmetry_space_group_name_H-M   'P 1'
_cell_length_a   3.75503618
_cell_length_b   4.22992237
_cell_length_c   10.20961607
_cell_angle_alpha   90.00000000
_cell_angle_beta   90.00000000
_cell_angle_gamma   90.00000000
_symmetry_Int_Tables_number   1
_chemical_formula_structural   Gd3ErNi4
_chemical_formula_sum   'Gd3 Er1 Ni4'
_cell_volume   162.16455465
_cell_formula_units_Z   1
loop_
 _symmetry_equiv_pos_site_id
 _symmetry_equiv_pos_as_xyz
  1  'x, y, z'
loop_
 _atom_site_type_symbol
 _atom_site_label
 _atom_site_symmetry_multiplicity
 _atom_site_fract_x
 _atom_site_fract_y
 _atom_site_fract_z
 _atom_site_occupancy
  Gd  Gd0  1  0.00000000  0.75000000  0.86210833  1
  Gd  Gd1  1  0.00000000  0.25000000  0.14263644  1
  Gd  Gd2  1  0.50000000  0.25000000  0.63593850  1
  Er  Er3  1  0.50000000  0.75000000  0.36252767  1
  Ni  Ni4  1  0.50000000  0.75000000  0.07394517  1
  Ni  Ni5  1  0.00000000  0.75000000  0.56750343  1
  Ni  Ni6  1  0.00000000  0.25000000  0.42658329  1
  Ni  Ni7  1  0.50000000  0.25000000  0.92875717  1
