# generated using pymatgen
data_Ga2Fe6C
_symmetry_space_group_name_H-M   'P 1'
_cell_length_a   3.77689200
_cell_length_b   3.77689200
_cell_length_c   7.12349400
_cell_angle_alpha   90.00000000
_cell_angle_beta   90.00000000
_cell_angle_gamma   90.00000000
_symmetry_Int_Tables_number   1
_chemical_formula_structural   Ga2Fe6C
_chemical_formula_sum   'Ga2 Fe6 C1'
_cell_volume   101.61602345
_cell_formula_units_Z   1
loop_
 _symmetry_equiv_pos_site_id
 _symmetry_equiv_pos_as_xyz
  1  'x, y, z'
loop_
 _atom_site_type_symbol
 _atom_site_label
 _atom_site_symmetry_multiplicity
 _atom_site_fract_x
 _atom_site_fract_y
 _atom_site_fract_z
 _atom_site_occupancy
  Ga  Ga0  1  0.00000000  0.00000000  0.74728400  1
  Ga  Ga1  1  0.00000000  0.00000000  0.25271600  1
  Fe  Fe2  1  0.50000000  0.50000000  0.73031700  1
  Fe  Fe3  1  0.50000000  0.50000000  0.26968300  1
  Fe  Fe4  1  0.50000000  0.00000000  0.00000000  1
  Fe  Fe5  1  0.50000000  0.00000000  0.50000000  1
  Fe  Fe6  1  0.00000000  0.50000000  0.00000000  1
  Fe  Fe7  1  0.00000000  0.50000000  0.50000000  1
  C  C8  1  0.50000000  0.50000000  0.00000000  1
