# generated using pymatgen
data_FeCoAs4
_symmetry_space_group_name_H-M   'P 1'
_cell_length_a   2.96968700
_cell_length_b   5.22071400
_cell_length_c   5.94202965
_cell_angle_alpha   89.93645618
_cell_angle_beta   90.00000000
_cell_angle_gamma   90.00000000
_symmetry_Int_Tables_number   1
_chemical_formula_structural   FeCoAs4
_chemical_formula_sum   'Fe1 Co1 As4'
_cell_volume   92.12449666
_cell_formula_units_Z   1
loop_
 _symmetry_equiv_pos_site_id
 _symmetry_equiv_pos_as_xyz
  1  'x, y, z'
loop_
 _atom_site_type_symbol
 _atom_site_label
 _atom_site_symmetry_multiplicity
 _atom_site_fract_x
 _atom_site_fract_y
 _atom_site_fract_z
 _atom_site_occupancy
  Fe  Fe0  1  0.00000000  0.00000000  0.00000000  1
  Co  Co1  1  0.50000000  0.50000000  0.50000000  1
  As  As2  1  0.50000000  0.31713800  0.13729900  1
  As  As3  1  0.50000000  0.68286200  0.86270100  1
  As  As4  1  0.00000000  0.81801100  0.36090700  1
  As  As5  1  0.00000000  0.18198900  0.63909300  1
