# generated using pymatgen
data_H12C4S2BrNO
_symmetry_space_group_name_H-M   'P 1'
_cell_length_a   8.04713000
_cell_length_b   9.86243200
_cell_length_c   12.03806800
_cell_angle_alpha   90.00000000
_cell_angle_beta   90.00000000
_cell_angle_gamma   90.00000000
_symmetry_Int_Tables_number   1
_chemical_formula_structural   H12C4S2BrNO
_chemical_formula_sum   'H48 C16 S8 Br4 N4 O4'
_cell_volume   955.39250816
_cell_formula_units_Z   4
loop_
 _symmetry_equiv_pos_site_id
 _symmetry_equiv_pos_as_xyz
  1  'x, y, z'
loop_
 _atom_site_type_symbol
 _atom_site_label
 _atom_site_symmetry_multiplicity
 _atom_site_fract_x
 _atom_site_fract_y
 _atom_site_fract_z
 _atom_site_occupancy
  H  H0  1  0.90845400  0.57953300  0.92367200  1
  H  H1  1  0.59154600  0.07953300  0.57632800  1
  H  H2  1  0.40845400  0.42046700  0.07632800  1
  H  H3  1  0.09154600  0.92046700  0.42367200  1
  H  H4  1  0.09154600  0.42046700  0.07632800  1
  H  H5  1  0.40845400  0.92046700  0.42367200  1
  H  H6  1  0.59154600  0.57953300  0.92367200  1
  H  H7  1  0.90845400  0.07953300  0.57632800  1
  H  H8  1  0.03532300  0.45096900  0.85638700  1
  H  H9  1  0.46467700  0.95096900  0.64361300  1
  H  H10  1  0.53532300  0.54903100  0.14361300  1
  H  H11  1  0.96467700  0.04903100  0.35638700  1
  H  H12  1  0.96467700  0.54903100  0.14361300  1
  H  H13  1  0.53532300  0.04903100  0.35638700  1
  H  H14  1  0.46467700  0.45096900  0.85638700  1
  H  H15  1  0.03532300  0.95096900  0.64361300  1
  H  H16  1  0.90795500  0.03244300  0.10573600  1
  H  H17  1  0.59204500  0.53244300  0.39426400  1
  H  H18  1  0.40795500  0.96755700  0.89426400  1
  H  H19  1  0.09204500  0.46755700  0.60573600  1
  H  H20  1  0.09204500  0.96755700  0.89426400  1
  H  H21  1  0.40795500  0.46755700  0.60573600  1
  H  H22  1  0.59204500  0.03244300  0.10573600  1
  H  H23  1  0.90795500  0.53244300  0.39426400  1
  H  H24  1  0.03504000  0.16175400  0.03948000  1
  H  H25  1  0.46496000  0.66175400  0.46052000  1
  H  H26  1  0.53504000  0.83824600  0.96052000  1
  H  H27  1  0.96496000  0.33824600  0.53948000  1
  H  H28  1  0.96496000  0.83824600  0.96052000  1
  H  H29  1  0.53504000  0.33824600  0.53948000  1
  H  H30  1  0.46496000  0.16175400  0.03948000  1
  H  H31  1  0.03504000  0.66175400  0.46052000  1
  H  H32  1  0.90912900  0.20184700  0.16241500  1
  H  H33  1  0.59087100  0.70184700  0.33758500  1
  H  H34  1  0.40912900  0.79815300  0.83758500  1
  H  H35  1  0.09087100  0.29815300  0.66241500  1
  H  H36  1  0.09087100  0.79815300  0.83758500  1
  H  H37  1  0.40912900  0.29815300  0.66241500  1
  H  H38  1  0.59087100  0.20184700  0.16241500  1
  H  H39  1  0.90912900  0.70184700  0.33758500  1
  H  H40  1  0.91393400  0.57022900  0.77389000  1
  H  H41  1  0.58606600  0.07022900  0.72611000  1
  H  H42  1  0.41393400  0.42977100  0.22611000  1
  H  H43  1  0.08606600  0.92977100  0.27389000  1
  H  H44  1  0.08606600  0.42977100  0.22611000  1
  H  H45  1  0.41393400  0.92977100  0.27389000  1
  H  H46  1  0.58606600  0.57022900  0.77389000  1
  H  H47  1  0.91393400  0.07022900  0.72611000  1
  C  C48  1  0.92015600  0.14122300  0.08617000  1
  C  C49  1  0.57984400  0.64122300  0.41383000  1
  C  C50  1  0.42015600  0.85877700  0.91383000  1
  C  C51  1  0.07984400  0.35877700  0.58617000  1
  C  C52  1  0.07984400  0.85877700  0.91383000  1
  C  C53  1  0.42015600  0.35877700  0.58617000  1
  C  C54  1  0.57984400  0.14122300  0.08617000  1
  C  C55  1  0.92015600  0.64122300  0.41383000  1
  C  C56  1  0.92107200  0.51225200  0.85162100  1
  C  C57  1  0.57892800  0.01225200  0.64837900  1
  C  C58  1  0.42107200  0.48774800  0.14837900  1
  C  C59  1  0.07892800  0.98774800  0.35162100  1
  C  C60  1  0.07892800  0.48774800  0.14837900  1
  C  C61  1  0.42107200  0.98774800  0.35162100  1
  C  C62  1  0.57892800  0.51225200  0.85162100  1
  C  C63  1  0.92107200  0.01225200  0.64837900  1
  S  S64  1  0.75000000  0.17541700  0.99463500  1
  S  S65  1  0.75000000  0.67541700  0.50536500  1
  S  S66  1  0.25000000  0.82458300  0.00536500  1
  S  S67  1  0.25000000  0.32458300  0.49463500  1
  S  S68  1  0.75000000  0.39933500  0.85681500  1
  S  S69  1  0.75000000  0.89933500  0.64318500  1
  S  S70  1  0.25000000  0.60066500  0.14318500  1
  S  S71  1  0.25000000  0.10066500  0.35681500  1
  Br  Br72  1  0.25000000  0.22754100  0.87159900  1
  Br  Br73  1  0.25000000  0.72754100  0.62840100  1
  Br  Br74  1  0.75000000  0.77245900  0.12840100  1
  Br  Br75  1  0.75000000  0.27245900  0.37159900  1
  N  N76  1  0.75000000  0.34048900  0.97964000  1
  N  N77  1  0.75000000  0.84048900  0.52036000  1
  N  N78  1  0.25000000  0.65951100  0.02036000  1
  N  N79  1  0.25000000  0.15951100  0.47964000  1
  O  O80  1  0.75000000  0.30611000  0.76318100  1
  O  O81  1  0.75000000  0.80611000  0.73681900  1
  O  O82  1  0.25000000  0.69389000  0.23681900  1
  O  O83  1  0.25000000  0.19389000  0.26318100  1
