# generated using pymatgen
data_FePO4
_symmetry_space_group_name_H-M   'P 1'
_cell_length_a   6.39968400
_cell_length_b   7.91109594
_cell_length_c   9.40586737
_cell_angle_alpha   105.07755613
_cell_angle_beta   107.73696446
_cell_angle_gamma   100.75521530
_symmetry_Int_Tables_number   1
_chemical_formula_structural   FePO4
_chemical_formula_sum   'Fe6 P6 O24'
_cell_volume   419.25592033
_cell_formula_units_Z   6
loop_
 _symmetry_equiv_pos_site_id
 _symmetry_equiv_pos_as_xyz
  1  'x, y, z'
loop_
 _atom_site_type_symbol
 _atom_site_label
 _atom_site_symmetry_multiplicity
 _atom_site_fract_x
 _atom_site_fract_y
 _atom_site_fract_z
 _atom_site_occupancy
  Fe  Fe0  1  0.01894300  0.00149400  0.01980400  1
  Fe  Fe1  1  0.05483400  0.72438900  0.51568200  1
  Fe  Fe2  1  0.95292100  0.27858100  0.46898400  1
  Fe  Fe3  1  0.61951400  0.55314900  0.89407500  1
  Fe  Fe4  1  0.39107500  0.47956300  0.13369900  1
  Fe  Fe5  1  0.71019400  0.18867200  0.70242000  1
  P  P6  1  0.60429500  0.76909400  0.62946300  1
  P  P7  1  0.38993300  0.22887300  0.36549000  1
  P  P8  1  0.22648900  0.14420600  0.77345000  1
  P  P9  1  0.77676100  0.85471600  0.23552100  1
  P  P10  1  0.08862300  0.58912600  0.82728900  1
  P  P11  1  0.90650200  0.40119900  0.16124500  1
  O  O12  1  0.01687500  0.19192500  0.66575400  1
  O  O13  1  0.98330300  0.81699900  0.34259800  1
  O  O14  1  0.22385200  0.19520800  0.94521000  1
  O  O15  1  0.78492700  0.81202800  0.06068000  1
  O  O16  1  0.57208200  0.64188000  0.72554100  1
  O  O17  1  0.46833900  0.37802100  0.30166300  1
  O  O18  1  0.30846500  0.54244400  0.91458900  1
  O  O19  1  0.68527200  0.45139300  0.07747500  1
  O  O20  1  0.87407600  0.45363400  0.83209300  1
  O  O21  1  0.11301700  0.52347100  0.15186800  1
  O  O22  1  0.76114600  0.72456600  0.54196200  1
  O  O23  1  0.24883100  0.27748800  0.46672000  1
  O  O24  1  0.25738600  0.05005500  0.22282200  1
  O  O25  1  0.72471200  0.97139900  0.75905000  1
  O  O26  1  0.09153100  0.78306300  0.90773900  1
  O  O27  1  0.88006500  0.19898100  0.07800200  1
  O  O28  1  0.06241500  0.54441200  0.65036300  1
  O  O29  1  0.93055500  0.44443300  0.33914000  1
  O  O30  1  0.45498300  0.25898200  0.77034700  1
  O  O31  1  0.54931100  0.73669400  0.22238500  1
  O  O32  1  0.20558200  0.94447000  0.70782200  1
  O  O33  1  0.79029100  0.05721500  0.29409700  1
  O  O34  1  0.37117800  0.76018300  0.51641600  1
  O  O35  1  0.61517800  0.21356600  0.48956500  1
