# generated using pymatgen
data_In10(Sn2S7)3
_symmetry_space_group_name_H-M   'P 1'
_cell_length_a   3.90900200
_cell_length_b   15.75168569
_cell_length_c   27.95671040
_cell_angle_alpha   84.57440026
_cell_angle_beta   89.53000543
_cell_angle_gamma   89.50844152
_symmetry_Int_Tables_number   1
_chemical_formula_structural   In10(Sn2S7)3
_chemical_formula_sum   'In20 Sn12 S42'
_cell_volume   1713.56645535
_cell_formula_units_Z   2
loop_
 _symmetry_equiv_pos_site_id
 _symmetry_equiv_pos_as_xyz
  1  'x, y, z'
loop_
 _atom_site_type_symbol
 _atom_site_label
 _atom_site_symmetry_multiplicity
 _atom_site_fract_x
 _atom_site_fract_y
 _atom_site_fract_z
 _atom_site_occupancy
  In  In0  1  0.49911800  0.91148800  0.95325300  1
  In  In1  1  0.50070900  0.08847700  0.04638700  1
  In  In2  1  0.00134600  0.52699900  0.24935400  1
  In  In3  1  0.99871500  0.47401700  0.75025200  1
  In  In4  1  0.99907900  0.91376100  0.45095800  1
  In  In5  1  0.00063200  0.09022500  0.54911100  1
  In  In6  1  0.49958200  0.70703200  0.48228700  1
  In  In7  1  0.50021800  0.28986600  0.51663500  1
  In  In8  1  0.00015000  0.49979700  0.50026700  1
  In  In9  1  0.99744100  0.69897800  0.96789700  1
  In  In10  1  0.00243900  0.30034400  0.03182500  1
  In  In11  1  0.49950900  0.62167800  0.83236300  1
  In  In12  1  0.50028500  0.37826500  0.16683700  1
  In  In13  1  0.00165400  0.73969800  0.72276300  1
  In  In14  1  0.99858000  0.26342600  0.27560200  1
  In  In15  1  0.50074500  0.58687000  0.64034700  1
  In  In16  1  0.49953900  0.41692200  0.36041400  1
  In  In17  1  0.50004600  0.50011100  0.99991300  1
  In  In18  1  0.00089000  0.87521300  0.07697600  1
  In  In19  1  0.99890900  0.12547400  0.92256600  1
  Sn  Sn20  1  0.50163200  0.90385300  0.80412800  1
  Sn  Sn21  1  0.49863300  0.09287900  0.19381400  1
  Sn  Sn22  1  0.49730400  0.69399700  0.34491700  1
  Sn  Sn23  1  0.50229300  0.30712100  0.65549900  1
  Sn  Sn24  1  0.49454600  0.64217800  0.13558400  1
  Sn  Sn25  1  0.50520800  0.35854000  0.86362700  1
  Sn  Sn26  1  0.49296600  0.86528300  0.58535000  1
  Sn  Sn27  1  0.37355200  0.82623100  0.21919000  1
  Sn  Sn28  1  0.62688200  0.17372500  0.78032400  1
  Sn  Sn29  1  0.58002900  0.95521500  0.31861500  1
  Sn  Sn30  1  0.42125400  0.04136800  0.68215300  1
  Sn  Sn31  1  0.50619200  0.15399200  0.39429700  1
  S  S32  1  0.49861000  0.60123500  0.73801800  1
  S  S33  1  0.50086300  0.39766000  0.26295700  1
  S  S34  1  0.00497100  0.98943000  0.22985200  1
  S  S35  1  0.99506700  0.01118500  0.76941000  1
  S  S36  1  0.99619900  0.73125400  0.81521700  1
  S  S37  1  0.00357800  0.26827500  0.18461000  1
  S  S38  1  0.00517800  0.79727400  0.52147800  1
  S  S39  1  0.99759600  0.20009200  0.47660200  1
  S  S40  1  0.99671300  0.79659500  0.30171800  1
  S  S41  1  0.00297700  0.20360600  0.69827400  1
  S  S42  1  0.00355800  0.83555500  0.91528800  1
  S  S43  1  0.99648100  0.16398500  0.08521400  1
  S  S44  1  0.00256300  0.63665800  0.43843400  1
  S  S45  1  0.99747200  0.36333000  0.56012000  1
  S  S46  1  0.99383800  0.97202300  0.61943400  1
  S  S47  1  0.00546600  0.03000500  0.37879800  1
  S  S48  1  0.99418100  0.76177300  0.15061900  1
  S  S49  1  0.00596100  0.23822800  0.84948200  1
  S  S50  1  0.49312900  0.63630200  0.23496500  1
  S  S51  1  0.50692100  0.36372900  0.76532200  1
  S  S52  1  0.49784600  0.96144700  0.11264500  1
  S  S53  1  0.50252100  0.03943100  0.88840600  1
  S  S54  1  0.99734300  0.52665100  0.34053600  1
  S  S55  1  0.00235300  0.47294600  0.65915200  1
  S  S56  1  0.50265800  0.62470900  0.92782000  1
  S  S57  1  0.49739600  0.37513500  0.07252100  1
  S  S58  1  0.49595600  0.84842300  0.71495500  1
  S  S59  1  0.50400400  0.15422900  0.28796200  1
  S  S60  1  0.00107000  0.70154700  0.63630500  1
  S  S61  1  0.99673000  0.29702600  0.36335900  1
  S  S62  1  0.50453600  0.83557200  0.40874200  1
  S  S63  1  0.49568800  0.16655100  0.59069300  1
  S  S64  1  0.49892900  0.57522100  0.54614300  1
  S  S65  1  0.50111500  0.42461300  0.45292700  1
  S  S66  1  0.99670700  0.50312000  0.84027700  1
  S  S67  1  0.00303800  0.49640100  0.16027700  1
  S  S68  1  0.99998400  0.58899300  0.03842300  1
  S  S69  1  0.00022400  0.41154600  0.96207700  1
  S  S70  1  0.50252300  0.80057600  0.02899600  1
  S  S71  1  0.49770000  0.20034600  0.97190400  1
  S  S72  1  0.00015800  0.99984000  0.00044400  1
  S  S73  1  0.50011900  0.99226200  0.50361700  1
