# generated using pymatgen
data_FePH5NO4F
_symmetry_space_group_name_H-M   'P 1'
_cell_length_a   5.10653169
_cell_length_b   5.64799864
_cell_length_c   8.75065400
_cell_angle_alpha   90.00000000
_cell_angle_beta   90.00000000
_cell_angle_gamma   91.72118294
_symmetry_Int_Tables_number   1
_chemical_formula_structural   FePH5NO4F
_chemical_formula_sum   'Fe2 P2 H10 N2 O8 F2'
_cell_volume   252.26972819
_cell_formula_units_Z   2
loop_
 _symmetry_equiv_pos_site_id
 _symmetry_equiv_pos_as_xyz
  1  'x, y, z'
loop_
 _atom_site_type_symbol
 _atom_site_label
 _atom_site_symmetry_multiplicity
 _atom_site_fract_x
 _atom_site_fract_y
 _atom_site_fract_z
 _atom_site_occupancy
  Fe  Fe0  1  0.51723300  0.50586400  0.48687000  1
  Fe  Fe1  1  0.01723300  0.00586400  0.51313000  1
  P  P2  1  0.44552700  0.01402900  0.30060300  1
  P  P3  1  0.94552700  0.51402900  0.69939700  1
  H  H4  1  0.20645700  0.49870400  0.94557600  1
  H  H5  1  0.70645700  0.99870400  0.05442400  1
  H  H6  1  0.25667200  0.49740000  0.13598300  1
  H  H7  1  0.75667200  0.99740000  0.86401700  1
  H  H8  1  0.46254100  0.35041100  0.02665100  1
  H  H9  1  0.46704900  0.65129900  0.02821600  1
  H  H10  1  0.96704900  0.15129900  0.97178400  1
  H  H11  1  0.96254100  0.85041100  0.97334900  1
  H  H12  1  0.79210500  0.27790800  0.29778700  1
  H  H13  1  0.29210500  0.77790800  0.70221300  1
  N  N14  1  0.35245700  0.49914400  0.03234000  1
  N  N15  1  0.85245700  0.99914400  0.96766000  1
  O  O16  1  0.90253000  0.50000100  0.87307800  1
  O  O17  1  0.40253000  0.00000100  0.12692200  1
  O  O18  1  0.25130000  0.55735600  0.67402300  1
  O  O19  1  0.75130000  0.05735600  0.32597700  1
  O  O20  1  0.83405600  0.29084800  0.61399200  1
  O  O21  1  0.80184700  0.72401700  0.62172500  1
  O  O22  1  0.30184700  0.22401700  0.37827500  1
  O  O23  1  0.33405600  0.79084800  0.38600800  1
  F  F24  1  0.79032700  0.47301800  0.28218800  1
  F  F25  1  0.29032700  0.97301800  0.71781200  1
