# generated using pymatgen
data_PrNb3O9
_symmetry_space_group_name_H-M   'P 1'
_cell_length_a   5.61131914
_cell_length_b   16.84739551
_cell_length_c   9.76110730
_cell_angle_alpha   54.89329649
_cell_angle_beta   90.26293543
_cell_angle_gamma   90.46535594
_symmetry_Int_Tables_number   1
_chemical_formula_structural   PrNb3O9
_chemical_formula_sum   'Pr4 Nb12 O36'
_cell_volume   754.88286989
_cell_formula_units_Z   4
loop_
 _symmetry_equiv_pos_site_id
 _symmetry_equiv_pos_as_xyz
  1  'x, y, z'
loop_
 _atom_site_type_symbol
 _atom_site_label
 _atom_site_symmetry_multiplicity
 _atom_site_fract_x
 _atom_site_fract_y
 _atom_site_fract_z
 _atom_site_occupancy
  Pr  Pr0  1  0.26402400  0.91111500  0.00000100  1
  Pr  Pr1  1  0.25859900  0.25046600  0.99867700  1
  Pr  Pr2  1  0.73597600  0.75555100  0.99999900  1
  Pr  Pr3  1  0.74140100  0.41620100  0.00132300  1
  Nb  Nb4  1  0.24779000  0.99932400  0.24672900  1
  Nb  Nb5  1  0.24945400  0.83619200  0.73236700  1
  Nb  Nb6  1  0.25066700  0.65819000  0.26374100  1
  Nb  Nb7  1  0.25123900  0.50684800  0.74516100  1
  Nb  Nb8  1  0.25085000  0.33249500  0.26343100  1
  Nb  Nb9  1  0.24529500  0.16729800  0.74407300  1
  Nb  Nb10  1  0.75054600  0.83047500  0.26763300  1
  Nb  Nb11  1  0.75221000  0.66734300  0.75327100  1
  Nb  Nb12  1  0.75470500  0.49936900  0.25592700  1
  Nb  Nb13  1  0.74915000  0.33417100  0.73656900  1
  Nb  Nb14  1  0.74876100  0.15981800  0.25483900  1
  Nb  Nb15  1  0.74933300  0.00847700  0.73625900  1
  O  O16  1  0.00015100  0.90484900  0.78550400  1
  O  O17  1  0.01114200  0.92763800  0.20272100  1
  O  O18  1  0.99984900  0.76181700  0.21449600  1
  O  O19  1  0.98667100  0.57286000  0.76529200  1
  O  O20  1  0.98636000  0.41731900  0.23279000  1
  O  O21  1  0.01332900  0.09380700  0.23470800  1
  O  O22  1  0.21491100  0.90750200  0.49733500  1
  O  O23  1  0.21678600  0.57093700  0.49996400  1
  O  O24  1  0.21612300  0.23770200  0.50292700  1
  O  O25  1  0.30279500  0.76744600  0.00001200  1
  O  O26  1  0.29525400  0.42377500  0.99855200  1
  O  O27  1  0.27985300  0.09838600  0.00161800  1
  O  O28  1  0.50030900  0.92129600  0.73605200  1
  O  O29  1  0.49149700  0.91890000  0.23252700  1
  O  O30  1  0.50850300  0.74776700  0.76747300  1
  O  O31  1  0.50756200  0.58810800  0.72715700  1
  O  O32  1  0.49969100  0.74537100  0.26394800  1
  O  O33  1  0.50955200  0.59286200  0.23060700  1
  O  O34  1  0.50181200  0.40705800  0.77653200  1
  O  O35  1  0.50687000  0.40721900  0.27045300  1
  O  O36  1  0.49313000  0.25944800  0.72954700  1
  O  O37  1  0.49818800  0.25960800  0.22346800  1
  O  O38  1  0.49044800  0.07380500  0.76939300  1
  O  O39  1  0.49243800  0.07855800  0.27284300  1
  O  O40  1  0.69720500  0.89922000  0.99998800  1
  O  O41  1  0.72014700  0.56828100  0.99838200  1
  O  O42  1  0.70474600  0.24289200  0.00144800  1
  O  O43  1  0.78508900  0.75916400  0.50266500  1
  O  O44  1  0.78387700  0.42896500  0.49707300  1
  O  O45  1  0.78321400  0.09573000  0.50003600  1
  O  O46  1  0.98885800  0.73902900  0.79727900  1
  O  O47  1  0.98777300  0.60384600  0.20157800  1
  O  O48  1  0.99860500  0.39590000  0.81024400  1
  O  O49  1  0.01364000  0.24934800  0.76721000  1
  O  O50  1  0.00139500  0.27076600  0.18975600  1
  O  O51  1  0.01222700  0.06282100  0.79842200  1
