# generated using pymatgen
data_GaFe(BiO3)2
_symmetry_space_group_name_H-M   'P 1'
_cell_length_a   3.75007500
_cell_length_b   5.93417596
_cell_length_c   6.11172392
_cell_angle_alpha   76.77889488
_cell_angle_beta   88.36961705
_cell_angle_gamma   88.67782223
_symmetry_Int_Tables_number   1
_chemical_formula_structural   GaFe(BiO3)2
_chemical_formula_sum   'Ga1 Fe1 Bi2 O6'
_cell_volume   132.33017921
_cell_formula_units_Z   1
loop_
 _symmetry_equiv_pos_site_id
 _symmetry_equiv_pos_as_xyz
  1  'x, y, z'
loop_
 _atom_site_type_symbol
 _atom_site_label
 _atom_site_symmetry_multiplicity
 _atom_site_fract_x
 _atom_site_fract_y
 _atom_site_fract_z
 _atom_site_occupancy
  Ga  Ga0  1  0.54273700  0.00794200  0.55317700  1
  Fe  Fe1  1  0.54858900  0.52252900  0.06645600  1
  Bi  Bi2  1  0.00153500  0.00525200  0.00244800  1
  Bi  Bi3  1  0.00367200  0.49641500  0.50483000  1
  O  O4  1  0.56982400  0.80070200  0.37060200  1
  O  O5  1  0.57162800  0.30651400  0.88010000  1
  O  O6  1  0.04255900  0.07884000  0.62347000  1
  O  O7  1  0.04348300  0.57286600  0.12055300  1
  O  O8  1  0.54495900  0.32756000  0.37232500  1
  O  O9  1  0.54761400  0.83018000  0.87144000  1
