# generated using pymatgen
data_FeCu(RhSe2)4
_symmetry_space_group_name_H-M   'P 1'
_cell_length_a   7.36059268
_cell_length_b   7.36059268
_cell_length_c   7.36059268
_cell_angle_alpha   60.00000000
_cell_angle_beta   60.00000000
_cell_angle_gamma   60.00000000
_symmetry_Int_Tables_number   1
_chemical_formula_structural   FeCu(RhSe2)4
_chemical_formula_sum   'Fe1 Cu1 Rh4 Se8'
_cell_volume   281.98328077
_cell_formula_units_Z   1
loop_
 _symmetry_equiv_pos_site_id
 _symmetry_equiv_pos_as_xyz
  1  'x, y, z'
loop_
 _atom_site_type_symbol
 _atom_site_label
 _atom_site_symmetry_multiplicity
 _atom_site_fract_x
 _atom_site_fract_y
 _atom_site_fract_z
 _atom_site_occupancy
  Fe  Fe0  1  0.50000000  0.50000000  0.50000000  1
  Cu  Cu1  1  0.75000000  0.75000000  0.75000000  1
  Rh  Rh2  1  0.62753500  0.12415500  0.12415500  1
  Rh  Rh3  1  0.12415500  0.62753500  0.12415500  1
  Rh  Rh4  1  0.12415500  0.12415500  0.62753500  1
  Rh  Rh5  1  0.12415500  0.12415500  0.12415500  1
  Se  Se6  1  0.34327700  0.88557400  0.88557400  1
  Se  Se7  1  0.88557400  0.34327700  0.88557400  1
  Se  Se8  1  0.88557400  0.88557400  0.34327700  1
  Se  Se9  1  0.88557400  0.88557400  0.88557400  1
  Se  Se10  1  0.89925700  0.36691400  0.36691400  1
  Se  Se11  1  0.36691400  0.89925700  0.36691400  1
  Se  Se12  1  0.36691400  0.36691400  0.89925700  1
  Se  Se13  1  0.36691400  0.36691400  0.36691400  1
