# generated using pymatgen
data_FeSbO4
_symmetry_space_group_name_H-M   'P 1'
_cell_length_a   4.71068574
_cell_length_b   4.71068574
_cell_length_c   9.35525900
_cell_angle_alpha   90.00000000
_cell_angle_beta   90.00000000
_cell_angle_gamma   90.77142802
_symmetry_Int_Tables_number   1
_chemical_formula_structural   FeSbO4
_chemical_formula_sum   'Fe3 Sb3 O12'
_cell_volume   207.57962146
_cell_formula_units_Z   3
loop_
 _symmetry_equiv_pos_site_id
 _symmetry_equiv_pos_as_xyz
  1  'x, y, z'
loop_
 _atom_site_type_symbol
 _atom_site_label
 _atom_site_symmetry_multiplicity
 _atom_site_fract_x
 _atom_site_fract_y
 _atom_site_fract_z
 _atom_site_occupancy
  Fe  Fe0  1  0.50000000  0.50000000  0.15869600  1
  Fe  Fe1  1  0.00000000  0.00000000  0.67351400  1
  Fe  Fe2  1  0.50000000  0.50000000  0.83540600  1
  Sb  Sb3  1  0.50000000  0.50000000  0.50468700  1
  Sb  Sb4  1  0.00000000  0.00000000  0.99485600  1
  Sb  Sb5  1  0.00000000  0.00000000  0.33324300  1
  O  O6  1  0.19145900  0.80854100  0.16828000  1
  O  O7  1  0.80854100  0.19145900  0.16828000  1
  O  O8  1  0.30481200  0.30481200  0.66259400  1
  O  O9  1  0.69518800  0.69518800  0.66259400  1
  O  O10  1  0.80460700  0.19539300  0.83631000  1
  O  O11  1  0.19539300  0.80460700  0.83631000  1
  O  O12  1  0.69341600  0.69341600  0.33517200  1
  O  O13  1  0.30658400  0.30658400  0.33517200  1
  O  O14  1  0.19454300  0.80545700  0.49469000  1
  O  O15  1  0.80545700  0.19454300  0.49469000  1
  O  O16  1  0.30236500  0.30236500  0.00275200  1
  O  O17  1  0.69763500  0.69763500  0.00275200  1
