# generated using pymatgen
data_Er(CuTe)3
_symmetry_space_group_name_H-M   'P 1'
_cell_length_a   8.20190580
_cell_length_b   8.20190580
_cell_length_c   8.20190469
_cell_angle_alpha   54.05230805
_cell_angle_beta   54.05230805
_cell_angle_gamma   54.05231098
_symmetry_Int_Tables_number   1
_chemical_formula_structural   Er(CuTe)3
_chemical_formula_sum   'Er2 Cu6 Te6'
_cell_volume   335.95767293
_cell_formula_units_Z   2
loop_
 _symmetry_equiv_pos_site_id
 _symmetry_equiv_pos_as_xyz
  1  'x, y, z'
loop_
 _atom_site_type_symbol
 _atom_site_label
 _atom_site_symmetry_multiplicity
 _atom_site_fract_x
 _atom_site_fract_y
 _atom_site_fract_z
 _atom_site_occupancy
  Er  Er0  1  0.83383600  0.83383600  0.83383600  1
  Er  Er1  1  0.16616400  0.16616400  0.16616400  1
  Cu  Cu2  1  0.97380200  0.62813900  0.27339000  1
  Cu  Cu3  1  0.27339000  0.97380200  0.62813900  1
  Cu  Cu4  1  0.62813900  0.27339000  0.97380200  1
  Cu  Cu5  1  0.37186100  0.72661000  0.02619800  1
  Cu  Cu6  1  0.72661000  0.02619800  0.37186100  1
  Cu  Cu7  1  0.02619800  0.37186100  0.72661000  1
  Te  Te8  1  0.73861000  0.41977300  0.09638900  1
  Te  Te9  1  0.41977300  0.09638900  0.73861000  1
  Te  Te10  1  0.09638900  0.73861000  0.41977300  1
  Te  Te11  1  0.90361100  0.26139000  0.58022700  1
  Te  Te12  1  0.58022700  0.90361100  0.26139000  1
  Te  Te13  1  0.26139000  0.58022700  0.90361100  1
