# generated using pymatgen
data_GdFe4(BiO4)3
_symmetry_space_group_name_H-M   'P 1'
_cell_length_a   7.86325600
_cell_length_b   5.48036900
_cell_length_c   5.71003792
_cell_angle_alpha   89.83414414
_cell_angle_beta   90.00000000
_cell_angle_gamma   90.00000000
_symmetry_Int_Tables_number   1
_chemical_formula_structural   GdFe4(BiO4)3
_chemical_formula_sum   'Gd1 Fe4 Bi3 O12'
_cell_volume   246.06474196
_cell_formula_units_Z   1
loop_
 _symmetry_equiv_pos_site_id
 _symmetry_equiv_pos_as_xyz
  1  'x, y, z'
loop_
 _atom_site_type_symbol
 _atom_site_label
 _atom_site_symmetry_multiplicity
 _atom_site_fract_x
 _atom_site_fract_y
 _atom_site_fract_z
 _atom_site_occupancy
  Gd  Gd0  1  0.50000000  0.48799700  0.55901800  1
  Fe  Fe1  1  0.25240200  0.99976500  0.49981900  1
  Fe  Fe2  1  0.74889900  0.49893000  0.00248000  1
  Fe  Fe3  1  0.74759800  0.99976500  0.49981900  1
  Fe  Fe4  1  0.25110100  0.49893000  0.00248000  1
  Bi  Bi5  1  0.50000000  0.00964200  0.05196200  1
  Bi  Bi6  1  0.00000000  0.50590300  0.45113500  1
  Bi  Bi7  1  0.00000000  0.98744400  0.94964100  1
  O  O8  1  0.50000000  0.59852200  0.96212400  1
  O  O9  1  0.50000000  0.89712700  0.47301400  1
  O  O10  1  0.00000000  0.39991400  0.03073400  1
  O  O11  1  0.00000000  0.09584000  0.52845200  1
  O  O12  1  0.79481300  0.69307100  0.69522900  1
  O  O13  1  0.20304400  0.80834100  0.19621700  1
  O  O14  1  0.30201900  0.30880200  0.30681100  1
  O  O15  1  0.69636500  0.19989700  0.79640600  1
  O  O16  1  0.69798100  0.30880200  0.30681100  1
  O  O17  1  0.30363500  0.19989700  0.79640600  1
  O  O18  1  0.20518700  0.69307100  0.69522900  1
  O  O19  1  0.79695600  0.80834100  0.19621700  1
