# generated using pymatgen
data_FeH7C3NO6
_symmetry_space_group_name_H-M   'P 1'
_cell_length_a   7.30938740
_cell_length_b   7.44999789
_cell_length_c   8.48726230
_cell_angle_alpha   90.21790051
_cell_angle_beta   90.00000283
_cell_angle_gamma   60.62240101
_symmetry_Int_Tables_number   1
_chemical_formula_structural   FeH7C3NO6
_chemical_formula_sum   'Fe2 H14 C6 N2 O12'
_cell_volume   402.73650920
_cell_formula_units_Z   2
loop_
 _symmetry_equiv_pos_site_id
 _symmetry_equiv_pos_as_xyz
  1  'x, y, z'
loop_
 _atom_site_type_symbol
 _atom_site_label
 _atom_site_symmetry_multiplicity
 _atom_site_fract_x
 _atom_site_fract_y
 _atom_site_fract_z
 _atom_site_occupancy
  Fe  Fe0  1  0.33240700  0.33433800  0.74957300  1
  Fe  Fe1  1  0.66674400  0.66566200  0.25042700  1
  H  H2  1  0.41756800  0.58771700  0.49833600  1
  H  H3  1  0.58367700  0.00000000  0.50000000  1
  H  H4  1  0.00528600  0.41228300  0.50166400  1
  H  H5  1  0.58614900  0.41506400  0.00269400  1
  H  H6  1  0.41638700  0.00000000  0.00000000  1
  H  H7  1  0.00121300  0.58493600  0.99730600  1
  H  H8  1  0.02218900  0.08145500  0.65720700  1
  H  H9  1  0.06472600  0.84921500  0.71989100  1
  H  H10  1  0.10364400  0.91854500  0.34279300  1
  H  H11  1  0.91394200  0.15078500  0.28010900  1
  H  H12  1  0.10629800  0.97742400  0.15824400  1
  H  H13  1  0.91020800  0.93564500  0.21804600  1
  H  H14  1  0.08372200  0.02257600  0.84175600  1
  H  H15  1  0.84585200  0.06435500  0.78195400  1
  C  C16  1  0.56301000  0.43664000  0.49666700  1
  C  C17  1  0.43226700  0.00000000  0.50000000  1
  C  C18  1  0.99965000  0.56336000  0.50333300  1
  C  C19  1  0.43857400  0.56430800  0.99930000  1
  C  C20  1  0.56766900  0.00000000  0.00000000  1
  C  C21  1  0.00288300  0.43569200  0.00070000  1
  N  N22  1  0.00267200  0.00362900  0.74999900  1
  N  N23  1  0.00630200  0.99637100  0.25000100  1
  O  O24  1  0.58192800  0.30514700  0.59891500  1
  O  O25  1  0.29463100  0.11281900  0.60084000  1
  O  O26  1  0.10811300  0.59210100  0.60801700  1
  O  O27  1  0.88707500  0.69485300  0.40108500  1
  O  O28  1  0.40745000  0.88718100  0.39916000  1
  O  O29  1  0.70021400  0.40789900  0.39198300  1
  O  O30  1  0.41641100  0.70236700  0.09894200  1
  O  O31  1  0.69918000  0.89615700  0.10683600  1
  O  O32  1  0.89016000  0.41262300  0.10293200  1
  O  O33  1  0.11877800  0.29763300  0.90105800  1
  O  O34  1  0.59533800  0.10384300  0.89316400  1
  O  O35  1  0.30278300  0.58737700  0.89706800  1
