# generated using pymatgen
data_K4Mo6Se2O33
_symmetry_space_group_name_H-M   'P 1'
_cell_length_a   8.81344200
_cell_length_b   10.11730342
_cell_length_c   10.17343222
_cell_angle_alpha   66.19413421
_cell_angle_beta   76.27218996
_cell_angle_gamma   76.76841277
_symmetry_Int_Tables_number   1
_chemical_formula_structural   K4Mo6Se2O33
_chemical_formula_sum   'K4 Mo6 Se2 O33'
_cell_volume   797.16485489
_cell_formula_units_Z   1
loop_
 _symmetry_equiv_pos_site_id
 _symmetry_equiv_pos_as_xyz
  1  'x, y, z'
loop_
 _atom_site_type_symbol
 _atom_site_label
 _atom_site_symmetry_multiplicity
 _atom_site_fract_x
 _atom_site_fract_y
 _atom_site_fract_z
 _atom_site_occupancy
  K  K0  1  0.50439900  0.71046800  0.28826000  1
  K  K1  1  0.49518700  0.29043000  0.71245100  1
  K  K2  1  0.93506000  0.87295800  0.85771700  1
  K  K3  1  0.06647900  0.12237600  0.14320500  1
  Mo  Mo4  1  0.32440400  0.43687600  0.09741400  1
  Mo  Mo5  1  0.32537500  0.09676800  0.44017800  1
  Mo  Mo6  1  0.67605800  0.56392200  0.90295800  1
  Mo  Mo7  1  0.67545800  0.90427000  0.56028300  1
  Mo  Mo8  1  0.63923000  0.29719100  0.29478900  1
  Mo  Mo9  1  0.36204200  0.70322200  0.70550800  1
  Se  Se10  1  0.57696100  0.10357400  0.10433500  1
  Se  Se11  1  0.42308400  0.89688200  0.89622300  1
  O  O12  1  0.84709800  0.60770500  0.91909200  1
  O  O13  1  0.84647800  0.92543000  0.59965700  1
  O  O14  1  0.15255700  0.39364000  0.08209000  1
  O  O15  1  0.15393800  0.07547100  0.40163000  1
  O  O16  1  0.41104600  0.55074100  0.89401800  1
  O  O17  1  0.41246800  0.89406300  0.55312900  1
  O  O18  1  0.59031800  0.44942400  0.10578700  1
  O  O19  1  0.58791800  0.10685500  0.44728300  1
  O  O20  1  0.32603500  0.99397300  0.99463600  1
  O  O21  1  0.67378700  0.00648700  0.00603500  1
  O  O22  1  0.53704400  0.74677200  0.99342000  1
  O  O23  1  0.53836100  0.99561300  0.74656400  1
  O  O24  1  0.46319100  0.25391500  0.00713000  1
  O  O25  1  0.46115200  0.00519200  0.25404400  1
  O  O26  1  0.61645700  0.72221500  0.72111100  1
  O  O27  1  0.38390800  0.27853900  0.27945300  1
  O  O28  1  0.28902900  0.84147700  0.84175200  1
  O  O29  1  0.71117200  0.15900700  0.15861300  1
  O  O30  1  0.99662900  0.22271100  0.77691900  1
  O  O31  1  0.97127200  0.77639700  0.19012100  1
  O  O32  1  0.89827900  0.67642000  0.21273600  1
  O  O33  1  0.91627200  0.22916900  0.68360300  1
  O  O34  1  0.07236400  0.32813400  0.74542800  1
  O  O35  1  0.11542900  0.69228300  0.40714300  1
  O  O36  1  0.44312200  0.59765400  0.59790700  1
  O  O37  1  0.55795800  0.40345400  0.40163500  1
  O  O38  1  0.16172100  0.71472300  0.71638300  1
  O  O39  1  0.83958700  0.28466900  0.28417900  1
  O  O40  1  0.74244700  0.42491200  0.83603200  1
  O  O41  1  0.74249600  0.83580500  0.42287400  1
  O  O42  1  0.26037300  0.57647600  0.16327900  1
  O  O43  1  0.25951700  0.16479500  0.57822900  1
  O  O44  1  0.09293800  0.56474000  0.47256900  1
