# generated using pymatgen
data_Fe21HO32
_symmetry_space_group_name_H-M   'P 1'
_cell_length_a   8.53120362
_cell_length_b   8.53120362
_cell_length_c   8.53120380
_cell_angle_alpha   89.29727530
_cell_angle_beta   89.29727530
_cell_angle_gamma   89.29727491
_symmetry_Int_Tables_number   1
_chemical_formula_structural   Fe21HO32
_chemical_formula_sum   'Fe21 H1 O32'
_cell_volume   620.77429058
_cell_formula_units_Z   1
loop_
 _symmetry_equiv_pos_site_id
 _symmetry_equiv_pos_as_xyz
  1  'x, y, z'
loop_
 _atom_site_type_symbol
 _atom_site_label
 _atom_site_symmetry_multiplicity
 _atom_site_fract_x
 _atom_site_fract_y
 _atom_site_fract_z
 _atom_site_occupancy
  Fe  Fe0  1  0.61623000  0.13332800  0.13332800  1
  Fe  Fe1  1  0.13332800  0.61623000  0.13332800  1
  Fe  Fe2  1  0.13332800  0.13332800  0.61623000  1
  Fe  Fe3  1  0.62405300  0.87654700  0.87654700  1
  Fe  Fe4  1  0.13085200  0.38013200  0.86513000  1
  Fe  Fe5  1  0.13085200  0.86513000  0.38013200  1
  Fe  Fe6  1  0.38013200  0.86513000  0.13085200  1
  Fe  Fe7  1  0.86513000  0.38013200  0.13085200  1
  Fe  Fe8  1  0.87654700  0.87654700  0.62405300  1
  Fe  Fe9  1  0.38013200  0.13085200  0.86513000  1
  Fe  Fe10  1  0.87654700  0.62405300  0.87654700  1
  Fe  Fe11  1  0.86513000  0.13085200  0.38013200  1
  Fe  Fe12  1  0.50078600  0.98069300  0.50078600  1
  Fe  Fe13  1  0.50078600  0.50078600  0.98069300  1
  Fe  Fe14  1  0.98069300  0.50078600  0.50078600  1
  Fe  Fe15  1  0.24887100  0.24887100  0.24887100  1
  Fe  Fe16  1  0.25781300  0.75006300  0.75006300  1
  Fe  Fe17  1  0.75006300  0.75006300  0.25781300  1
  Fe  Fe18  1  0.75006300  0.25781300  0.75006300  1
  Fe  Fe19  1  0.00186800  0.00186800  0.00186800  1
  Fe  Fe20  1  0.49304800  0.49304800  0.49304800  1
  H  H21  1  0.68934200  0.68934200  0.68934200  1
  O  O22  1  0.87181800  0.87181800  0.87181800  1
  O  O23  1  0.86568300  0.13191500  0.13191500  1
  O  O24  1  0.13191500  0.13191500  0.86568300  1
  O  O25  1  0.13191500  0.86568300  0.13191500  1
  O  O26  1  0.38615600  0.88703000  0.88703000  1
  O  O27  1  0.88703000  0.38615600  0.88703000  1
  O  O28  1  0.88703000  0.88703000  0.38615600  1
  O  O29  1  0.38182800  0.11168800  0.11168800  1
  O  O30  1  0.88242200  0.61891100  0.11439800  1
  O  O31  1  0.88242200  0.11439800  0.61891100  1
  O  O32  1  0.61891100  0.11439800  0.88242200  1
  O  O33  1  0.11439800  0.61891100  0.88242200  1
  O  O34  1  0.11168800  0.11168800  0.38182800  1
  O  O35  1  0.61891100  0.88242200  0.11439800  1
  O  O36  1  0.11168800  0.38182800  0.11168800  1
  O  O37  1  0.11439800  0.88242200  0.61891100  1
  O  O38  1  0.88258300  0.36035000  0.36035000  1
  O  O39  1  0.36035000  0.88258300  0.36034900  1
  O  O40  1  0.36035000  0.36035000  0.88258300  1
  O  O41  1  0.85879100  0.64203800  0.64203800  1
  O  O42  1  0.36298000  0.10047700  0.63508700  1
  O  O43  1  0.36298000  0.63508700  0.10047700  1
  O  O44  1  0.10047700  0.63508700  0.36298000  1
  O  O45  1  0.63508700  0.10047700  0.36298000  1
  O  O46  1  0.64203800  0.64203800  0.85879100  1
  O  O47  1  0.10047700  0.36298000  0.63508700  1
  O  O48  1  0.64203800  0.85879100  0.64203800  1
  O  O49  1  0.63508700  0.36298000  0.10047700  1
  O  O50  1  0.36837200  0.36837200  0.36837100  1
  O  O51  1  0.37568900  0.62694800  0.62694800  1
  O  O52  1  0.62694800  0.62694800  0.37568900  1
  O  O53  1  0.62694800  0.37568900  0.62694800  1
