# generated using pymatgen
data_EuAlAg4
_symmetry_space_group_name_H-M   'P 1'
_cell_length_a   5.81571258
_cell_length_b   5.81571258
_cell_length_c   4.41604500
_cell_angle_alpha   90.00000000
_cell_angle_beta   90.00000000
_cell_angle_gamma   120.00000657
_symmetry_Int_Tables_number   1
_chemical_formula_structural   EuAlAg4
_chemical_formula_sum   'Eu1 Al1 Ag4'
_cell_volume   129.35105131
_cell_formula_units_Z   1
loop_
 _symmetry_equiv_pos_site_id
 _symmetry_equiv_pos_as_xyz
  1  'x, y, z'
loop_
 _atom_site_type_symbol
 _atom_site_label
 _atom_site_symmetry_multiplicity
 _atom_site_fract_x
 _atom_site_fract_y
 _atom_site_fract_z
 _atom_site_occupancy
  Eu  Eu0  1  0.00000000  0.00000000  0.00000000  1
  Al  Al1  1  0.33333300  0.66666700  0.00000000  1
  Ag  Ag2  1  0.66666700  0.33333300  0.00000000  1
  Ag  Ag3  1  0.00657900  0.50329000  0.50000000  1
  Ag  Ag4  1  0.49671000  0.50329000  0.50000000  1
  Ag  Ag5  1  0.49671000  0.99342100  0.50000000  1
