# generated using pymatgen
data_Fe2Si
_symmetry_space_group_name_H-M   'P 1'
_cell_length_a   2.79718400
_cell_length_b   2.79718400
_cell_length_c   8.33166100
_cell_angle_alpha   90.00000000
_cell_angle_beta   90.00000000
_cell_angle_gamma   90.00000000
_symmetry_Int_Tables_number   1
_chemical_formula_structural   Fe2Si
_chemical_formula_sum   'Fe4 Si2'
_cell_volume   65.18890135
_cell_formula_units_Z   2
loop_
 _symmetry_equiv_pos_site_id
 _symmetry_equiv_pos_as_xyz
  1  'x, y, z'
loop_
 _atom_site_type_symbol
 _atom_site_label
 _atom_site_symmetry_multiplicity
 _atom_site_fract_x
 _atom_site_fract_y
 _atom_site_fract_z
 _atom_site_occupancy
  Fe  Fe0  1  0.00000000  0.00000000  0.82616600  1
  Fe  Fe1  1  0.00000000  0.00000000  0.17383400  1
  Fe  Fe2  1  0.00000000  0.00000000  0.50000000  1
  Fe  Fe3  1  0.50000000  0.50000000  0.00000000  1
  Si  Si4  1  0.50000000  0.50000000  0.33194900  1
  Si  Si5  1  0.50000000  0.50000000  0.66805100  1
