# generated using pymatgen
data_Gd2NbGaO7
_symmetry_space_group_name_H-M   'P 1'
_cell_length_a   7.34907040
_cell_length_b   7.34907040
_cell_length_c   7.34907040
_cell_angle_alpha   120.98941917
_cell_angle_beta   119.17985554
_cell_angle_gamma   89.86062824
_symmetry_Int_Tables_number   1
_chemical_formula_structural   Gd2NbGaO7
_chemical_formula_sum   'Gd4 Nb2 Ga2 O14'
_cell_volume   280.21351427
_cell_formula_units_Z   2
loop_
 _symmetry_equiv_pos_site_id
 _symmetry_equiv_pos_as_xyz
  1  'x, y, z'
loop_
 _atom_site_type_symbol
 _atom_site_label
 _atom_site_symmetry_multiplicity
 _atom_site_fract_x
 _atom_site_fract_y
 _atom_site_fract_z
 _atom_site_occupancy
  Gd  Gd0  1  0.50000000  0.50000000  0.50000000  1
  Gd  Gd1  1  0.50000000  0.00000000  0.00000000  1
  Gd  Gd2  1  0.50000000  0.50000000  0.00000000  1
  Gd  Gd3  1  0.00000000  0.50000000  0.50000000  1
  Nb  Nb4  1  0.00000000  0.00000000  0.00000000  1
  Nb  Nb5  1  0.50000000  0.00000000  0.50000000  1
  Ga  Ga6  1  0.00000000  0.00000000  0.50000000  1
  Ga  Ga7  1  0.00000000  0.50000000  0.00000000  1
  O  O8  1  0.37552000  0.62552000  0.75000000  1
  O  O9  1  0.62448000  0.37448000  0.25000000  1
  O  O10  1  0.33019800  0.08019800  0.25000000  1
  O  O11  1  0.91728200  0.66728200  0.25000000  1
  O  O12  1  0.33205700  0.67035300  0.25287400  1
  O  O13  1  0.91747900  0.07918300  0.24712600  1
  O  O14  1  0.33205700  0.07918300  0.66170400  1
  O  O15  1  0.91747900  0.67035300  0.83829600  1
  O  O16  1  0.66980200  0.91980200  0.75000000  1
  O  O17  1  0.08271800  0.33271800  0.75000000  1
  O  O18  1  0.66794300  0.32964700  0.74712600  1
  O  O19  1  0.08252100  0.92081700  0.75287400  1
  O  O20  1  0.66794300  0.92081700  0.33829600  1
  O  O21  1  0.08252100  0.32964700  0.16170400  1
