# generated using pymatgen
data_FeCu2Sn3S8
_symmetry_space_group_name_H-M   'P 1'
_cell_length_a   7.32385047
_cell_length_b   7.32385047
_cell_length_c   7.32385071
_cell_angle_alpha   59.83706580
_cell_angle_beta   59.83706580
_cell_angle_gamma   59.83706344
_symmetry_Int_Tables_number   1
_chemical_formula_structural   FeCu2Sn3S8
_chemical_formula_sum   'Fe1 Cu2 Sn3 S8'
_cell_volume   276.75435472
_cell_formula_units_Z   1
loop_
 _symmetry_equiv_pos_site_id
 _symmetry_equiv_pos_as_xyz
  1  'x, y, z'
loop_
 _atom_site_type_symbol
 _atom_site_label
 _atom_site_symmetry_multiplicity
 _atom_site_fract_x
 _atom_site_fract_y
 _atom_site_fract_z
 _atom_site_occupancy
  Fe  Fe0  1  0.00000000  0.00000000  0.00000000  1
  Cu  Cu1  1  0.37887800  0.37887800  0.37887800  1
  Cu  Cu2  1  0.62112200  0.62112200  0.62112200  1
  Sn  Sn3  1  0.00000000  0.50000000  0.00000000  1
  Sn  Sn4  1  0.00000000  0.00000000  0.50000000  1
  Sn  Sn5  1  0.50000000  0.00000000  0.00000000  1
  S  S6  1  0.77340500  0.22624300  0.77340500  1
  S  S7  1  0.74873700  0.74873700  0.74873700  1
  S  S8  1  0.77375700  0.22659500  0.22659500  1
  S  S9  1  0.22659500  0.22659500  0.77375700  1
  S  S10  1  0.22659500  0.77375700  0.22659500  1
  S  S11  1  0.25126300  0.25126300  0.25126300  1
  S  S12  1  0.22624300  0.77340500  0.77340500  1
  S  S13  1  0.77340500  0.77340500  0.22624300  1
