# generated using pymatgen
data_Fe3(Se2S)2
_symmetry_space_group_name_H-M   'P 1'
_cell_length_a   3.52880600
_cell_length_b   7.46259700
_cell_length_c   10.83084911
_cell_angle_alpha   80.81417435
_cell_angle_beta   90.00000000
_cell_angle_gamma   90.00000000
_symmetry_Int_Tables_number   1
_chemical_formula_structural   Fe3(Se2S)2
_chemical_formula_sum   'Fe6 Se8 S4'
_cell_volume   281.56247415
_cell_formula_units_Z   2
loop_
 _symmetry_equiv_pos_site_id
 _symmetry_equiv_pos_as_xyz
  1  'x, y, z'
loop_
 _atom_site_type_symbol
 _atom_site_label
 _atom_site_symmetry_multiplicity
 _atom_site_fract_x
 _atom_site_fract_y
 _atom_site_fract_z
 _atom_site_occupancy
  Fe  Fe0  1  0.50000000  0.17036600  0.66136900  1
  Fe  Fe1  1  0.50000000  0.49914400  0.00094000  1
  Fe  Fe2  1  0.50000000  0.83820600  0.32817500  1
  Fe  Fe3  1  0.00000000  0.66649500  0.67271100  1
  Fe  Fe4  1  0.00000000  0.00129100  0.00685300  1
  Fe  Fe5  1  0.00000000  0.33344700  0.33218400  1
  Se  Se6  1  0.50000000  0.65690800  0.52811400  1
  Se  Se7  1  0.50000000  0.98988200  0.86275300  1
  Se  Se8  1  0.00000000  0.68255300  0.05093800  1
  Se  Se9  1  0.00000000  0.01772300  0.38025800  1
  Se  Se10  1  0.00000000  0.34992900  0.71603800  1
  Se  Se11  1  0.00000000  0.31568500  0.95242000  1
  Se  Se12  1  0.00000000  0.65109900  0.28148000  1
  Se  Se13  1  0.00000000  0.98413900  0.61534400  1
  S  S14  1  0.50000000  0.67013300  0.80720200  1
  S  S15  1  0.50000000  0.00866600  0.13915400  1
  S  S16  1  0.50000000  0.33783900  0.46844600  1
  S  S17  1  0.50000000  0.32649500  0.19562200  1
