# generated using pymatgen
data_Gd2Fe17N2
_symmetry_space_group_name_H-M   'P 1'
_cell_length_a   6.41290716
_cell_length_b   6.41290716
_cell_length_c   6.46982187
_cell_angle_alpha   83.26772387
_cell_angle_beta   83.26772387
_cell_angle_gamma   83.11595956
_symmetry_Int_Tables_number   1
_chemical_formula_structural   Gd2Fe17N2
_chemical_formula_sum   'Gd2 Fe17 N2'
_cell_volume   260.89382745
_cell_formula_units_Z   1
loop_
 _symmetry_equiv_pos_site_id
 _symmetry_equiv_pos_as_xyz
  1  'x, y, z'
loop_
 _atom_site_type_symbol
 _atom_site_label
 _atom_site_symmetry_multiplicity
 _atom_site_fract_x
 _atom_site_fract_y
 _atom_site_fract_z
 _atom_site_occupancy
  Gd  Gd0  1  0.34286900  0.34286900  0.34022700  1
  Gd  Gd1  1  0.65713100  0.65713100  0.65977300  1
  Fe  Fe2  1  0.71238000  0.28762000  0.00000000  1
  Fe  Fe3  1  0.28198800  0.00099300  0.71558300  1
  Fe  Fe4  1  0.99900700  0.71801200  0.28441700  1
  Fe  Fe5  1  0.71801200  0.99900700  0.28441700  1
  Fe  Fe6  1  0.00099300  0.28198800  0.71558300  1
  Fe  Fe7  1  0.28762000  0.71238000  0.00000000  1
  Fe  Fe8  1  0.00000000  0.00000000  0.50000000  1
  Fe  Fe9  1  0.00000000  0.50000000  0.00000000  1
  Fe  Fe10  1  0.50000000  0.00000000  0.00000000  1
  Fe  Fe11  1  0.65497800  0.65497800  0.14534000  1
  Fe  Fe12  1  0.65377700  0.14820400  0.65988400  1
  Fe  Fe13  1  0.14820400  0.65377700  0.65988400  1
  Fe  Fe14  1  0.34502200  0.34502200  0.85466000  1
  Fe  Fe15  1  0.34622300  0.85179600  0.34011600  1
  Fe  Fe16  1  0.85179600  0.34622300  0.34011600  1
  Fe  Fe17  1  0.09335900  0.09335900  0.09146400  1
  Fe  Fe18  1  0.90664100  0.90664100  0.90853600  1
  N  N19  1  0.50000000  0.00000000  0.50000000  1
  N  N20  1  0.00000000  0.50000000  0.50000000  1
