# generated using pymatgen
data_EuDyTi2O7
_symmetry_space_group_name_H-M   'P 1'
_cell_length_a   7.24996935
_cell_length_b   7.24996935
_cell_length_c   7.24996935
_cell_angle_alpha   120.23642241
_cell_angle_beta   119.84490972
_cell_angle_gamma   89.92991355
_symmetry_Int_Tables_number   1
_chemical_formula_structural   EuDyTi2O7
_chemical_formula_sum   'Eu2 Dy2 Ti4 O14'
_cell_volume   269.28972706
_cell_formula_units_Z   2
loop_
 _symmetry_equiv_pos_site_id
 _symmetry_equiv_pos_as_xyz
  1  'x, y, z'
loop_
 _atom_site_type_symbol
 _atom_site_label
 _atom_site_symmetry_multiplicity
 _atom_site_fract_x
 _atom_site_fract_y
 _atom_site_fract_z
 _atom_site_occupancy
  Eu  Eu0  1  0.00000000  0.00000000  0.50000000  1
  Eu  Eu1  1  0.00000000  0.50000000  0.00000000  1
  Dy  Dy2  1  0.00000000  0.00000000  0.00000000  1
  Dy  Dy3  1  0.50000000  0.00000000  0.50000000  1
  Ti  Ti4  1  0.50000000  0.50000000  0.50000000  1
  Ti  Ti5  1  0.50000000  0.00000000  0.00000000  1
  Ti  Ti6  1  0.50000000  0.50000000  0.00000000  1
  Ti  Ti7  1  0.00000000  0.50000000  0.50000000  1
  O  O8  1  0.42123400  0.17123400  0.25000000  1
  O  O9  1  0.82617900  0.57617900  0.25000000  1
  O  O10  1  0.42538900  0.58058100  0.25326800  1
  O  O11  1  0.82731300  0.17212200  0.24673200  1
  O  O12  1  0.42538900  0.17212200  0.84480800  1
  O  O13  1  0.82731300  0.58058100  0.65519200  1
  O  O14  1  0.57876600  0.82876600  0.75000000  1
  O  O15  1  0.17382100  0.42382100  0.75000000  1
  O  O16  1  0.57461100  0.41941900  0.74673200  1
  O  O17  1  0.17268700  0.82787800  0.75326800  1
  O  O18  1  0.57461100  0.82787800  0.15519200  1
  O  O19  1  0.17268700  0.41941900  0.34480800  1
  O  O20  1  0.13084500  0.88084500  0.25000000  1
  O  O21  1  0.86915500  0.11915500  0.75000000  1
