# generated using pymatgen
data_H12C4N2O9
_symmetry_space_group_name_H-M   'P 1'
_cell_length_a   11.28999200
_cell_length_b   7.02576200
_cell_length_c   14.26712558
_cell_angle_alpha   60.98667300
_cell_angle_beta   90.00000000
_cell_angle_gamma   90.00000000
_symmetry_Int_Tables_number   1
_chemical_formula_structural   H12C4N2O9
_chemical_formula_sum   'H48 C16 N8 O36'
_cell_volume   989.66178511
_cell_formula_units_Z   4
loop_
 _symmetry_equiv_pos_site_id
 _symmetry_equiv_pos_as_xyz
  1  'x, y, z'
loop_
 _atom_site_type_symbol
 _atom_site_label
 _atom_site_symmetry_multiplicity
 _atom_site_fract_x
 _atom_site_fract_y
 _atom_site_fract_z
 _atom_site_occupancy
  H  H0  1  0.78542600  0.62560300  0.75051700  1
  H  H1  1  0.28542600  0.37439700  0.74948300  1
  H  H2  1  0.21457400  0.37439700  0.24948300  1
  H  H3  1  0.71457400  0.62560300  0.25051700  1
  H  H4  1  0.96166500  0.23832400  0.68140600  1
  H  H5  1  0.46166500  0.76167600  0.81859400  1
  H  H6  1  0.03788100  0.89764900  0.18174900  1
  H  H7  1  0.53788100  0.10235100  0.31825100  1
  H  H8  1  0.03833500  0.76167600  0.31859400  1
  H  H9  1  0.53833500  0.23832400  0.18140600  1
  H  H10  1  0.96211900  0.10235100  0.81825100  1
  H  H11  1  0.46211900  0.89764900  0.68174900  1
  H  H12  1  0.87813900  0.83582500  0.68466900  1
  H  H13  1  0.37813900  0.16417500  0.81533100  1
  H  H14  1  0.10484200  0.33157600  0.18172300  1
  H  H15  1  0.60484200  0.66842400  0.31827700  1
  H  H16  1  0.12186100  0.16417500  0.31533100  1
  H  H17  1  0.62186100  0.83582500  0.18466900  1
  H  H18  1  0.89515800  0.66842400  0.81827700  1
  H  H19  1  0.39515800  0.33157600  0.68172300  1
  H  H20  1  0.85361600  0.29115800  0.75010200  1
  H  H21  1  0.35361600  0.70884200  0.74989800  1
  H  H22  1  0.14638400  0.70884200  0.24989800  1
  H  H23  1  0.64638400  0.29115800  0.25010200  1
  H  H24  1  0.65982000  0.31966100  0.81305700  1
  H  H25  1  0.15982000  0.68033900  0.68694300  1
  H  H26  1  0.34013200  0.55479600  0.31318800  1
  H  H27  1  0.84013200  0.44520400  0.18681200  1
  H  H28  1  0.34018000  0.68033900  0.18694300  1
  H  H29  1  0.84018000  0.31966100  0.31305700  1
  H  H30  1  0.65986800  0.44520400  0.68681200  1
  H  H31  1  0.15986800  0.55479600  0.81318800  1
  H  H32  1  0.28549400  0.19572200  0.50401000  1
  H  H33  1  0.78549400  0.80427800  0.99599000  1
  H  H34  1  0.71531500  0.29556900  0.00440100  1
  H  H35  1  0.21531500  0.70443100  0.49559900  1
  H  H36  1  0.71450600  0.80427800  0.49599000  1
  H  H37  1  0.21450600  0.19572200  0.00401000  1
  H  H38  1  0.28468500  0.70443100  0.99559900  1
  H  H39  1  0.78468500  0.29556900  0.50440100  1
  H  H40  1  0.99431500  0.36969200  0.75026300  1
  H  H41  1  0.49431500  0.63030800  0.74973700  1
  H  H42  1  0.00568500  0.63030800  0.24973700  1
  H  H43  1  0.50568500  0.36969200  0.25026300  1
  H  H44  1  0.77599400  0.83915700  0.77240500  1
  H  H45  1  0.27599400  0.16084300  0.72759500  1
  H  H46  1  0.22400600  0.16084300  0.22759500  1
  H  H47  1  0.72400600  0.83915700  0.27240500  1
  C  C48  1  0.11829700  0.21376000  0.53550200  1
  C  C49  1  0.61829700  0.78624000  0.96449800  1
  C  C50  1  0.88245200  0.21516900  0.03555000  1
  C  C51  1  0.38245200  0.78483100  0.46445000  1
  C  C52  1  0.88170300  0.78624000  0.46449800  1
  C  C53  1  0.38170300  0.21376000  0.03550200  1
  C  C54  1  0.11754800  0.78483100  0.96445000  1
  C  C55  1  0.61754800  0.21516900  0.53555000  1
  C  C56  1  0.99080300  0.24379000  0.48829900  1
  C  C57  1  0.49080300  0.75621000  0.01170100  1
  C  C58  1  0.00972500  0.27957200  0.98832600  1
  C  C59  1  0.50972500  0.72042800  0.51167400  1
  C  C60  1  0.00919700  0.75621000  0.51170100  1
  C  C61  1  0.50919700  0.24379000  0.98829900  1
  C  C62  1  0.99027500  0.72042800  0.01167400  1
  C  C63  1  0.49027500  0.27957200  0.48832600  1
  N  N64  1  0.83473400  0.74600800  0.75637000  1
  N  N65  1  0.33473400  0.25399200  0.74363000  1
  N  N66  1  0.16526600  0.25399200  0.24363000  1
  N  N67  1  0.66526600  0.74600800  0.25637000  1
  N  N68  1  0.94284000  0.24936800  0.75014400  1
  N  N69  1  0.44284000  0.75063200  0.74985600  1
  N  N70  1  0.05716000  0.75063200  0.24985600  1
  N  N71  1  0.55716000  0.24936800  0.25014400  1
  O  O72  1  0.71242600  0.39644500  0.74994500  1
  O  O73  1  0.21242600  0.60355500  0.75005500  1
  O  O74  1  0.28757400  0.60355500  0.25005500  1
  O  O75  1  0.78757400  0.39644500  0.24994500  1
  O  O76  1  0.90951500  0.24477000  0.55038000  1
  O  O77  1  0.40951500  0.75523000  0.94962000  1
  O  O78  1  0.09099900  0.15572300  0.04965500  1
  O  O79  1  0.59099900  0.84427700  0.45034500  1
  O  O80  1  0.09048500  0.75523000  0.44962000  1
  O  O81  1  0.59048500  0.24477000  0.05038000  1
  O  O82  1  0.90900100  0.84427700  0.95034500  1
  O  O83  1  0.40900100  0.15572300  0.54965500  1
  O  O84  1  0.97792600  0.26371300  0.39639400  1
  O  O85  1  0.47792600  0.73628700  0.10360600  1
  O  O86  1  0.02290100  0.44273200  0.89674300  1
  O  O87  1  0.52290100  0.55726800  0.60325700  1
  O  O88  1  0.02207400  0.73628700  0.60360600  1
  O  O89  1  0.52207400  0.26371300  0.89639400  1
  O  O90  1  0.97709900  0.55726800  0.10325700  1
  O  O91  1  0.47709900  0.44273200  0.39674300  1
  O  O92  1  0.20102500  0.21614500  0.46981700  1
  O  O93  1  0.70102500  0.78385500  0.03018300  1
  O  O94  1  0.79947400  0.34342000  0.97019600  1
  O  O95  1  0.29947400  0.65658000  0.52980400  1
  O  O96  1  0.79897500  0.78385500  0.53018300  1
  O  O97  1  0.29897500  0.21614500  0.96981700  1
  O  O98  1  0.20052600  0.65658000  0.02980400  1
  O  O99  1  0.70052600  0.34342000  0.47019600  1
  O  O100  1  0.13559300  0.19053200  0.62592100  1
  O  O101  1  0.63559300  0.80946800  0.87407900  1
  O  O102  1  0.86538200  0.05884500  0.12515000  1
  O  O103  1  0.36538200  0.94115500  0.37485000  1
  O  O104  1  0.86440700  0.80946800  0.37407900  1
  O  O105  1  0.36440700  0.19053200  0.12592100  1
  O  O106  1  0.13461800  0.94115500  0.87485000  1
  O  O107  1  0.63461800  0.05884500  0.62515000  1
