# generated using pymatgen
data_Gd2VFeO6
_symmetry_space_group_name_H-M   'P 1'
_cell_length_a   5.75909900
_cell_length_b   5.42260500
_cell_length_c   9.24149748
_cell_angle_alpha   55.53443893
_cell_angle_beta   90.00000000
_cell_angle_gamma   90.00000000
_symmetry_Int_Tables_number   1
_chemical_formula_structural   Gd2VFeO6
_chemical_formula_sum   'Gd4 V2 Fe2 O12'
_cell_volume   237.94570665
_cell_formula_units_Z   2
loop_
 _symmetry_equiv_pos_site_id
 _symmetry_equiv_pos_as_xyz
  1  'x, y, z'
loop_
 _atom_site_type_symbol
 _atom_site_label
 _atom_site_symmetry_multiplicity
 _atom_site_fract_x
 _atom_site_fract_y
 _atom_site_fract_z
 _atom_site_occupancy
  Gd  Gd0  1  0.56987800  0.72506300  0.75196900  1
  Gd  Gd1  1  0.06987800  0.27493700  0.74803100  1
  Gd  Gd2  1  0.43012200  0.27493700  0.24803100  1
  Gd  Gd3  1  0.93012200  0.72506300  0.25196900  1
  V  V4  1  0.00000000  0.00000000  0.50000000  1
  V  V5  1  0.50000000  0.00000000  0.00000000  1
  Fe  Fe6  1  0.00000000  0.50000000  0.00000000  1
  Fe  Fe7  1  0.50000000  0.50000000  0.50000000  1
  O  O8  1  0.79603300  0.23999400  0.94210500  1
  O  O9  1  0.29603300  0.76000600  0.55789500  1
  O  O10  1  0.18371000  0.35162100  0.44597900  1
  O  O11  1  0.68371000  0.64837900  0.05402100  1
  O  O12  1  0.20396700  0.76000600  0.05789500  1
  O  O13  1  0.70396700  0.23999400  0.44210500  1
  O  O14  1  0.81629000  0.64837900  0.55402100  1
  O  O15  1  0.31629000  0.35162100  0.94597900  1
  O  O16  1  0.96570900  0.87273600  0.73766000  1
  O  O17  1  0.46570900  0.12726400  0.76234000  1
  O  O18  1  0.03429100  0.12726400  0.26234000  1
  O  O19  1  0.53429100  0.87273600  0.23766000  1
