# generated using pymatgen
data_Na2ZnSn5
_symmetry_space_group_name_H-M   'P 1'
_cell_length_a   18.73222468
_cell_length_b   18.66096616
_cell_length_c   35.21687579
_cell_angle_alpha   74.63640231
_cell_angle_beta   74.57627865
_cell_angle_gamma   90.00000000
_symmetry_Int_Tables_number   1
_chemical_formula_structural   Na2ZnSn5
_chemical_formula_sum   'Na4 Zn2 Sn10'
_cell_volume   11410.09540868
_cell_formula_units_Z   2
loop_
 _symmetry_equiv_pos_site_id
 _symmetry_equiv_pos_as_xyz
  1  'x, y, z'
loop_
 _atom_site_type_symbol
 _atom_site_label
 _atom_site_symmetry_multiplicity
 _atom_site_fract_x
 _atom_site_fract_y
 _atom_site_fract_z
 _atom_site_occupancy
  Na  Na0  1  0.40601128  0.95477823  0.78956424  1
  Na  Na1  1  0.34398872  0.99434247  0.71043576  1
  Na  Na2  1  0.80442448  0.25565753  0.78956424  1
  Na  Na3  1  0.94557552  0.29522177  0.71043576  1
  Zn  Zn4  1  0.74999144  0.24999144  0.50001712  1
  Zn  Zn5  1  0.00000856  0.00000856  0.99998288  1
  Sn  Sn6  1  0.26669327  0.77734016  0.13087701  1
  Sn  Sn7  1  0.48330673  0.15821716  0.36912299  1
  Sn  Sn8  1  0.60242973  0.09178284  0.13087701  1
  Sn  Sn9  1  0.14757027  0.47265984  0.36912299  1
  Sn  Sn10  1  0.22269004  0.39753843  0.86905185  1
  Sn  Sn11  1  0.52730996  0.51659028  0.63094815  1
  Sn  Sn12  1  0.90825811  0.73340972  0.86905185  1
  Sn  Sn13  1  0.84174189  0.85246157  0.63094815  1
  Sn  Sn14  1  0.24997208  0.74997208  0.50005585  1
  Sn  Sn15  1  0.50002792  0.50002792  -0.00005585  1
