# generated using pymatgen
data_Eu2Si4IrPd3
_symmetry_space_group_name_H-M   'P 1'
_cell_length_a   4.21553600
_cell_length_b   4.21553600
_cell_length_c   10.16297300
_cell_angle_alpha   90.00000000
_cell_angle_beta   90.00000000
_cell_angle_gamma   90.00000000
_symmetry_Int_Tables_number   1
_chemical_formula_structural   Eu2Si4IrPd3
_chemical_formula_sum   'Eu2 Si4 Ir1 Pd3'
_cell_volume   180.60358910
_cell_formula_units_Z   1
loop_
 _symmetry_equiv_pos_site_id
 _symmetry_equiv_pos_as_xyz
  1  'x, y, z'
loop_
 _atom_site_type_symbol
 _atom_site_label
 _atom_site_symmetry_multiplicity
 _atom_site_fract_x
 _atom_site_fract_y
 _atom_site_fract_z
 _atom_site_occupancy
  Eu  Eu0  1  0.50000000  0.00000000  0.75002000  1
  Eu  Eu1  1  0.00000000  0.50000000  0.24998000  1
  Si  Si2  1  0.00000000  0.50000000  0.87312800  1
  Si  Si3  1  0.50000000  0.00000000  0.37076400  1
  Si  Si4  1  0.50000000  0.00000000  0.12687200  1
  Si  Si5  1  0.00000000  0.50000000  0.62923600  1
  Ir  Ir6  1  0.50000000  0.50000000  0.00000000  1
  Pd  Pd7  1  0.00000000  0.00000000  0.50000000  1
  Pd  Pd8  1  0.00000000  0.00000000  0.00000000  1
  Pd  Pd9  1  0.50000000  0.50000000  0.50000000  1
