# generated using pymatgen
data_NaSbS2
_symmetry_space_group_name_H-M   'P 1'
_cell_length_a   6.99014817
_cell_length_b   6.99014817
_cell_length_c   6.99014817
_cell_angle_alpha   132.93826856
_cell_angle_beta   132.93826856
_cell_angle_gamma   68.75110995
_symmetry_Int_Tables_number   1
_chemical_formula_structural   NaSbS2
_chemical_formula_sum   'Na2 Sb2 S4'
_cell_volume   179.73569976
_cell_formula_units_Z   2
loop_
 _symmetry_equiv_pos_site_id
 _symmetry_equiv_pos_as_xyz
  1  'x, y, z'
loop_
 _atom_site_type_symbol
 _atom_site_label
 _atom_site_symmetry_multiplicity
 _atom_site_fract_x
 _atom_site_fract_y
 _atom_site_fract_z
 _atom_site_occupancy
  Na  Na0  1  0.50000000  0.50000000  0.00000000  1
  Na  Na1  1  0.25000000  0.75000000  0.50000000  1
  Sb  Sb2  1  0.00000000  0.00000000  0.00000000  1
  Sb  Sb3  1  0.75000000  0.25000000  0.50000000  1
  S  S4  1  0.76101500  0.76101500  0.00000000  1
  S  S5  1  0.23898500  0.23898500  0.00000000  1
  S  S6  1  0.98898500  0.48898500  0.50000000  1
  S  S7  1  0.51101500  0.01101500  0.50000000  1
