# generated using pymatgen
data_K3TiFeH4S4O19
_symmetry_space_group_name_H-M   'P 1'
_cell_length_a   7.77363856
_cell_length_b   9.33935862
_cell_length_c   12.43632635
_cell_angle_alpha   92.13527494
_cell_angle_beta   84.86361926
_cell_angle_gamma   114.59341292
_symmetry_Int_Tables_number   1
_chemical_formula_structural   K3TiFeH4S4O19
_chemical_formula_sum   'K6 Ti2 Fe2 H8 S8 O38'
_cell_volume   817.68415488
_cell_formula_units_Z   2
loop_
 _symmetry_equiv_pos_site_id
 _symmetry_equiv_pos_as_xyz
  1  'x, y, z'
loop_
 _atom_site_type_symbol
 _atom_site_label
 _atom_site_symmetry_multiplicity
 _atom_site_fract_x
 _atom_site_fract_y
 _atom_site_fract_z
 _atom_site_occupancy
  K  K0  1  0.88679600  0.77347000  0.75049000  1
  K  K1  1  0.11332600  0.22653000  0.25049000  1
  K  K2  1  0.99985400  0.49877000  0.00032200  1
  K  K3  1  0.50108300  0.50123000  0.50032200  1
  K  K4  1  0.47210000  0.94515700  0.74970900  1
  K  K5  1  0.52694300  0.05484300  0.24970900  1
  Ti  Ti6  1  0.99413500  0.21391000  0.64239000  1
  Ti  Ti7  1  0.78022500  0.78609000  0.14239000  1
  Fe  Fe8  1  0.23191300  0.22037300  0.86458400  1
  Fe  Fe9  1  0.01154000  0.77962700  0.36458400  1
  H  H10  1  0.53888600  0.39159200  0.95559800  1
  H  H11  1  0.85348700  0.39239100  0.54352900  1
  H  H12  1  0.46109600  0.60760900  0.04352900  1
  H  H13  1  0.14729400  0.60840800  0.45559800  1
  H  H14  1  0.41384800  0.24366600  0.03264200  1
  H  H15  1  0.83128900  0.24670200  0.46649900  1
  H  H16  1  0.58458700  0.75329800  0.96649900  1
  H  H17  1  0.17018200  0.75633400  0.53264200  1
  S  S18  1  0.68077500  0.36139600  0.74949100  1
  S  S19  1  0.31937800  0.63860400  0.24949100  1
  S  S20  1  0.27303800  0.54727100  0.75042100  1
  S  S21  1  0.72576700  0.45272900  0.25042100  1
  S  S22  1  0.79878300  0.07414300  0.98886000  1
  S  S23  1  0.27568300  0.07411200  0.51036100  1
  S  S24  1  0.20157100  0.92588800  0.01036100  1
  S  S25  1  0.72463900  0.92585700  0.48886000  1
  O  O26  1  0.68762400  0.16636400  0.00308600  1
  O  O27  1  0.47773600  0.17279300  0.49998200  1
  O  O28  1  0.30494300  0.82720700  0.99998200  1
  O  O29  1  0.52126000  0.83363600  0.50308600  1
  O  O30  1  0.00747800  0.18457900  0.97435300  1
  O  O31  1  0.17118900  0.18269800  0.52748400  1
  O  O32  1  0.98849100  0.81730200  0.02748400  1
  O  O33  1  0.82289900  0.81542100  0.47435300  1
  O  O34  1  0.47254800  0.25155000  0.76325700  1
  O  O35  1  0.78510400  0.25454600  0.73423700  1
  O  O36  1  0.53055900  0.74545400  0.23423700  1
  O  O37  1  0.22099800  0.74845000  0.26325700  1
  O  O38  1  0.25183800  0.44293400  0.84536200  1
  O  O39  1  0.18328800  0.43783600  0.65665100  1
  O  O40  1  0.74545200  0.56216400  0.15665100  1
  O  O41  1  0.80890400  0.55706600  0.34536200  1
  O  O42  1  0.47341500  0.64066000  0.71713000  1
  O  O43  1  0.16855100  0.64423200  0.77871200  1
  O  O44  1  0.52431900  0.35576800  0.27871200  1
  O  O45  1  0.83275500  0.35934000  0.21713000  1
  O  O46  1  0.73542500  0.45663400  0.84798200  1
  O  O47  1  0.72331600  0.45938100  0.65238000  1
  O  O48  1  0.26393500  0.54061900  0.15238000  1
  O  O49  1  0.27879200  0.54336600  0.34798200  1
  O  O50  1  0.06735500  0.14198000  0.74778300  1
  O  O51  1  0.92537500  0.85802000  0.24778300  1
  O  O52  1  0.74354500  0.95557700  0.90232700  1
  O  O53  1  0.21221100  0.95505900  0.59647500  1
  O  O54  1  0.25715200  0.04494100  0.09647500  1
  O  O55  1  0.78796800  0.04442300  0.40232700  1
  O  O56  1  0.22157800  0.00573400  0.90222100  1
  O  O57  1  0.78941300  0.01066400  0.59680900  1
  O  O58  1  0.77875000  0.98933600  0.09680900  1
  O  O59  1  0.21584400  0.99426600  0.40222100  1
  O  O60  1  0.40883800  0.32713400  0.98823400  1
  O  O61  1  0.92036900  0.32950500  0.51063800  1
  O  O62  1  0.59086400  0.67049500  0.01063800  1
  O  O63  1  0.08170400  0.67286600  0.48823400  1
