# generated using pymatgen
data_Dy3Mg
_symmetry_space_group_name_H-M   'P 1'
_cell_length_a   3.54645700
_cell_length_b   3.54645700
_cell_length_c   9.41601800
_cell_angle_alpha   90.00000000
_cell_angle_beta   90.00000000
_cell_angle_gamma   90.00000000
_symmetry_Int_Tables_number   1
_chemical_formula_structural   Dy3Mg
_chemical_formula_sum   'Dy3 Mg1'
_cell_volume   118.42862229
_cell_formula_units_Z   1
loop_
 _symmetry_equiv_pos_site_id
 _symmetry_equiv_pos_as_xyz
  1  'x, y, z'
loop_
 _atom_site_type_symbol
 _atom_site_label
 _atom_site_symmetry_multiplicity
 _atom_site_fract_x
 _atom_site_fract_y
 _atom_site_fract_z
 _atom_site_occupancy
  Dy  Dy0  1  0.50000000  0.50000000  0.75991900  1
  Dy  Dy1  1  0.00000000  0.00000000  0.50000000  1
  Dy  Dy2  1  0.50000000  0.50000000  0.24008100  1
  Mg  Mg3  1  0.00000000  0.00000000  0.00000000  1
