# generated using pymatgen
data_Dy2CuAg3
_symmetry_space_group_name_H-M   'P 1'
_cell_length_a   3.71371700
_cell_length_b   3.71371700
_cell_length_c   9.05290100
_cell_angle_alpha   90.00000000
_cell_angle_beta   90.00000000
_cell_angle_gamma   90.00000000
_symmetry_Int_Tables_number   1
_chemical_formula_structural   Dy2CuAg3
_chemical_formula_sum   'Dy2 Cu1 Ag3'
_cell_volume   124.85484001
_cell_formula_units_Z   1
loop_
 _symmetry_equiv_pos_site_id
 _symmetry_equiv_pos_as_xyz
  1  'x, y, z'
loop_
 _atom_site_type_symbol
 _atom_site_label
 _atom_site_symmetry_multiplicity
 _atom_site_fract_x
 _atom_site_fract_y
 _atom_site_fract_z
 _atom_site_occupancy
  Dy  Dy0  1  0.00000000  0.00000000  0.00947700  1
  Dy  Dy1  1  0.50000000  0.50000000  0.49382400  1
  Cu  Cu2  1  0.50000000  0.50000000  0.16581100  1
  Ag  Ag3  1  0.00000000  0.00000000  0.67094800  1
  Ag  Ag4  1  0.00000000  0.00000000  0.32576200  1
  Ag  Ag5  1  0.50000000  0.50000000  0.83417800  1
