# generated using pymatgen
data_Nb(H2Se)2
_symmetry_space_group_name_H-M   'P 1'
_cell_length_a   7.63062710
_cell_length_b   7.86631159
_cell_length_c   7.76821563
_cell_angle_alpha   76.97466748
_cell_angle_beta   117.68991688
_cell_angle_gamma   119.01374596
_symmetry_Int_Tables_number   1
_chemical_formula_structural   Nb(H2Se)2
_chemical_formula_sum   'Nb2 H8 Se4'
_cell_volume   361.06936659
_cell_formula_units_Z   2
loop_
 _symmetry_equiv_pos_site_id
 _symmetry_equiv_pos_as_xyz
  1  'x, y, z'
loop_
 _atom_site_type_symbol
 _atom_site_label
 _atom_site_symmetry_multiplicity
 _atom_site_fract_x
 _atom_site_fract_y
 _atom_site_fract_z
 _atom_site_occupancy
  Nb  Nb0  1  0.37779500  0.59923500  0.30963200  1
  Nb  Nb1  1  0.77856100  0.40076500  0.80963200  1
  H  H2  1  0.18992900  0.81555700  0.20595200  1
  H  H3  1  0.24444600  0.35425600  0.37247300  1
  H  H4  1  0.99496900  0.00109000  0.99663000  1
  H  H5  1  0.66099000  0.75648700  0.37775900  1
  H  H6  1  0.37437200  0.18444300  0.70595200  1
  H  H7  1  0.89018900  0.64574400  0.87247300  1
  H  H8  1  0.90450300  0.24351300  0.87775900  1
  H  H9  1  0.99387900  0.99891000  0.49663000  1
  Se  Se10  1  0.22612400  0.56863600  0.96969200  1
  Se  Se11  1  0.23247500  0.75819700  0.41596200  1
  Se  Se12  1  0.47427900  0.24180300  0.91596200  1
  Se  Se13  1  0.65748800  0.43136400  0.46969200  1
