# generated using pymatgen
data_Dy4CdS7
_symmetry_space_group_name_H-M   'P 1'
_cell_length_a   6.65272830
_cell_length_b   6.65272830
_cell_length_c   11.59563122
_cell_angle_alpha   75.72871706
_cell_angle_beta   75.72871706
_cell_angle_gamma   33.54480216
_symmetry_Int_Tables_number   1
_chemical_formula_structural   Dy4CdS7
_chemical_formula_sum   'Dy4 Cd1 S7'
_cell_volume   274.03268565
_cell_formula_units_Z   1
loop_
 _symmetry_equiv_pos_site_id
 _symmetry_equiv_pos_as_xyz
  1  'x, y, z'
loop_
 _atom_site_type_symbol
 _atom_site_label
 _atom_site_symmetry_multiplicity
 _atom_site_fract_x
 _atom_site_fract_y
 _atom_site_fract_z
 _atom_site_occupancy
  Dy  Dy0  1  0.69350200  0.69350200  0.19949600  1
  Dy  Dy1  1  0.30720700  0.30720700  0.80385800  1
  Dy  Dy2  1  0.00005900  0.00005900  0.00256600  1
  Dy  Dy3  1  0.11491700  0.11491700  0.57128700  1
  Cd  Cd4  1  0.88462700  0.88462700  0.42101500  1
  S  S5  1  0.74127200  0.74127200  0.64750300  1
  S  S6  1  0.25814500  0.25814500  0.35078500  1
  S  S7  1  0.34051600  0.34051600  0.04965500  1
  S  S8  1  0.65975100  0.65975100  0.94853900  1
  S  S9  1  0.03906700  0.03906700  0.21762800  1
  S  S10  1  0.96063300  0.96063300  0.78547400  1
  S  S11  1  0.50030400  0.50030400  0.50219400  1
