# generated using pymatgen
data_Dy2MnSbO7
_symmetry_space_group_name_H-M   'P 1'
_cell_length_a   7.32090987
_cell_length_b   7.32090987
_cell_length_c   7.32090987
_cell_angle_alpha   121.66856854
_cell_angle_beta   118.61004259
_cell_angle_gamma   89.77937792
_symmetry_Int_Tables_number   1
_chemical_formula_structural   Dy2MnSbO7
_chemical_formula_sum   'Dy4 Mn2 Sb2 O14'
_cell_volume   276.61291659
_cell_formula_units_Z   2
loop_
 _symmetry_equiv_pos_site_id
 _symmetry_equiv_pos_as_xyz
  1  'x, y, z'
loop_
 _atom_site_type_symbol
 _atom_site_label
 _atom_site_symmetry_multiplicity
 _atom_site_fract_x
 _atom_site_fract_y
 _atom_site_fract_z
 _atom_site_occupancy
  Dy  Dy0  1  0.00000000  0.50000000  0.00000000  1
  Dy  Dy1  1  0.00000000  0.00000000  0.50000000  1
  Dy  Dy2  1  0.00000000  0.50000000  0.50000000  1
  Dy  Dy3  1  0.50000000  0.50000000  0.00000000  1
  Mn  Mn4  1  0.50000000  0.00000000  0.00000000  1
  Mn  Mn5  1  0.50000000  0.50000000  0.50000000  1
  Sb  Sb6  1  0.50000000  0.00000000  0.50000000  1
  Sb  Sb7  1  0.00000000  0.00000000  0.00000000  1
  O  O8  1  0.87324300  0.62324300  0.25000000  1
  O  O9  1  0.12675700  0.37675700  0.75000000  1
  O  O10  1  0.82905700  0.07905700  0.75000000  1
  O  O11  1  0.41802900  0.66802900  0.75000000  1
  O  O12  1  0.84205600  0.66588300  0.75942900  1
  O  O13  1  0.40645400  0.08262600  0.74057100  1
  O  O14  1  0.84205600  0.08262600  0.17617300  1
  O  O15  1  0.40645400  0.66588300  0.32382700  1
  O  O16  1  0.17094300  0.92094300  0.25000000  1
  O  O17  1  0.58197100  0.33197100  0.25000000  1
  O  O18  1  0.15794400  0.33411700  0.24057100  1
  O  O19  1  0.59354600  0.91737400  0.25942900  1
  O  O20  1  0.15794400  0.91737400  0.82382700  1
  O  O21  1  0.59354600  0.33411700  0.67617300  1
