# generated using pymatgen
data_FeCu2BO5
_symmetry_space_group_name_H-M   'P 1'
_cell_length_a   12.18888400
_cell_length_b   3.13521500
_cell_length_c   9.65138972
_cell_angle_alpha   82.32609338
_cell_angle_beta   90.00000000
_cell_angle_gamma   90.00000000
_symmetry_Int_Tables_number   1
_chemical_formula_structural   FeCu2BO5
_chemical_formula_sum   'Fe4 Cu8 B4 O20'
_cell_volume   365.52249761
_cell_formula_units_Z   4
loop_
 _symmetry_equiv_pos_site_id
 _symmetry_equiv_pos_as_xyz
  1  'x, y, z'
loop_
 _atom_site_type_symbol
 _atom_site_label
 _atom_site_symmetry_multiplicity
 _atom_site_fract_x
 _atom_site_fract_y
 _atom_site_fract_z
 _atom_site_occupancy
  Fe  Fe0  1  0.61778500  0.94436800  0.73449400  1
  Fe  Fe1  1  0.11778500  0.05563200  0.76550600  1
  Fe  Fe2  1  0.38221500  0.05563200  0.26550600  1
  Fe  Fe3  1  0.88221500  0.94436800  0.23449400  1
  Cu  Cu4  1  0.50000000  0.50000000  0.50000000  1
  Cu  Cu5  1  0.00000000  0.50000000  0.00000000  1
  Cu  Cu6  1  0.27746600  0.54490400  0.00952700  1
  Cu  Cu7  1  0.77746600  0.45509600  0.49047300  1
  Cu  Cu8  1  0.72253400  0.45509600  0.99047300  1
  Cu  Cu9  1  0.22253400  0.54490400  0.50952700  1
  Cu  Cu10  1  0.50000000  0.00000000  0.00000000  1
  Cu  Cu11  1  0.00000000  0.00000000  0.50000000  1
  B  B12  1  0.36636300  0.04811400  0.73675400  1
  B  B13  1  0.86636300  0.95188600  0.76324600  1
  B  B14  1  0.63363700  0.95188600  0.26324600  1
  B  B15  1  0.13363700  0.04811400  0.23675400  1
  O  O16  1  0.41199400  0.60175000  0.12713100  1
  O  O17  1  0.91199400  0.39825000  0.37286900  1
  O  O18  1  0.58800600  0.39825000  0.87286900  1
  O  O19  1  0.08800600  0.60175000  0.62713100  1
  O  O20  1  0.64506200  0.49133500  0.59928900  1
  O  O21  1  0.14506200  0.50866500  0.90071100  1
  O  O22  1  0.35493800  0.50866500  0.40071100  1
  O  O23  1  0.85493800  0.49133500  0.09928900  1
  O  O24  1  0.36910200  0.96228600  0.88094300  1
  O  O25  1  0.86910200  0.03771400  0.61905700  1
  O  O26  1  0.63089800  0.03771400  0.11905700  1
  O  O27  1  0.13089800  0.96228600  0.38094300  1
  O  O28  1  0.23367800  0.11706600  0.17164700  1
  O  O29  1  0.73367800  0.88293400  0.32835300  1
  O  O30  1  0.76632200  0.88293400  0.82835300  1
  O  O31  1  0.26632200  0.11706600  0.67164700  1
  O  O32  1  0.46203400  0.05305900  0.65988900  1
  O  O33  1  0.96203400  0.94694100  0.84011100  1
  O  O34  1  0.53796600  0.94694100  0.34011100  1
  O  O35  1  0.03796600  0.05305900  0.15988900  1
