# generated using pymatgen
data_Eu2CuSi3
_symmetry_space_group_name_H-M   'P 1'
_cell_length_a   4.07778734
_cell_length_b   4.07659900
_cell_length_c   8.77888300
_cell_angle_alpha   90.00000000
_cell_angle_beta   90.00000000
_cell_angle_gamma   60.00411880
_symmetry_Int_Tables_number   1
_chemical_formula_structural   Eu2CuSi3
_chemical_formula_sum   'Eu2 Cu1 Si3'
_cell_volume   126.38935089
_cell_formula_units_Z   1
loop_
 _symmetry_equiv_pos_site_id
 _symmetry_equiv_pos_as_xyz
  1  'x, y, z'
loop_
 _atom_site_type_symbol
 _atom_site_label
 _atom_site_symmetry_multiplicity
 _atom_site_fract_x
 _atom_site_fract_y
 _atom_site_fract_z
 _atom_site_occupancy
  Eu  Eu0  1  0.99992200  0.00009600  0.00771100  1
  Eu  Eu1  1  0.99992200  0.00009600  0.49228900  1
  Cu  Cu2  1  0.66661900  0.66671400  0.25000000  1
  Si  Si3  1  0.66663600  0.66656000  0.75000000  1
  Si  Si4  1  0.33338100  0.33315000  0.25000000  1
  Si  Si5  1  0.33332000  0.33338300  0.75000000  1
