# generated using pymatgen
data_Dy(Fe5Si)2
_symmetry_space_group_name_H-M   'P 1'
_cell_length_a   4.75029100
_cell_length_b   6.34070049
_cell_length_c   6.34070049
_cell_angle_alpha   98.35912989
_cell_angle_beta   111.99879922
_cell_angle_gamma   68.00120078
_symmetry_Int_Tables_number   1
_chemical_formula_structural   Dy(Fe5Si)2
_chemical_formula_sum   'Dy1 Fe10 Si2'
_cell_volume   164.18226427
_cell_formula_units_Z   1
loop_
 _symmetry_equiv_pos_site_id
 _symmetry_equiv_pos_as_xyz
  1  'x, y, z'
loop_
 _atom_site_type_symbol
 _atom_site_label
 _atom_site_symmetry_multiplicity
 _atom_site_fract_x
 _atom_site_fract_y
 _atom_site_fract_z
 _atom_site_occupancy
  Dy  Dy0  1  0.00000000  0.00000000  0.00000000  1
  Fe  Fe1  1  0.63849900  0.36150100  0.63849900  1
  Fe  Fe2  1  0.36150100  0.63849900  0.36150100  1
  Fe  Fe3  1  0.00000000  0.35444800  0.35444800  1
  Fe  Fe4  1  0.00000000  0.64555200  0.64555200  1
  Fe  Fe5  1  0.50000000  0.79080700  0.79080700  1
  Fe  Fe6  1  0.50000000  0.20919300  0.20919300  1
  Fe  Fe7  1  0.50000000  0.00000000  0.50000000  1
  Fe  Fe8  1  0.00000000  0.00000000  0.50000000  1
  Fe  Fe9  1  0.50000000  0.50000000  0.00000000  1
  Fe  Fe10  1  0.00000000  0.50000000  0.00000000  1
  Si  Si11  1  0.73528500  0.76471500  0.23528500  1
  Si  Si12  1  0.26471500  0.23528500  0.76471500  1
