# generated using pymatgen
data_Nd2TeMo6H38O43
_symmetry_space_group_name_H-M   'P 1'
_cell_length_a   9.55267500
_cell_length_b   10.25076026
_cell_length_c   10.79953091
_cell_angle_alpha   95.77710570
_cell_angle_beta   105.04148773
_cell_angle_gamma   112.44461709
_symmetry_Int_Tables_number   1
_chemical_formula_structural   Nd2TeMo6H38O43
_chemical_formula_sum   'Nd2 Te1 Mo6 H38 O43'
_cell_volume   919.98056196
_cell_formula_units_Z   1
loop_
 _symmetry_equiv_pos_site_id
 _symmetry_equiv_pos_as_xyz
  1  'x, y, z'
loop_
 _atom_site_type_symbol
 _atom_site_label
 _atom_site_symmetry_multiplicity
 _atom_site_fract_x
 _atom_site_fract_y
 _atom_site_fract_z
 _atom_site_occupancy
  Nd  Nd0  1  0.17143500  0.90435200  0.73504700  1
  Nd  Nd1  1  0.82986400  0.09665100  0.26512500  1
  Te  Te2  1  0.49946100  0.50018300  0.49830800  1
  Mo  Mo3  1  0.52190300  0.81030100  0.63878300  1
  Mo  Mo4  1  0.46208200  0.73516000  0.31458000  1
  Mo  Mo5  1  0.57172100  0.58275800  0.82514600  1
  Mo  Mo6  1  0.42533600  0.41818300  0.17145300  1
  Mo  Mo7  1  0.54119300  0.26777400  0.68214200  1
  Mo  Mo8  1  0.47438800  0.18834300  0.35644800  1
  H  H9  1  0.02555000  0.86329700  0.96845300  1
  H  H10  1  0.01463700  0.57017300  0.64942200  1
  H  H11  1  0.04213000  0.74617600  0.43698900  1
  H  H12  1  0.20891900  0.73108000  0.97518400  1
  H  H13  1  0.22644100  0.83674700  0.46621100  1
  H  H14  1  0.16168100  0.90018800  0.20100200  1
  H  H15  1  0.07489000  0.73640400  0.12940400  1
  H  H16  1  0.14222200  0.43674300  0.75847000  1
  H  H17  1  0.31035800  0.70448800  0.89087600  1
  H  H18  1  0.19840100  0.47066400  0.63739000  1
  H  H19  1  0.10470100  0.17244800  0.82901000  1
  H  H20  1  0.13668100  0.40533600  0.34554500  1
  H  H21  1  0.07119800  0.48708500  0.04354700  1
  H  H22  1  0.60322700  0.99645300  0.97160800  1
  H  H23  1  0.08835600  0.00162400  0.41889200  1
  H  H24  1  0.26853100  0.23976700  0.79284400  1
  H  H25  1  0.11678200  0.15876200  0.15793500  1
  H  H26  1  0.58570200  0.84576000  0.00628700  1
  H  H27  1  0.18356800  0.17246700  0.44203400  1
  H  H28  1  0.81702300  0.82817000  0.55811000  1
  H  H29  1  0.41061300  0.15397900  0.99315900  1
  H  H30  1  0.88292400  0.83976200  0.83989600  1
  H  H31  1  0.73482800  0.76091900  0.20654100  1
  H  H32  1  0.91199200  0.99868900  0.57908800  1
  H  H33  1  0.41679700  0.00964300  0.02844300  1
  H  H34  1  0.90401500  0.49049000  0.97209100  1
  H  H35  1  0.86306300  0.59650600  0.65218100  1
  H  H36  1  0.89871500  0.83160500  0.17054200  1
  H  H37  1  0.80127100  0.52924800  0.35466600  1
  H  H38  1  0.68697600  0.28270200  0.10772900  1
  H  H39  1  0.87165800  0.55795400  0.23840600  1
  H  H40  1  0.88688000  0.24143700  0.86873600  1
  H  H41  1  0.84083000  0.08782900  0.79614200  1
  H  H42  1  0.77352200  0.16366800  0.53267100  1
  H  H43  1  0.85389600  0.32927800  0.08675600  1
  H  H44  1  0.95855600  0.25447500  0.56328400  1
  H  H45  1  0.98665500  0.43230100  0.35330800  1
  H  H46  1  0.97242300  0.13572900  0.03026000  1
  O  O47  1  0.13275500  0.84051300  0.48681600  1
  O  O48  1  0.22612000  0.73878100  0.89058300  1
  O  O49  1  0.06539700  0.82866300  0.12888100  1
  O  O50  1  0.10161000  0.43454200  0.66530800  1
  O  O51  1  0.03166300  0.35933500  0.35923400  1
  O  O52  1  0.38609500  0.82935300  0.71614200  1
  O  O53  1  0.17739700  0.14949100  0.78910200  1
  O  O54  1  0.99908500  0.12424000  0.12280100  1
  O  O55  1  0.07569500  0.09040300  0.40387500  1
  O  O56  1  0.38710300  0.78086700  0.45866200  1
  O  O57  1  0.45544500  0.63254200  0.90662600  1
  O  O58  1  0.29939600  0.71239900  0.18212900  1
  O  O59  1  0.40202100  0.56630800  0.61541800  1
  O  O60  1  0.34456100  0.50069600  0.33820700  1
  O  O61  1  0.25657800  0.40637600  0.05168800  1
  O  O62  1  0.44849800  0.37299200  0.77354800  1
  O  O63  1  0.66762200  0.98443000  0.65998400  1
  O  O64  1  0.37273900  0.04984100  0.95822500  1
  O  O65  1  0.38105900  0.29443600  0.49336600  1
  O  O66  1  0.66839800  0.76881800  0.77799300  1
  O  O67  1  0.61647700  0.90422600  0.32562100  1
  O  O68  1  0.39228600  0.09843500  0.67929900  1
  O  O69  1  0.32834000  0.23251900  0.21925500  1
  O  O70  1  0.61889500  0.70593900  0.50567500  1
  O  O71  1  0.61550700  0.94772400  0.04409100  1
  O  O72  1  0.32799500  0.01437900  0.33511400  1
  O  O73  1  0.55365700  0.62727500  0.22526900  1
  O  O74  1  0.74140500  0.59887600  0.94547000  1
  O  O75  1  0.65469300  0.50114400  0.65869000  1
  O  O76  1  0.59557600  0.43282800  0.38085800  1
  O  O77  1  0.71502100  0.29976900  0.80778900  1
  O  O78  1  0.53983700  0.36626600  0.08970300  1
  O  O79  1  0.61037400  0.21789400  0.53551300  1
  O  O80  1  0.92455800  0.91061200  0.59714700  1
  O  O81  1  0.00054800  0.87492000  0.87603500  1
  O  O82  1  0.82382800  0.85231600  0.20962300  1
  O  O83  1  0.60829800  0.16715300  0.27822500  1
  O  O84  1  0.96816600  0.64159200  0.63841000  1
  O  O85  1  0.90234800  0.56414500  0.33305300  1
  O  O86  1  0.92827500  0.16685400  0.86876200  1
  O  O87  1  0.76854200  0.24719600  0.10394900  1
  O  O88  1  0.86770200  0.16049800  0.51262800  1
  O  O89  1  0.97524100  0.49246400  0.05659500  1
