# generated using pymatgen
data_DyBi3(Ru2O7)2
_symmetry_space_group_name_H-M   'P 1'
_cell_length_a   7.35205846
_cell_length_b   7.35205846
_cell_length_c   7.35205915
_cell_angle_alpha   59.56038066
_cell_angle_beta   59.56038066
_cell_angle_gamma   59.56038792
_symmetry_Int_Tables_number   1
_chemical_formula_structural   DyBi3(Ru2O7)2
_chemical_formula_sum   'Dy1 Bi3 Ru4 O14'
_cell_volume   278.19514703
_cell_formula_units_Z   1
loop_
 _symmetry_equiv_pos_site_id
 _symmetry_equiv_pos_as_xyz
  1  'x, y, z'
loop_
 _atom_site_type_symbol
 _atom_site_label
 _atom_site_symmetry_multiplicity
 _atom_site_fract_x
 _atom_site_fract_y
 _atom_site_fract_z
 _atom_site_occupancy
  Dy  Dy0  1  0.50000000  0.50000000  0.50000000  1
  Bi  Bi1  1  0.50000000  0.00000000  0.50000000  1
  Bi  Bi2  1  0.00000000  0.50000000  0.50000000  1
  Bi  Bi3  1  0.50000000  0.50000000  0.00000000  1
  Ru  Ru4  1  0.00000000  0.00000000  0.00000000  1
  Ru  Ru5  1  0.00000000  0.50000000  0.00000000  1
  Ru  Ru6  1  0.50000000  0.00000000  0.00000000  1
  Ru  Ru7  1  0.00000000  0.00000000  0.50000000  1
  O  O8  1  0.62000800  0.62000800  0.62000800  1
  O  O9  1  0.37999200  0.37999200  0.37999200  1
  O  O10  1  0.92042800  0.92042800  0.32907600  1
  O  O11  1  0.32907600  0.92042800  0.92042800  1
  O  O12  1  0.92042800  0.32907600  0.92042800  1
  O  O13  1  0.33006500  0.33006500  0.92082000  1
  O  O14  1  0.92082000  0.33006500  0.33006500  1
  O  O15  1  0.33006500  0.92082000  0.33006500  1
  O  O16  1  0.07957200  0.07957200  0.67092400  1
  O  O17  1  0.67092400  0.07957200  0.07957200  1
  O  O18  1  0.07957200  0.67092400  0.07957200  1
  O  O19  1  0.66993500  0.66993500  0.07918000  1
  O  O20  1  0.07918000  0.66993500  0.66993500  1
  O  O21  1  0.66993500  0.07918000  0.66993500  1
