# generated using pymatgen
data_NaU2Cl6
_symmetry_space_group_name_H-M   'P 1'
_cell_length_a   7.73044440
_cell_length_b   15.62056260
_cell_length_c   4.10953532
_cell_angle_alpha   90.31173286
_cell_angle_beta   89.74530242
_cell_angle_gamma   120.18604979
_symmetry_Int_Tables_number   1
_chemical_formula_structural   NaU2Cl6
_chemical_formula_sum   'Na2 U4 Cl12'
_cell_volume   428.94335993
_cell_formula_units_Z   2
loop_
 _symmetry_equiv_pos_site_id
 _symmetry_equiv_pos_as_xyz
  1  'x, y, z'
loop_
 _atom_site_type_symbol
 _atom_site_label
 _atom_site_symmetry_multiplicity
 _atom_site_fract_x
 _atom_site_fract_y
 _atom_site_fract_z
 _atom_site_occupancy
  Na  Na0  1  0.99932084  0.99892036  0.00037625  1
  Na  Na1  1  -0.00028504  0.49995444  0.50207097  1
  U  U2  1  0.33231189  0.83346241  0.24515408  1
  U  U3  1  0.33068196  0.33180686  0.24889994  1
  U  U4  1  0.66428632  0.66685409  0.74979225  1
  U  U5  1  0.66763395  0.16636033  0.74811772  1
  Cl  Cl6  1  0.30708942  0.96219856  0.74875796  1
  Cl  Cl7  1  0.08656339  0.69167411  0.74822839  1
  Cl  Cl8  1  0.38486461  0.65088727  0.25040217  1
  Cl  Cl9  1  0.62118129  0.85010618  0.74826876  1
  Cl  Cl10  1  0.30615417  0.46171955  0.75052225  1
  Cl  Cl11  1  0.08035939  0.19066248  0.75171054  1
  Cl  Cl12  1  0.92502196  0.80946611  0.24900597  1
  Cl  Cl13  1  0.70218518  0.54133668  0.24804830  1
  Cl  Cl14  1  0.38518862  0.15326595  0.25068362  1
  Cl  Cl15  1  0.61713352  0.35012730  0.74998621  1
  Cl  Cl16  1  0.92092633  0.31018695  0.25268976  1
  Cl  Cl17  1  0.70483519  0.04324738  0.25196783  1
