# generated using pymatgen
data_Dy2FeSi4
_symmetry_space_group_name_H-M   'P 1'
_cell_length_a   4.04881500
_cell_length_b   4.03835900
_cell_length_c   8.12623087
_cell_angle_alpha   75.61261079
_cell_angle_beta   90.00000000
_cell_angle_gamma   90.00000000
_symmetry_Int_Tables_number   1
_chemical_formula_structural   Dy2FeSi4
_chemical_formula_sum   'Dy2 Fe1 Si4'
_cell_volume   128.70145608
_cell_formula_units_Z   1
loop_
 _symmetry_equiv_pos_site_id
 _symmetry_equiv_pos_as_xyz
  1  'x, y, z'
loop_
 _atom_site_type_symbol
 _atom_site_label
 _atom_site_symmetry_multiplicity
 _atom_site_fract_x
 _atom_site_fract_y
 _atom_site_fract_z
 _atom_site_occupancy
  Dy  Dy0  1  0.25000000  0.60733100  0.78533900  1
  Dy  Dy1  1  0.75000000  0.38948200  0.22103600  1
  Fe  Fe2  1  0.25000000  0.24809400  0.50381200  1
  Si  Si3  1  0.25000000  0.80563900  0.38872200  1
  Si  Si4  1  0.75000000  0.19581600  0.60836800  1
  Si  Si5  1  0.25000000  0.96157500  0.07685000  1
  Si  Si6  1  0.75000000  0.04206300  0.91587300  1
