# generated using pymatgen
data_Eu2Al3Ag
_symmetry_space_group_name_H-M   'P 1'
_cell_length_a   5.68087483
_cell_length_b   5.68087483
_cell_length_c   5.68087471
_cell_angle_alpha   60.63845661
_cell_angle_beta   60.63845661
_cell_angle_gamma   60.63845265
_symmetry_Int_Tables_number   1
_chemical_formula_structural   Eu2Al3Ag
_chemical_formula_sum   'Eu2 Al3 Ag1'
_cell_volume   131.50634493
_cell_formula_units_Z   1
loop_
 _symmetry_equiv_pos_site_id
 _symmetry_equiv_pos_as_xyz
  1  'x, y, z'
loop_
 _atom_site_type_symbol
 _atom_site_label
 _atom_site_symmetry_multiplicity
 _atom_site_fract_x
 _atom_site_fract_y
 _atom_site_fract_z
 _atom_site_occupancy
  Eu  Eu0  1  0.12355700  0.12355700  0.12355700  1
  Eu  Eu1  1  0.87644300  0.87644300  0.87644300  1
  Al  Al2  1  0.00000000  0.50000000  0.50000000  1
  Al  Al3  1  0.50000000  0.50000000  0.00000000  1
  Al  Al4  1  0.50000000  0.00000000  0.50000000  1
  Ag  Ag5  1  0.50000000  0.50000000  0.50000000  1
