# generated using pymatgen
data_Nd4Mg2Ti3(Si2O11)2
_symmetry_space_group_name_H-M   'P 1'
_cell_length_a   5.83925700
_cell_length_b   10.97530646
_cell_length_c   13.51691032
_cell_angle_alpha   101.30054584
_cell_angle_beta   90.00000000
_cell_angle_gamma   90.00000000
_symmetry_Int_Tables_number   1
_chemical_formula_structural   Nd4Mg2Ti3(Si2O11)2
_chemical_formula_sum   'Nd8 Mg4 Ti6 Si8 O44'
_cell_volume   849.47232137
_cell_formula_units_Z   2
loop_
 _symmetry_equiv_pos_site_id
 _symmetry_equiv_pos_as_xyz
  1  'x, y, z'
loop_
 _atom_site_type_symbol
 _atom_site_label
 _atom_site_symmetry_multiplicity
 _atom_site_fract_x
 _atom_site_fract_y
 _atom_site_fract_z
 _atom_site_occupancy
  Nd  Nd0  1  0.02290800  0.23387300  0.35789900  1
  Nd  Nd1  1  0.04483200  0.75585400  0.93320200  1
  Nd  Nd2  1  0.45516800  0.75585400  0.43320200  1
  Nd  Nd3  1  0.47709200  0.23387300  0.85789900  1
  Nd  Nd4  1  0.52290800  0.76612700  0.14210100  1
  Nd  Nd5  1  0.54483200  0.24414600  0.56679800  1
  Nd  Nd6  1  0.95516800  0.24414600  0.06679800  1
  Nd  Nd7  1  0.97709200  0.76612700  0.64210100  1
  Mg  Mg8  1  0.50000000  0.50000000  0.50000000  1
  Mg  Mg9  1  0.50000000  0.00000000  0.00000000  1
  Mg  Mg10  1  0.00000000  0.00000000  0.50000000  1
  Mg  Mg11  1  0.00000000  0.50000000  0.00000000  1
  Ti  Ti12  1  0.22645600  0.49779600  0.22899000  1
  Ti  Ti13  1  0.27354400  0.49779600  0.72899000  1
  Ti  Ti14  1  0.50000000  0.50000000  0.00000000  1
  Ti  Ti15  1  0.72645600  0.50220400  0.27101000  1
  Ti  Ti16  1  0.77354400  0.50220400  0.77101000  1
  Ti  Ti17  1  0.00000000  0.50000000  0.50000000  1
  Si  Si18  1  0.99907100  0.95409300  0.13770600  1
  Si  Si19  1  0.00158900  0.22744200  0.70289700  1
  Si  Si20  1  0.49841100  0.22744200  0.20289700  1
  Si  Si21  1  0.50092900  0.95409300  0.63770600  1
  Si  Si22  1  0.49907100  0.04590700  0.36229400  1
  Si  Si23  1  0.50158900  0.77255800  0.79710300  1
  Si  Si24  1  0.99841100  0.77255800  0.29710300  1
  Si  Si25  1  0.00092900  0.04590700  0.86229400  1
  O  O26  1  0.01678200  0.49219600  0.34200600  1
  O  O27  1  0.02052900  0.52784200  0.85255400  1
  O  O28  1  0.98615400  0.10069200  0.18259700  1
  O  O29  1  0.06701200  0.83737400  0.40990000  1
  O  O30  1  0.06662100  0.12892600  0.77544400  1
  O  O31  1  0.19947400  0.09693800  0.94916800  1
  O  O32  1  0.28178300  0.68417300  0.75096100  1
  O  O33  1  0.25959800  0.37351000  0.97896900  1
  O  O34  1  0.23045100  0.62879900  0.52851000  1
  O  O35  1  0.23594500  0.31247600  0.70843100  1
  O  O36  1  0.25110900  0.90430000  0.59138000  1
  O  O37  1  0.24889100  0.90430000  0.09138000  1
  O  O38  1  0.26954900  0.62879900  0.02851000  1
  O  O39  1  0.26405500  0.31247600  0.20843100  1
  O  O40  1  0.24040200  0.37351000  0.47896900  1
  O  O41  1  0.21821700  0.68417300  0.25096100  1
  O  O42  1  0.30052600  0.09693800  0.44916800  1
  O  O43  1  0.43337900  0.12892600  0.27544400  1
  O  O44  1  0.43298800  0.83737400  0.90990000  1
  O  O45  1  0.51384600  0.10069200  0.68259700  1
  O  O46  1  0.47947100  0.52784200  0.35255400  1
  O  O47  1  0.48321800  0.49219600  0.84200600  1
  O  O48  1  0.51678200  0.50780400  0.15799400  1
  O  O49  1  0.52052900  0.47215800  0.64744600  1
  O  O50  1  0.48615400  0.89930800  0.31740300  1
  O  O51  1  0.56701200  0.16262600  0.09010000  1
  O  O52  1  0.56662100  0.87107400  0.72455600  1
  O  O53  1  0.69947400  0.90306200  0.55083200  1
  O  O54  1  0.78178300  0.31582700  0.74903900  1
  O  O55  1  0.75959800  0.62649000  0.52103100  1
  O  O56  1  0.73594500  0.68752400  0.79156900  1
  O  O57  1  0.73045100  0.37120100  0.97149000  1
  O  O58  1  0.75110900  0.09570000  0.90862000  1
  O  O59  1  0.74889100  0.09570000  0.40862000  1
  O  O60  1  0.76405500  0.68752400  0.29156900  1
  O  O61  1  0.76954900  0.37120100  0.47149000  1
  O  O62  1  0.74040200  0.62649000  0.02103100  1
  O  O63  1  0.71821700  0.31582700  0.24903900  1
  O  O64  1  0.80052600  0.90306200  0.05083200  1
  O  O65  1  0.93337900  0.87107400  0.22455600  1
  O  O66  1  0.93298800  0.16262600  0.59010000  1
  O  O67  1  0.01384600  0.89930800  0.81740300  1
  O  O68  1  0.97947100  0.47215800  0.14744600  1
  O  O69  1  0.98321800  0.50780400  0.65799400  1
