# generated using pymatgen
data_NdNb3O9
_symmetry_space_group_name_H-M   'P 1'
_cell_length_a   16.81994342
_cell_length_b   12.54656757
_cell_length_c   9.77680809
_cell_angle_alpha   59.12215471
_cell_angle_beta   54.99805072
_cell_angle_gamma   26.54280116
_symmetry_Int_Tables_number   1
_chemical_formula_structural   NdNb3O9
_chemical_formula_sum   'Nd4 Nb12 O36'
_cell_volume   755.22828565
_cell_formula_units_Z   4
loop_
 _symmetry_equiv_pos_site_id
 _symmetry_equiv_pos_as_xyz
  1  'x, y, z'
loop_
 _atom_site_type_symbol
 _atom_site_label
 _atom_site_symmetry_multiplicity
 _atom_site_fract_x
 _atom_site_fract_y
 _atom_site_fract_z
 _atom_site_occupancy
  Nd  Nd0  1  0.00000000  0.00000000  0.00000000  1
  Nd  Nd1  1  0.33322300  0.00156700  0.99876200  1
  Nd  Nd2  1  0.66677700  0.99843300  0.00123800  1
  Nd  Nd3  1  0.50000000  0.50000000  0.00000000  1
  Nb  Nb4  1  0.07539300  0.00906200  0.25745500  1
  Nb  Nb5  1  0.41528400  0.00113100  0.25268200  1
  Nb  Nb6  1  0.24941000  0.00678700  0.73789900  1
  Nb  Nb7  1  0.24350600  0.50029700  0.26210100  1
  Nb  Nb8  1  0.08438200  0.49920300  0.74731800  1
  Nb  Nb9  1  0.75059000  0.99321300  0.26210100  1
  Nb  Nb10  1  0.58471600  0.99886900  0.74731800  1
  Nb  Nb11  1  0.58269600  0.50175900  0.25745500  1
  Nb  Nb12  1  0.41730400  0.49824100  0.74254500  1
  Nb  Nb13  1  0.92460700  0.99093800  0.74254500  1
  Nb  Nb14  1  0.91561800  0.50079700  0.25268200  1
  Nb  Nb15  1  0.75649400  0.49970300  0.73789900  1
  O  O16  1  0.00000000  0.00000000  0.50000000  1
  O  O17  1  0.17525500  0.98614100  0.00075700  1
  O  O18  1  0.01152500  0.24357600  0.23108200  1
  O  O19  1  0.00000000  0.50000000  0.00000000  1
  O  O20  1  0.17937400  0.23178800  0.23008900  1
  O  O21  1  0.50000000  0.00000000  0.00000000  1
  O  O22  1  0.33409400  0.99891700  0.49929000  1
  O  O23  1  0.34375900  0.24753300  0.23066900  1
  O  O24  1  0.16571900  0.24298900  0.76933100  1
  O  O25  1  0.99819000  0.77608100  0.22934900  1
  O  O26  1  0.16639500  0.50059400  0.50071000  1
  O  O27  1  0.33740700  0.50119700  0.99924300  1
  O  O28  1  0.51199100  0.24588600  0.21813800  1
  O  O29  1  0.33270100  0.23188600  0.77001100  1
  O  O30  1  0.19047300  0.73526100  0.22062800  1
  O  O31  1  0.82474500  0.01385900  0.99924300  1
  O  O32  1  0.66590600  0.00108300  0.50071000  1
  O  O33  1  0.66316400  0.26257000  0.22062800  1
  O  O34  1  0.49770700  0.24719200  0.76891800  1
  O  O35  1  0.34235800  0.75288600  0.22004100  1
  O  O36  1  0.15098300  0.77759200  0.76945900  1
  O  O37  1  0.50000000  0.50000000  0.50000000  1
  O  O38  1  0.66259300  0.49880300  0.00075700  1
  O  O39  1  0.84901700  0.22240800  0.23054100  1
  O  O40  1  0.65764200  0.24711400  0.77995900  1
  O  O41  1  0.50229300  0.75280800  0.23108200  1
  O  O42  1  0.33683600  0.73743000  0.77937200  1
  O  O43  1  0.80952700  0.26473900  0.77937200  1
  O  O44  1  0.66729900  0.76811400  0.22998900  1
  O  O45  1  0.48800900  0.75411400  0.78186200  1
  O  O46  1  0.83360500  0.49940600  0.49929000  1
  O  O47  1  0.00181000  0.22391900  0.77065100  1
  O  O48  1  0.65624100  0.75246700  0.76933100  1
  O  O49  1  0.83428100  0.75701100  0.23066900  1
  O  O50  1  0.82062600  0.76821200  0.76991100  1
  O  O51  1  0.98847500  0.75642400  0.76891800  1
