# generated using pymatgen
data_Dy4FeS7
_symmetry_space_group_name_H-M   'P 1'
_cell_length_a   3.76165000
_cell_length_b   6.32297994
_cell_length_c   11.28423670
_cell_angle_alpha   103.60247712
_cell_angle_beta   90.00000000
_cell_angle_gamma   72.69496373
_symmetry_Int_Tables_number   1
_chemical_formula_structural   Dy4FeS7
_chemical_formula_sum   'Dy4 Fe1 S7'
_cell_volume   248.34858142
_cell_formula_units_Z   1
loop_
 _symmetry_equiv_pos_site_id
 _symmetry_equiv_pos_as_xyz
  1  'x, y, z'
loop_
 _atom_site_type_symbol
 _atom_site_label
 _atom_site_symmetry_multiplicity
 _atom_site_fract_x
 _atom_site_fract_y
 _atom_site_fract_z
 _atom_site_occupancy
  Dy  Dy0  1  0.69821500  0.60357000  0.21816400  1
  Dy  Dy1  1  0.30522100  0.38955800  0.79323500  1
  Dy  Dy2  1  0.99920900  0.00158200  0.01243800  1
  Dy  Dy3  1  0.10447400  0.79105300  0.55563700  1
  Fe  Fe4  1  0.88826600  0.22346700  0.42752400  1
  S  S5  1  0.74911800  0.50176300  0.62286800  1
  S  S6  1  0.28547000  0.42906000  0.36090600  1
  S  S7  1  0.33384600  0.33230800  0.05699200  1
  S  S8  1  0.66087000  0.67826000  0.94382000  1
  S  S9  1  0.02992400  0.94015200  0.24027400  1
  S  S10  1  0.96747500  0.06505100  0.78361000  1
  S  S11  1  0.47791200  0.04417600  0.48453200  1
