# generated using pymatgen
data_Si6O13
_symmetry_space_group_name_H-M   'P 1'
_cell_length_a   7.77163300
_cell_length_b   13.84500200
_cell_length_c   13.86069201
_cell_angle_alpha   60.62642354
_cell_angle_beta   90.00000000
_cell_angle_gamma   90.00000000
_symmetry_Int_Tables_number   1
_chemical_formula_structural   Si6O13
_chemical_formula_sum   'Si24 O52'
_cell_volume   1299.65405603
_cell_formula_units_Z   4
loop_
 _symmetry_equiv_pos_site_id
 _symmetry_equiv_pos_as_xyz
  1  'x, y, z'
loop_
 _atom_site_type_symbol
 _atom_site_label
 _atom_site_symmetry_multiplicity
 _atom_site_fract_x
 _atom_site_fract_y
 _atom_site_fract_z
 _atom_site_occupancy
  Si  Si0  1  0.65615300  0.67157100  0.45253100  1
  Si  Si1  1  0.34384700  0.67157100  0.45253100  1
  Si  Si2  1  0.20853400  0.46039700  0.66313400  1
  Si  Si3  1  0.79146600  0.46039700  0.66313400  1
  Si  Si4  1  0.84703100  0.87722300  0.44723000  1
  Si  Si5  1  0.15296900  0.87722300  0.44723000  1
  Si  Si6  1  0.28382800  0.88085500  0.65898200  1
  Si  Si7  1  0.71617200  0.88085500  0.65898200  1
  Si  Si8  1  0.34950000  0.45216700  0.87969900  1
  Si  Si9  1  0.65050000  0.45216700  0.87969900  1
  Si  Si10  1  0.20599300  0.66490500  0.88531000  1
  Si  Si11  1  0.79400700  0.66490500  0.88531000  1
  Si  Si12  1  0.20221000  0.34093500  0.11687200  1
  Si  Si13  1  0.79779000  0.34093500  0.11687200  1
  Si  Si14  1  0.34783500  0.55064100  0.12711400  1
  Si  Si15  1  0.65216500  0.55064100  0.12711400  1
  Si  Si16  1  0.29258200  0.12224100  0.33483400  1
  Si  Si17  1  0.70741800  0.12224100  0.33483400  1
  Si  Si18  1  0.84938600  0.12231100  0.54868700  1
  Si  Si19  1  0.15061400  0.12231100  0.54868700  1
  Si  Si20  1  0.15557000  0.55321300  0.32998100  1
  Si  Si21  1  0.84443000  0.55321300  0.32998100  1
  Si  Si22  1  0.29950300  0.33730100  0.53233200  1
  Si  Si23  1  0.70049700  0.33730100  0.53233200  1
  O  O24  1  0.42041500  0.93106800  0.06490400  1
  O  O25  1  0.74265900  0.63241900  0.36906800  1
  O  O26  1  0.25993300  0.79234900  0.41903600  1
  O  O27  1  0.74006700  0.79234900  0.41903600  1
  O  O28  1  0.71617400  0.37286100  0.62768500  1
  O  O29  1  0.28342600  0.58425600  0.58017900  1
  O  O30  1  0.71657400  0.58425600  0.58017900  1
  O  O31  1  0.00000000  0.46168400  0.65704100  1
  O  O32  1  0.19353000  0.84343000  0.57762100  1
  O  O33  1  0.80647000  0.84343000  0.57762100  1
  O  O34  1  0.72656500  0.42156900  0.78803900  1
  O  O35  1  0.27343500  0.42156900  0.78803900  1
  O  O36  1  0.07932800  0.05812300  0.94116800  1
  O  O37  1  0.92067200  0.05812300  0.94116800  1
  O  O38  1  0.50000000  0.87498800  0.64688700  1
  O  O39  1  0.72535600  0.57387100  0.85226800  1
  O  O40  1  0.27464400  0.57387100  0.85226800  1
  O  O41  1  0.28816300  0.35570200  0.00287600  1
  O  O42  1  0.71183700  0.35570200  0.00287600  1
  O  O43  1  0.25531400  0.78872500  0.78745400  1
  O  O44  1  0.74468600  0.78872500  0.78745400  1
  O  O45  1  0.00000000  0.65467400  0.90038800  1
  O  O46  1  0.22470600  0.21378600  0.21285700  1
  O  O47  1  0.77529400  0.21378600  0.21285700  1
  O  O48  1  0.29294600  0.64428400  0.00054800  1
  O  O49  1  0.70705400  0.64428400  0.00054800  1
  O  O50  1  0.21692700  0.00264500  0.35970600  1
  O  O51  1  0.78307300  0.00264500  0.35970600  1
  O  O52  1  0.70689200  0.42624200  0.15098300  1
  O  O53  1  0.29310800  0.42624200  0.15098300  1
  O  O54  1  0.50000000  0.96687300  0.52364400  1
  O  O55  1  0.50000000  0.13916500  0.81248300  1
  O  O56  1  0.50000000  0.12598000  0.33109100  1
  O  O57  1  0.24211700  0.57959800  0.21182700  1
  O  O58  1  0.75788300  0.57959800  0.21182700  1
  O  O59  1  0.21885000  0.15567800  0.42466200  1
  O  O60  1  0.78115000  0.15567800  0.42466200  1
  O  O61  1  0.00000000  0.80884600  0.16262400  1
  O  O62  1  0.00000000  0.37261400  0.09546200  1
  O  O63  1  0.00000000  0.88332600  0.18709000  1
  O  O64  1  0.00000000  0.31686200  0.91221200  1
  O  O65  1  0.19359600  0.42307200  0.42176000  1
  O  O66  1  0.80640400  0.42307200  0.42176000  1
  O  O67  1  0.22344500  0.99965800  0.64220100  1
  O  O68  1  0.77655500  0.99965800  0.64220100  1
  O  O69  1  0.25734100  0.63241900  0.36906800  1
  O  O70  1  0.77759800  0.21301600  0.58178000  1
  O  O71  1  0.22240200  0.21301600  0.58178000  1
  O  O72  1  0.50000000  0.33959000  0.49818400  1
  O  O73  1  0.50000000  0.17897800  0.87473500  1
  O  O74  1  0.28382600  0.37286100  0.62768500  1
  O  O75  1  0.57958500  0.93106800  0.06490400  1
