# generated using pymatgen
data_ErMnAl
_symmetry_space_group_name_H-M   'P 1'
_cell_length_a   5.40989591
_cell_length_b   5.40989591
_cell_length_c   5.40989591
_cell_angle_alpha   119.56493918
_cell_angle_beta   118.96508135
_cell_angle_gamma   91.27859244
_symmetry_Int_Tables_number   1
_chemical_formula_structural   ErMnAl
_chemical_formula_sum   'Er2 Mn2 Al2'
_cell_volume   113.16662483
_cell_formula_units_Z   2
loop_
 _symmetry_equiv_pos_site_id
 _symmetry_equiv_pos_as_xyz
  1  'x, y, z'
loop_
 _atom_site_type_symbol
 _atom_site_label
 _atom_site_symmetry_multiplicity
 _atom_site_fract_x
 _atom_site_fract_y
 _atom_site_fract_z
 _atom_site_occupancy
  Er  Er0  1  0.13031200  0.88031200  0.25000000  1
  Er  Er1  1  0.86968800  0.11968800  0.75000000  1
  Mn  Mn2  1  0.50000000  0.00000000  0.00000000  1
  Mn  Mn3  1  0.50000000  0.50000000  0.50000000  1
  Al  Al4  1  0.00000000  0.50000000  0.50000000  1
  Al  Al5  1  0.50000000  0.50000000  0.00000000  1
