# generated using pymatgen
data_Sm31(CuSe16)3
_symmetry_space_group_name_H-M   'P 1'
_cell_length_a   7.64970700
_cell_length_b   7.65385133
_cell_length_c   37.34607655
_cell_angle_alpha   90.09804553
_cell_angle_beta   90.10939511
_cell_angle_gamma   108.73006469
_symmetry_Int_Tables_number   1
_chemical_formula_structural   Sm31(CuSe16)3
_chemical_formula_sum   'Sm31 Cu3 Se48'
_cell_volume   2070.79403947
_cell_formula_units_Z   1
loop_
 _symmetry_equiv_pos_site_id
 _symmetry_equiv_pos_as_xyz
  1  'x, y, z'
loop_
 _atom_site_type_symbol
 _atom_site_label
 _atom_site_symmetry_multiplicity
 _atom_site_fract_x
 _atom_site_fract_y
 _atom_site_fract_z
 _atom_site_occupancy
  Sm  Sm0  1  0.82075600  0.19465300  0.97846200  1
  Sm  Sm1  1  0.42819600  0.05634900  0.89458500  1
  Sm  Sm2  1  0.32305800  0.69061900  0.81207700  1
  Sm  Sm3  1  0.44211900  0.57561800  0.93874000  1
  Sm  Sm4  1  0.92886500  0.55751900  0.72814800  1
  Sm  Sm5  1  0.82339000  0.19149600  0.64624100  1
  Sm  Sm6  1  0.99964600  0.25030100  0.87481600  1
  Sm  Sm7  1  0.94035000  0.07464300  0.77194100  1
  Sm  Sm8  1  0.80850600  0.67731300  0.85583400  1
  Sm  Sm9  1  0.42598200  0.05341700  0.56356400  1
  Sm  Sm10  1  0.30767400  0.68692500  0.47708000  1
  Sm  Sm11  1  0.49974700  0.74984300  0.70861800  1
  Sm  Sm12  1  0.44005600  0.57412400  0.60546800  1
  Sm  Sm13  1  0.30842700  0.17701700  0.68943100  1
  Sm  Sm14  1  0.81563900  0.19809000  0.31503600  1
  Sm  Sm15  1  0.99330500  0.24778000  0.54356000  1
  Sm  Sm16  1  0.94047600  0.05837000  0.43522100  1
  Sm  Sm17  1  0.81078500  0.68422600  0.52201700  1
  Sm  Sm18  1  0.43856200  0.05572500  0.22668400  1
  Sm  Sm19  1  0.49782200  0.74796100  0.37642800  1
  Sm  Sm20  1  0.43171600  0.55415400  0.26990400  1
  Sm  Sm21  1  0.31461500  0.19013400  0.35413000  1
  Sm  Sm22  1  0.51508400  0.25895800  0.45628500  1
  Sm  Sm23  1  0.94992600  0.56816600  0.06337400  1
  Sm  Sm24  1  0.00768300  0.26342600  0.20544800  1
  Sm  Sm25  1  0.94144000  0.06416400  0.10375200  1
  Sm  Sm26  1  0.80946800  0.69065800  0.18498600  1
  Sm  Sm27  1  0.99629300  0.74031300  0.29388700  1
  Sm  Sm28  1  0.49729800  0.74862700  0.04213200  1
  Sm  Sm29  1  0.29972800  0.17296400  0.01975000  1
  Sm  Sm30  1  0.49895000  0.24860800  0.12561900  1
  Cu  Cu31  1  0.99904000  0.74689700  0.96123800  1
  Cu  Cu32  1  0.49967600  0.25053500  0.79496400  1
  Cu  Cu33  1  0.00266200  0.74911100  0.62759100  1
  Se  Se34  1  0.76939300  0.89157600  0.91762900  1
  Se  Se35  1  0.26820700  0.39110800  0.75111300  1
  Se  Se36  1  0.42520900  0.41369600  0.85208800  1
  Se  Se37  1  0.12828900  0.98548600  0.83475400  1
  Se  Se38  1  0.44664300  0.93554600  0.97546800  1
  Se  Se39  1  0.18741600  0.19785200  0.93994500  1
  Se  Se40  1  0.76903300  0.89129800  0.58507500  1
  Se  Se41  1  0.16888300  0.67206200  0.89522700  1
  Se  Se42  1  0.92539800  0.91352700  0.68582500  1
  Se  Se43  1  0.62827700  0.48580300  0.66843000  1
  Se  Se44  1  0.94571400  0.43762500  0.80907400  1
  Se  Se45  1  0.68867500  0.69738400  0.77374100  1
  Se  Se46  1  0.25601700  0.39478900  0.41754900  1
  Se  Se47  1  0.63924700  0.02176700  0.83161600  1
  Se  Se48  1  0.73605500  0.38033200  0.91497600  1
  Se  Se49  1  0.66832800  0.17223500  0.72884700  1
  Se  Se50  1  0.42214700  0.42887300  0.52408000  1
  Se  Se51  1  0.14155500  0.99763200  0.50051500  1
  Se  Se52  1  0.44635200  0.93706300  0.64281700  1
  Se  Se53  1  0.18796800  0.19713600  0.60822800  1
  Se  Se54  1  0.74807900  0.88889500  0.25040600  1
  Se  Se55  1  0.13976300  0.52296000  0.66524500  1
  Se  Se56  1  0.16074400  0.67453300  0.56325700  1
  Se  Se57  1  0.93017700  0.93624100  0.35720200  1
  Se  Se58  1  0.23650300  0.88037100  0.74864500  1
  Se  Se59  1  0.74998100  0.39073900  0.25001300  1
  Se  Se60  1  0.64115600  0.50026000  0.33222200  1
  Se  Se61  1  0.92800600  0.42034700  0.47804300  1
  Se  Se62  1  0.67407000  0.67807500  0.44274600  1
  Se  Se63  1  0.24857300  0.39005500  0.08076500  1
  Se  Se64  1  0.63970500  0.99782600  0.50114000  1
  Se  Se65  1  0.73367000  0.37925800  0.58272600  1
  Se  Se66  1  0.42752600  0.42248700  0.19199900  1
  Se  Se67  1  0.67635700  0.17284300  0.39093100  1
  Se  Se68  1  0.14571200  0.00532400  0.16696400  1
  Se  Se69  1  0.42966400  0.92655400  0.30911300  1
  Se  Se70  1  0.17513700  0.16940300  0.27343300  1
  Se  Se71  1  0.15688300  0.49893900  0.33329100  1
  Se  Se72  1  0.16737300  0.67828800  0.22775100  1
  Se  Se73  1  0.25232000  0.90783600  0.41675600  1
  Se  Se74  1  0.92013300  0.91239300  0.01879400  1
  Se  Se75  1  0.62578400  0.48597600  0.00166700  1
  Se  Se76  1  0.92241600  0.42687800  0.14035700  1
  Se  Se77  1  0.68608300  0.68039400  0.10599100  1
  Se  Se78  1  0.65768200  0.00186900  0.16629800  1
  Se  Se79  1  0.68120300  0.17643400  0.05876700  1
  Se  Se80  1  0.13816700  0.52697300  0.99727700  1
  Se  Se81  1  0.25138900  0.90635800  0.08253000  1
