# generated using pymatgen
data_SmVSb3
_symmetry_space_group_name_H-M   'P 1'
_cell_length_a   10.53032300
_cell_length_b   6.91945200
_cell_length_c   8.41967700
_cell_angle_alpha   90.00000000
_cell_angle_beta   90.00000000
_cell_angle_gamma   90.00000000
_symmetry_Int_Tables_number   1
_chemical_formula_structural   SmVSb3
_chemical_formula_sum   'Sm4 V4 Sb12'
_cell_volume   613.49188836
_cell_formula_units_Z   4
loop_
 _symmetry_equiv_pos_site_id
 _symmetry_equiv_pos_as_xyz
  1  'x, y, z'
loop_
 _atom_site_type_symbol
 _atom_site_label
 _atom_site_symmetry_multiplicity
 _atom_site_fract_x
 _atom_site_fract_y
 _atom_site_fract_z
 _atom_site_occupancy
  Sm  Sm0  1  0.75000000  0.16646600  0.20686300  1
  Sm  Sm1  1  0.25000000  0.33353400  0.20686300  1
  Sm  Sm2  1  0.25000000  0.83353400  0.79313700  1
  Sm  Sm3  1  0.75000000  0.66646600  0.79313700  1
  V  V4  1  0.00000000  0.75000000  0.29386200  1
  V  V5  1  0.00000000  0.25000000  0.70613800  1
  V  V6  1  0.50000000  0.25000000  0.70613800  1
  V  V7  1  0.50000000  0.75000000  0.29386200  1
  Sb  Sb8  1  0.50000000  0.75000000  0.61545300  1
  Sb  Sb9  1  0.75000000  0.51442700  0.44249400  1
  Sb  Sb10  1  0.75000000  0.72645800  0.15550900  1
  Sb  Sb11  1  0.00000000  0.75000000  0.61545300  1
  Sb  Sb12  1  0.00000000  0.25000000  0.38454700  1
  Sb  Sb13  1  0.25000000  0.27354200  0.84449100  1
  Sb  Sb14  1  0.25000000  0.48557300  0.55750600  1
  Sb  Sb15  1  0.25000000  0.77354200  0.15550900  1
  Sb  Sb16  1  0.25000000  0.98557300  0.44249400  1
  Sb  Sb17  1  0.50000000  0.25000000  0.38454700  1
  Sb  Sb18  1  0.75000000  0.01442700  0.55750600  1
  Sb  Sb19  1  0.75000000  0.22645800  0.84449100  1
