# generated using pymatgen
data_Fe4SiO9
_symmetry_space_group_name_H-M   'P 1'
_cell_length_a   15.65127600
_cell_length_b   5.29671300
_cell_length_c   5.33277831
_cell_angle_alpha   61.61747036
_cell_angle_beta   90.00000000
_cell_angle_gamma   90.00000000
_symmetry_Int_Tables_number   1
_chemical_formula_structural   Fe4SiO9
_chemical_formula_sum   'Fe8 Si2 O18'
_cell_volume   388.94706514
_cell_formula_units_Z   2
loop_
 _symmetry_equiv_pos_site_id
 _symmetry_equiv_pos_as_xyz
  1  'x, y, z'
loop_
 _atom_site_type_symbol
 _atom_site_label
 _atom_site_symmetry_multiplicity
 _atom_site_fract_x
 _atom_site_fract_y
 _atom_site_fract_z
 _atom_site_occupancy
  Fe  Fe0  1  0.25622000  0.67458900  0.99660600  1
  Fe  Fe1  1  0.25614700  0.33312700  0.66891400  1
  Fe  Fe2  1  0.25400600  0.01339000  0.31670900  1
  Fe  Fe3  1  0.75622000  0.32541100  0.00339400  1
  Fe  Fe4  1  0.75614700  0.66687300  0.33108600  1
  Fe  Fe5  1  0.75400600  0.98661000  0.68329100  1
  Fe  Fe6  1  0.45257800  0.31970200  0.33363400  1
  Fe  Fe7  1  0.95257800  0.68029800  0.66636600  1
  Si  Si8  1  0.44531000  0.65640000  0.67661800  1
  Si  Si9  1  0.94531000  0.34360000  0.32338200  1
  O  O10  1  0.48317400  0.40263000  0.97122300  1
  O  O11  1  0.47572900  0.61755200  0.40671900  1
  O  O12  1  0.47557400  0.96641900  0.63595500  1
  O  O13  1  0.98317400  0.59737000  0.02877700  1
  O  O14  1  0.97572900  0.38244800  0.59328100  1
  O  O15  1  0.97557400  0.03358100  0.36404500  1
  O  O16  1  0.32580300  0.32140800  0.33188300  1
  O  O17  1  0.33637400  0.64785100  0.68621600  1
  O  O18  1  0.82580300  0.67859200  0.66811700  1
  O  O19  1  0.83637400  0.35214900  0.31378400  1
  O  O20  1  0.19810300  0.35853000  0.98943800  1
  O  O21  1  0.20248800  0.67449900  0.34024400  1
  O  O22  1  0.20191000  0.99753600  0.64545600  1
  O  O23  1  0.69810300  0.64147000  0.01056200  1
  O  O24  1  0.70248800  0.32550100  0.65975600  1
  O  O25  1  0.70191000  0.00246400  0.35454400  1
  O  O26  1  0.31558500  0.99711800  0.01129900  1
  O  O27  1  0.81558500  0.00288200  0.98870100  1
