# generated using pymatgen
data_Er2O3
_symmetry_space_group_name_H-M   'P 1'
_cell_length_a   6.76993561
_cell_length_b   6.76993561
_cell_length_c   6.76993528
_cell_angle_alpha   31.49082993
_cell_angle_beta   31.49082993
_cell_angle_gamma   31.49083089
_symmetry_Int_Tables_number   1
_chemical_formula_structural   Er2O3
_chemical_formula_sum   'Er2 O3'
_cell_volume   75.16329242
_cell_formula_units_Z   1
loop_
 _symmetry_equiv_pos_site_id
 _symmetry_equiv_pos_as_xyz
  1  'x, y, z'
loop_
 _atom_site_type_symbol
 _atom_site_label
 _atom_site_symmetry_multiplicity
 _atom_site_fract_x
 _atom_site_fract_y
 _atom_site_fract_z
 _atom_site_occupancy
  Er  Er0  1  0.00601400  0.00601400  0.00601400  1
  Er  Er1  1  0.49790200  0.49790200  0.49790200  1
  O  O2  1  0.12308500  0.12308500  0.12308500  1
  O  O3  1  0.89227100  0.89227100  0.89227100  1
  O  O4  1  0.35572800  0.35572800  0.35572800  1
