# generated using pymatgen
data_ErGePd
_symmetry_space_group_name_H-M   'P 1'
_cell_length_a   5.64640639
_cell_length_b   5.64640639
_cell_length_c   6.96640524
_cell_angle_alpha   51.95312355
_cell_angle_beta   51.95312355
_cell_angle_gamma   45.56353535
_symmetry_Int_Tables_number   1
_chemical_formula_structural   ErGePd
_chemical_formula_sum   'Er2 Ge2 Pd2'
_cell_volume   117.94961634
_cell_formula_units_Z   2
loop_
 _symmetry_equiv_pos_site_id
 _symmetry_equiv_pos_as_xyz
  1  'x, y, z'
loop_
 _atom_site_type_symbol
 _atom_site_label
 _atom_site_symmetry_multiplicity
 _atom_site_fract_x
 _atom_site_fract_y
 _atom_site_fract_z
 _atom_site_occupancy
  Er  Er0  1  0.54376300  0.54376300  0.71504200  1
  Er  Er1  1  0.45623700  0.45623700  0.28495800  1
  Ge  Ge2  1  0.16028700  0.16028700  0.28687700  1
  Ge  Ge3  1  0.83971300  0.83971300  0.71312300  1
  Pd  Pd4  1  0.82327100  0.82327100  0.12624000  1
  Pd  Pd5  1  0.17672900  0.17672900  0.87376000  1
