# generated using pymatgen
data_NaNi2H3(SO5)2
_symmetry_space_group_name_H-M   'P 1'
_cell_length_a   6.51456394
_cell_length_b   6.51456394
_cell_length_c   7.05738133
_cell_angle_alpha   75.44106068
_cell_angle_beta   75.44106068
_cell_angle_gamma   55.78581534
_symmetry_Int_Tables_number   1
_chemical_formula_structural   NaNi2H3(SO5)2
_chemical_formula_sum   'Na1 Ni2 H3 S2 O10'
_cell_volume   237.44981911
_cell_formula_units_Z   1
loop_
 _symmetry_equiv_pos_site_id
 _symmetry_equiv_pos_as_xyz
  1  'x, y, z'
loop_
 _atom_site_type_symbol
 _atom_site_label
 _atom_site_symmetry_multiplicity
 _atom_site_fract_x
 _atom_site_fract_y
 _atom_site_fract_z
 _atom_site_occupancy
  Na  Na0  1  0.49624100  0.49624100  0.50130400  1
  Ni  Ni1  1  0.49789600  0.01246500  0.99596300  1
  Ni  Ni2  1  0.01246500  0.49789600  0.99596300  1
  H  H3  1  0.08272900  0.08272900  0.01936700  1
  H  H4  1  0.53901000  0.53901000  0.98521200  1
  H  H5  1  0.91679400  0.91679400  0.98275500  1
  S  S6  1  0.10387600  0.10387600  0.65796200  1
  S  S7  1  0.89741700  0.89741700  0.34006100  1
  O  O8  1  0.28060800  0.28060800  0.17232600  1
  O  O9  1  0.61877100  0.61877100  0.02015300  1
  O  O10  1  0.15593500  0.15593500  0.90606000  1
  O  O11  1  0.77451400  0.17212700  0.30209400  1
  O  O12  1  0.82922100  0.22701300  0.69433600  1
  O  O13  1  0.17212700  0.77451400  0.30209400  1
  O  O14  1  0.22701300  0.82922100  0.69433600  1
  O  O15  1  0.84303700  0.84303700  0.09398800  1
  O  O16  1  0.38048500  0.38048500  0.97875000  1
  O  O17  1  0.72086200  0.72086200  0.82927700  1
