# generated using pymatgen
data_Er2MgS4
_symmetry_space_group_name_H-M   'P 1'
_cell_length_a   6.50801356
_cell_length_b   6.50801356
_cell_length_c   12.78572300
_cell_angle_alpha   90.00000000
_cell_angle_beta   90.00000000
_cell_angle_gamma   146.43429829
_symmetry_Int_Tables_number   1
_chemical_formula_structural   Er2MgS4
_chemical_formula_sum   'Er4 Mg2 S8'
_cell_volume   299.40783583
_cell_formula_units_Z   2
loop_
 _symmetry_equiv_pos_site_id
 _symmetry_equiv_pos_as_xyz
  1  'x, y, z'
loop_
 _atom_site_type_symbol
 _atom_site_label
 _atom_site_symmetry_multiplicity
 _atom_site_fract_x
 _atom_site_fract_y
 _atom_site_fract_z
 _atom_site_occupancy
  Er  Er0  1  0.38216200  0.61783800  0.78314100  1
  Er  Er1  1  0.61783800  0.38216200  0.28314100  1
  Er  Er2  1  0.13800900  0.86199100  0.58241200  1
  Er  Er3  1  0.86199100  0.13800900  0.08241200  1
  Mg  Mg4  1  0.12606200  0.87393800  0.94605200  1
  Mg  Mg5  1  0.87393800  0.12606200  0.44605200  1
  S  S6  1  0.78854200  0.21145800  0.63607000  1
  S  S7  1  0.21145800  0.78854200  0.13607000  1
  S  S8  1  0.48820100  0.51179900  0.99776200  1
  S  S9  1  0.51179900  0.48820100  0.49776200  1
  S  S10  1  0.76374200  0.23625800  0.89502900  1
  S  S11  1  0.23625800  0.76374200  0.39502900  1
  S  S12  1  0.03626500  0.96373500  0.76753300  1
  S  S13  1  0.96373500  0.03626500  0.26753300  1
