# generated using pymatgen
data_Er2MnS4
_symmetry_space_group_name_H-M   'P 1'
_cell_length_a   6.43078860
_cell_length_b   6.43078860
_cell_length_c   12.77402000
_cell_angle_alpha   90.00000000
_cell_angle_beta   90.00000000
_cell_angle_gamma   146.02861283
_symmetry_Int_Tables_number   1
_chemical_formula_structural   Er2MnS4
_chemical_formula_sum   'Er4 Mn2 S8'
_cell_volume   295.18616314
_cell_formula_units_Z   2
loop_
 _symmetry_equiv_pos_site_id
 _symmetry_equiv_pos_as_xyz
  1  'x, y, z'
loop_
 _atom_site_type_symbol
 _atom_site_label
 _atom_site_symmetry_multiplicity
 _atom_site_fract_x
 _atom_site_fract_y
 _atom_site_fract_z
 _atom_site_occupancy
  Er  Er0  1  0.38117000  0.61883000  0.78426800  1
  Er  Er1  1  0.61883000  0.38117000  0.28426800  1
  Er  Er2  1  0.13769200  0.86230800  0.58191400  1
  Er  Er3  1  0.86230800  0.13769200  0.08191400  1
  Mn  Mn4  1  0.12612200  0.87387800  0.94552000  1
  Mn  Mn5  1  0.87387800  0.12612200  0.44552000  1
  S  S6  1  0.78984300  0.21015700  0.63550800  1
  S  S7  1  0.21015700  0.78984300  0.13550800  1
  S  S8  1  0.48956800  0.51043200  0.99655100  1
  S  S9  1  0.51043200  0.48956800  0.49655100  1
  S  S10  1  0.76159700  0.23840300  0.89532600  1
  S  S11  1  0.23840300  0.76159700  0.39532600  1
  S  S12  1  0.03767900  0.96232100  0.76891400  1
  S  S13  1  0.96232100  0.03767900  0.26891400  1
