# generated using pymatgen
data_PrVSb3
_symmetry_space_group_name_H-M   'P 1'
_cell_length_a   6.58929600
_cell_length_b   7.93181800
_cell_length_c   10.51456800
_cell_angle_alpha   90.00000000
_cell_angle_beta   90.00000000
_cell_angle_gamma   90.00000000
_symmetry_Int_Tables_number   1
_chemical_formula_structural   PrVSb3
_chemical_formula_sum   'Pr4 V4 Sb12'
_cell_volume   549.54491244
_cell_formula_units_Z   4
loop_
 _symmetry_equiv_pos_site_id
 _symmetry_equiv_pos_as_xyz
  1  'x, y, z'
loop_
 _atom_site_type_symbol
 _atom_site_label
 _atom_site_symmetry_multiplicity
 _atom_site_fract_x
 _atom_site_fract_y
 _atom_site_fract_z
 _atom_site_occupancy
  Pr  Pr0  1  0.25000000  0.57289400  0.68819300  1
  Pr  Pr1  1  0.25000000  0.07289400  0.31180700  1
  Pr  Pr2  1  0.75000000  0.42710600  0.31180700  1
  Pr  Pr3  1  0.75000000  0.92710600  0.68819300  1
  V  V4  1  0.00000000  0.75000000  0.19107300  1
  V  V5  1  0.00000000  0.25000000  0.80892700  1
  V  V6  1  0.50000000  0.25000000  0.80892700  1
  V  V7  1  0.50000000  0.75000000  0.19107300  1
  Sb  Sb8  1  0.50000000  0.75000000  0.45237500  1
  Sb  Sb9  1  0.75000000  0.52626600  0.76373300  1
  Sb  Sb10  1  0.75000000  0.77232500  0.98775400  1
  Sb  Sb11  1  0.00000000  0.75000000  0.45237500  1
  Sb  Sb12  1  0.00000000  0.25000000  0.54762500  1
  Sb  Sb13  1  0.25000000  0.22767500  0.01224600  1
  Sb  Sb14  1  0.25000000  0.47373400  0.23626700  1
  Sb  Sb15  1  0.25000000  0.72767500  0.98775400  1
  Sb  Sb16  1  0.25000000  0.97373400  0.76373300  1
  Sb  Sb17  1  0.50000000  0.25000000  0.54762500  1
  Sb  Sb18  1  0.75000000  0.02626600  0.23626700  1
  Sb  Sb19  1  0.75000000  0.27232500  0.01224600  1
