# generated using pymatgen
data_In3H11C6O19
_symmetry_space_group_name_H-M   'P 1'
_cell_length_a   8.21329273
_cell_length_b   11.34998825
_cell_length_c   11.34460704
_cell_angle_alpha   113.82866593
_cell_angle_beta   103.99206159
_cell_angle_gamma   104.13400214
_symmetry_Int_Tables_number   1
_chemical_formula_structural   In3H11C6O19
_chemical_formula_sum   'In6 H22 C12 O38'
_cell_volume   866.28051807
_cell_formula_units_Z   2
loop_
 _symmetry_equiv_pos_site_id
 _symmetry_equiv_pos_as_xyz
  1  'x, y, z'
loop_
 _atom_site_type_symbol
 _atom_site_label
 _atom_site_symmetry_multiplicity
 _atom_site_fract_x
 _atom_site_fract_y
 _atom_site_fract_z
 _atom_site_occupancy
  In  In0  1  0.44996200  0.58946500  0.59235300  1
  In  In1  1  0.85174200  0.40628400  0.99751700  1
  In  In2  1  0.85280100  0.00189300  0.40056100  1
  In  In3  1  0.95652000  0.60098400  0.59760800  1
  In  In4  1  0.35325000  0.40485400  0.00201000  1
  In  In5  1  0.35723900  0.00379400  0.40599100  1
  H  H6  1  0.19958000  0.66829000  0.49676100  1
  H  H7  1  0.69450800  0.49872400  0.16936100  1
  H  H8  1  0.52502700  0.83306200  0.33481600  1
  H  H9  1  0.69787200  0.49955000  0.66704500  1
  H  H10  1  0.02409100  0.32879300  0.83233900  1
  H  H11  1  0.19488200  0.16881600  0.49789700  1
  H  H12  1  0.53155900  0.88865900  0.67535300  1
  H  H13  1  0.86594300  0.33541500  0.22751100  1
  H  H14  1  0.64404400  0.78633600  0.10933400  1
  H  H15  1  0.05085200  0.64666300  0.86719600  1
  H  H16  1  0.15282700  0.10871000  0.78726800  1
  H  H17  1  0.36932400  0.20991500  0.32603000  1
  H  H18  1  0.53877900  0.84953400  0.79484400  1
  H  H19  1  0.71958200  0.22272200  0.07903000  1
  H  H20  1  0.74873200  0.92323900  0.10653900  1
  H  H21  1  0.12384300  0.80025200  0.89460300  1
  H  H22  1  0.23180000  0.11738000  0.93333400  1
  H  H23  1  0.30094400  0.06253300  0.18680700  1
  H  H24  1  0.03427400  0.95913900  0.02677300  1
  H  H25  1  0.80114600  0.99798100  0.91395600  1
  H  H26  1  0.89127900  0.12127000  0.06820800  1
  H  H27  1  0.50105300  0.05466600  0.03939800  1
  C  C28  1  0.35810500  0.41222000  0.27604900  1
  C  C29  1  0.07609800  0.72330600  0.13062600  1
  C  C30  1  0.94918300  0.86512500  0.58821900  1
  C  C31  1  0.86826500  0.27821300  0.41178500  1
  C  C32  1  0.44709700  0.58564100  0.86157300  1
  C  C33  1  0.58723900  0.13729900  0.72623200  1
  C  C34  1  0.42342800  0.56669200  0.31128800  1
  C  C35  1  0.11147000  0.68964300  0.25228300  1
  C  C36  1  0.85735200  0.74750800  0.43417800  1
  C  C37  1  0.91719300  0.30949000  0.56420300  1
  C  C38  1  0.35173400  0.43159300  0.74453900  1
  C  C39  1  0.60866500  0.25686000  0.69092800  1
  O  O40  1  0.47833400  0.65994000  0.43738600  1
  O  O41  1  0.04097700  0.56305200  0.21974500  1
  O  O42  1  0.81503800  0.78050300  0.34045800  1
  O  O43  1  0.96482300  0.43430800  0.65760000  1
  O  O44  1  0.30936200  0.33857700  0.77876400  1
  O  O45  1  0.53452500  0.22591100  0.56567300  1
  O  O46  1  0.58398800  0.83979700  0.72054100  1
  O  O47  1  0.84855800  0.28503300  0.12608300  1
  O  O48  1  0.75203700  0.87531300  0.16190800  1
  O  O49  1  0.10868000  0.70232300  0.83012500  1
  O  O50  1  0.25799300  0.16180100  0.87843300  1
  O  O51  1  0.38840700  0.12147800  0.28776500  1
  O  O52  1  0.34660200  0.38716900  0.37340800  1
  O  O53  1  0.96794800  0.62534500  0.01107700  1
  O  O54  1  0.96210100  0.98663700  0.61227000  1
  O  O55  1  0.86320300  0.37810200  0.38876300  1
  O  O56  1  0.46128100  0.61045400  0.98377000  1
  O  O57  1  0.48090700  0.01572900  0.62847700  1
  O  O58  1  0.20472400  0.63033200  0.56070000  1
  O  O59  1  0.63626300  0.43631600  0.06799100  1
  O  O60  1  0.56889400  0.93404600  0.37056300  1
  O  O61  1  0.70221500  0.56215400  0.62747700  1
  O  O62  1  0.06902300  0.37183500  0.93434100  1
  O  O63  1  0.13821800  0.06706600  0.43750900  1
  O  O64  1  0.50626300  0.67510500  0.82662600  1
  O  O65  1  0.67996300  0.16999700  0.84983600  1
  O  O66  1  0.84026300  0.15647600  0.32148400  1
  O  O67  1  0.00788800  0.83120500  0.67889400  1
  O  O68  1  0.32212200  0.32170500  0.15191200  1
  O  O69  1  0.16510000  0.84844500  0.16635000  1
  O  O70  1  0.32156400  0.40526600  0.61972000  1
  O  O71  1  0.70174400  0.38134700  0.78982500  1
  O  O72  1  0.91007100  0.20904300  0.58849900  1
  O  O73  1  0.83112200  0.62303600  0.40845100  1
  O  O74  1  0.41954000  0.59236000  0.21193200  1
  O  O75  1  0.20845900  0.78858300  0.37506900  1
  O  O76  1  0.85715000  0.01971300  0.01093100  1
  O  O77  1  0.15296300  0.94948400  0.02779800  1
