# generated using pymatgen
data_Nb10N11O
_symmetry_space_group_name_H-M   'P 1'
_cell_length_a   10.55060500
_cell_length_b   5.25719900
_cell_length_c   10.51103090
_cell_angle_alpha   60.24994980
_cell_angle_beta   90.00000000
_cell_angle_gamma   90.00000000
_symmetry_Int_Tables_number   1
_chemical_formula_structural   Nb10N11O
_chemical_formula_sum   'Nb20 N22 O2'
_cell_volume   506.16960723
_cell_formula_units_Z   2
loop_
 _symmetry_equiv_pos_site_id
 _symmetry_equiv_pos_as_xyz
  1  'x, y, z'
loop_
 _atom_site_type_symbol
 _atom_site_label
 _atom_site_symmetry_multiplicity
 _atom_site_fract_x
 _atom_site_fract_y
 _atom_site_fract_z
 _atom_site_occupancy
  Nb  Nb0  1  0.50026300  0.67530400  0.16189600  1
  Nb  Nb1  1  0.99917500  0.32492400  0.33753800  1
  Nb  Nb2  1  0.75474100  0.33245200  0.16723400  1
  Nb  Nb3  1  0.25975200  0.30937500  0.16917100  1
  Nb  Nb4  1  0.50252500  0.00199600  0.33691800  1
  Nb  Nb5  1  0.00172200  0.67798500  0.49627600  1
  Nb  Nb6  1  0.99843000  0.00815600  0.16077800  1
  Nb  Nb7  1  0.00082500  0.32492400  0.83753800  1
  Nb  Nb8  1  0.24525900  0.33245200  0.66723400  1
  Nb  Nb9  1  0.25590300  0.66700100  0.34495100  1
  Nb  Nb10  1  0.74024800  0.30937500  0.66917100  1
  Nb  Nb11  1  0.75023900  0.66251200  0.33419600  1
  Nb  Nb12  1  0.49747500  0.00199600  0.83691800  1
  Nb  Nb13  1  0.49868200  0.32532700  0.49895900  1
  Nb  Nb14  1  0.99827800  0.67798500  0.99627600  1
  Nb  Nb15  1  0.00157000  0.00815600  0.66077800  1
  Nb  Nb16  1  0.24976100  0.66251200  0.83419600  1
  Nb  Nb17  1  0.74409700  0.66700100  0.84495100  1
  Nb  Nb18  1  0.49973700  0.67530400  0.66189600  1
  Nb  Nb19  1  0.50131800  0.32532700  0.99895900  1
  N  N20  1  0.37235300  0.34079200  0.32934800  1
  N  N21  1  0.87431500  0.34227200  0.99674900  1
  N  N22  1  0.12744900  0.00290400  0.32938900  1
  N  N23  1  0.87405200  0.00199300  0.33060600  1
  N  N24  1  0.62954700  0.00087800  0.16941900  1
  N  N25  1  0.37579700  0.99693000  0.16830800  1
  N  N26  1  0.37323000  0.34355700  0.82850400  1
  N  N27  1  0.37418400  0.66387400  0.50114500  1
  N  N28  1  0.62784300  0.65882200  0.49951500  1
  N  N29  1  0.12568500  0.34227200  0.49674900  1
  N  N30  1  0.87210300  0.33862800  0.50094100  1
  N  N31  1  0.87677000  0.66392100  0.16863300  1
  N  N32  1  0.12594800  0.00199300  0.83060600  1
  N  N33  1  0.87255100  0.00290400  0.82938900  1
  N  N34  1  0.62677000  0.34355700  0.32850400  1
  N  N35  1  0.62420300  0.99693000  0.66830800  1
  N  N36  1  0.37045300  0.00087800  0.66941900  1
  N  N37  1  0.37215700  0.65882200  0.99951500  1
  N  N38  1  0.62581600  0.66387400  0.00114500  1
  N  N39  1  0.12789700  0.33862800  0.00094100  1
  N  N40  1  0.12323000  0.66392100  0.66863300  1
  N  N41  1  0.62764700  0.34079200  0.82934800  1
  O  O42  1  0.12937500  0.66039800  0.16952600  1
  O  O43  1  0.87062500  0.66039800  0.66952600  1
