# generated using pymatgen
data_Dy3CuSe6
_symmetry_space_group_name_H-M   'P 1'
_cell_length_a   7.09055900
_cell_length_b   7.74864200
_cell_length_c   17.08118700
_cell_angle_alpha   90.00000000
_cell_angle_beta   90.00000000
_cell_angle_gamma   90.00000000
_symmetry_Int_Tables_number   1
_chemical_formula_structural   Dy3CuSe6
_chemical_formula_sum   'Dy12 Cu4 Se24'
_cell_volume   938.47804826
_cell_formula_units_Z   4
loop_
 _symmetry_equiv_pos_site_id
 _symmetry_equiv_pos_as_xyz
  1  'x, y, z'
loop_
 _atom_site_type_symbol
 _atom_site_label
 _atom_site_symmetry_multiplicity
 _atom_site_fract_x
 _atom_site_fract_y
 _atom_site_fract_z
 _atom_site_occupancy
  Dy  Dy0  1  0.26511000  0.94084200  0.24714600  1
  Dy  Dy1  1  0.73489000  0.05915800  0.74714600  1
  Dy  Dy2  1  0.26511000  0.55915800  0.74714600  1
  Dy  Dy3  1  0.73489000  0.44084200  0.24714600  1
  Dy  Dy4  1  0.22748900  0.55510400  0.41193800  1
  Dy  Dy5  1  0.77251100  0.44489600  0.91193800  1
  Dy  Dy6  1  0.24469300  0.93917000  0.59145800  1
  Dy  Dy7  1  0.75530700  0.06083000  0.09145800  1
  Dy  Dy8  1  0.75530700  0.43917000  0.59145800  1
  Dy  Dy9  1  0.24469300  0.56083000  0.09145800  1
  Dy  Dy10  1  0.77251100  0.05510400  0.41193800  1
  Dy  Dy11  1  0.22748900  0.94489600  0.91193800  1
  Cu  Cu12  1  0.39657800  0.20711600  0.47637700  1
  Cu  Cu13  1  0.60342200  0.79288400  0.97637700  1
  Cu  Cu14  1  0.60342200  0.70711600  0.47637700  1
  Cu  Cu15  1  0.39657800  0.29288400  0.97637700  1
  Se  Se16  1  0.38721600  0.90853400  0.41595400  1
  Se  Se17  1  0.61278400  0.09146600  0.91595400  1
  Se  Se18  1  0.38351900  0.59342700  0.58043700  1
  Se  Se19  1  0.61648100  0.40657300  0.08043700  1
  Se  Se20  1  0.61648100  0.09342700  0.58043700  1
  Se  Se21  1  0.38351900  0.90657300  0.08043700  1
  Se  Se22  1  0.61278400  0.40853400  0.41595400  1
  Se  Se23  1  0.38721600  0.59146600  0.91595400  1
  Se  Se24  1  0.07623800  0.25012300  0.32055700  1
  Se  Se25  1  0.92376200  0.74987700  0.82055700  1
  Se  Se26  1  0.07468300  0.24696600  0.67679900  1
  Se  Se27  1  0.92531700  0.75303400  0.17679900  1
  Se  Se28  1  0.92531700  0.74696600  0.67679900  1
  Se  Se29  1  0.07468300  0.25303400  0.17679900  1
  Se  Se30  1  0.92376200  0.75012300  0.32055700  1
  Se  Se31  1  0.07623800  0.24987700  0.82055700  1
  Se  Se32  1  0.06394200  0.24961000  0.50084700  1
  Se  Se33  1  0.93605800  0.75039000  0.00084700  1
  Se  Se34  1  0.93605800  0.74961000  0.50084700  1
  Se  Se35  1  0.06394200  0.25039000  0.00084700  1
  Se  Se36  1  0.38174300  0.59862600  0.25148700  1
  Se  Se37  1  0.61825700  0.40137400  0.75148700  1
  Se  Se38  1  0.38174300  0.90137400  0.75148700  1
  Se  Se39  1  0.61825700  0.09862600  0.25148700  1
