# generated using pymatgen
data_Er2Ga3Ni
_symmetry_space_group_name_H-M   'P 1'
_cell_length_a   5.51494516
_cell_length_b   5.51494516
_cell_length_c   7.02416968
_cell_angle_alpha   51.48798881
_cell_angle_beta   51.48798881
_cell_angle_gamma   46.17208792
_symmetry_Int_Tables_number   1
_chemical_formula_structural   Er2Ga3Ni
_chemical_formula_sum   'Er2 Ga3 Ni1'
_cell_volume   113.44808546
_cell_formula_units_Z   1
loop_
 _symmetry_equiv_pos_site_id
 _symmetry_equiv_pos_as_xyz
  1  'x, y, z'
loop_
 _atom_site_type_symbol
 _atom_site_label
 _atom_site_symmetry_multiplicity
 _atom_site_fract_x
 _atom_site_fract_y
 _atom_site_fract_z
 _atom_site_occupancy
  Er  Er0  1  0.45661100  0.45661100  0.29556800  1
  Er  Er1  1  0.54754800  0.54754800  0.70175000  1
  Ga  Ga2  1  0.14892000  0.14892000  0.31063300  1
  Ga  Ga3  1  0.17562100  0.17562100  0.88001700  1
  Ga  Ga4  1  0.83734400  0.83734400  0.09461200  1
  Ni  Ni5  1  0.83395600  0.83395600  0.71742000  1
