# generated using pymatgen
data_Eu2TiCuO6
_symmetry_space_group_name_H-M   'P 1'
_cell_length_a   5.61968600
_cell_length_b   5.44761400
_cell_length_c   9.45412630
_cell_angle_alpha   55.08434304
_cell_angle_beta   90.00000000
_cell_angle_gamma   90.00000000
_symmetry_Int_Tables_number   1
_chemical_formula_structural   Eu2TiCuO6
_chemical_formula_sum   'Eu4 Ti2 Cu2 O12'
_cell_volume   237.32923809
_cell_formula_units_Z   2
loop_
 _symmetry_equiv_pos_site_id
 _symmetry_equiv_pos_as_xyz
  1  'x, y, z'
loop_
 _atom_site_type_symbol
 _atom_site_label
 _atom_site_symmetry_multiplicity
 _atom_site_fract_x
 _atom_site_fract_y
 _atom_site_fract_z
 _atom_site_occupancy
  Eu  Eu0  1  0.94776300  0.73633400  0.75206400  1
  Eu  Eu1  1  0.44776300  0.26366600  0.74793600  1
  Eu  Eu2  1  0.05223700  0.26366600  0.24793600  1
  Eu  Eu3  1  0.55223700  0.73633400  0.25206400  1
  Ti  Ti4  1  0.50000000  0.00000000  0.50000000  1
  Ti  Ti5  1  0.00000000  0.00000000  0.00000000  1
  Cu  Cu6  1  0.50000000  0.50000000  0.00000000  1
  Cu  Cu7  1  0.00000000  0.50000000  0.50000000  1
  O  O8  1  0.19648900  0.33485100  0.95747500  1
  O  O9  1  0.69648900  0.66514900  0.54252500  1
  O  O10  1  0.79076900  0.24114200  0.45484400  1
  O  O11  1  0.29076900  0.75885800  0.04515600  1
  O  O12  1  0.80351100  0.66514900  0.04252500  1
  O  O13  1  0.30351100  0.33485100  0.45747500  1
  O  O14  1  0.20923100  0.75885800  0.54515600  1
  O  O15  1  0.70923100  0.24114200  0.95484400  1
  O  O16  1  0.52391800  0.84009700  0.74635900  1
  O  O17  1  0.02391800  0.15990300  0.75364100  1
  O  O18  1  0.47608200  0.15990300  0.25364100  1
  O  O19  1  0.97608200  0.84009700  0.24635900  1
