# generated using pymatgen
data_ErScGe
_symmetry_space_group_name_H-M   'P 1'
_cell_length_a   6.08481404
_cell_length_b   8.74864408
_cell_length_c   9.07621044
_cell_angle_alpha   58.75561729
_cell_angle_beta   89.99916447
_cell_angle_gamma   89.98899652
_symmetry_Int_Tables_number   1
_chemical_formula_structural   ErScGe
_chemical_formula_sum   'Er6 Sc6 Ge6'
_cell_volume   413.08534439
_cell_formula_units_Z   6
loop_
 _symmetry_equiv_pos_site_id
 _symmetry_equiv_pos_as_xyz
  1  'x, y, z'
loop_
 _atom_site_type_symbol
 _atom_site_label
 _atom_site_symmetry_multiplicity
 _atom_site_fract_x
 _atom_site_fract_y
 _atom_site_fract_z
 _atom_site_occupancy
  Er  Er0  1  0.74982800  0.25529200  0.72017500  1
  Er  Er1  1  0.75013800  0.74470100  0.97576000  1
  Er  Er2  1  0.75000300  0.99988800  0.28987900  1
  Er  Er3  1  0.25001900  0.73812100  0.26659200  1
  Er  Er4  1  0.25000900  0.26176100  0.00483900  1
  Er  Er5  1  0.25000300  0.00001400  0.73674400  1
  Sc  Sc6  1  0.49867900  0.31330500  0.34591100  1
  Sc  Sc7  1  0.49863000  0.68661200  0.65915300  1
  Sc  Sc8  1  0.00140500  0.68674500  0.65904900  1
  Sc  Sc9  1  0.00131800  0.31333600  0.34586000  1
  Sc  Sc10  1  0.75005500  0.61147100  0.38403500  1
  Sc  Sc11  1  0.74990600  0.38852200  0.99562700  1
  Ge  Ge12  1  0.52422900  0.00009700  0.01404200  1
  Ge  Ge13  1  0.97577400  0.00017200  0.01400500  1
  Ge  Ge14  1  0.74998600  0.99995200  0.60671500  1
  Ge  Ge15  1  0.24992200  0.39872700  0.59455500  1
  Ge  Ge16  1  0.25009600  0.60124100  0.99338000  1
  Ge  Ge17  1  0.25000100  0.00004200  0.39368200  1
