# generated using pymatgen
data_Eu2NbGaO7
_symmetry_space_group_name_H-M   'P 1'
_cell_length_a   7.39735020
_cell_length_b   7.30231011
_cell_length_c   7.48351047
_cell_angle_alpha   90.00000000
_cell_angle_beta   59.61395165
_cell_angle_gamma   119.57589869
_symmetry_Int_Tables_number   1
_chemical_formula_structural   Eu2NbGaO7
_chemical_formula_sum   'Eu4 Nb2 Ga2 O14'
_cell_volume   285.99254883
_cell_formula_units_Z   2
loop_
 _symmetry_equiv_pos_site_id
 _symmetry_equiv_pos_as_xyz
  1  'x, y, z'
loop_
 _atom_site_type_symbol
 _atom_site_label
 _atom_site_symmetry_multiplicity
 _atom_site_fract_x
 _atom_site_fract_y
 _atom_site_fract_z
 _atom_site_occupancy
  Eu  Eu0  1  0.50000000  0.00000000  0.50000000  1
  Eu  Eu1  1  0.50000000  0.50000000  0.50000000  1
  Eu  Eu2  1  0.00000000  0.50000000  0.00000000  1
  Eu  Eu3  1  0.00000000  0.50000000  0.50000000  1
  Nb  Nb4  1  0.00000000  0.00000000  0.50000000  1
  Nb  Nb5  1  0.00000000  0.00000000  0.00000000  1
  Ga  Ga6  1  0.50000000  0.50000000  0.00000000  1
  Ga  Ga7  1  0.50000000  0.00000000  0.00000000  1
  O  O8  1  0.74971100  0.37485600  0.37514400  1
  O  O9  1  0.25028900  0.62514400  0.62485600  1
  O  O10  1  0.84734100  0.92367100  0.32632900  1
  O  O11  1  0.66188700  0.33094300  0.91905700  1
  O  O12  1  0.24961200  0.92326100  0.92320700  1
  O  O13  1  0.24961200  0.32635100  0.32718100  1
  O  O14  1  0.24961200  0.32635100  0.92320700  1
  O  O15  1  0.24961200  0.92326100  0.32718100  1
  O  O16  1  0.15265900  0.07632900  0.67367100  1
  O  O17  1  0.33811300  0.66905700  0.08094300  1
  O  O18  1  0.75038800  0.07673900  0.07679300  1
  O  O19  1  0.75038800  0.67364900  0.67281900  1
  O  O20  1  0.75038800  0.67364900  0.07679300  1
  O  O21  1  0.75038800  0.07673900  0.67281900  1
