# generated using pymatgen
data_Er9MnS14
_symmetry_space_group_name_H-M   'P 1'
_cell_length_a   6.54947122
_cell_length_b   6.54947122
_cell_length_c   22.88575421
_cell_angle_alpha   76.03334218
_cell_angle_beta   76.03334218
_cell_angle_gamma   33.35929554
_symmetry_Int_Tables_number   1
_chemical_formula_structural   Er9MnS14
_chemical_formula_sum   'Er9 Mn1 S14'
_cell_volume   522.40745921
_cell_formula_units_Z   1
loop_
 _symmetry_equiv_pos_site_id
 _symmetry_equiv_pos_as_xyz
  1  'x, y, z'
loop_
 _atom_site_type_symbol
 _atom_site_label
 _atom_site_symmetry_multiplicity
 _atom_site_fract_x
 _atom_site_fract_y
 _atom_site_fract_z
 _atom_site_occupancy
  Er  Er0  1  0.69434700  0.69434700  0.10222800  1
  Er  Er1  1  0.69881500  0.69881500  0.59360900  1
  Er  Er2  1  0.30411800  0.30411800  0.40033000  1
  Er  Er3  1  0.30222700  0.30222700  0.90676400  1
  Er  Er4  1  0.00013400  0.00013400  0.00365600  1
  Er  Er5  1  0.99977800  0.99977800  0.49885600  1
  Er  Er6  1  0.88749200  0.88749200  0.71062000  1
  Er  Er7  1  0.11348400  0.11348400  0.28307700  1
  Er  Er8  1  0.11199900  0.11199900  0.78981900  1
  Mn  Mn9  1  0.88678500  0.88678500  0.21067800  1
  S  S10  1  0.26673100  0.26673100  0.17692900  1
  S  S11  1  0.25914900  0.25914900  0.67637500  1
  S  S12  1  0.74191000  0.74191000  0.32088700  1
  S  S13  1  0.74102300  0.74102300  0.82359800  1
  S  S14  1  0.33921500  0.33921500  0.02567600  1
  S  S15  1  0.34106800  0.34106800  0.52567100  1
  S  S16  1  0.66047600  0.66047600  0.47405300  1
  S  S17  1  0.65864100  0.65864100  0.97472200  1
  S  S18  1  0.03672100  0.03672100  0.11188800  1
  S  S19  1  0.04041800  0.04041800  0.60745800  1
  S  S20  1  0.96082500  0.96082500  0.39130800  1
  S  S21  1  0.96031000  0.96031000  0.89324900  1
  S  S22  1  0.49409000  0.49409000  0.24868300  1
  S  S23  1  0.50024300  0.50024300  0.74986700  1
