# generated using pymatgen
data_Er6Mn(SiS7)2
_symmetry_space_group_name_H-M   'P 1'
_cell_length_a   9.82749137
_cell_length_b   9.82749137
_cell_length_c   5.58316700
_cell_angle_alpha   90.00000000
_cell_angle_beta   90.00000000
_cell_angle_gamma   119.99999576
_symmetry_Int_Tables_number   1
_chemical_formula_structural   Er6Mn(SiS7)2
_chemical_formula_sum   'Er6 Mn1 Si2 S14'
_cell_volume   466.97820435
_cell_formula_units_Z   1
loop_
 _symmetry_equiv_pos_site_id
 _symmetry_equiv_pos_as_xyz
  1  'x, y, z'
loop_
 _atom_site_type_symbol
 _atom_site_label
 _atom_site_symmetry_multiplicity
 _atom_site_fract_x
 _atom_site_fract_y
 _atom_site_fract_z
 _atom_site_occupancy
  Er  Er0  1  0.64421700  0.76667900  0.75029300  1
  Er  Er1  1  0.12246200  0.35578300  0.75029300  1
  Er  Er2  1  0.23332100  0.87753800  0.75029300  1
  Er  Er3  1  0.35530400  0.23330400  0.25080700  1
  Er  Er4  1  0.87800100  0.64469600  0.25080700  1
  Er  Er5  1  0.76669600  0.12199900  0.25080700  1
  Mn  Mn6  1  0.00000000  0.00000000  0.51154200  1
  Si  Si7  1  0.33333300  0.66666700  0.16536100  1
  Si  Si8  1  0.66666700  0.33333300  0.66368100  1
  S  S9  1  0.33333300  0.66666700  0.54188000  1
  S  S10  1  0.66666700  0.33333300  0.04035600  1
  S  S11  1  0.75123500  0.83769200  0.27127900  1
  S  S12  1  0.08645700  0.24876500  0.27127900  1
  S  S13  1  0.16230800  0.91354300  0.27127900  1
  S  S14  1  0.24839600  0.16407100  0.75683400  1
  S  S15  1  0.91567600  0.75160400  0.75683400  1
  S  S16  1  0.83592900  0.08432400  0.75683400  1
  S  S17  1  0.48125100  0.89312800  0.01304000  1
  S  S18  1  0.41187700  0.51874900  0.01304000  1
  S  S19  1  0.10687200  0.58812300  0.01304000  1
  S  S20  1  0.51878900  0.10689200  0.51149700  1
  S  S21  1  0.58810300  0.48121100  0.51149700  1
  S  S22  1  0.89310800  0.41189700  0.51149700  1
