# generated using pymatgen
data_Cu4Br3Cl
_symmetry_space_group_name_H-M   'P 1'
_cell_length_a   6.51260753
_cell_length_b   6.51260753
_cell_length_c   6.51260753
_cell_angle_alpha   131.72390886
_cell_angle_beta   131.72390886
_cell_angle_gamma   70.66543390
_symmetry_Int_Tables_number   1
_chemical_formula_structural   Cu4Br3Cl
_chemical_formula_sum   'Cu4 Br3 Cl1'
_cell_volume   150.73849499
_cell_formula_units_Z   1
loop_
 _symmetry_equiv_pos_site_id
 _symmetry_equiv_pos_as_xyz
  1  'x, y, z'
loop_
 _atom_site_type_symbol
 _atom_site_label
 _atom_site_symmetry_multiplicity
 _atom_site_fract_x
 _atom_site_fract_y
 _atom_site_fract_z
 _atom_site_occupancy
  Cu  Cu0  1  0.00000000  0.50000000  0.50000000  1
  Cu  Cu1  1  0.25363200  0.25363200  0.00000000  1
  Cu  Cu2  1  0.50000000  0.00000000  0.50000000  1
  Cu  Cu3  1  0.74636800  0.74636800  0.00000000  1
  Br  Br4  1  0.75000000  0.25000000  0.50000000  1
  Br  Br5  1  0.00000000  0.00000000  0.00000000  1
  Br  Br6  1  0.25000000  0.75000000  0.50000000  1
  Cl  Cl7  1  0.50000000  0.50000000  0.00000000  1
