# generated using pymatgen
data_Dy4CoSn8
_symmetry_space_group_name_H-M   'P 1'
_cell_length_a   4.37825100
_cell_length_b   4.44953400
_cell_length_c   16.74207000
_cell_angle_alpha   90.00000000
_cell_angle_beta   90.00000000
_cell_angle_gamma   90.00000000
_symmetry_Int_Tables_number   1
_chemical_formula_structural   Dy4CoSn8
_chemical_formula_sum   'Dy4 Co1 Sn8'
_cell_volume   326.15522374
_cell_formula_units_Z   1
loop_
 _symmetry_equiv_pos_site_id
 _symmetry_equiv_pos_as_xyz
  1  'x, y, z'
loop_
 _atom_site_type_symbol
 _atom_site_label
 _atom_site_symmetry_multiplicity
 _atom_site_fract_x
 _atom_site_fract_y
 _atom_site_fract_z
 _atom_site_occupancy
  Dy  Dy0  1  0.25000000  0.00000000  0.09821800  1
  Dy  Dy1  1  0.25000000  0.50000000  0.60132400  1
  Dy  Dy2  1  0.75000000  0.50000000  0.39580000  1
  Dy  Dy3  1  0.75000000  0.00000000  0.89968200  1
  Co  Co4  1  0.25000000  0.00000000  0.30659600  1
  Sn  Sn5  1  0.25000000  0.00000000  0.45295800  1
  Sn  Sn6  1  0.25000000  0.50000000  0.93773200  1
  Sn  Sn7  1  0.75000000  0.50000000  0.06221500  1
  Sn  Sn8  1  0.75000000  0.00000000  0.57156100  1
  Sn  Sn9  1  0.25000000  0.50000000  0.23694600  1
  Sn  Sn10  1  0.25000000  0.00000000  0.74602300  1
  Sn  Sn11  1  0.75000000  0.00000000  0.23734700  1
  Sn  Sn12  1  0.75000000  0.50000000  0.75359900  1
