# generated using pymatgen
data_Er2Mn3Sb3O14
_symmetry_space_group_name_H-M   'P 1'
_cell_length_a   7.15946004
_cell_length_b   7.15946004
_cell_length_c   7.25301773
_cell_angle_alpha   61.29892209
_cell_angle_beta   61.29892209
_cell_angle_gamma   61.50030878
_symmetry_Int_Tables_number   1
_chemical_formula_structural   Er2Mn3Sb3O14
_chemical_formula_sum   'Er2 Mn3 Sb3 O14'
_cell_volume   270.95063343
_cell_formula_units_Z   1
loop_
 _symmetry_equiv_pos_site_id
 _symmetry_equiv_pos_as_xyz
  1  'x, y, z'
loop_
 _atom_site_type_symbol
 _atom_site_label
 _atom_site_symmetry_multiplicity
 _atom_site_fract_x
 _atom_site_fract_y
 _atom_site_fract_z
 _atom_site_occupancy
  Er  Er0  1  0.50000000  0.00000000  0.50000000  1
  Er  Er1  1  0.00000000  0.50000000  0.50000000  1
  Mn  Mn2  1  0.00000000  0.00000000  0.50000000  1
  Mn  Mn3  1  0.00000000  0.00000000  0.00000000  1
  Mn  Mn4  1  0.50000000  0.50000000  0.00000000  1
  Sb  Sb5  1  0.00000000  0.50000000  0.00000000  1
  Sb  Sb6  1  0.50000000  0.00000000  0.00000000  1
  Sb  Sb7  1  0.50000000  0.50000000  0.50000000  1
  O  O8  1  0.87941000  0.87941000  0.37391500  1
  O  O9  1  0.12059000  0.12059000  0.62608500  1
  O  O10  1  0.17040500  0.17040500  0.07350500  1
  O  O11  1  0.59206600  0.59206600  0.64806400  1
  O  O12  1  0.17228200  0.57239800  0.08899100  1
  O  O13  1  0.57920900  0.16941900  0.67320100  1
  O  O14  1  0.57239800  0.17228200  0.08899100  1
  O  O15  1  0.16941900  0.57920900  0.67320100  1
  O  O16  1  0.82959500  0.82959500  0.92649500  1
  O  O17  1  0.40793400  0.40793400  0.35193600  1
  O  O18  1  0.82771800  0.42760200  0.91100900  1
  O  O19  1  0.42079100  0.83058100  0.32679900  1
  O  O20  1  0.42760200  0.82771800  0.91100900  1
  O  O21  1  0.83058100  0.42079100  0.32679900  1
