# generated using pymatgen
data_Eu2MnRhO6
_symmetry_space_group_name_H-M   'P 1'
_cell_length_a   5.75529100
_cell_length_b   5.54404500
_cell_length_c   9.43412980
_cell_angle_alpha   54.70537133
_cell_angle_beta   90.00000000
_cell_angle_gamma   90.00000000
_symmetry_Int_Tables_number   1
_chemical_formula_structural   Eu2MnRhO6
_chemical_formula_sum   'Eu4 Mn2 Rh2 O12'
_cell_volume   245.69034320
_cell_formula_units_Z   2
loop_
 _symmetry_equiv_pos_site_id
 _symmetry_equiv_pos_as_xyz
  1  'x, y, z'
loop_
 _atom_site_type_symbol
 _atom_site_label
 _atom_site_symmetry_multiplicity
 _atom_site_fract_x
 _atom_site_fract_y
 _atom_site_fract_z
 _atom_site_occupancy
  Eu  Eu0  1  0.55930200  0.73631600  0.75000900  1
  Eu  Eu1  1  0.05930200  0.26368400  0.74999100  1
  Eu  Eu2  1  0.44069800  0.26368400  0.24999100  1
  Eu  Eu3  1  0.94069800  0.73631600  0.25000900  1
  Mn  Mn4  1  0.50000000  0.00000000  0.00000000  1
  Mn  Mn5  1  0.00000000  0.00000000  0.50000000  1
  Rh  Rh6  1  0.50000000  0.50000000  0.50000000  1
  Rh  Rh7  1  0.00000000  0.50000000  0.00000000  1
  O  O8  1  0.80269400  0.24730200  0.95180600  1
  O  O9  1  0.30269400  0.75269800  0.54819400  1
  O  O10  1  0.20159600  0.35365800  0.45182800  1
  O  O11  1  0.70159600  0.64634200  0.04817200  1
  O  O12  1  0.19730600  0.75269800  0.04819400  1
  O  O13  1  0.69730600  0.24730200  0.45180600  1
  O  O14  1  0.79840400  0.64634200  0.54817200  1
  O  O15  1  0.29840400  0.35365800  0.95182800  1
  O  O16  1  0.97060400  0.85129500  0.74472200  1
  O  O17  1  0.47060400  0.14870500  0.75527800  1
  O  O18  1  0.02939600  0.14870500  0.25527800  1
  O  O19  1  0.52939600  0.85129500  0.24472200  1
