# generated using pymatgen
data_ErScSi
_symmetry_space_group_name_H-M   'P 1'
_cell_length_a   6.12451001
_cell_length_b   8.58094299
_cell_length_c   9.08336939
_cell_angle_alpha   58.05770298
_cell_angle_beta   90.00053155
_cell_angle_gamma   90.00495301
_symmetry_Int_Tables_number   1
_chemical_formula_structural   ErScSi
_chemical_formula_sum   'Er6 Sc6 Si6'
_cell_volume   405.08561624
_cell_formula_units_Z   6
loop_
 _symmetry_equiv_pos_site_id
 _symmetry_equiv_pos_as_xyz
  1  'x, y, z'
loop_
 _atom_site_type_symbol
 _atom_site_label
 _atom_site_symmetry_multiplicity
 _atom_site_fract_x
 _atom_site_fract_y
 _atom_site_fract_z
 _atom_site_occupancy
  Er  Er0  1  0.74997600  0.26638000  0.70803200  1
  Er  Er1  1  0.74994200  0.73373100  0.97483200  1
  Er  Er2  1  0.75003300  0.99946400  0.30499600  1
  Er  Er3  1  0.25001700  0.74581300  0.25358100  1
  Er  Er4  1  0.25001700  0.25445900  0.99936700  1
  Er  Er5  1  0.24996700  0.00016400  0.75220000  1
  Sc  Sc6  1  0.49783600  0.31007500  0.34743500  1
  Sc  Sc7  1  0.49759500  0.68992200  0.65741500  1
  Sc  Sc8  1  0.00233400  0.68993300  0.65749000  1
  Sc  Sc9  1  0.00221700  0.30996200  0.34749700  1
  Sc  Sc10  1  0.75000500  0.63111700  0.36326600  1
  Sc  Sc11  1  0.75001700  0.36840800  0.99483100  1
  Si  Si12  1  0.55352600  0.00033900  0.02273200  1
  Si  Si13  1  0.94647300  0.00033900  0.02270300  1
  Si  Si14  1  0.74993600  0.99991900  0.61555500  1
  Si  Si15  1  0.25001900  0.40536800  0.58278400  1
  Si  Si16  1  0.25007800  0.59471100  0.98832700  1
  Si  Si17  1  0.25001300  0.99989800  0.40695600  1
