# generated using pymatgen
data_Er6Mn(GeS7)2
_symmetry_space_group_name_H-M   'P 1'
_cell_length_a   9.85424345
_cell_length_b   9.85424345
_cell_length_c   5.67415600
_cell_angle_alpha   90.00000000
_cell_angle_beta   90.00000000
_cell_angle_gamma   119.99999628
_symmetry_Int_Tables_number   1
_chemical_formula_structural   Er6Mn(GeS7)2
_chemical_formula_sum   'Er6 Mn1 Ge2 S14'
_cell_volume   477.17589207
_cell_formula_units_Z   1
loop_
 _symmetry_equiv_pos_site_id
 _symmetry_equiv_pos_as_xyz
  1  'x, y, z'
loop_
 _atom_site_type_symbol
 _atom_site_label
 _atom_site_symmetry_multiplicity
 _atom_site_fract_x
 _atom_site_fract_y
 _atom_site_fract_z
 _atom_site_occupancy
  Er  Er0  1  0.79109800  0.10189400  0.24996500  1
  Er  Er1  1  0.89810600  0.68920400  0.24996500  1
  Er  Er2  1  0.31079600  0.20890200  0.24996500  1
  Er  Er3  1  0.54192800  0.56466300  0.75029300  1
  Er  Er4  1  0.43533700  0.97726400  0.75029300  1
  Er  Er5  1  0.02273600  0.45807200  0.75029300  1
  Mn  Mn6  1  0.66666700  0.33333300  0.48691600  1
  Ge  Ge7  1  0.00000000  0.00000000  0.82847900  1
  Ge  Ge8  1  0.33333300  0.66666700  0.33263300  1
  S  S9  1  0.08166400  0.23421400  0.99757500  1
  S  S10  1  0.76578600  0.84745000  0.99757500  1
  S  S11  1  0.15255000  0.91833600  0.99757500  1
  S  S12  1  0.25144500  0.43257300  0.50099400  1
  S  S13  1  0.56742700  0.81887200  0.50099400  1
  S  S14  1  0.18112800  0.74855500  0.50099400  1
  S  S15  1  0.75892200  0.17299000  0.71838100  1
  S  S16  1  0.82701000  0.58593200  0.71838100  1
  S  S17  1  0.41406800  0.24107800  0.71838100  1
  S  S18  1  0.57747900  0.49649900  0.23943900  1
  S  S19  1  0.50350100  0.08098000  0.23943900  1
  S  S20  1  0.91902000  0.42252100  0.23943900  1
  S  S21  1  0.00000000  0.00000000  0.44532700  1
  S  S22  1  0.33333300  0.66666700  0.94892600  1
