# generated using pymatgen
data_Cu6SbAs
_symmetry_space_group_name_H-M   'P 1'
_cell_length_a   7.69835606
_cell_length_b   7.69835606
_cell_length_c   7.72139800
_cell_angle_alpha   90.00000000
_cell_angle_beta   90.00000000
_cell_angle_gamma   90.28870218
_symmetry_Int_Tables_number   1
_chemical_formula_structural   Cu6SbAs
_chemical_formula_sum   'Cu24 Sb4 As4'
_cell_volume   457.60041933
_cell_formula_units_Z   4
loop_
 _symmetry_equiv_pos_site_id
 _symmetry_equiv_pos_as_xyz
  1  'x, y, z'
loop_
 _atom_site_type_symbol
 _atom_site_label
 _atom_site_symmetry_multiplicity
 _atom_site_fract_x
 _atom_site_fract_y
 _atom_site_fract_z
 _atom_site_occupancy
  Cu  Cu0  1  0.50341300  0.83811800  0.54486500  1
  Cu  Cu1  1  0.79183300  0.99689700  0.42019000  1
  Cu  Cu2  1  0.67210500  0.71065500  0.25000000  1
  Cu  Cu3  1  0.50358500  0.16185100  0.95480600  1
  Cu  Cu4  1  0.20529500  0.99660700  0.08811600  1
  Cu  Cu5  1  0.33658300  0.29211600  0.25000000  1
  Cu  Cu6  1  0.50358500  0.16185100  0.54519400  1
  Cu  Cu7  1  0.20529500  0.99660700  0.41188400  1
  Cu  Cu8  1  0.50341300  0.83811800  0.95513500  1
  Cu  Cu9  1  0.79183300  0.99689700  0.07981000  1
  Cu  Cu10  1  0.66336000  0.29206800  0.25000000  1
  Cu  Cu11  1  0.32811200  0.71015200  0.25000000  1
  Cu  Cu12  1  0.83811800  0.50341300  0.04486500  1
  Cu  Cu13  1  0.99689700  0.79183300  0.92019000  1
  Cu  Cu14  1  0.71065500  0.67210500  0.75000000  1
  Cu  Cu15  1  0.16185100  0.50358500  0.45480600  1
  Cu  Cu16  1  0.99660700  0.20529500  0.58811600  1
  Cu  Cu17  1  0.29211600  0.33658300  0.75000000  1
  Cu  Cu18  1  0.16185100  0.50358500  0.04519400  1
  Cu  Cu19  1  0.99660700  0.20529500  0.91188400  1
  Cu  Cu20  1  0.83811800  0.50341300  0.45513500  1
  Cu  Cu21  1  0.99689700  0.79183300  0.57981000  1
  Cu  Cu22  1  0.29206800  0.66336000  0.75000000  1
  Cu  Cu23  1  0.71015200  0.32811200  0.75000000  1
  Sb  Sb24  1  0.50023800  0.50023800  0.50000000  1
  Sb  Sb25  1  0.24885100  0.99969500  0.75000000  1
  Sb  Sb26  1  0.99969500  0.24885100  0.25000000  1
  Sb  Sb27  1  0.50023800  0.50023800  0.00000000  1
  As  As28  1  0.50087900  0.99876500  0.25000000  1
  As  As29  1  0.99876500  0.50087900  0.75000000  1
  As  As30  1  0.74995200  0.00103900  0.75000000  1
  As  As31  1  0.00103900  0.74995200  0.25000000  1
