# generated using pymatgen
data_NaV6O15
_symmetry_space_group_name_H-M   'P 1'
_cell_length_a   5.76771159
_cell_length_b   8.13205718
_cell_length_c   9.00668577
_cell_angle_alpha   88.23669935
_cell_angle_beta   86.43788557
_cell_angle_gamma   98.58124700
_symmetry_Int_Tables_number   1
_chemical_formula_structural   NaV6O15
_chemical_formula_sum   'Na1 V6 O15'
_cell_volume   416.56438317
_cell_formula_units_Z   1
loop_
 _symmetry_equiv_pos_site_id
 _symmetry_equiv_pos_as_xyz
  1  'x, y, z'
loop_
 _atom_site_type_symbol
 _atom_site_label
 _atom_site_symmetry_multiplicity
 _atom_site_fract_x
 _atom_site_fract_y
 _atom_site_fract_z
 _atom_site_occupancy
  Na  Na0  1  0.01752800  0.97501500  0.50850500  1
  V  V1  1  0.04170600  0.19379500  0.08881800  1
  V  V2  1  0.35943700  0.60696800  0.45819000  1
  V  V3  1  0.41672300  0.72230200  0.08981800  1
  V  V4  1  0.58376800  0.27431900  0.90996000  1
  V  V5  1  0.80711900  0.40289200  0.55523600  1
  V  V6  1  0.94911500  0.79908600  0.92210400  1
  O  O7  1  0.99209900  0.98819200  0.01617400  1
  O  O8  1  0.07626400  0.17580600  0.26684300  1
  O  O9  1  0.29406000  0.31022900  0.98941600  1
  O  O10  1  0.13798800  0.45111800  0.53884000  1
  O  O11  1  0.32681200  0.60199500  0.25564900  1
  O  O12  1  0.19554500  0.69650000  0.95409600  1
  O  O13  1  0.31128700  0.79080900  0.51273800  1
  O  O14  1  0.46071700  0.91472600  0.13489200  1
  O  O15  1  0.55575700  0.08740700  0.84948800  1
  O  O16  1  0.70707700  0.21668000  0.50121900  1
  O  O17  1  0.79069500  0.29023900  0.05716800  1
  O  O18  1  0.70177900  0.40609300  0.75896000  1
  O  O19  1  0.65076700  0.57626900  0.48666900  1
  O  O20  1  0.68969500  0.67210300  0.00679800  1
  O  O21  1  0.92706200  0.83345800  0.74442000  1
