# generated using pymatgen
data_Er4Fe34C3
_symmetry_space_group_name_H-M   'P 1'
_cell_length_a   6.47537575
_cell_length_b   6.44075953
_cell_length_c   12.90166851
_cell_angle_alpha   82.98602850
_cell_angle_beta   83.46869026
_cell_angle_gamma   83.54200502
_symmetry_Int_Tables_number   1
_chemical_formula_structural   Er4Fe34C3
_chemical_formula_sum   'Er4 Fe34 C3'
_cell_volume   527.93007306
_cell_formula_units_Z   1
loop_
 _symmetry_equiv_pos_site_id
 _symmetry_equiv_pos_as_xyz
  1  'x, y, z'
loop_
 _atom_site_type_symbol
 _atom_site_label
 _atom_site_symmetry_multiplicity
 _atom_site_fract_x
 _atom_site_fract_y
 _atom_site_fract_z
 _atom_site_occupancy
  Er  Er0  1  0.66351900  0.65433900  0.32751600  1
  Er  Er1  1  0.66110800  0.66029100  0.82592400  1
  Er  Er2  1  0.33648100  0.34566100  0.17248400  1
  Er  Er3  1  0.33889200  0.33970900  0.67407600  1
  Fe  Fe4  1  0.90227700  0.90380700  0.45216900  1
  Fe  Fe5  1  0.90477400  0.90421500  0.95062800  1
  Fe  Fe6  1  0.09772300  0.09619300  0.04783100  1
  Fe  Fe7  1  0.09522600  0.09578500  0.54937200  1
  Fe  Fe8  1  0.34150000  0.34472700  0.42628400  1
  Fe  Fe9  1  0.34315500  0.34259900  0.92421100  1
  Fe  Fe10  1  0.34173700  0.85099100  0.17221600  1
  Fe  Fe11  1  0.34410600  0.84951400  0.67315600  1
  Fe  Fe12  1  0.85251100  0.34490100  0.17292000  1
  Fe  Fe13  1  0.84893700  0.34479000  0.67306900  1
  Fe  Fe14  1  0.65850000  0.65527300  0.07371600  1
  Fe  Fe15  1  0.65684500  0.65740100  0.57578900  1
  Fe  Fe16  1  0.65826300  0.14900900  0.32778400  1
  Fe  Fe17  1  0.65589400  0.15048600  0.82684400  1
  Fe  Fe18  1  0.14748900  0.65509900  0.32708000  1
  Fe  Fe19  1  0.15106300  0.65521000  0.82693100  1
  Fe  Fe20  1  0.28481300  0.71568200  0.50006400  1
  Fe  Fe21  1  0.28445800  0.71546000  0.99985800  1
  Fe  Fe22  1  0.71611400  0.99965300  0.14201100  1
  Fe  Fe23  1  0.70924600  0.00000700  0.64653100  1
  Fe  Fe24  1  0.00140900  0.29062600  0.35458100  1
  Fe  Fe25  1  0.99918800  0.29135900  0.85374600  1
  Fe  Fe26  1  0.28388600  0.00034700  0.35798900  1
  Fe  Fe27  1  0.29075400  0.99999300  0.85346900  1
  Fe  Fe28  1  0.99859100  0.70937400  0.14541900  1
  Fe  Fe29  1  0.00081200  0.70864100  0.64625400  1
  Fe  Fe30  1  0.71518700  0.28431800  0.99993600  1
  Fe  Fe31  1  0.71554200  0.28454000  0.50014200  1
  Fe  Fe32  1  0.00000000  0.00000000  0.25000000  1
  Fe  Fe33  1  0.00000000  0.00000000  0.75000000  1
  Fe  Fe34  1  0.99899500  0.49988800  0.50036400  1
  Fe  Fe35  1  0.00100500  0.50011200  0.99963600  1
  Fe  Fe36  1  0.50034500  0.99806200  0.99897200  1
  Fe  Fe37  1  0.49965500  0.00193700  0.50102800  1
  C  C38  1  0.49878500  0.49961300  0.99963500  1
  C  C39  1  0.50121500  0.50038700  0.50036500  1
  C  C40  1  0.50000000  0.00000000  0.25000000  1
