# generated using pymatgen
data_Cu2GeS3
_symmetry_space_group_name_H-M   'P 1'
_cell_length_a   12.44933202
_cell_length_b   11.86682583
_cell_length_c   6.50465537
_cell_angle_alpha   79.49514968
_cell_angle_beta   69.59203909
_cell_angle_gamma   30.91281122
_symmetry_Int_Tables_number   1
_chemical_formula_structural   Cu2GeS3
_chemical_formula_sum   'Cu8 Ge4 S12'
_cell_volume   448.85800929
_cell_formula_units_Z   4
loop_
 _symmetry_equiv_pos_site_id
 _symmetry_equiv_pos_as_xyz
  1  'x, y, z'
loop_
 _atom_site_type_symbol
 _atom_site_label
 _atom_site_symmetry_multiplicity
 _atom_site_fract_x
 _atom_site_fract_y
 _atom_site_fract_z
 _atom_site_occupancy
  Cu  Cu0  1  0.58676000  0.24753900  0.24196800  1
  Cu  Cu1  1  0.92102900  0.57897100  0.92102900  1
  Cu  Cu2  1  0.24196800  0.92373200  0.58676000  1
  Cu  Cu3  1  0.00246100  0.66324000  0.32626800  1
  Cu  Cu4  1  0.32626800  0.00803200  0.00246100  1
  Cu  Cu5  1  0.67102900  0.32897100  0.67102900  1
  Cu  Cu6  1  0.41595600  0.08404400  0.41595600  1
  Cu  Cu7  1  0.16595600  0.83404400  0.16595600  1
  Ge  Ge8  1  0.76187200  0.40067500  0.07112600  1
  Ge  Ge9  1  0.07112600  0.76632700  0.76187200  1
  Ge  Ge10  1  0.48367300  0.17887400  0.84932500  1
  Ge  Ge11  1  0.84932500  0.48812800  0.48367300  1
  S  S12  1  0.70506300  0.63022500  0.87327300  1
  S  S13  1  0.04379800  0.95342600  0.54073600  1
  S  S14  1  0.37693900  0.29001900  0.21147300  1
  S  S15  1  0.21147300  0.12156900  0.37693900  1
  S  S16  1  0.54073600  0.46204000  0.04379800  1
  S  S17  1  0.87327300  0.79144000  0.70506300  1
  S  S18  1  0.29657400  0.20620200  0.78796000  1
  S  S19  1  0.61977500  0.54493700  0.45856000  1
  S  S20  1  0.95998100  0.87306100  0.12843100  1
  S  S21  1  0.45856000  0.37672700  0.61977500  1
  S  S22  1  0.78796000  0.70926400  0.29657400  1
  S  S23  1  0.12843100  0.03852700  0.95998100  1
