# generated using pymatgen
data_Gd4Fe34C3
_symmetry_space_group_name_H-M   'P 1'
_cell_length_a   6.44232700
_cell_length_b   6.47592920
_cell_length_c   12.89680323
_cell_angle_alpha   83.78335639
_cell_angle_beta   83.47449271
_cell_angle_gamma   83.71681090
_symmetry_Int_Tables_number   1
_chemical_formula_structural   Gd4Fe34C3
_chemical_formula_sum   'Gd4 Fe34 C3'
_cell_volume   528.84963987
_cell_formula_units_Z   1
loop_
 _symmetry_equiv_pos_site_id
 _symmetry_equiv_pos_as_xyz
  1  'x, y, z'
loop_
 _atom_site_type_symbol
 _atom_site_label
 _atom_site_symmetry_multiplicity
 _atom_site_fract_x
 _atom_site_fract_y
 _atom_site_fract_z
 _atom_site_occupancy
  Gd  Gd0  1  0.34950300  0.33577500  0.42368300  1
  Gd  Gd1  1  0.33824100  0.34010400  0.92635800  1
  Gd  Gd2  1  0.65049700  0.66422500  0.57631700  1
  Gd  Gd3  1  0.66175900  0.65989600  0.07364200  1
  Fe  Fe4  1  0.65538600  0.14438700  0.57792500  1
  Fe  Fe5  1  0.65596600  0.14863000  0.07682100  1
  Fe  Fe6  1  0.65539000  0.65893100  0.32189200  1
  Fe  Fe7  1  0.65751500  0.65649000  0.82501600  1
  Fe  Fe8  1  0.14551500  0.65844200  0.57833900  1
  Fe  Fe9  1  0.14820700  0.65776700  0.07719600  1
  Fe  Fe10  1  0.34461400  0.85561300  0.42207500  1
  Fe  Fe11  1  0.34403400  0.85137000  0.92317900  1
  Fe  Fe12  1  0.34461000  0.34106900  0.67810800  1
  Fe  Fe13  1  0.34248500  0.34351000  0.17498400  1
  Fe  Fe14  1  0.85448500  0.34155800  0.42166100  1
  Fe  Fe15  1  0.85179300  0.34223300  0.92280400  1
  Fe  Fe16  1  0.09738900  0.09612100  0.29854400  1
  Fe  Fe17  1  0.09629500  0.09549200  0.79907400  1
  Fe  Fe18  1  0.90261100  0.90387900  0.70145600  1
  Fe  Fe19  1  0.90370500  0.90450800  0.20092600  1
  Fe  Fe20  1  0.28481600  0.71454500  0.75087100  1
  Fe  Fe21  1  0.28518400  0.71434200  0.24949600  1
  Fe  Fe22  1  0.99914700  0.28615100  0.60787000  1
  Fe  Fe23  1  0.99934100  0.28327000  0.10729000  1
  Fe  Fe24  1  0.71658100  0.99931400  0.39157100  1
  Fe  Fe25  1  0.71284300  0.00114600  0.89314600  1
  Fe  Fe26  1  0.00085300  0.71384900  0.39213000  1
  Fe  Fe27  1  0.00065900  0.71673000  0.89271000  1
  Fe  Fe28  1  0.28341900  0.00068600  0.60842900  1
  Fe  Fe29  1  0.28715700  0.99885400  0.10685400  1
  Fe  Fe30  1  0.71518400  0.28545500  0.24912900  1
  Fe  Fe31  1  0.71481600  0.28565800  0.75050400  1
  Fe  Fe32  1  0.00000000  0.00000000  0.50000000  1
  Fe  Fe33  1  0.00000000  0.00000000  0.00000000  1
  Fe  Fe34  1  0.49954100  0.99847500  0.75061500  1
  Fe  Fe35  1  0.50045900  0.00152500  0.24938500  1
  Fe  Fe36  1  0.99833900  0.50072500  0.24830800  1
  Fe  Fe37  1  0.00166100  0.49927500  0.75169200  1
  C  C38  1  0.50001600  0.49912100  0.24897500  1
  C  C39  1  0.49998400  0.50087900  0.75102500  1
  C  C40  1  0.00000000  0.50000000  0.50000000  1
