# generated using pymatgen
data_Cu2NiTeO6
_symmetry_space_group_name_H-M   'P 1'
_cell_length_a   8.36916526
_cell_length_b   8.36916526
_cell_length_c   8.36916526
_cell_angle_alpha   109.64033211
_cell_angle_beta   109.53745974
_cell_angle_gamma   109.23614193
_symmetry_Int_Tables_number   1
_chemical_formula_structural   Cu2NiTeO6
_chemical_formula_sum   'Cu8 Ni4 Te4 O24'
_cell_volume   451.25155231
_cell_formula_units_Z   4
loop_
 _symmetry_equiv_pos_site_id
 _symmetry_equiv_pos_as_xyz
  1  'x, y, z'
loop_
 _atom_site_type_symbol
 _atom_site_label
 _atom_site_symmetry_multiplicity
 _atom_site_fract_x
 _atom_site_fract_y
 _atom_site_fract_z
 _atom_site_occupancy
  Cu  Cu0  1  0.77705600  0.52705600  0.25000000  1
  Cu  Cu1  1  0.72294400  0.97294400  0.75000000  1
  Cu  Cu2  1  0.97162700  0.75000000  0.72162700  1
  Cu  Cu3  1  0.52837300  0.25000000  0.77837300  1
  Cu  Cu4  1  0.75000000  0.77917700  0.02917700  1
  Cu  Cu5  1  0.25000000  0.72082300  0.47082300  1
  Cu  Cu6  1  0.21971700  0.46971700  0.75000000  1
  Cu  Cu7  1  0.28028300  0.03028300  0.25000000  1
  Ni  Ni8  1  0.04042300  0.25000000  0.29042300  1
  Ni  Ni9  1  0.45957700  0.75000000  0.20957700  1
  Ni  Ni10  1  0.25000000  0.21125400  0.96125400  1
  Ni  Ni11  1  0.75000000  0.28874600  0.53874600  1
  Te  Te12  1  0.00251700  0.50364800  0.00362800  1
  Te  Te13  1  0.49998000  0.99635200  0.99886900  1
  Te  Te14  1  0.49748300  0.50111100  0.50113100  1
  Te  Te15  1  0.00002000  0.99888900  0.49637200  1
  O  O16  1  0.72458000  0.51538600  0.45816900  1
  O  O17  1  0.94278300  0.98461400  0.70919400  1
  O  O18  1  0.77542000  0.23358900  0.79080600  1
  O  O19  1  0.55721700  0.26641100  0.04183100  1
  O  O20  1  0.76400800  0.04096500  0.06909800  1
  O  O21  1  0.73599200  0.80509000  0.27695700  1
  O  O22  1  0.47186700  0.69491000  0.43090200  1
  O  O23  1  0.02813300  0.45903500  0.22304300  1
  O  O24  1  0.20809800  0.44322700  0.98164500  1
  O  O25  1  0.96158200  0.22645300  0.51835500  1
  O  O26  1  0.53841800  0.05677300  0.26487100  1
  O  O27  1  0.29190200  0.27354700  0.23512900  1
  O  O28  1  0.27956900  0.47782500  0.54744400  1
  O  O29  1  0.06961900  0.02217500  0.30174500  1
  O  O30  1  0.22043100  0.76787400  0.19825500  1
  O  O31  1  0.43038100  0.73212600  0.95255600  1
  O  O32  1  0.23482800  0.95440000  0.92922100  1
  O  O33  1  0.26517200  0.19439300  0.71957200  1
  O  O34  1  0.52517800  0.30560700  0.57077900  1
  O  O35  1  0.97482200  0.54560000  0.78042800  1
  O  O36  1  0.79892400  0.56581600  0.02844100  1
  O  O37  1  0.03737500  0.77048300  0.47155900  1
  O  O38  1  0.46262500  0.93418400  0.73310800  1
  O  O39  1  0.70107600  0.72951700  0.76689200  1
