# generated using pymatgen
data_Eu2Mn3Sb3O14
_symmetry_space_group_name_H-M   'P 1'
_cell_length_a   7.24492397
_cell_length_b   7.24492397
_cell_length_c   7.35185874
_cell_angle_alpha   60.51661028
_cell_angle_beta   60.51661028
_cell_angle_gamma   60.29591012
_symmetry_Int_Tables_number   1
_chemical_formula_structural   Eu2Mn3Sb3O14
_chemical_formula_sum   'Eu2 Mn3 Sb3 O14'
_cell_volume   275.59671455
_cell_formula_units_Z   1
loop_
 _symmetry_equiv_pos_site_id
 _symmetry_equiv_pos_as_xyz
  1  'x, y, z'
loop_
 _atom_site_type_symbol
 _atom_site_label
 _atom_site_symmetry_multiplicity
 _atom_site_fract_x
 _atom_site_fract_y
 _atom_site_fract_z
 _atom_site_occupancy
  Eu  Eu0  1  0.00000000  0.00000000  0.00000000  1
  Eu  Eu1  1  0.00000000  0.00000000  0.50000000  1
  Mn  Mn2  1  0.50000000  0.00000000  0.00000000  1
  Mn  Mn3  1  0.00000000  0.50000000  0.00000000  1
  Mn  Mn4  1  0.50000000  0.50000000  0.50000000  1
  Sb  Sb5  1  0.50000000  0.50000000  0.00000000  1
  Sb  Sb6  1  0.00000000  0.50000000  0.50000000  1
  Sb  Sb7  1  0.50000000  0.00000000  0.50000000  1
  O  O8  1  0.86031500  0.86031500  0.88910100  1
  O  O9  1  0.13968500  0.13968500  0.11089900  1
  O  O10  1  0.57475800  0.57475800  0.17397500  1
  O  O11  1  0.16982300  0.16982300  0.57900000  1
  O  O12  1  0.17827800  0.57425000  0.57238700  1
  O  O13  1  0.57669900  0.16966900  0.17466100  1
  O  O14  1  0.16966900  0.57669900  0.17466100  1
  O  O15  1  0.57425000  0.17827800  0.57238700  1
  O  O16  1  0.42524200  0.42524200  0.82602500  1
  O  O17  1  0.83017700  0.83017700  0.42100000  1
  O  O18  1  0.82172200  0.42575000  0.42761300  1
  O  O19  1  0.42330100  0.83033100  0.82533900  1
  O  O20  1  0.83033200  0.42330100  0.82533900  1
  O  O21  1  0.42575000  0.82172200  0.42761300  1
