# generated using pymatgen
data_Eu2In3Ni
_symmetry_space_group_name_H-M   'P 1'
_cell_length_a   3.84887201
_cell_length_b   4.82663987
_cell_length_c   8.55373160
_cell_angle_alpha   90.00027972
_cell_angle_beta   89.99998317
_cell_angle_gamma   89.99212858
_symmetry_Int_Tables_number   1
_chemical_formula_structural   Eu2In3Ni
_chemical_formula_sum   'Eu2 In3 Ni1'
_cell_volume   158.90368903
_cell_formula_units_Z   1
loop_
 _symmetry_equiv_pos_site_id
 _symmetry_equiv_pos_as_xyz
  1  'x, y, z'
loop_
 _atom_site_type_symbol
 _atom_site_label
 _atom_site_symmetry_multiplicity
 _atom_site_fract_x
 _atom_site_fract_y
 _atom_site_fract_z
 _atom_site_occupancy
  Eu  Eu0  1  0.00000000  0.99995300  0.02228200  1
  Eu  Eu1  1  0.00000000  0.49998700  0.48468800  1
  In  In2  1  0.50000000  0.50000400  0.83564200  1
  In  In3  1  0.50000000  0.49994900  0.18424400  1
  In  In4  1  0.50000000  0.99996900  0.64447600  1
  Ni  Ni5  1  0.50000000  0.99993900  0.32866800  1
