# generated using pymatgen
data_CsTi3AlO8
_symmetry_space_group_name_H-M   'P 1'
_cell_length_a   3.03898000
_cell_length_b   7.37441633
_cell_length_c   7.38981516
_cell_angle_alpha   87.51746371
_cell_angle_beta   78.37023537
_cell_angle_gamma   78.19834130
_symmetry_Int_Tables_number   1
_chemical_formula_structural   CsTi3AlO8
_chemical_formula_sum   'Cs1 Ti3 Al1 O8'
_cell_volume   158.78179487
_cell_formula_units_Z   1
loop_
 _symmetry_equiv_pos_site_id
 _symmetry_equiv_pos_as_xyz
  1  'x, y, z'
loop_
 _atom_site_type_symbol
 _atom_site_label
 _atom_site_symmetry_multiplicity
 _atom_site_fract_x
 _atom_site_fract_y
 _atom_site_fract_z
 _atom_site_occupancy
  Cs  Cs0  1  0.07682500  0.99487600  0.99544100  1
  Ti  Ti1  1  0.82932700  0.49269900  0.83147600  1
  Ti  Ti2  1  0.65976800  0.19626900  0.48187200  1
  Ti  Ti3  1  0.32363200  0.81365500  0.50537500  1
  Al  Al4  1  0.17122700  0.51122100  0.18577800  1
  O  O5  1  0.35560300  0.63119000  0.70862600  1
  O  O6  1  0.68458000  0.37685100  0.29431700  1
  O  O7  1  0.99236700  0.69860200  0.36741800  1
  O  O8  1  0.06099400  0.29238500  0.62949600  1
  O  O9  1  0.36437200  0.36468900  0.95469500  1
  O  O10  1  0.68420100  0.63009000  0.05506800  1
  O  O11  1  0.74291800  0.94428400  0.62825600  1
  O  O12  1  0.31918500  0.05318900  0.36218200  1
