# generated using pymatgen
data_DyTmFe14B
_symmetry_space_group_name_H-M   'P 1'
_cell_length_a   8.70595000
_cell_length_b   8.70595000
_cell_length_c   11.87193400
_cell_angle_alpha   90.00000000
_cell_angle_beta   90.00000000
_cell_angle_gamma   90.00000000
_symmetry_Int_Tables_number   1
_chemical_formula_structural   DyTmFe14B
_chemical_formula_sum   'Dy4 Tm4 Fe56 B4'
_cell_volume   899.81620608
_cell_formula_units_Z   4
loop_
 _symmetry_equiv_pos_site_id
 _symmetry_equiv_pos_as_xyz
  1  'x, y, z'
loop_
 _atom_site_type_symbol
 _atom_site_label
 _atom_site_symmetry_multiplicity
 _atom_site_fract_x
 _atom_site_fract_y
 _atom_site_fract_z
 _atom_site_occupancy
  Dy  Dy0  1  0.23281900  0.76718100  0.50000000  1
  Dy  Dy1  1  0.76718100  0.23281900  0.50000000  1
  Dy  Dy2  1  0.26718200  0.26718200  0.00000000  1
  Dy  Dy3  1  0.73281900  0.73281900  0.00000000  1
  Tm  Tm4  1  0.64354600  0.64354600  0.50000000  1
  Tm  Tm5  1  0.35645400  0.35645400  0.50000000  1
  Tm  Tm6  1  0.85645400  0.14354600  0.00000000  1
  Tm  Tm7  1  0.14354600  0.85645400  0.00000000  1
  Fe  Fe8  1  0.18288300  0.81711700  0.25340600  1
  Fe  Fe9  1  0.81711700  0.18288300  0.25340600  1
  Fe  Fe10  1  0.31711700  0.31711700  0.75340600  1
  Fe  Fe11  1  0.68288300  0.68288300  0.75340600  1
  Fe  Fe12  1  0.81711700  0.18288300  0.74659400  1
  Fe  Fe13  1  0.18288300  0.81711700  0.74659400  1
  Fe  Fe14  1  0.68288300  0.68288300  0.24659400  1
  Fe  Fe15  1  0.31711700  0.31711700  0.24659400  1
  Fe  Fe16  1  0.93355000  0.72464500  0.37329200  1
  Fe  Fe17  1  0.06645000  0.27535500  0.37329200  1
  Fe  Fe18  1  0.56645000  0.22464500  0.87329200  1
  Fe  Fe19  1  0.43355000  0.77535500  0.87329200  1
  Fe  Fe20  1  0.06645000  0.27535500  0.62670800  1
  Fe  Fe21  1  0.93355000  0.72464500  0.62670800  1
  Fe  Fe22  1  0.43355000  0.77535500  0.12670800  1
  Fe  Fe23  1  0.56645000  0.22464500  0.12670800  1
  Fe  Fe24  1  0.72464500  0.93355000  0.37329200  1
  Fe  Fe25  1  0.27535500  0.06645000  0.37329200  1
  Fe  Fe26  1  0.22464500  0.56645000  0.87329200  1
  Fe  Fe27  1  0.77535500  0.43355000  0.87329200  1
  Fe  Fe28  1  0.27535500  0.06645000  0.62670800  1
  Fe  Fe29  1  0.72464500  0.93355000  0.62670800  1
  Fe  Fe30  1  0.77535500  0.43355000  0.12670800  1
  Fe  Fe31  1  0.22464500  0.56645000  0.12670800  1
  Fe  Fe32  1  0.50000000  0.50000000  0.11504800  1
  Fe  Fe33  1  0.00000000  0.00000000  0.61504800  1
  Fe  Fe34  1  0.50000000  0.50000000  0.88495200  1
  Fe  Fe35  1  0.00000000  0.00000000  0.38495200  1
  Fe  Fe36  1  0.14152500  0.53693700  0.32552900  1
  Fe  Fe37  1  0.85847500  0.46306300  0.32552900  1
  Fe  Fe38  1  0.35847500  0.03693700  0.82552900  1
  Fe  Fe39  1  0.64152500  0.96306300  0.82552900  1
  Fe  Fe40  1  0.85847500  0.46306300  0.67447100  1
  Fe  Fe41  1  0.14152500  0.53693700  0.67447100  1
  Fe  Fe42  1  0.64152500  0.96306300  0.17447100  1
  Fe  Fe43  1  0.35847500  0.03693700  0.17447100  1
  Fe  Fe44  1  0.53693700  0.14152500  0.32552900  1
  Fe  Fe45  1  0.46306300  0.85847500  0.32552900  1
  Fe  Fe46  1  0.03693700  0.35847500  0.82552900  1
  Fe  Fe47  1  0.96306300  0.64152500  0.82552900  1
  Fe  Fe48  1  0.46306300  0.85847500  0.67447100  1
  Fe  Fe49  1  0.53693700  0.14152500  0.67447100  1
  Fe  Fe50  1  0.96306300  0.64152500  0.17447100  1
  Fe  Fe51  1  0.03693700  0.35847500  0.17447100  1
  Fe  Fe52  1  0.00000000  0.50000000  0.50000000  1
  Fe  Fe53  1  0.50000000  0.00000000  0.00000000  1
  Fe  Fe54  1  0.50000000  0.00000000  0.50000000  1
  Fe  Fe55  1  0.00000000  0.50000000  0.00000000  1
  Fe  Fe56  1  0.40332200  0.59667800  0.30009300  1
  Fe  Fe57  1  0.59667800  0.40332200  0.30009300  1
  Fe  Fe58  1  0.09667800  0.09667800  0.80009300  1
  Fe  Fe59  1  0.90332200  0.90332200  0.80009300  1
  Fe  Fe60  1  0.59667800  0.40332200  0.69990700  1
  Fe  Fe61  1  0.40332200  0.59667800  0.69990700  1
  Fe  Fe62  1  0.90332200  0.90332200  0.19990700  1
  Fe  Fe63  1  0.09667800  0.09667800  0.19990700  1
  B  B64  1  0.87233100  0.87233100  0.50000000  1
  B  B65  1  0.12766900  0.12766900  0.50000000  1
  B  B66  1  0.62766900  0.37233100  0.00000000  1
  B  B67  1  0.37233100  0.62766900  0.00000000  1
