# generated using pymatgen
data_Hg2C3I5N
_symmetry_space_group_name_H-M   'P 1'
_cell_length_a   11.54508674
_cell_length_b   11.54508674
_cell_length_c   7.92823135
_cell_angle_alpha   89.84085715
_cell_angle_beta   89.84085715
_cell_angle_gamma   96.77825308
_symmetry_Int_Tables_number   1
_chemical_formula_structural   Hg2C3I5N
_chemical_formula_sum   'Hg4 C6 I10 N2'
_cell_volume   1049.35081234
_cell_formula_units_Z   2
loop_
 _symmetry_equiv_pos_site_id
 _symmetry_equiv_pos_as_xyz
  1  'x, y, z'
loop_
 _atom_site_type_symbol
 _atom_site_label
 _atom_site_symmetry_multiplicity
 _atom_site_fract_x
 _atom_site_fract_y
 _atom_site_fract_z
 _atom_site_occupancy
  Hg  Hg0  1  0.18228200  0.31877400  0.33752300  1
  Hg  Hg1  1  0.68229500  0.82085600  0.34000200  1
  Hg  Hg2  1  0.82085600  0.68229500  0.84000200  1
  Hg  Hg3  1  0.31877400  0.18228200  0.83752300  1
  C  C4  1  0.75225000  0.25663500  0.43679600  1
  C  C5  1  0.25663500  0.75225000  0.93679600  1
  C  C6  1  0.88077300  0.13164900  0.58790800  1
  C  C7  1  0.13164900  0.88077300  0.08790800  1
  C  C8  1  0.68837900  0.31819200  0.36606200  1
  C  C9  1  0.31819200  0.68837900  0.86606200  1
  I  I10  1  0.58302900  0.41928600  0.26002300  1
  I  I11  1  0.41928600  0.58302900  0.76002300  1
  I  I12  1  0.11900000  0.24457700  0.95997500  1
  I  I13  1  0.75438600  0.88095500  0.95856000  1
  I  I14  1  0.88095500  0.75438600  0.45856000  1
  I  I15  1  0.24457700  0.11900000  0.45997500  1
  I  I16  1  0.14577700  0.53982400  0.34415500  1
  I  I17  1  0.46345200  0.86433100  0.35011200  1
  I  I18  1  0.86433100  0.46345200  0.85011200  1
  I  I19  1  0.53982400  0.14577700  0.84415500  1
  N  N20  1  0.81963500  0.19126500  0.51405400  1
  N  N21  1  0.19126500  0.81963500  0.01405400  1
