# generated using pymatgen
data_CsCrFeF6
_symmetry_space_group_name_H-M   'P 1'
_cell_length_a   7.55990563
_cell_length_b   7.55990563
_cell_length_c   7.55990563
_cell_angle_alpha   120.72648777
_cell_angle_beta   120.46787197
_cell_angle_gamma   88.96887784
_symmetry_Int_Tables_number   1
_chemical_formula_structural   CsCrFeF6
_chemical_formula_sum   'Cs2 Cr2 Fe2 F12'
_cell_volume   302.70328306
_cell_formula_units_Z   2
loop_
 _symmetry_equiv_pos_site_id
 _symmetry_equiv_pos_as_xyz
  1  'x, y, z'
loop_
 _atom_site_type_symbol
 _atom_site_label
 _atom_site_symmetry_multiplicity
 _atom_site_fract_x
 _atom_site_fract_y
 _atom_site_fract_z
 _atom_site_occupancy
  Cs  Cs0  1  0.62093200  0.37093200  0.25000000  1
  Cs  Cs1  1  0.37906800  0.62906800  0.75000000  1
  Cr  Cr2  1  0.00000000  0.00000000  0.50000000  1
  Cr  Cr3  1  0.00000000  0.50000000  0.00000000  1
  Fe  Fe4  1  0.50000000  0.00000000  0.50000000  1
  Fe  Fe5  1  0.00000000  0.00000000  0.00000000  1
  F  F6  1  0.06093500  0.31093500  0.75000000  1
  F  F7  1  0.67151700  0.92151700  0.75000000  1
  F  F8  1  0.06516700  0.33204400  0.13917500  1
  F  F9  1  0.69286900  0.92599200  0.36082500  1
  F  F10  1  0.69286900  0.33204400  0.76687700  1
  F  F11  1  0.06516700  0.92599200  0.73312300  1
  F  F12  1  0.93906500  0.68906500  0.25000000  1
  F  F13  1  0.32848300  0.07848300  0.25000000  1
  F  F14  1  0.93483300  0.66795600  0.86082500  1
  F  F15  1  0.30713100  0.07400800  0.63917500  1
  F  F16  1  0.30713100  0.66795600  0.23312300  1
  F  F17  1  0.93483300  0.07400800  0.26687700  1
