# generated using pymatgen
data_Ho(BrO6)3
_symmetry_space_group_name_H-M   'P 1'
_cell_length_a   6.61124900
_cell_length_b   12.85325677
_cell_length_c   12.85325677
_cell_angle_alpha   128.53272590
_cell_angle_beta   90.00000000
_cell_angle_gamma   90.00000000
_symmetry_Int_Tables_number   1
_chemical_formula_structural   Ho(BrO6)3
_chemical_formula_sum   'Ho2 Br6 O36'
_cell_volume   854.39130804
_cell_formula_units_Z   2
loop_
 _symmetry_equiv_pos_site_id
 _symmetry_equiv_pos_as_xyz
  1  'x, y, z'
loop_
 _atom_site_type_symbol
 _atom_site_label
 _atom_site_symmetry_multiplicity
 _atom_site_fract_x
 _atom_site_fract_y
 _atom_site_fract_z
 _atom_site_occupancy
  Ho  Ho0  1  0.51534100  0.34883900  0.65116100  1
  Ho  Ho1  1  0.01534100  0.65116100  0.34883900  1
  Br  Br2  1  0.33125300  0.17983700  0.32405400  1
  Br  Br3  1  0.83125300  0.32405400  0.17983700  1
  Br  Br4  1  0.83125300  0.82016300  0.67594600  1
  Br  Br5  1  0.33125300  0.67594600  0.82016300  1
  Br  Br6  1  0.33784600  0.10127300  0.89872700  1
  Br  Br7  1  0.83784600  0.89872700  0.10127300  1
  O  O8  1  0.88909200  0.26440400  0.73559600  1
  O  O9  1  0.38909200  0.73559600  0.26440400  1
  O  O10  1  0.78977700  0.29648100  0.50623400  1
  O  O11  1  0.28977700  0.50623400  0.29648100  1
  O  O12  1  0.28977700  0.70351900  0.49376600  1
  O  O13  1  0.78977700  0.49376600  0.70351900  1
  O  O14  1  0.35389500  0.18910200  0.46606300  1
  O  O15  1  0.85389500  0.46606300  0.18910200  1
  O  O16  1  0.85389500  0.81089800  0.53393700  1
  O  O17  1  0.35389500  0.53393700  0.81089800  1
  O  O18  1  0.29073500  0.06793300  0.65059300  1
  O  O19  1  0.79073500  0.65059300  0.06793300  1
  O  O20  1  0.79073500  0.93206700  0.34940700  1
  O  O21  1  0.29073500  0.34940700  0.93206700  1
  O  O22  1  0.23629400  0.32873800  0.38432100  1
  O  O23  1  0.73629400  0.38432100  0.32873800  1
  O  O24  1  0.73629400  0.67126200  0.61567900  1
  O  O25  1  0.23629400  0.61567900  0.67126200  1
  O  O26  1  0.89029200  0.41082400  0.58917600  1
  O  O27  1  0.97014000  0.55391400  0.44608600  1
  O  O28  1  0.47014000  0.44608600  0.55391400  1
  O  O29  1  0.39029200  0.58917600  0.41082400  1
  O  O30  1  0.79404300  0.18172000  0.62045800  1
  O  O31  1  0.91181700  0.61750000  0.11536000  1
  O  O32  1  0.41181700  0.11536000  0.61750000  1
  O  O33  1  0.29404300  0.62045800  0.18172000  1
  O  O34  1  0.91181700  0.88464000  0.38250000  1
  O  O35  1  0.79404300  0.37954200  0.81828000  1
  O  O36  1  0.29404300  0.81828000  0.37954200  1
  O  O37  1  0.41181700  0.38250000  0.88464000  1
  O  O38  1  0.14921000  0.07133200  0.23213300  1
  O  O39  1  0.64921000  0.23213300  0.07133200  1
  O  O40  1  0.14921000  0.76786700  0.92866800  1
  O  O41  1  0.64921000  0.92866800  0.76786700  1
  O  O42  1  0.07824200  0.09970300  0.90029700  1
  O  O43  1  0.57824200  0.90029700  0.09970300  1
