# generated using pymatgen
data_Eu3Ni7B2
_symmetry_space_group_name_H-M   'P 1'
_cell_length_a   5.22539394
_cell_length_b   5.23270611
_cell_length_c   7.24930800
_cell_angle_alpha   90.00000000
_cell_angle_beta   90.00000000
_cell_angle_gamma   120.01601917
_symmetry_Int_Tables_number   1
_chemical_formula_structural   Eu3Ni7B2
_chemical_formula_sum   'Eu3 Ni7 B2'
_cell_volume   171.63364998
_cell_formula_units_Z   1
loop_
 _symmetry_equiv_pos_site_id
 _symmetry_equiv_pos_as_xyz
  1  'x, y, z'
loop_
 _atom_site_type_symbol
 _atom_site_label
 _atom_site_symmetry_multiplicity
 _atom_site_fract_x
 _atom_site_fract_y
 _atom_site_fract_z
 _atom_site_occupancy
  Eu  Eu0  1  0.00032000  0.99996900  0.00000000  1
  Eu  Eu1  1  0.00010800  0.99993900  0.50000000  1
  Eu  Eu2  1  0.33291100  0.66659700  0.00000000  1
  Ni  Ni3  1  0.50507700  0.01015800  0.31465800  1
  Ni  Ni4  1  0.50501300  0.49499800  0.31461000  1
  Ni  Ni5  1  0.98983400  0.49492000  0.31452800  1
  Ni  Ni6  1  0.50507700  0.01015800  0.68534200  1
  Ni  Ni7  1  0.50501300  0.49499800  0.68539000  1
  Ni  Ni8  1  0.98983400  0.49492000  0.68547200  1
  Ni  Ni9  1  0.66654600  0.33337400  0.00000000  1
  B  B10  1  0.33344400  0.66668300  0.50000000  1
  B  B11  1  0.66662200  0.33328600  0.50000000  1
