# generated using pymatgen
data_CsSm2Ti2NbO10
_symmetry_space_group_name_H-M   'P 1'
_cell_length_a   3.87181336
_cell_length_b   3.87181336
_cell_length_c   15.61081109
_cell_angle_alpha   89.40300436
_cell_angle_beta   89.40300436
_cell_angle_gamma   89.66816861
_symmetry_Int_Tables_number   1
_chemical_formula_structural   CsSm2Ti2NbO10
_chemical_formula_sum   'Cs1 Sm2 Ti2 Nb1 O10'
_cell_volume   233.99152601
_cell_formula_units_Z   1
loop_
 _symmetry_equiv_pos_site_id
 _symmetry_equiv_pos_as_xyz
  1  'x, y, z'
loop_
 _atom_site_type_symbol
 _atom_site_label
 _atom_site_symmetry_multiplicity
 _atom_site_fract_x
 _atom_site_fract_y
 _atom_site_fract_z
 _atom_site_occupancy
  Cs  Cs0  1  0.50013000  0.50013000  0.51084500  1
  Sm  Sm1  1  0.48187000  0.48187000  0.84350700  1
  Sm  Sm2  1  0.47112200  0.47112200  0.12778600  1
  Ti  Ti3  1  0.01368800  0.01368800  0.99842300  1
  Ti  Ti4  1  0.99872700  0.99872700  0.71730700  1
  Nb  Nb5  1  0.99861400  0.99861400  0.27871500  1
  O  O6  1  0.50058100  0.99656100  0.75355800  1
  O  O7  1  0.99656100  0.50058100  0.75355800  1
  O  O8  1  0.50642700  0.01244300  0.24521500  1
  O  O9  1  0.01244300  0.50642700  0.24521500  1
  O  O10  1  0.02203300  0.02203300  0.87839100  1
  O  O11  1  0.03188800  0.03188800  0.12752900  1
  O  O12  1  0.00214800  0.00214800  0.60845500  1
  O  O13  1  0.99629700  0.99629700  0.39356000  1
  O  O14  1  0.53132100  0.06015200  0.00896800  1
  O  O15  1  0.06015200  0.53132100  0.00896800  1
