# generated using pymatgen
data_CsMn2(PO3)6
_symmetry_space_group_name_H-M   'P 1'
_cell_length_a   6.39317706
_cell_length_b   8.67009493
_cell_length_c   8.67009493
_cell_angle_alpha   104.04043205
_cell_angle_beta   104.23634629
_cell_angle_gamma   104.23634629
_symmetry_Int_Tables_number   1
_chemical_formula_structural   CsMn2(PO3)6
_chemical_formula_sum   'Cs1 Mn2 P6 O18'
_cell_volume   427.37515160
_cell_formula_units_Z   1
loop_
 _symmetry_equiv_pos_site_id
 _symmetry_equiv_pos_as_xyz
  1  'x, y, z'
loop_
 _atom_site_type_symbol
 _atom_site_label
 _atom_site_symmetry_multiplicity
 _atom_site_fract_x
 _atom_site_fract_y
 _atom_site_fract_z
 _atom_site_occupancy
  Cs  Cs0  1  0.53462500  0.94521700  0.94521700  1
  Mn  Mn1  1  0.00240100  0.77535200  0.22558700  1
  Mn  Mn2  1  0.00240100  0.22558700  0.77535200  1
  P  P3  1  0.09917600  0.40642700  0.18539400  1
  P  P4  1  0.09917600  0.18539400  0.40642700  1
  P  P5  1  0.89994800  0.59339900  0.81405100  1
  P  P6  1  0.89994800  0.81405100  0.59339900  1
  P  P7  1  0.49957700  0.71396900  0.28515800  1
  P  P8  1  0.49957700  0.28515800  0.71396900  1
  O  O9  1  0.10154600  0.34920400  0.34920400  1
  O  O10  1  0.89820600  0.64984000  0.64984000  1
  O  O11  1  0.36592800  0.51792300  0.23721400  1
  O  O12  1  0.36592800  0.23721400  0.51792300  1
  O  O13  1  0.63345300  0.48156100  0.76233300  1
  O  O14  1  0.63345300  0.76233300  0.48156100  1
  O  O15  1  0.95205000  0.51712700  0.17900200  1
  O  O16  1  0.95205000  0.17900200  0.51712700  1
  O  O17  1  0.05054900  0.48556600  0.82179800  1
  O  O18  1  0.05054900  0.82179800  0.48556600  1
  O  O19  1  0.04678800  0.25642500  0.03562200  1
  O  O20  1  0.04678800  0.03562200  0.25642500  1
  O  O21  1  0.94807700  0.74372800  0.96222300  1
  O  O22  1  0.94807700  0.96222300  0.74372800  1
  O  O23  1  0.66173500  0.73487400  0.18565400  1
  O  O24  1  0.66173500  0.18565400  0.73487400  1
  O  O25  1  0.33927900  0.26449500  0.81465800  1
  O  O26  1  0.33927900  0.81465800  0.26449500  1
