# generated using pymatgen
data_CsBa3Ga5(Se5Cl)2
_symmetry_space_group_name_H-M   'P 1'
_cell_length_a   8.85477600
_cell_length_b   8.93509054
_cell_length_c   10.14464579
_cell_angle_alpha   115.90721680
_cell_angle_beta   115.77149586
_cell_angle_gamma   90.31906569
_symmetry_Int_Tables_number   1
_chemical_formula_structural   CsBa3Ga5(Se5Cl)2
_chemical_formula_sum   'Cs1 Ba3 Ga5 Se10 Cl2'
_cell_volume   630.92871088
_cell_formula_units_Z   1
loop_
 _symmetry_equiv_pos_site_id
 _symmetry_equiv_pos_as_xyz
  1  'x, y, z'
loop_
 _atom_site_type_symbol
 _atom_site_label
 _atom_site_symmetry_multiplicity
 _atom_site_fract_x
 _atom_site_fract_y
 _atom_site_fract_z
 _atom_site_occupancy
  Cs  Cs0  1  0.25847200  0.64591600  0.77401000  1
  Ba  Ba1  1  0.51941800  0.12119400  0.76990400  1
  Ba  Ba2  1  0.87773600  0.75125900  0.23003100  1
  Ba  Ba3  1  0.35568800  0.47720900  0.23056800  1
  Ga  Ga4  1  0.85727500  0.26498600  0.33364200  1
  Ga  Ga5  1  0.47393000  0.06984700  0.32922100  1
  Ga  Ga6  1  0.92845300  0.14670600  0.67169800  1
  Ga  Ga7  1  0.74039500  0.52810000  0.66983900  1
  Ga  Ga8  1  0.00406300  0.00077900  0.00095300  1
  Se  Se9  1  0.95024200  0.28053600  0.14527800  1
  Se  Se10  1  0.19099600  0.87168800  0.15495000  1
  Se  Se11  1  0.13945100  0.06250700  0.85917600  1
  Se  Se12  1  0.72089000  0.80640600  0.85492800  1
  Se  Se13  1  0.57432400  0.06917600  0.14276200  1
  Se  Se14  1  0.91932700  0.42735400  0.85804400  1
  Se  Se15  1  0.81147600  0.54831400  0.47051700  1
  Se  Se16  1  0.65070900  0.93204600  0.48288900  1
  Se  Se17  1  0.06072600  0.15957600  0.51015400  1
  Se  Se18  1  0.44959600  0.34404400  0.51587800  1
  Cl  Cl19  1  0.51805200  0.48671400  0.01529600  1
  Cl  Cl20  1  0.24878300  0.75564600  0.48026100  1
