# generated using pymatgen
data_NbAlO4
_symmetry_space_group_name_H-M   'P 1'
_cell_length_a   3.82182841
_cell_length_b   6.40980728
_cell_length_c   39.29604972
_cell_angle_alpha   106.44991053
_cell_angle_beta   89.68731403
_cell_angle_gamma   107.20135888
_symmetry_Int_Tables_number   1
_chemical_formula_structural   NbAlO4
_chemical_formula_sum   'Nb12 Al12 O48'
_cell_volume   878.71833423
_cell_formula_units_Z   12
loop_
 _symmetry_equiv_pos_site_id
 _symmetry_equiv_pos_as_xyz
  1  'x, y, z'
loop_
 _atom_site_type_symbol
 _atom_site_label
 _atom_site_symmetry_multiplicity
 _atom_site_fract_x
 _atom_site_fract_y
 _atom_site_fract_z
 _atom_site_occupancy
  Nb  Nb0  1  0.10304200  0.20985700  0.28905900  1
  Nb  Nb1  1  0.09931600  0.20831400  0.45630700  1
  Nb  Nb2  1  0.09927900  0.20816200  0.62292300  1
  Nb  Nb3  1  0.09919600  0.20827100  0.78960200  1
  Nb  Nb4  1  0.09857300  0.20823300  0.95573000  1
  Nb  Nb5  1  0.19474400  0.39241200  0.21187100  1
  Nb  Nb6  1  0.80525600  0.60758800  0.12146300  1
  Nb  Nb7  1  0.90142700  0.79176700  0.37760400  1
  Nb  Nb8  1  0.90072100  0.79183800  0.71041000  1
  Nb  Nb9  1  0.89695800  0.79014300  0.04427400  1
  Nb  Nb10  1  0.90080400  0.79172900  0.54373100  1
  Nb  Nb11  1  0.90068400  0.79168600  0.87702700  1
  Al  Al12  1  0.09692900  0.19192000  0.11433800  1
  Al  Al13  1  0.20580300  0.40284100  0.05239900  1
  Al  Al14  1  0.20662100  0.40436000  0.38691700  1
  Al  Al15  1  0.20736100  0.40694800  0.55403700  1
  Al  Al16  1  0.20754900  0.40768400  0.88738600  1
  Al  Al17  1  0.20721000  0.40688700  0.72067300  1
  Al  Al18  1  0.79263900  0.59305200  0.77929600  1
  Al  Al19  1  0.79279000  0.59311300  0.61266100  1
  Al  Al20  1  0.79245100  0.59231600  0.44594700  1
  Al  Al21  1  0.79419700  0.59715900  0.28093400  1
  Al  Al22  1  0.79337900  0.59564000  0.94641600  1
  Al  Al23  1  0.90307100  0.80808000  0.21899500  1
  O  O24  1  0.06486200  0.12066300  0.06230400  1
  O  O25  1  0.05988300  0.11794600  0.22714700  1
  O  O26  1  0.06509100  0.11557700  0.56000800  1
  O  O27  1  0.06514200  0.11522000  0.39357100  1
  O  O28  1  0.06498300  0.11563100  0.72668300  1
  O  O29  1  0.06514300  0.11627000  0.89334000  1
  O  O30  1  0.13799800  0.27933000  0.00396500  1
  O  O31  1  0.13838800  0.27808700  0.16374900  1
  O  O32  1  0.14163400  0.28486600  0.50471700  1
  O  O33  1  0.14103500  0.27863100  0.33760200  1
  O  O34  1  0.14153000  0.28471800  0.67134200  1
  O  O35  1  0.14165200  0.28517200  0.83802100  1
  O  O36  1  0.26167100  0.51993900  0.10702100  1
  O  O37  1  0.26193200  0.52904500  0.27606700  1
  O  O38  1  0.26012400  0.52384400  0.44005400  1
  O  O39  1  0.26033700  0.52466600  0.60672600  1
  O  O40  1  0.26021400  0.52470200  0.77338800  1
  O  O41  1  0.26050100  0.52637000  0.94015700  1
  O  O42  1  0.35973500  0.71583900  0.04960500  1
  O  O43  1  0.36097800  0.71412800  0.38266100  1
  O  O44  1  0.36633200  0.73527500  0.21784700  1
  O  O45  1  0.36159600  0.71655100  0.54936200  1
  O  O46  1  0.36167400  0.71709200  0.88264200  1
  O  O47  1  0.36146300  0.71656700  0.71602700  1
  O  O48  1  0.63832600  0.28290800  0.45069100  1
  O  O49  1  0.63366800  0.26472500  0.11548700  1
  O  O50  1  0.63840400  0.28344900  0.78397100  1
  O  O51  1  0.64026500  0.28416000  0.28372800  1
  O  O52  1  0.63853700  0.28343300  0.61730700  1
  O  O53  1  0.63902200  0.28587200  0.95067200  1
  O  O54  1  0.73806800  0.47095400  0.05726700  1
  O  O55  1  0.73949900  0.47363000  0.39317600  1
  O  O56  1  0.73832900  0.48006100  0.22631200  1
  O  O57  1  0.73966300  0.47533400  0.72660700  1
  O  O58  1  0.73978600  0.47529800  0.55994600  1
  O  O59  1  0.73987600  0.47615600  0.89327900  1
  O  O60  1  0.86200200  0.72067000  0.32936900  1
  O  O61  1  0.86161200  0.72191300  0.16958400  1
  O  O62  1  0.85836600  0.71513400  0.82861700  1
  O  O63  1  0.85847000  0.71528200  0.66199100  1
  O  O64  1  0.85834800  0.71482800  0.49531200  1
  O  O65  1  0.85896500  0.72136900  0.99573100  1
  O  O66  1  0.93485700  0.88373000  0.43999300  1
  O  O67  1  0.94011700  0.88205400  0.10618600  1
  O  O68  1  0.93490900  0.88442300  0.77332600  1
  O  O69  1  0.93513800  0.87933700  0.27103000  1
  O  O70  1  0.93501700  0.88436900  0.60665000  1
  O  O71  1  0.93485800  0.88478000  0.93976200  1
