# generated using pymatgen
data_K3Zr4Si12HO44
_symmetry_space_group_name_H-M   'P 1'
_cell_length_a   7.41540400
_cell_length_b   10.37634588
_cell_length_c   13.67456442
_cell_angle_alpha   90.05295696
_cell_angle_beta   92.69390024
_cell_angle_gamma   90.14423427
_symmetry_Int_Tables_number   1
_chemical_formula_structural   K3Zr4Si12HO44
_chemical_formula_sum   'K3 Zr4 Si12 H1 O44'
_cell_volume   1051.01988873
_cell_formula_units_Z   1
loop_
 _symmetry_equiv_pos_site_id
 _symmetry_equiv_pos_as_xyz
  1  'x, y, z'
loop_
 _atom_site_type_symbol
 _atom_site_label
 _atom_site_symmetry_multiplicity
 _atom_site_fract_x
 _atom_site_fract_y
 _atom_site_fract_z
 _atom_site_occupancy
  K  K0  1  0.72339100  0.30563400  0.11271700  1
  K  K1  1  0.72336100  0.19554800  0.61174700  1
  K  K2  1  0.26564800  0.69387300  0.89164800  1
  Zr  Zr3  1  0.70000900  0.77866700  0.29839000  1
  Zr  Zr4  1  0.26057800  0.28985200  0.21703900  1
  Zr  Zr5  1  0.24900200  0.20400500  0.70114800  1
  Zr  Zr6  1  0.74902300  0.70520200  0.80304700  1
  Si  Si7  1  0.29421800  0.20389300  0.44784100  1
  Si  Si8  1  0.72015000  0.69505300  0.05260800  1
  Si  Si9  1  0.71420900  0.78047400  0.55132400  1
  Si  Si10  1  0.27890000  0.28567200  0.94694200  1
  Si  Si11  1  0.40321700  0.59669300  0.15589600  1
  Si  Si12  1  0.58992800  0.10116500  0.33213200  1
  Si  Si13  1  0.57907100  0.39397000  0.83573300  1
  Si  Si14  1  0.42283800  0.89289800  0.67163200  1
  Si  Si15  1  0.00121000  0.07377400  0.33114300  1
  Si  Si16  1  0.00532600  0.56678300  0.16540900  1
  Si  Si17  1  0.01515800  0.91502400  0.67104600  1
  Si  Si18  1  0.98530100  0.41850600  0.82699000  1
  H  H19  1  0.06813500  0.86157700  0.30720700  1
  O  O20  1  0.57476200  0.94743300  0.31043500  1
  O  O21  1  0.42083400  0.44227200  0.16807600  1
  O  O22  1  0.43373900  0.04776300  0.68877600  1
  O  O23  1  0.56793000  0.54997700  0.82447800  1
  O  O24  1  0.33289300  0.05495300  0.97893900  1
  O  O25  1  0.57815100  0.51624000  0.59267900  1
  O  O26  1  0.76923700  0.06276900  0.01790100  1
  O  O27  1  0.33925000  0.57747200  0.48092800  1
  O  O28  1  0.96194800  0.91371800  0.31886400  1
  O  O29  1  0.04038000  0.41904200  0.19641500  1
  O  O30  1  0.04054300  0.07012000  0.67843700  1
  O  O31  1  0.95799700  0.57276600  0.81387200  1
  O  O32  1  0.80530200  0.13550000  0.35381200  1
  O  O33  1  0.19078400  0.63809600  0.13150100  1
  O  O34  1  0.21179800  0.84507400  0.65569600  1
  O  O35  1  0.79171200  0.34937100  0.85227400  1
  O  O36  1  0.13875900  0.09075900  0.42745100  1
  O  O37  1  0.85277200  0.56900800  0.07272000  1
  O  O38  1  0.88210500  0.88144900  0.57372900  1
  O  O39  1  0.12805900  0.39915400  0.92355200  1
  O  O40  1  0.05094300  0.00195800  0.04048700  1
  O  O41  1  0.05474700  0.52135700  0.46197900  1
  O  O42  1  0.91286200  0.01787900  0.98103800  1
  O  O43  1  0.19375500  0.53262800  0.51932500  1
  O  O44  1  0.71920700  0.72609500  0.44147900  1
  O  O45  1  0.26049800  0.22971600  0.05786300  1
  O  O46  1  0.28325200  0.25377100  0.55938000  1
  O  O47  1  0.74948200  0.75732100  0.94693300  1
  O  O48  1  0.48957200  0.67198200  0.25149700  1
  O  O49  1  0.50157300  0.18489500  0.24193900  1
  O  O50  1  0.48271500  0.31951700  0.74213500  1
  O  O51  1  0.51448800  0.81501900  0.76486600  1
  O  O52  1  0.49602600  0.13847800  0.43581700  1
  O  O53  1  0.50784100  0.64921900  0.05836200  1
  O  O54  1  0.52439700  0.85554400  0.57063500  1
  O  O55  1  0.48238900  0.34792500  0.93735100  1
  O  O56  1  0.77297600  0.79692300  0.14394900  1
  O  O57  1  0.26594500  0.31657900  0.36586700  1
  O  O58  1  0.24290400  0.17260400  0.86326100  1
  O  O59  1  0.73373100  0.66443400  0.63675400  1
  O  O60  1  0.91780400  0.65414300  0.25340900  1
  O  O61  1  0.08350400  0.13584000  0.23494200  1
  O  O62  1  0.06486900  0.34611400  0.73285000  1
  O  O63  1  0.92689600  0.84886000  0.76570600  1
