# generated using pymatgen
data_Co4CuNiS8
_symmetry_space_group_name_H-M   'P 1'
_cell_length_a   6.64376460
_cell_length_b   6.64376460
_cell_length_c   6.64376460
_cell_angle_alpha   60.00000000
_cell_angle_beta   60.00000000
_cell_angle_gamma   60.00000000
_symmetry_Int_Tables_number   1
_chemical_formula_structural   Co4CuNiS8
_chemical_formula_sum   'Co4 Cu1 Ni1 S8'
_cell_volume   207.36130175
_cell_formula_units_Z   1
loop_
 _symmetry_equiv_pos_site_id
 _symmetry_equiv_pos_as_xyz
  1  'x, y, z'
loop_
 _atom_site_type_symbol
 _atom_site_label
 _atom_site_symmetry_multiplicity
 _atom_site_fract_x
 _atom_site_fract_y
 _atom_site_fract_z
 _atom_site_occupancy
  Co  Co0  1  0.62574300  0.12475200  0.12475200  1
  Co  Co1  1  0.12475200  0.62574300  0.12475200  1
  Co  Co2  1  0.12475200  0.12475200  0.62574300  1
  Co  Co3  1  0.12475200  0.12475200  0.12475200  1
  Cu  Cu4  1  0.75000000  0.75000000  0.75000000  1
  Ni  Ni5  1  0.50000000  0.50000000  0.50000000  1
  S  S6  1  0.33719200  0.88760300  0.88760300  1
  S  S7  1  0.88760300  0.33719200  0.88760300  1
  S  S8  1  0.88760300  0.88760300  0.33719200  1
  S  S9  1  0.88760300  0.88760300  0.88760300  1
  S  S10  1  0.90372000  0.36542700  0.36542700  1
  S  S11  1  0.36542700  0.90372000  0.36542700  1
  S  S12  1  0.36542700  0.36542700  0.90372000  1
  S  S13  1  0.36542700  0.36542700  0.36542700  1
