# generated using pymatgen
data_Nb11S12
_symmetry_space_group_name_H-M   'P 1'
_cell_length_a   5.73368375
_cell_length_b   5.73368375
_cell_length_c   35.26682003
_cell_angle_alpha   86.50477430
_cell_angle_beta   86.50477430
_cell_angle_gamma   56.82981543
_symmetry_Int_Tables_number   1
_chemical_formula_structural   Nb11S12
_chemical_formula_sum   'Nb22 S24'
_cell_volume   968.14158382
_cell_formula_units_Z   2
loop_
 _symmetry_equiv_pos_site_id
 _symmetry_equiv_pos_as_xyz
  1  'x, y, z'
loop_
 _atom_site_type_symbol
 _atom_site_label
 _atom_site_symmetry_multiplicity
 _atom_site_fract_x
 _atom_site_fract_y
 _atom_site_fract_z
 _atom_site_occupancy
  Nb  Nb0  1  0.83980500  0.33871500  0.99963500  1
  Nb  Nb1  1  0.31365500  0.40606600  0.68533800  1
  Nb  Nb2  1  0.16019500  0.66128500  0.00036500  1
  Nb  Nb3  1  0.44045700  0.55954300  0.75000000  1
  Nb  Nb4  1  0.40606600  0.31365500  0.18533800  1
  Nb  Nb5  1  0.01652200  0.92773200  0.31308100  1
  Nb  Nb6  1  0.55954300  0.44045700  0.25000000  1
  Nb  Nb7  1  0.59393400  0.68634500  0.81466200  1
  Nb  Nb8  1  0.66128500  0.16019500  0.50036500  1
  Nb  Nb9  1  0.33871500  0.83980500  0.49963500  1
  Nb  Nb10  1  0.77558800  0.88789000  0.74946100  1
  Nb  Nb11  1  0.98347800  0.07226800  0.68691900  1
  Nb  Nb12  1  0.68634500  0.59393400  0.31466200  1
  Nb  Nb13  1  0.88789000  0.77558800  0.24946100  1
  Nb  Nb14  1  0.07226800  0.98347800  0.18691900  1
  Nb  Nb15  1  0.11211000  0.22441200  0.75053900  1
  Nb  Nb16  1  0.64802400  0.73714800  0.68542100  1
  Nb  Nb17  1  0.26285200  0.35197600  0.81457900  1
  Nb  Nb18  1  0.22441200  0.11211000  0.25053900  1
  Nb  Nb19  1  0.73714800  0.64802400  0.18542100  1
  Nb  Nb20  1  0.35197600  0.26285200  0.31457900  1
  Nb  Nb21  1  0.92773200  0.01652200  0.81308100  1
  S  S22  1  0.57974600  0.34539500  0.85784900  1
  S  S23  1  0.02549300  0.83177100  0.45675500  1
  S  S24  1  0.31715600  0.50611300  0.54345500  1
  S  S25  1  0.42025400  0.65460500  0.14215100  1
  S  S26  1  0.98152700  0.76089300  0.64118900  1
  S  S27  1  0.77508700  0.70442000  0.04068100  1
  S  S28  1  0.49388700  0.68284400  0.95654500  1
  S  S29  1  0.65460500  0.42025400  0.64215100  1
  S  S30  1  0.91074800  0.68054200  0.85772800  1
  S  S31  1  0.70442000  0.77508700  0.54068100  1
  S  S32  1  0.68284400  0.49388700  0.45654500  1
  S  S33  1  0.23910700  0.01847300  0.85881100  1
  S  S34  1  0.68054200  0.91074800  0.35772800  1
  S  S35  1  0.08925200  0.31945800  0.14227200  1
  S  S36  1  0.16822900  0.97450700  0.04324500  1
  S  S37  1  0.01847300  0.23910700  0.35881100  1
  S  S38  1  0.22491300  0.29558000  0.95931900  1
  S  S39  1  0.97450700  0.16822900  0.54324500  1
  S  S40  1  0.31945800  0.08925200  0.64227200  1
  S  S41  1  0.83177100  0.02549300  0.95675500  1
  S  S42  1  0.29558000  0.22491300  0.45931900  1
  S  S43  1  0.50611300  0.31715600  0.04345500  1
  S  S44  1  0.76089300  0.98152700  0.14118900  1
  S  S45  1  0.34539500  0.57974600  0.35784900  1
