# generated using pymatgen
data_K8Sn8Se20O9
_symmetry_space_group_name_H-M   'P 1'
_cell_length_a   11.21085708
_cell_length_b   11.21085708
_cell_length_c   11.21085751
_cell_angle_alpha   85.94202816
_cell_angle_beta   85.94202816
_cell_angle_gamma   85.94202479
_symmetry_Int_Tables_number   1
_chemical_formula_structural   K8Sn8Se20O9
_chemical_formula_sum   'K8 Sn8 Se20 O9'
_cell_volume   1398.89661703
_cell_formula_units_Z   1
loop_
 _symmetry_equiv_pos_site_id
 _symmetry_equiv_pos_as_xyz
  1  'x, y, z'
loop_
 _atom_site_type_symbol
 _atom_site_label
 _atom_site_symmetry_multiplicity
 _atom_site_fract_x
 _atom_site_fract_y
 _atom_site_fract_z
 _atom_site_occupancy
  K  K0  1  0.10363100  0.10363100  0.10363100  1
  K  K1  1  0.91589500  0.91589500  0.91589500  1
  K  K2  1  0.62108100  0.20716500  0.52049200  1
  K  K3  1  0.52049200  0.62108100  0.20716500  1
  K  K4  1  0.20716500  0.52049200  0.62108100  1
  K  K5  1  0.39106500  0.80268200  0.48721500  1
  K  K6  1  0.48721500  0.39106500  0.80268200  1
  K  K7  1  0.80268200  0.48721500  0.39106500  1
  Sn  Sn8  1  0.08647200  0.11874900  0.53359200  1
  Sn  Sn9  1  0.53359200  0.08647200  0.11874900  1
  Sn  Sn10  1  0.11874900  0.53359200  0.08647200  1
  Sn  Sn11  1  0.89883200  0.88231200  0.46078200  1
  Sn  Sn12  1  0.46078200  0.89883200  0.88231200  1
  Sn  Sn13  1  0.88231200  0.46078200  0.89883200  1
  Sn  Sn14  1  0.30995300  0.30995300  0.30995300  1
  Sn  Sn15  1  0.68685300  0.68685300  0.68685300  1
  Se  Se16  1  0.08281000  0.31532100  0.38582300  1
  Se  Se17  1  0.38582300  0.08281000  0.31532100  1
  Se  Se18  1  0.31532100  0.38582300  0.08281000  1
  Se  Se19  1  0.91216400  0.68599600  0.60392900  1
  Se  Se20  1  0.60392900  0.91216400  0.68599600  1
  Se  Se21  1  0.68599600  0.60392900  0.91216400  1
  Se  Se22  1  0.11911400  0.93725100  0.39256100  1
  Se  Se23  1  0.39256100  0.11911400  0.93725100  1
  Se  Se24  1  0.93725100  0.39256100  0.11911400  1
  Se  Se25  1  0.87083500  0.05804500  0.60843400  1
  Se  Se26  1  0.60843400  0.87083500  0.05804500  1
  Se  Se27  1  0.05804500  0.60843400  0.87083500  1
  Se  Se28  1  0.20671200  0.15723100  0.75026500  1
  Se  Se29  1  0.75026500  0.20671200  0.15723100  1
  Se  Se30  1  0.15723100  0.75026500  0.20671200  1
  Se  Se31  1  0.77471300  0.83840000  0.27618400  1
  Se  Se32  1  0.27618400  0.77471300  0.83840000  1
  Se  Se33  1  0.83840000  0.27618400  0.77471300  1
  Se  Se34  1  0.42858400  0.42858400  0.42858400  1
  Se  Se35  1  0.56838800  0.56838800  0.56838800  1
  O  O36  1  0.30904800  0.71891800  0.69774600  1
  O  O37  1  0.69774600  0.30904800  0.71891800  1
  O  O38  1  0.71891800  0.69774600  0.30904800  1
  O  O39  1  0.71302100  0.24679000  0.29815100  1
  O  O40  1  0.29815100  0.71302100  0.24679000  1
  O  O41  1  0.24679000  0.29815100  0.71302100  1
  O  O42  1  0.84757900  0.08421900  0.15609700  1
  O  O43  1  0.15609700  0.84757900  0.08421900  1
  O  O44  1  0.08421900  0.15609700  0.84757900  1
