# generated using pymatgen
data_Nb16Bi47O111
_symmetry_space_group_name_H-M   'P 1'
_cell_length_a   13.53711811
_cell_length_b   13.53711882
_cell_length_c   17.35650685
_cell_angle_alpha   110.36891823
_cell_angle_beta   110.36891807
_cell_angle_gamma   91.20053197
_symmetry_Int_Tables_number   1
_chemical_formula_structural   Nb16Bi47O111
_chemical_formula_sum   'Nb16 Bi47 O111'
_cell_volume   2758.53181652
_cell_formula_units_Z   1
loop_
 _symmetry_equiv_pos_site_id
 _symmetry_equiv_pos_as_xyz
  1  'x, y, z'
loop_
 _atom_site_type_symbol
 _atom_site_label
 _atom_site_symmetry_multiplicity
 _atom_site_fract_x
 _atom_site_fract_y
 _atom_site_fract_z
 _atom_site_occupancy
  Nb  Nb0  1  0.62230151  0.29736550  0.58661208  1
  Nb  Nb1  1  0.20564440  0.87491403  0.72767771  1
  Nb  Nb2  1  0.46666714  0.78362263  0.88846709  1
  Nb  Nb3  1  0.59250002  0.56913672  0.16639465  1
  Nb  Nb4  1  0.88981943  0.58986321  0.11911716  1
  Nb  Nb5  1  0.89224984  0.80117144  0.67462725  1
  Nb  Nb6  1  0.19882856  0.10775016  0.32537275  1
  Nb  Nb7  1  0.12040320  0.50123639  0.27041369  1
  Nb  Nb8  1  0.12508597  0.79435560  0.27232229  1
  Nb  Nb9  1  0.21637737  0.53333286  0.11153291  1
  Nb  Nb10  1  0.73355046  0.04117303  0.47018313  1
  Nb  Nb11  1  0.70263450  0.37769849  0.41338792  1
  Nb  Nb12  1  0.95882697  0.26644954  0.52981687  1
  Nb  Nb13  1  0.43086328  0.40749998  0.83360535  1
  Nb  Nb14  1  0.41013679  0.11018057  0.88088284  1
  Nb  Nb15  1  0.49876361  0.87959680  0.72958631  1
  Bi  Bi16  1  0.50943077  0.10652950  0.32081004  1
  Bi  Bi17  1  0.97809654  0.58049980  0.55437272  1
  Bi  Bi18  1  0.97360196  0.95768230  0.56762426  1
  Bi  Bi19  1  0.76217293  0.39036332  0.84732699  1
  Bi  Bi20  1  0.06206383  0.70463274  0.43149504  1
  Bi  Bi21  1  0.68923132  0.00914212  0.99430877  1
  Bi  Bi22  1  0.36038228  0.33933500  0.03664844  1
  Bi  Bi23  1  0.42694640  0.48798360  0.30147874  1
  Bi  Bi24  1  0.53969484  0.79377786  0.31646542  1
  Bi  Bi25  1  0.74981648  0.77874633  0.84514064  1
  Bi  Bi26  1  0.78890505  0.04444359  0.81549338  1
  Bi  Bi27  1  0.87663785  0.90242846  0.12878103  1
  Bi  Bi28  1  0.95555641  0.21109495  0.18450662  1
  Bi  Bi29  1  0.74280233  0.66219008  0.40819503  1
  Bi  Bi30  1  0.32615043  0.03512548  0.05101603  1
  Bi  Bi31  1  0.11036442  0.38879328  0.42506069  1
  Bi  Bi32  1  0.04231770  0.02639804  0.43237574  1
  Bi  Bi33  1  0.66066500  0.63961772  0.96335156  1
  Bi  Bi34  1  0.64963937  0.35036063  0.00000000  1
  Bi  Bi35  1  0.03663497  0.96336503  0.00000000  1
  Bi  Bi36  1  0.19018473  0.17648743  0.71724897  1
  Bi  Bi37  1  0.20622214  0.46030516  0.68353558  1
  Bi  Bi38  1  0.84735900  0.48664200  0.26048414  1
  Bi  Bi39  1  0.82351257  0.80981527  0.28275103  1
  Bi  Bi40  1  0.40372037  0.59627963  0.00000000  1
  Bi  Bi41  1  0.33780992  0.25719767  0.59180497  1
  Bi  Bi42  1  0.27970241  0.64555547  0.58785985  1
  Bi  Bi43  1  0.29536726  0.93793617  0.56850496  1
  Bi  Bi44  1  0.15267307  0.77646007  0.84321093  1
  Bi  Bi45  1  0.09757154  0.12336215  0.87121897  1
  Bi  Bi46  1  0.22353993  0.84732693  0.15678907  1
  Bi  Bi47  1  0.22125367  0.25018352  0.15485936  1
  Bi  Bi48  1  0.54525785  0.90746824  0.11287552  1
  Bi  Bi49  1  0.60963668  0.23782707  0.15267301  1
  Bi  Bi50  1  0.37646785  0.36841805  0.43657038  1
  Bi  Bi51  1  0.41950020  0.02190346  0.44562728  1
  Bi  Bi52  1  0.76708760  0.11016013  0.28899211  1
  Bi  Bi53  1  0.51335800  0.15264100  0.73951586  1
  Bi  Bi54  1  0.51201640  0.57305360  0.69852126  1
  Bi  Bi55  1  0.88983987  0.23291240  0.71100789  1
  Bi  Bi56  1  0.89347050  0.49056923  0.67918996  1
  Bi  Bi57  1  0.09253176  0.45474215  0.88712448  1
  Bi  Bi58  1  0.96487452  0.67384957  0.94898397  1
  Bi  Bi59  1  0.99085788  0.31076868  0.00569123  1
  Bi  Bi60  1  0.35444453  0.72029759  0.41214015  1
  Bi  Bi61  1  0.63158195  0.62353215  0.56342962  1
  Bi  Bi62  1  0.61120672  0.88963558  0.57493931  1
  O  O63  1  0.38448888  0.53906620  0.84278419  1
  O  O64  1  0.53420188  0.41295149  0.12033008  1
  O  O65  1  0.69520502  0.53692193  0.27323415  1
  O  O66  1  0.55533375  0.86689247  0.84849029  1
  O  O67  1  0.49610251  0.03392849  0.81181028  1
  O  O68  1  0.46403673  0.22620717  0.53251440  1
  O  O69  1  0.46307807  0.30479498  0.72676585  1
  O  O70  1  0.66063835  0.22938362  0.32803870  1
  O  O71  1  0.58704851  0.46579812  0.87966992  1
  O  O72  1  0.77379283  0.53596327  0.46748560  1
  O  O73  1  0.56139750  0.67299576  0.84350280  1
  O  O74  1  0.49084798  0.23819668  0.86745632  1
  O  O75  1  0.45782575  0.72788026  0.67220134  1
  O  O76  1  0.47087638  0.93875732  0.62699275  1
  O  O77  1  0.88311545  0.95960261  0.42633874  1
  O  O78  1  0.80004641  0.37703019  0.33953771  1
  O  O79  1  0.62296981  0.19995359  0.66046229  1
  O  O80  1  0.58406963  0.42127386  0.64447903  1
  O  O81  1  0.58143191  0.57929644  0.05719482  1
  O  O82  1  0.88882552  0.38257838  0.51270231  1
  O  O83  1  0.65821186  0.34178814  0.50000000  1
  O  O84  1  0.61742162  0.11117448  0.48729769  1
  O  O85  1  0.63792691  0.89646910  0.72747446  1
  O  O86  1  0.81864003  0.71327076  0.13986897  1
  O  O87  1  0.76180332  0.50915202  0.13254368  1
  O  O88  1  0.06989817  0.21355132  0.78731790  1
  O  O89  1  0.97970234  0.55235799  0.82428847  1
  O  O90  1  0.15335081  0.92945974  0.93852554  1
  O  O91  1  0.14716771  0.26212745  0.99748019  1
  O  O92  1  0.15988960  0.63813717  0.96510985  1
  O  O93  1  0.77061638  0.33936165  0.67196130  1
  O  O94  1  0.06054882  0.11617349  0.24030645  1
  O  O95  1  0.74300592  0.78820065  0.59092644  1
  O  O96  1  0.81368208  0.03828409  0.58275841  1
  O  O97  1  0.13667069  0.51598799  0.56590679  1
  O  O98  1  0.09002919  0.90997081  0.50000000  1
  O  O99  1  0.02382832  0.68364367  0.15521546  1
  O  O100  1  0.96607151  0.50389749  0.18818972  1
  O  O101  1  0.96171591  0.18631792  0.41724159  1
  O  O102  1  0.86449882  0.68528584  0.69933673  1
  O  O103  1  0.88382651  0.93945118  0.75969355  1
  O  O104  1  0.01325832  0.85815358  0.30628128  1
  O  O105  1  0.06124268  0.52912362  0.37300725  1
  O  O106  1  0.82698427  0.17301573  0.50000000  1
  O  O107  1  0.01182696  0.20312132  0.08305208  1
  O  O108  1  0.07054026  0.84664919  0.06147446  1
  O  O109  1  0.07244971  0.48621902  0.01075469  1
  O  O110  1  0.15560167  0.94108065  0.25858027  1
  O  O111  1  0.10353090  0.36207309  0.27252554  1
  O  O112  1  0.11455495  0.67312839  0.31927760  1
  O  O113  1  0.24370035  0.07460860  0.43300510  1
  O  O114  1  0.26442979  0.47474732  0.46742900  1
  O  O115  1  0.26437349  0.73562651  0.50000000  1
  O  O116  1  0.05891935  0.84439833  0.74141973  1
  O  O117  1  0.97569892  0.34220867  0.67272152  1
  O  O118  1  0.04039739  0.11688455  0.57366126  1
  O  O119  1  0.33597856  0.11035204  0.66323031  1
  O  O120  1  0.33759542  0.43346696  0.64053753  1
  O  O121  1  0.25616349  0.65574030  0.21417063  1
  O  O122  1  0.13310753  0.44466625  0.15150971  1
  O  O123  1  0.31471416  0.13550118  0.30066327  1
  O  O124  1  0.21179935  0.25699408  0.40907356  1
  O  O125  1  0.26146145  0.84475975  0.37468798  1
  O  O126  1  0.27211974  0.54217425  0.32779866  1
  O  O127  1  0.11438317  0.31643937  0.57520944  1
  O  O128  1  0.19999007  0.06948232  0.10333094  1
  O  O129  1  0.21208487  0.66388813  0.06092119  1
  O  O130  1  0.32700424  0.43860250  0.15649720  1
  O  O131  1  0.15524025  0.73853855  0.62531202  1
  O  O132  1  0.14184642  0.98674168  0.69371872  1
  O  O133  1  0.47632796  0.52367204  0.50000000  1
  O  O134  1  0.48401201  0.86332931  0.43409321  1
  O  O135  1  0.27391341  0.33987761  0.74833733  1
  O  O136  1  0.34425970  0.74383651  0.78582937  1
  O  O137  1  0.31635633  0.97617168  0.84478454  1
  O  O138  1  0.35343903  0.21645341  0.10979433  1
  O  O139  1  0.36186283  0.84011040  0.03489015  1
  O  O140  1  0.27304825  0.47782693  0.01165963  1
  O  O141  1  0.33611187  0.78791513  0.93907881  1
  O  O142  1  0.28672924  0.18135997  0.86013103  1
  O  O143  1  0.35141609  0.34529537  0.29921986  1
  O  O144  1  0.44764201  0.02029766  0.17571153  1
  O  O145  1  0.46093380  0.61551112  0.15721581  1
  O  O146  1  0.56653304  0.66240458  0.35946247  1
  O  O147  1  0.32687161  0.88544505  0.68072240  1
  O  O148  1  0.52525268  0.73557021  0.53257100  1
  O  O149  1  0.65779133  0.02430108  0.32727848  1
  O  O150  1  0.57872614  0.41593037  0.35552097  1
  O  O151  1  0.42070356  0.41856809  0.94280518  1
  O  O152  1  0.51378098  0.92755029  0.98924531  1
  O  O153  1  0.47275637  0.15423433  0.00206429  1
  O  O154  1  0.52217307  0.72695175  0.98834037  1
  O  O155  1  0.71256334  0.21250034  0.74303273  1
  O  O156  1  0.65470463  0.64858391  0.70078014  1
  O  O157  1  0.75917917  0.30314269  0.93061370  1
  O  O158  1  0.78354659  0.64656097  0.89020567  1
  O  O159  1  0.79687868  0.98817304  0.91694792  1
  O  O160  1  0.64747055  0.07644566  0.15041671  1
  O  O161  1  0.66012239  0.72608659  0.25166267  1
  O  O162  1  0.68356063  0.88561683  0.42479056  1
  O  O163  1  0.92355534  0.35252945  0.84958329  1
  O  O164  1  0.69685731  0.24082083  0.06938630  1
  O  O165  1  0.73787255  0.85283229  0.00251981  1
  O  O166  1  0.94736821  0.15124268  0.88806323  1
  O  O167  1  0.93051768  0.80000993  0.89666906  1
  O  O168  1  0.84576567  0.52724363  0.99793571  1
  O  O169  1  0.78749966  0.28743666  0.25696727  1
  O  O170  1  0.78644868  0.93010183  0.21268210  1
  O  O171  1  0.88964796  0.66402144  0.33676969  1
  O  O172  1  0.92539140  0.75629965  0.56699490  1
  O  O173  1  0.84875732  0.05263179  0.11193677  1
