# generated using pymatgen
data_CrSbTeO6
_symmetry_space_group_name_H-M   'P 1'
_cell_length_a   6.79642259
_cell_length_b   6.79629884
_cell_length_c   10.80024545
_cell_angle_alpha   71.66195728
_cell_angle_beta   71.66230526
_cell_angle_gamma   89.99958867
_symmetry_Int_Tables_number   1
_chemical_formula_structural   CrSbTeO6
_chemical_formula_sum   'Cr4 Sb4 Te4 O24'
_cell_volume   446.76772520
_cell_formula_units_Z   4
loop_
 _symmetry_equiv_pos_site_id
 _symmetry_equiv_pos_as_xyz
  1  'x, y, z'
loop_
 _atom_site_type_symbol
 _atom_site_label
 _atom_site_symmetry_multiplicity
 _atom_site_fract_x
 _atom_site_fract_y
 _atom_site_fract_z
 _atom_site_occupancy
  Cr  Cr0  1  0.41624200  0.91623900  0.16752200  1
  Cr  Cr1  1  0.16623100  0.16621900  0.66754400  1
  Cr  Cr2  1  0.91622500  0.41623700  0.16754500  1
  Cr  Cr3  1  0.66624600  0.66623700  0.66751500  1
  Sb  Sb4  1  0.08338400  0.58339200  0.83325500  1
  Sb  Sb5  1  0.58338300  0.08339000  0.83325800  1
  Sb  Sb6  1  0.33337800  0.33337600  0.33325500  1
  Sb  Sb7  1  0.83337900  0.83337600  0.33325300  1
  Te  Te8  1  0.25049200  0.75049300  0.49900000  1
  Te  Te9  1  0.75048800  0.25048800  0.49900800  1
  Te  Te10  1  0.00051200  0.00051300  0.99897600  1
  Te  Te11  1  0.50051100  0.50051200  0.99897800  1
  O  O12  1  0.71346400  0.91165000  0.17669700  1
  O  O13  1  0.21349500  0.41165100  0.17669400  1
  O  O14  1  0.10983600  0.91165100  0.17669800  1
  O  O15  1  0.60980700  0.41165400  0.17669500  1
  O  O16  1  0.16165100  0.85984300  0.67669300  1
  O  O17  1  0.66165300  0.35980700  0.67669000  1
  O  O18  1  0.16165200  0.46346600  0.67669600  1
  O  O19  1  0.66165200  0.96350500  0.67669300  1
  O  O20  1  0.56864000  0.75070000  0.49860600  1
  O  O21  1  0.06864100  0.25068700  0.49863200  1
  O  O22  1  0.93275300  0.75069200  0.49860800  1
  O  O23  1  0.43272500  0.25067800  0.49863600  1
  O  O24  1  0.00069400  0.68274900  0.99860500  1
  O  O25  1  0.50068200  0.18272500  0.99862600  1
  O  O26  1  0.00069500  0.31863900  0.99860800  1
  O  O27  1  0.50068300  0.81864600  0.99862900  1
  O  O28  1  0.38721100  0.58759500  0.82480400  1
  O  O29  1  0.88724200  0.08760100  0.82479000  1
  O  O30  1  0.78798400  0.58759600  0.82480300  1
  O  O31  1  0.28796800  0.08760200  0.82479000  1
  O  O32  1  0.33760200  0.03796400  0.32479600  1
  O  O33  1  0.83760000  0.53798300  0.32480200  1
  O  O34  1  0.33760200  0.63723400  0.32479900  1
  O  O35  1  0.83760000  0.13721300  0.32480600  1
