# generated using pymatgen
data_Co5Sn(BO5)2
_symmetry_space_group_name_H-M   'P 1'
_cell_length_a   3.18324900
_cell_length_b   9.51803100
_cell_length_c   12.46535900
_cell_angle_alpha   90.00000000
_cell_angle_beta   90.00000000
_cell_angle_gamma   90.00000000
_symmetry_Int_Tables_number   1
_chemical_formula_structural   Co5Sn(BO5)2
_chemical_formula_sum   'Co10 Sn2 B4 O20'
_cell_volume   377.67872117
_cell_formula_units_Z   2
loop_
 _symmetry_equiv_pos_site_id
 _symmetry_equiv_pos_as_xyz
  1  'x, y, z'
loop_
 _atom_site_type_symbol
 _atom_site_label
 _atom_site_symmetry_multiplicity
 _atom_site_fract_x
 _atom_site_fract_y
 _atom_site_fract_z
 _atom_site_occupancy
  Co  Co0  1  0.00000000  0.73383100  0.49461100  1
  Co  Co1  1  0.00000000  0.26616900  0.99461100  1
  Co  Co2  1  0.50000000  0.26803300  0.21959700  1
  Co  Co3  1  0.50000000  0.26310900  0.78307100  1
  Co  Co4  1  0.50000000  0.73689100  0.28307100  1
  Co  Co5  1  0.50000000  0.73196700  0.71959700  1
  Co  Co6  1  0.50000000  0.26660400  0.49785000  1
  Co  Co7  1  0.50000000  0.73339600  0.99785000  1
  Co  Co8  1  0.00000000  0.48774800  0.38365500  1
  Co  Co9  1  0.00000000  0.51225200  0.88365500  1
  Sn  Sn10  1  0.00000000  0.00819600  0.61528800  1
  Sn  Sn11  1  0.00000000  0.99180400  0.11528800  1
  B  B12  1  0.00000000  0.52562800  0.13884000  1
  B  B13  1  0.00000000  0.98108700  0.86160600  1
  B  B14  1  0.00000000  0.01891300  0.36160600  1
  B  B15  1  0.00000000  0.47437200  0.63884000  1
  O  O16  1  0.50000000  0.35594500  0.35682700  1
  O  O17  1  0.50000000  0.14604800  0.64302500  1
  O  O18  1  0.50000000  0.85395200  0.14302500  1
  O  O19  1  0.50000000  0.64405500  0.85682700  1
  O  O20  1  0.00000000  0.37812500  0.13847900  1
  O  O21  1  0.00000000  0.12489200  0.85891300  1
  O  O22  1  0.00000000  0.87510800  0.35891300  1
  O  O23  1  0.00000000  0.62187500  0.63847900  1
  O  O24  1  0.00000000  0.59812100  0.23521500  1
  O  O25  1  0.00000000  0.90382100  0.76543100  1
  O  O26  1  0.00000000  0.09617900  0.26543100  1
  O  O27  1  0.00000000  0.40187900  0.73521500  1
  O  O28  1  0.00000000  0.39922500  0.54341500  1
  O  O29  1  0.00000000  0.09692600  0.45791800  1
  O  O30  1  0.00000000  0.90307400  0.95791800  1
  O  O31  1  0.00000000  0.60077500  0.04341500  1
  O  O32  1  0.50000000  0.64116200  0.42330300  1
  O  O33  1  0.50000000  0.86716600  0.58295600  1
  O  O34  1  0.50000000  0.13283400  0.08295600  1
  O  O35  1  0.50000000  0.35883800  0.92330300  1
