# generated using pymatgen
data_NaMnFe(PO4)2
_symmetry_space_group_name_H-M   'P 1'
_cell_length_a   9.99454400
_cell_length_b   10.08438004
_cell_length_c   12.76580749
_cell_angle_alpha   75.71690317
_cell_angle_beta   74.15578181
_cell_angle_gamma   81.55836368
_symmetry_Int_Tables_number   1
_chemical_formula_structural   NaMnFe(PO4)2
_chemical_formula_sum   'Na6 Mn6 Fe6 P12 O48'
_cell_volume   1195.14291553
_cell_formula_units_Z   6
loop_
 _symmetry_equiv_pos_site_id
 _symmetry_equiv_pos_as_xyz
  1  'x, y, z'
loop_
 _atom_site_type_symbol
 _atom_site_label
 _atom_site_symmetry_multiplicity
 _atom_site_fract_x
 _atom_site_fract_y
 _atom_site_fract_z
 _atom_site_occupancy
  Na  Na0  1  0.82676700  0.80422900  0.58766500  1
  Na  Na1  1  0.50000000  0.50000000  0.50000000  1
  Na  Na2  1  0.17323300  0.19577100  0.41233500  1
  Na  Na3  1  0.70302400  0.73012900  0.26233400  1
  Na  Na4  1  0.00000000  0.00000000  0.00000000  1
  Na  Na5  1  0.29697600  0.26987100  0.73766600  1
  Mn  Mn6  1  0.14241100  0.90923900  0.67419100  1
  Mn  Mn7  1  0.66179700  0.11818700  0.54259300  1
  Mn  Mn8  1  0.33820300  0.88181300  0.45740700  1
  Mn  Mn9  1  0.85758900  0.09076100  0.32580900  1
  Mn  Mn10  1  0.22427300  0.40245900  0.15668300  1
  Mn  Mn11  1  0.77572700  0.59754100  0.84331700  1
  Fe  Fe12  1  0.18783800  0.51483400  0.40167000  1
  Fe  Fe13  1  0.81216200  0.48516600  0.59833000  1
  Fe  Fe14  1  0.70427900  0.36668600  0.06273900  1
  Fe  Fe15  1  0.62563500  0.03457000  0.88431500  1
  Fe  Fe16  1  0.37436500  0.96543000  0.11568500  1
  Fe  Fe17  1  0.29572100  0.63331400  0.93726100  1
  P  P18  1  0.64312000  0.31893500  0.71966600  1
  P  P19  1  0.13662900  0.65025600  0.59997500  1
  P  P20  1  0.54532000  0.02938400  0.33086400  1
  P  P21  1  0.45468000  0.97061600  0.66913600  1
  P  P22  1  0.86337100  0.34974400  0.40002500  1
  P  P23  1  0.16254300  0.77772300  0.14069800  1
  P  P24  1  0.35688000  0.68106500  0.28033400  1
  P  P25  1  0.50617800  0.20316200  0.11180000  1
  P  P26  1  0.11096700  0.50155200  0.83185400  1
  P  P27  1  0.88903300  0.49844800  0.16814600  1
  P  P28  1  0.49382200  0.79683800  0.88820000  1
  P  P29  1  0.83745700  0.22227700  0.85930200  1
  O  O30  1  0.67308100  0.16725700  0.70389100  1
  O  O31  1  0.16764400  0.97189100  0.52435900  1
  O  O32  1  0.93231000  0.37698000  0.48593100  1
  O  O33  1  0.14586900  0.51358500  0.69320600  1
  O  O34  1  0.39320900  0.07137000  0.38974800  1
  O  O35  1  0.19663200  0.61839000  0.83445000  1
  O  O36  1  0.49674500  0.38122400  0.72435400  1
  O  O37  1  0.43913600  0.12698200  0.62542500  1
  O  O38  1  0.17570900  0.41257700  0.30473600  1
  O  O39  1  0.30745100  0.42835500  0.47471300  1
  O  O40  1  0.28707300  0.69538100  0.54407000  1
  O  O41  1  0.64668800  0.11548300  0.35069200  1
  O  O42  1  0.35331200  0.88451700  0.64930800  1
  O  O43  1  0.71292700  0.30461900  0.45593000  1
  O  O44  1  0.31620300  0.69464000  0.16198300  1
  O  O45  1  0.69254900  0.57164500  0.52528700  1
  O  O46  1  0.82429100  0.58742300  0.69526400  1
  O  O47  1  0.56086400  0.87301800  0.37457500  1
  O  O48  1  0.50325500  0.61877600  0.27564600  1
  O  O49  1  0.65755700  0.53186000  0.98435800  1
  O  O50  1  0.80336800  0.38161000  0.16555000  1
  O  O51  1  0.60679100  0.92863000  0.61025200  1
  O  O52  1  0.85413100  0.48641500  0.30679400  1
  O  O53  1  0.50306300  0.87633200  0.97802700  1
  O  O54  1  0.06769000  0.62302000  0.51406900  1
  O  O55  1  0.55873700  0.05596900  0.19917500  1
  O  O56  1  0.95562500  0.54352300  0.87485700  1
  O  O57  1  0.88500500  0.01270000  0.22027500  1
  O  O58  1  0.83235600  0.02810900  0.47564100  1
  O  O59  1  0.04931100  0.72595000  0.23905300  1
  O  O60  1  0.83897100  0.64195500  0.12257600  1
  O  O61  1  0.64609500  0.76860700  0.82121500  1
  O  O62  1  0.81437500  0.06666500  0.88561200  1
  O  O63  1  0.32691900  0.83274300  0.29610900  1
  O  O64  1  0.83534400  0.25258300  0.97326200  1
  O  O65  1  0.04648600  0.76097900  0.66248700  1
  O  O66  1  0.95351400  0.23902100  0.33751300  1
  O  O67  1  0.16465600  0.74741700  0.02673800  1
  O  O68  1  0.18562500  0.93333500  0.11438800  1
  O  O69  1  0.35390500  0.23139300  0.17878500  1
  O  O70  1  0.16102900  0.35804500  0.87742400  1
  O  O71  1  0.95068900  0.27405000  0.76094700  1
  O  O72  1  0.11499500  0.98730000  0.77972500  1
  O  O73  1  0.04437500  0.45647700  0.12514300  1
  O  O74  1  0.44126300  0.94403100  0.80082500  1
  O  O75  1  0.49693700  0.12366800  0.02197300  1
  O  O76  1  0.34244300  0.46814000  0.01564200  1
  O  O77  1  0.68379700  0.30536000  0.83801700  1
