# generated using pymatgen
data_Dy12Ge5S28
_symmetry_space_group_name_H-M   'P 1'
_cell_length_a   9.89188600
_cell_length_b   11.41799787
_cell_length_c   11.42425363
_cell_angle_alpha   97.05653323
_cell_angle_beta   115.65023277
_cell_angle_gamma   115.65954588
_symmetry_Int_Tables_number   1
_chemical_formula_structural   Dy12Ge5S28
_chemical_formula_sum   'Dy12 Ge5 S28'
_cell_volume   968.99637963
_cell_formula_units_Z   1
loop_
 _symmetry_equiv_pos_site_id
 _symmetry_equiv_pos_as_xyz
  1  'x, y, z'
loop_
 _atom_site_type_symbol
 _atom_site_label
 _atom_site_symmetry_multiplicity
 _atom_site_fract_x
 _atom_site_fract_y
 _atom_site_fract_z
 _atom_site_occupancy
  Dy  Dy0  1  0.06094700  0.93339300  0.29767800  1
  Dy  Dy1  1  0.58587900  0.46377600  0.80939500  1
  Dy  Dy2  1  0.92181300  0.69736600  0.57543700  1
  Dy  Dy3  1  0.41501600  0.17990400  0.05257300  1
  Dy  Dy4  1  0.40180900  0.74748000  0.52542600  1
  Dy  Dy5  1  0.87215000  0.23514400  0.99630700  1
  Dy  Dy6  1  0.91858200  0.03695400  0.69377000  1
  Dy  Dy7  1  0.43287900  0.56656900  0.20005600  1
  Dy  Dy8  1  0.08293100  0.31797500  0.44860600  1
  Dy  Dy9  1  0.58248300  0.80570500  0.92539100  1
  Dy  Dy10  1  0.63065300  0.26635200  0.49912600  1
  Dy  Dy11  1  0.09857000  0.75401500  0.97858200  1
  Ge  Ge12  1  0.41140000  0.08111200  0.74695700  1
  Ge  Ge13  1  0.91709900  0.58063700  0.24857500  1
  Ge  Ge14  1  0.66599700  0.99883400  0.33318300  1
  Ge  Ge15  1  0.16738100  0.50095800  0.83342300  1
  Ge  Ge16  1  0.23639400  0.23666900  0.23693400  1
  S  S17  1  0.22382000  0.88985900  0.55714700  1
  S  S18  1  0.72328600  0.39002000  0.05637300  1
  S  S19  1  0.97587100  0.30319700  0.64770700  1
  S  S20  1  0.47489300  0.81386500  0.13641200  1
  S  S21  1  0.31693600  0.22929500  0.46630400  1
  S  S22  1  0.83121600  0.73787700  0.99987500  1
  S  S23  1  0.08269400  0.91427000  0.82210500  1
  S  S24  1  0.54098800  0.39255400  0.30384500  1
  S  S25  1  0.69271800  0.95187900  0.78308900  1
  S  S26  1  0.18499200  0.42382100  0.27376300  1
  S  S27  1  0.65028300  0.74397400  0.48446600  1
  S  S28  1  0.16078000  0.24483400  0.00220000  1
  S  S29  1  0.92274600  0.08135100  0.16509800  1
  S  S30  1  0.40213600  0.56740800  0.66090900  1
  S  S31  1  0.28643700  0.04330400  0.20251400  1
  S  S32  1  0.79068500  0.53175000  0.69696800  1
  S  S33  1  0.64656700  0.24354600  0.75014400  1
  S  S34  1  0.16236500  0.73570500  0.25828400  1
  S  S35  1  0.30464800  0.20929400  0.78447500  1
  S  S36  1  0.80302300  0.69892200  0.29491600  1
  S  S37  1  0.53393300  0.04574100  0.94663400  1
  S  S38  1  0.02963300  0.54671200  0.44817800  1
  S  S39  1  0.58823400  0.00691300  0.48928000  1
  S  S40  1  0.09038400  0.50591700  0.99129800  1
  S  S41  1  0.94177500  0.04086400  0.45531800  1
  S  S42  1  0.44018900  0.53925200  0.95820800  1
  S  S43  1  0.71414100  0.19901400  0.29789500  1
  S  S44  1  0.21564200  0.69901600  0.79817600  1
