# generated using pymatgen
data_Cs2Hf(WO4)3
_symmetry_space_group_name_H-M   'P 1'
_cell_length_a   7.43619068
_cell_length_b   7.43619068
_cell_length_c   7.52080172
_cell_angle_alpha   60.40598660
_cell_angle_beta   60.40598660
_cell_angle_gamma   59.99072357
_symmetry_Int_Tables_number   1
_chemical_formula_structural   Cs2Hf(WO4)3
_chemical_formula_sum   'Cs2 Hf1 W3 O12'
_cell_volume   295.84028615
_cell_formula_units_Z   1
loop_
 _symmetry_equiv_pos_site_id
 _symmetry_equiv_pos_as_xyz
  1  'x, y, z'
loop_
 _atom_site_type_symbol
 _atom_site_label
 _atom_site_symmetry_multiplicity
 _atom_site_fract_x
 _atom_site_fract_y
 _atom_site_fract_z
 _atom_site_occupancy
  Cs  Cs0  1  0.89052800  0.83478500  0.88915400  1
  Cs  Cs1  1  0.16521500  0.10947200  0.11084600  1
  Hf  Hf2  1  0.50249400  0.49750600  0.00000000  1
  W  W3  1  0.50281500  0.99690000  0.49966400  1
  W  W4  1  0.00310000  0.49718500  0.50033600  1
  W  W5  1  0.50203200  0.49796800  0.50000000  1
  O  O6  1  0.19231900  0.19094600  0.55529500  1
  O  O7  1  0.56115900  0.56422100  0.20006300  1
  O  O8  1  0.56133700  0.17327600  0.20032600  1
  O  O9  1  0.19260200  0.56110200  0.55456900  1
  O  O10  1  0.17565300  0.56175000  0.20021600  1
  O  O11  1  0.56117100  0.19113000  0.55606900  1
  O  O12  1  0.80905400  0.80768100  0.44470500  1
  O  O13  1  0.43577900  0.43884100  0.79993700  1
  O  O14  1  0.43825000  0.82434700  0.79978400  1
  O  O15  1  0.80887000  0.43882900  0.44393100  1
  O  O16  1  0.82672400  0.43866300  0.79967400  1
  O  O17  1  0.43889800  0.80739800  0.44543100  1
