# generated using pymatgen
data_Cr4Ni
_symmetry_space_group_name_H-M   'P 1'
_cell_length_a   10.23766373
_cell_length_b   10.15223912
_cell_length_c   2.43674290
_cell_angle_alpha   85.13514546
_cell_angle_beta   81.14587164
_cell_angle_gamma   13.71898290
_symmetry_Int_Tables_number   1
_chemical_formula_structural   Cr4Ni
_chemical_formula_sum   'Cr4 Ni1'
_cell_volume   57.03960423
_cell_formula_units_Z   1
loop_
 _symmetry_equiv_pos_site_id
 _symmetry_equiv_pos_as_xyz
  1  'x, y, z'
loop_
 _atom_site_type_symbol
 _atom_site_label
 _atom_site_symmetry_multiplicity
 _atom_site_fract_x
 _atom_site_fract_y
 _atom_site_fract_z
 _atom_site_occupancy
  Cr  Cr0  1  0.40108100  0.40108100  0.59891900  1
  Cr  Cr1  1  0.80074600  0.80074600  0.19925400  1
  Cr  Cr2  1  0.19925400  0.19925400  0.80074600  1
  Cr  Cr3  1  0.59891900  0.59891900  0.40108100  1
  Ni  Ni4  1  0.00000000  0.00000000  0.00000000  1
