# generated using pymatgen
data_CsTi3P5O19
_symmetry_space_group_name_H-M   'P 1'
_cell_length_a   10.12597824
_cell_length_b   10.12597824
_cell_length_c   8.91855016
_cell_angle_alpha   84.25067936
_cell_angle_beta   84.25067936
_cell_angle_gamma   112.76860912
_symmetry_Int_Tables_number   1
_chemical_formula_structural   CsTi3P5O19
_chemical_formula_sum   'Cs2 Ti6 P10 O38'
_cell_volume   829.28876179
_cell_formula_units_Z   2
loop_
 _symmetry_equiv_pos_site_id
 _symmetry_equiv_pos_as_xyz
  1  'x, y, z'
loop_
 _atom_site_type_symbol
 _atom_site_label
 _atom_site_symmetry_multiplicity
 _atom_site_fract_x
 _atom_site_fract_y
 _atom_site_fract_z
 _atom_site_occupancy
  Cs  Cs0  1  0.92551700  0.06248100  0.16047600  1
  Cs  Cs1  1  0.06248100  0.92551700  0.66047600  1
  Ti  Ti2  1  0.75011200  0.52975700  0.50906200  1
  Ti  Ti3  1  0.46866000  0.24885500  0.99031100  1
  Ti  Ti4  1  0.24885500  0.46866000  0.49031100  1
  Ti  Ti5  1  0.52975700  0.75011200  0.00906200  1
  Ti  Ti6  1  0.50264000  0.00062100  0.49864700  1
  Ti  Ti7  1  0.00062100  0.50264000  0.99864700  1
  P  P8  1  0.70305600  0.29717700  0.24936300  1
  P  P9  1  0.29717700  0.70305600  0.74936300  1
  P  P10  1  0.08136200  0.66514900  0.31523600  1
  P  P11  1  0.33493700  0.91883300  0.18480500  1
  P  P12  1  0.91883300  0.33493700  0.68480500  1
  P  P13  1  0.66514900  0.08136200  0.81523600  1
  P  P14  1  0.58456400  0.73026900  0.37190500  1
  P  P15  1  0.26899600  0.41529700  0.12844600  1
  P  P16  1  0.41529700  0.26899600  0.62844600  1
  P  P17  1  0.73026900  0.58456400  0.87190500  1
  O  O18  1  0.18514100  0.61653900  0.39074500  1
  O  O19  1  0.38389700  0.81508600  0.10945200  1
  O  O20  1  0.81508600  0.38389700  0.60945200  1
  O  O21  1  0.61653900  0.18514100  0.89074500  1
  O  O22  1  0.67189000  0.15777100  0.36425600  1
  O  O23  1  0.84175000  0.32706100  0.13494200  1
  O  O24  1  0.32706100  0.84175000  0.63494200  1
  O  O25  1  0.15777100  0.67189000  0.86425600  1
  O  O26  1  0.70697700  0.68899800  0.42291500  1
  O  O27  1  0.31050900  0.29302200  0.07759900  1
  O  O28  1  0.29302200  0.31050900  0.57759900  1
  O  O29  1  0.68899800  0.70697700  0.92291500  1
  O  O30  1  0.58047200  0.85562400  0.45643500  1
  O  O31  1  0.14359300  0.41856400  0.04384000  1
  O  O32  1  0.41856400  0.14359300  0.54384000  1
  O  O33  1  0.85562400  0.58047200  0.95643500  1
  O  O34  1  0.16337000  0.83685300  0.25028900  1
  O  O35  1  0.83685300  0.16337000  0.75028900  1
  O  O36  1  0.03377000  0.59554400  0.17511800  1
  O  O37  1  0.40381000  0.96555700  0.32585000  1
  O  O38  1  0.96555700  0.40381000  0.82585000  1
  O  O39  1  0.59554400  0.03377000  0.67511800  1
  O  O40  1  0.72924200  0.42990000  0.33352800  1
  O  O41  1  0.57006400  0.27148600  0.16640900  1
  O  O42  1  0.27148600  0.57006400  0.66640900  1
  O  O43  1  0.42990000  0.72924200  0.83352800  1
  O  O44  1  0.95510200  0.65893700  0.42812000  1
  O  O45  1  0.34279900  0.04602200  0.07303600  1
  O  O46  1  0.04602200  0.34279900  0.57303600  1
  O  O47  1  0.65893700  0.95510200  0.92812000  1
  O  O48  1  0.44185800  0.59403600  0.40885500  1
  O  O49  1  0.40586000  0.55821400  0.09070600  1
  O  O50  1  0.55821400  0.40586000  0.59070600  1
  O  O51  1  0.59403600  0.44185800  0.90885500  1
  O  O52  1  0.78286400  0.62105300  0.69846400  1
  O  O53  1  0.38030200  0.21838000  0.80189000  1
  O  O54  1  0.21838000  0.38030200  0.30189000  1
  O  O55  1  0.62105300  0.78286400  0.19846400  1
