# generated using pymatgen
data_NaNi2H3(SO5)2
_symmetry_space_group_name_H-M   'P 1'
_cell_length_a   5.37340889
_cell_length_b   5.37340862
_cell_length_c   7.39398558
_cell_angle_alpha   69.30834420
_cell_angle_beta   69.30834321
_cell_angle_gamma   71.79728952
_symmetry_Int_Tables_number   1
_chemical_formula_structural   NaNi2H3(SO5)2
_chemical_formula_sum   'Na1 Ni2 H3 S2 O10'
_cell_volume   182.49653375
_cell_formula_units_Z   1
loop_
 _symmetry_equiv_pos_site_id
 _symmetry_equiv_pos_as_xyz
  1  'x, y, z'
loop_
 _atom_site_type_symbol
 _atom_site_label
 _atom_site_symmetry_multiplicity
 _atom_site_fract_x
 _atom_site_fract_y
 _atom_site_fract_z
 _atom_site_occupancy
  Na  Na0  1  0.50203200  0.50203200  0.49905100  1
  Ni  Ni1  1  0.00347200  0.50256900  0.99884700  1
  Ni  Ni2  1  0.50256900  0.00347200  0.99884700  1
  H  H3  1  0.30588000  0.30588000  0.22981300  1
  H  H4  1  0.50566800  0.50566800  0.99738700  1
  H  H5  1  0.69859900  0.69859900  0.76733600  1
  S  S6  1  0.09703800  0.09703800  0.70394800  1
  S  S7  1  0.90825800  0.90825800  0.29248400  1
  O  O8  1  0.22454000  0.22454000  0.49476000  1
  O  O9  1  0.34882500  0.34882500  0.08202000  1
  O  O10  1  0.19394100  0.19394100  0.83472400  1
  O  O11  1  0.21082300  0.82121700  0.24600900  1
  O  O12  1  0.18366200  0.79400900  0.75070400  1
  O  O13  1  0.82121700  0.21082300  0.24600900  1
  O  O14  1  0.79400900  0.18366200  0.75070400  1
  O  O15  1  0.81108600  0.81108600  0.16203900  1
  O  O16  1  0.65702100  0.65702100  0.91494400  1
  O  O17  1  0.78036200  0.78036200  0.50237500  1
