# generated using pymatgen
data_Cs2KTiO2F3
_symmetry_space_group_name_H-M   'P 1'
_cell_length_a   6.75986310
_cell_length_b   6.50398340
_cell_length_c   6.42485300
_cell_angle_alpha   63.04395645
_cell_angle_beta   59.04976227
_cell_angle_gamma   57.90628127
_symmetry_Int_Tables_number   1
_chemical_formula_structural   Cs2KTiO2F3
_chemical_formula_sum   'Cs2 K1 Ti1 O2 F3'
_cell_volume   198.83111864
_cell_formula_units_Z   1
loop_
 _symmetry_equiv_pos_site_id
 _symmetry_equiv_pos_as_xyz
  1  'x, y, z'
loop_
 _atom_site_type_symbol
 _atom_site_label
 _atom_site_symmetry_multiplicity
 _atom_site_fract_x
 _atom_site_fract_y
 _atom_site_fract_z
 _atom_site_occupancy
  Cs  Cs0  1  0.26569000  0.26569000  0.23431000  1
  Cs  Cs1  1  0.76569000  0.76569000  0.73431000  1
  K  K2  1  0.49882100  0.49882100  0.50117900  1
  Ti  Ti3  1  0.01985500  0.01985500  0.98014500  1
  O  O4  1  0.75213800  0.09480400  0.24786200  1
  O  O5  1  0.09480400  0.75213800  0.90519600  1
  F  F6  1  0.82811900  0.26303800  0.73696200  1
  F  F7  1  0.22684400  0.22684400  0.77315600  1
  F  F8  1  0.26303800  0.82811900  0.17188100  1
