# generated using pymatgen
data_CrNi3Sb4
_symmetry_space_group_name_H-M   'P 1'
_cell_length_a   4.00182602
_cell_length_b   4.00182602
_cell_length_c   10.52909500
_cell_angle_alpha   90.00000000
_cell_angle_beta   90.00000000
_cell_angle_gamma   120.00000032
_symmetry_Int_Tables_number   1
_chemical_formula_structural   CrNi3Sb4
_chemical_formula_sum   'Cr1 Ni3 Sb4'
_cell_volume   146.02865385
_cell_formula_units_Z   1
loop_
 _symmetry_equiv_pos_site_id
 _symmetry_equiv_pos_as_xyz
  1  'x, y, z'
loop_
 _atom_site_type_symbol
 _atom_site_label
 _atom_site_symmetry_multiplicity
 _atom_site_fract_x
 _atom_site_fract_y
 _atom_site_fract_z
 _atom_site_occupancy
  Cr  Cr0  1  0.00000000  0.00000000  0.50000000  1
  Ni  Ni1  1  0.00000000  0.00000000  0.00000000  1
  Ni  Ni2  1  0.00000000  0.00000000  0.75257700  1
  Ni  Ni3  1  0.00000000  0.00000000  0.24742300  1
  Sb  Sb4  1  0.66666700  0.33333300  0.35921700  1
  Sb  Sb5  1  0.66666700  0.33333300  0.87877100  1
  Sb  Sb6  1  0.33333300  0.66666700  0.64078300  1
  Sb  Sb7  1  0.33333300  0.66666700  0.12122900  1
