# generated using pymatgen
data_CoNi2(PO4)2
_symmetry_space_group_name_H-M   'P 1'
_cell_length_a   4.75972049
_cell_length_b   5.95033728
_cell_length_c   10.29315462
_cell_angle_alpha   90.72384668
_cell_angle_beta   89.89584282
_cell_angle_gamma   90.04754612
_symmetry_Int_Tables_number   1
_chemical_formula_structural   CoNi2(PO4)2
_chemical_formula_sum   'Co2 Ni4 P4 O16'
_cell_volume   291.49829066
_cell_formula_units_Z   2
loop_
 _symmetry_equiv_pos_site_id
 _symmetry_equiv_pos_as_xyz
  1  'x, y, z'
loop_
 _atom_site_type_symbol
 _atom_site_label
 _atom_site_symmetry_multiplicity
 _atom_site_fract_x
 _atom_site_fract_y
 _atom_site_fract_z
 _atom_site_occupancy
  Co  Co0  1  0.51231200  0.23863400  0.77881300  1
  Co  Co1  1  0.01329200  0.75926500  0.72043600  1
  Ni  Ni2  1  0.50020700  0.49950200  0.49915700  1
  Ni  Ni3  1  0.00089100  0.50078500  0.00067700  1
  Ni  Ni4  1  0.48848200  0.75878200  0.22439200  1
  Ni  Ni5  1  0.98878000  0.24137300  0.27530600  1
  P  P6  1  0.07454400  0.25570500  0.59477700  1
  P  P7  1  0.57601600  0.74424500  0.90588300  1
  P  P8  1  0.92426900  0.74553300  0.40186600  1
  P  P9  1  0.42457800  0.25472300  0.09761700  1
  O  O10  1  0.22905900  0.46769600  0.66118400  1
  O  O11  1  0.73218700  0.53284700  0.83974700  1
  O  O12  1  0.76711600  0.53294400  0.33694500  1
  O  O13  1  0.26678500  0.46681400  0.16296400  1
  O  O14  1  0.30865200  0.25838800  0.95646800  1
  O  O15  1  0.80803300  0.74258500  0.54304300  1
  O  O16  1  0.69098000  0.74113300  0.04721800  1
  O  O17  1  0.19069400  0.25880000  0.45343700  1
  O  O18  1  0.19376400  0.05769000  0.67342700  1
  O  O19  1  0.69562500  0.94268000  0.82763100  1
  O  O20  1  0.80691600  0.94373800  0.32293200  1
  O  O21  1  0.30641500  0.05616800  0.17642600  1
  O  O22  1  0.75207700  0.27118600  0.60133600  1
  O  O23  1  0.25413900  0.72858500  0.89858400  1
  O  O24  1  0.24705600  0.72909200  0.39640800  1
  O  O25  1  0.74712900  0.27110600  0.10332400  1
