# generated using pymatgen
data_CrFeS4
_symmetry_space_group_name_H-M   'P 1'
_cell_length_a   6.78039063
_cell_length_b   6.78039063
_cell_length_c   6.78039063
_cell_angle_alpha   120.32411927
_cell_angle_beta   119.40069236
_cell_angle_gamma   90.24033840
_symmetry_Int_Tables_number   1
_chemical_formula_structural   CrFeS4
_chemical_formula_sum   'Cr2 Fe2 S8'
_cell_volume   220.85753187
_cell_formula_units_Z   2
loop_
 _symmetry_equiv_pos_site_id
 _symmetry_equiv_pos_as_xyz
  1  'x, y, z'
loop_
 _atom_site_type_symbol
 _atom_site_label
 _atom_site_symmetry_multiplicity
 _atom_site_fract_x
 _atom_site_fract_y
 _atom_site_fract_z
 _atom_site_occupancy
  Cr  Cr0  1  0.50000000  0.50000000  0.00000000  1
  Cr  Cr1  1  0.00000000  0.50000000  0.50000000  1
  Fe  Fe2  1  0.12409600  0.87409600  0.25000000  1
  Fe  Fe3  1  0.87590400  0.12590400  0.75000000  1
  S  S4  1  0.22925700  0.74343000  0.48582700  1
  S  S5  1  0.75760300  0.74343000  0.01417300  1
  S  S6  1  0.25488800  0.74544800  0.99056000  1
  S  S7  1  0.25488800  0.26432700  0.50944000  1
  S  S8  1  0.77074300  0.25657000  0.51417300  1
  S  S9  1  0.24239700  0.25657000  0.98582700  1
  S  S10  1  0.74511200  0.25455200  0.00944000  1
  S  S11  1  0.74511200  0.73567300  0.49056000  1
