# generated using pymatgen
data_Cs12Sn2Sb6O
_symmetry_space_group_name_H-M   'P 1'
_cell_length_a   6.51746402
_cell_length_b   13.29343218
_cell_length_c   13.29343218
_cell_angle_alpha   120.02262437
_cell_angle_beta   90.00812708
_cell_angle_gamma   89.99187292
_symmetry_Int_Tables_number   1
_chemical_formula_structural   Cs12Sn2Sb6O
_chemical_formula_sum   'Cs12 Sn2 Sb6 O1'
_cell_volume   997.20503309
_cell_formula_units_Z   1
loop_
 _symmetry_equiv_pos_site_id
 _symmetry_equiv_pos_as_xyz
  1  'x, y, z'
loop_
 _atom_site_type_symbol
 _atom_site_label
 _atom_site_symmetry_multiplicity
 _atom_site_fract_x
 _atom_site_fract_y
 _atom_site_fract_z
 _atom_site_occupancy
  Cs  Cs0  1  0.75050600  0.54643200  0.09287200  1
  Cs  Cs1  1  0.75050200  0.54644000  0.45356000  1
  Cs  Cs2  1  0.75050600  0.90712800  0.45356800  1
  Cs  Cs3  1  0.24949400  0.45356800  0.90712800  1
  Cs  Cs4  1  0.24949800  0.45356000  0.54644000  1
  Cs  Cs5  1  0.24949400  0.09287200  0.54643200  1
  Cs  Cs6  1  0.72841400  0.88518700  0.77038400  1
  Cs  Cs7  1  0.72841300  0.88519800  0.11480200  1
  Cs  Cs8  1  0.72841400  0.22961600  0.11481300  1
  Cs  Cs9  1  0.27158600  0.11481300  0.22961600  1
  Cs  Cs10  1  0.27158700  0.11480200  0.88519800  1
  Cs  Cs11  1  0.27158600  0.77038400  0.88518700  1
  Sn  Sn12  1  0.25070800  0.66665600  0.33334400  1
  Sn  Sn13  1  0.74929200  0.33334400  0.66665600  1
  Sb  Sb14  1  0.74996800  0.21261600  0.42526100  1
  Sb  Sb15  1  0.74996100  0.21251000  0.78749000  1
  Sb  Sb16  1  0.74996800  0.57473900  0.78738400  1
  Sb  Sb17  1  0.25003200  0.78738400  0.57473900  1
  Sb  Sb18  1  0.25003900  0.78749000  0.21251000  1
  Sb  Sb19  1  0.25003200  0.42526100  0.21261600  1
  O  O20  1  0.50000000  0.00000000  0.00000000  1
