# generated using pymatgen
data_CrCuSnSe4
_symmetry_space_group_name_H-M   'P 1'
_cell_length_a   7.63959254
_cell_length_b   7.63959254
_cell_length_c   7.63959254
_cell_angle_alpha   120.40464220
_cell_angle_beta   119.20361320
_cell_angle_gamma   90.34272527
_symmetry_Int_Tables_number   1
_chemical_formula_structural   CrCuSnSe4
_chemical_formula_sum   'Cr2 Cu2 Sn2 Se8'
_cell_volume   316.16358612
_cell_formula_units_Z   2
loop_
 _symmetry_equiv_pos_site_id
 _symmetry_equiv_pos_as_xyz
  1  'x, y, z'
loop_
 _atom_site_type_symbol
 _atom_site_label
 _atom_site_symmetry_multiplicity
 _atom_site_fract_x
 _atom_site_fract_y
 _atom_site_fract_z
 _atom_site_occupancy
  Cr  Cr0  1  0.50000000  0.00000000  0.00000000  1
  Cr  Cr1  1  0.50000000  0.50000000  0.50000000  1
  Cu  Cu2  1  0.87997100  0.62997100  0.25000000  1
  Cu  Cu3  1  0.12002900  0.37002900  0.75000000  1
  Sn  Sn4  1  0.50000000  0.00000000  0.50000000  1
  Sn  Sn5  1  0.00000000  0.00000000  0.00000000  1
  Se  Se6  1  0.73595900  0.73226600  0.49630700  1
  Se  Se7  1  0.73595900  0.23965300  0.00369300  1
  Se  Se8  1  0.72420200  0.74787100  0.97633200  1
  Se  Se9  1  0.27153900  0.74787100  0.52366800  1
  Se  Se10  1  0.26404100  0.26773400  0.50369300  1
  Se  Se11  1  0.26404100  0.76034700  0.99630700  1
  Se  Se12  1  0.27579800  0.25212900  0.02366800  1
  Se  Se13  1  0.72846100  0.25212900  0.47633200  1
