# generated using pymatgen
data_CrBiWO6
_symmetry_space_group_name_H-M   'P 1'
_cell_length_a   7.20919881
_cell_length_b   7.20919881
_cell_length_c   7.20919881
_cell_angle_alpha   120.50553684
_cell_angle_beta   119.25133638
_cell_angle_gamma   90.21410242
_symmetry_Int_Tables_number   1
_chemical_formula_structural   CrBiWO6
_chemical_formula_sum   'Cr2 Bi2 W2 O12'
_cell_volume   265.38430742
_cell_formula_units_Z   2
loop_
 _symmetry_equiv_pos_site_id
 _symmetry_equiv_pos_as_xyz
  1  'x, y, z'
loop_
 _atom_site_type_symbol
 _atom_site_label
 _atom_site_symmetry_multiplicity
 _atom_site_fract_x
 _atom_site_fract_y
 _atom_site_fract_z
 _atom_site_occupancy
  Cr  Cr0  1  0.00000000  0.50000000  0.00000000  1
  Cr  Cr1  1  0.00000000  0.00000000  0.50000000  1
  Bi  Bi2  1  0.00000000  0.00000000  0.00000000  1
  Bi  Bi3  1  0.50000000  0.00000000  0.50000000  1
  W  W4  1  0.50000000  0.50000000  0.00000000  1
  W  W5  1  0.00000000  0.50000000  0.50000000  1
  O  O6  1  0.07482100  0.82482100  0.25000000  1
  O  O7  1  0.68664100  0.43664100  0.25000000  1
  O  O8  1  0.05604100  0.81943300  0.63342000  1
  O  O9  1  0.68601300  0.42262100  0.86658000  1
  O  O10  1  0.68601300  0.81943300  0.26339200  1
  O  O11  1  0.05604100  0.42262100  0.23660800  1
  O  O12  1  0.92517900  0.17517900  0.75000000  1
  O  O13  1  0.31335900  0.56335900  0.75000000  1
  O  O14  1  0.94395900  0.18056700  0.36658000  1
  O  O15  1  0.31398700  0.57737900  0.13342000  1
  O  O16  1  0.31398700  0.18056700  0.73660800  1
  O  O17  1  0.94395900  0.57737900  0.76339200  1
