# generated using pymatgen
data_Cr(OF)3
_symmetry_space_group_name_H-M   'P 1'
_cell_length_a   4.98405529
_cell_length_b   5.56441765
_cell_length_c   5.38484293
_cell_angle_alpha   116.78735244
_cell_angle_beta   77.02483164
_cell_angle_gamma   74.68632001
_symmetry_Int_Tables_number   1
_chemical_formula_structural   Cr(OF)3
_chemical_formula_sum   'Cr1 O3 F3'
_cell_volume   117.90033102
_cell_formula_units_Z   1
loop_
 _symmetry_equiv_pos_site_id
 _symmetry_equiv_pos_as_xyz
  1  'x, y, z'
loop_
 _atom_site_type_symbol
 _atom_site_label
 _atom_site_symmetry_multiplicity
 _atom_site_fract_x
 _atom_site_fract_y
 _atom_site_fract_z
 _atom_site_occupancy
  Cr  Cr0  1  0.88965100  0.01150600  0.05225900  1
  O  O1  1  0.31443300  0.28829700  0.77766800  1
  O  O2  1  0.37828100  0.50059400  0.83154100  1
  O  O3  1  0.99208100  0.88506200  0.70267900  1
  F  F4  1  0.11852700  0.13443500  0.23585100  1
  F  F5  1  0.72432800  0.82560600  0.17947000  1
  F  F6  1  0.58269900  0.35449900  0.22053200  1
