# generated using pymatgen
data_Na3TbTi2Nb2O12
_symmetry_space_group_name_H-M   'P 1'
_cell_length_a   5.48577200
_cell_length_b   5.63527400
_cell_length_c   15.47528000
_cell_angle_alpha   90.00000000
_cell_angle_beta   90.00000000
_cell_angle_gamma   90.00000000
_symmetry_Int_Tables_number   1
_chemical_formula_structural   Na3TbTi2Nb2O12
_chemical_formula_sum   'Na6 Tb2 Ti4 Nb4 O24'
_cell_volume   478.40014915
_cell_formula_units_Z   2
loop_
 _symmetry_equiv_pos_site_id
 _symmetry_equiv_pos_as_xyz
  1  'x, y, z'
loop_
 _atom_site_type_symbol
 _atom_site_label
 _atom_site_symmetry_multiplicity
 _atom_site_fract_x
 _atom_site_fract_y
 _atom_site_fract_z
 _atom_site_occupancy
  Na  Na0  1  0.00461600  0.97912100  0.37074800  1
  Na  Na1  1  0.00461600  0.97912100  0.87925200  1
  Na  Na2  1  0.49538400  0.47912100  0.87925200  1
  Na  Na3  1  0.49538400  0.47912100  0.37074800  1
  Na  Na4  1  0.51327500  0.52685300  0.62500000  1
  Na  Na5  1  0.98672500  0.02685300  0.62500000  1
  Tb  Tb6  1  0.50904200  0.56338700  0.12500000  1
  Tb  Tb7  1  0.99095800  0.06338700  0.12500000  1
  Ti  Ti8  1  0.00891300  0.52659700  0.99836300  1
  Ti  Ti9  1  0.00891300  0.52659700  0.25163700  1
  Ti  Ti10  1  0.49108700  0.02659700  0.25163700  1
  Ti  Ti11  1  0.49108700  0.02659700  0.99836300  1
  Nb  Nb12  1  0.00366500  0.51470600  0.49797100  1
  Nb  Nb13  1  0.00366500  0.51470600  0.75202900  1
  Nb  Nb14  1  0.49633500  0.01470600  0.75202900  1
  Nb  Nb15  1  0.49633500  0.01470600  0.49797100  1
  O  O16  1  0.09208000  0.46415200  0.12500000  1
  O  O17  1  0.08120700  0.47971800  0.62500000  1
  O  O18  1  0.21522700  0.21047400  0.47668300  1
  O  O19  1  0.20453400  0.19588200  0.26043700  1
  O  O20  1  0.21522700  0.21047400  0.77331700  1
  O  O21  1  0.20453400  0.19588200  0.98956300  1
  O  O22  1  0.29546600  0.69588200  0.26043700  1
  O  O23  1  0.28477300  0.71047400  0.47668300  1
  O  O24  1  0.28477300  0.71047400  0.77331700  1
  O  O25  1  0.29546600  0.69588200  0.98956300  1
  O  O26  1  0.40792000  0.96415200  0.12500000  1
  O  O27  1  0.41879300  0.97971800  0.62500000  1
  O  O28  1  0.57611600  0.00758300  0.87977400  1
  O  O29  1  0.57611600  0.00758300  0.37022600  1
  O  O30  1  0.70517700  0.27991700  0.03164100  1
  O  O31  1  0.70517700  0.27991700  0.21835900  1
  O  O32  1  0.72169100  0.26866300  0.51926900  1
  O  O33  1  0.72169100  0.26866300  0.73073100  1
  O  O34  1  0.79482300  0.77991700  0.03164100  1
  O  O35  1  0.79482300  0.77991700  0.21835900  1
  O  O36  1  0.77830900  0.76866300  0.51926900  1
  O  O37  1  0.77830900  0.76866300  0.73073100  1
  O  O38  1  0.92388400  0.50758300  0.37022600  1
  O  O39  1  0.92388400  0.50758300  0.87977400  1
