# generated using pymatgen
data_CuSiH18C7S3I
_symmetry_space_group_name_H-M   'P 1'
_cell_length_a   13.38048900
_cell_length_b   9.79123900
_cell_length_c   13.76759131
_cell_angle_alpha   78.43682130
_cell_angle_beta   90.00000000
_cell_angle_gamma   90.00000000
_symmetry_Int_Tables_number   1
_chemical_formula_structural   CuSiH18C7S3I
_chemical_formula_sum   'Cu4 Si4 H72 C28 S12 I4'
_cell_volume   1767.10600859
_cell_formula_units_Z   4
loop_
 _symmetry_equiv_pos_site_id
 _symmetry_equiv_pos_as_xyz
  1  'x, y, z'
loop_
 _atom_site_type_symbol
 _atom_site_label
 _atom_site_symmetry_multiplicity
 _atom_site_fract_x
 _atom_site_fract_y
 _atom_site_fract_z
 _atom_site_occupancy
  Cu  Cu0  1  0.01937900  0.55509200  0.09377900  1
  Cu  Cu1  1  0.51937900  0.44490800  0.40622100  1
  Cu  Cu2  1  0.98062100  0.44490800  0.90622100  1
  Cu  Cu3  1  0.48062100  0.55509200  0.59377900  1
  Si  Si4  1  0.13219100  0.81500900  0.23242900  1
  Si  Si5  1  0.63219100  0.18499100  0.26757100  1
  Si  Si6  1  0.86780900  0.18499100  0.76757100  1
  Si  Si7  1  0.36780900  0.81500900  0.73242900  1
  H  H8  1  0.16168900  0.05686200  0.25540800  1
  H  H9  1  0.66168900  0.94313800  0.24459200  1
  H  H10  1  0.83831100  0.94313800  0.74459200  1
  H  H11  1  0.33831100  0.05686200  0.75540800  1
  H  H12  1  0.22623200  0.02591600  0.14892700  1
  H  H13  1  0.72623200  0.97408400  0.35107300  1
  H  H14  1  0.77376800  0.97408400  0.85107300  1
  H  H15  1  0.27376800  0.02591600  0.64892700  1
  H  H16  1  0.22019200  0.34281000  0.10408700  1
  H  H17  1  0.72019200  0.65719000  0.39591300  1
  H  H18  1  0.77980800  0.65719000  0.89591300  1
  H  H19  1  0.27980800  0.34281000  0.60408700  1
  H  H20  1  0.97787300  0.94670600  0.17690100  1
  H  H21  1  0.47787300  0.05329400  0.32309900  1
  H  H22  1  0.02212700  0.05329400  0.82309900  1
  H  H23  1  0.52212700  0.94670600  0.67690100  1
  H  H24  1  0.86483100  0.84367900  0.00406600  1
  H  H25  1  0.36483100  0.15632100  0.49593400  1
  H  H26  1  0.13516900  0.15632100  0.99593400  1
  H  H27  1  0.63516900  0.84367900  0.50406600  1
  H  H28  1  0.27504400  0.95784400  0.26851400  1
  H  H29  1  0.77504400  0.04215600  0.23148600  1
  H  H30  1  0.72495600  0.04215600  0.73148600  1
  H  H31  1  0.22495600  0.95784400  0.76851400  1
  H  H32  1  0.16290100  0.69709600  0.40617400  1
  H  H33  1  0.66290100  0.30290400  0.09382600  1
  H  H34  1  0.83709900  0.30290400  0.59382600  1
  H  H35  1  0.33709900  0.69709600  0.90617400  1
  H  H36  1  0.05347300  0.68942700  0.58344200  1
  H  H37  1  0.55347300  0.31057300  0.91655800  1
  H  H38  1  0.94652700  0.31057300  0.41655800  1
  H  H39  1  0.44652700  0.68942700  0.08344200  1
  H  H40  1  0.95231100  0.80770800  0.58374100  1
  H  H41  1  0.45231100  0.19229200  0.91625900  1
  H  H42  1  0.04768900  0.19229200  0.41625900  1
  H  H43  1  0.54768900  0.80770800  0.08374100  1
  H  H44  1  0.04913300  0.63897400  0.35937700  1
  H  H45  1  0.54913300  0.36102600  0.14062300  1
  H  H46  1  0.95086700  0.36102600  0.64062300  1
  H  H47  1  0.45086700  0.63897400  0.85937700  1
  H  H48  1  0.78381500  0.70824000  0.06647600  1
  H  H49  1  0.28381500  0.29176000  0.43352400  1
  H  H50  1  0.21618500  0.29176000  0.93352400  1
  H  H51  1  0.71618500  0.70824000  0.56647600  1
  H  H52  1  0.26522300  0.50878300  0.04019900  1
  H  H53  1  0.76522300  0.49121700  0.45980100  1
  H  H54  1  0.73477700  0.49121700  0.95980100  1
  H  H55  1  0.23477700  0.50878300  0.54019900  1
  H  H56  1  0.04070200  0.89452500  0.07524300  1
  H  H57  1  0.54070200  0.10547500  0.42475700  1
  H  H58  1  0.95929800  0.10547500  0.92475700  1
  H  H59  1  0.45929800  0.89452500  0.57524300  1
  H  H60  1  0.22329800  0.74138000  0.09747400  1
  H  H61  1  0.72329800  0.25862000  0.40252600  1
  H  H62  1  0.77670200  0.25862000  0.90252600  1
  H  H63  1  0.27670200  0.74138000  0.59747400  1
  H  H64  1  0.93476700  0.65577300  0.53223600  1
  H  H65  1  0.43476700  0.34422700  0.96776400  1
  H  H66  1  0.06523300  0.34422700  0.46776400  1
  H  H67  1  0.56523300  0.65577300  0.03223600  1
  H  H68  1  0.28826800  0.68508800  0.21278900  1
  H  H69  1  0.78826800  0.31491200  0.28721100  1
  H  H70  1  0.71173200  0.31491200  0.78721100  1
  H  H71  1  0.21173200  0.68508800  0.71278900  1
  H  H72  1  0.32470400  0.42018500  0.15377300  1
  H  H73  1  0.82470400  0.57981500  0.34622700  1
  H  H74  1  0.67529600  0.57981500  0.84622700  1
  H  H75  1  0.17529600  0.42018500  0.65377300  1
  H  H76  1  0.79083900  0.86997600  0.10834400  1
  H  H77  1  0.29083900  0.13002400  0.39165600  1
  H  H78  1  0.20916100  0.13002400  0.89165600  1
  H  H79  1  0.70916100  0.86997600  0.60834400  1
  C  C80  1  0.20552000  0.97964500  0.22564800  1
  C  C81  1  0.70552000  0.02035500  0.27435200  1
  C  C82  1  0.79448000  0.02035500  0.77435200  1
  C  C83  1  0.29448000  0.97964500  0.72564800  1
  C  C84  1  0.01649500  0.85991100  0.15283300  1
  C  C85  1  0.51649500  0.14008900  0.34716700  1
  C  C86  1  0.98350500  0.14008900  0.84716700  1
  C  C87  1  0.48350500  0.85991100  0.65283300  1
  C  C88  1  0.09408800  0.73144500  0.36373500  1
  C  C89  1  0.59408800  0.26855500  0.13626500  1
  C  C90  1  0.90591200  0.26855500  0.63626500  1
  C  C91  1  0.40591200  0.73144500  0.86373500  1
  C  C92  1  0.83309300  0.79411400  0.07594600  1
  C  C93  1  0.33309300  0.20588600  0.42405400  1
  C  C94  1  0.16690700  0.20588600  0.92405400  1
  C  C95  1  0.66690700  0.79411400  0.57594600  1
  C  C96  1  0.98828500  0.73704800  0.54144300  1
  C  C97  1  0.48828500  0.26295200  0.95855700  1
  C  C98  1  0.01171500  0.26295200  0.45855700  1
  C  C99  1  0.51171500  0.73704800  0.04144300  1
  C  C100  1  0.21459300  0.69238900  0.17652600  1
  C  C101  1  0.71459300  0.30761100  0.32347400  1
  C  C102  1  0.78540700  0.30761100  0.82347400  1
  C  C103  1  0.28540700  0.69238900  0.67652600  1
  C  C104  1  0.25398500  0.44157800  0.11333200  1
  C  C105  1  0.75398500  0.55842200  0.38666800  1
  C  C106  1  0.74601500  0.55842200  0.88666800  1
  C  C107  1  0.24601500  0.44157800  0.61333200  1
  S  S108  1  0.93106200  0.71551300  0.15948000  1
  S  S109  1  0.43106200  0.28448700  0.34052000  1
  S  S110  1  0.06893800  0.28448700  0.84052000  1
  S  S111  1  0.56893800  0.71551300  0.65948000  1
  S  S112  1  0.16404600  0.51935800  0.18437400  1
  S  S113  1  0.66404600  0.48064200  0.31562600  1
  S  S114  1  0.83595400  0.48064200  0.81562600  1
  S  S115  1  0.33595400  0.51935800  0.68437400  1
  S  S116  1  0.02325100  0.84768700  0.42446000  1
  S  S117  1  0.52325100  0.15231300  0.07554000  1
  S  S118  1  0.97674900  0.15231300  0.57554000  1
  S  S119  1  0.47674900  0.84768700  0.92446000  1
  I  I120  1  0.93353300  0.31480700  0.09357800  1
  I  I121  1  0.43353300  0.68519300  0.40642200  1
  I  I122  1  0.06646700  0.68519300  0.90642200  1
  I  I123  1  0.56646700  0.31480700  0.59357800  1
