# generated using pymatgen
data_Na3ErTi2Nb2O12
_symmetry_space_group_name_H-M   'P 1'
_cell_length_a   5.43486800
_cell_length_b   5.59206600
_cell_length_c   15.50839100
_cell_angle_alpha   90.00000000
_cell_angle_beta   90.00000000
_cell_angle_gamma   90.00000000
_symmetry_Int_Tables_number   1
_chemical_formula_structural   Na3ErTi2Nb2O12
_chemical_formula_sum   'Na6 Er2 Ti4 Nb4 O24'
_cell_volume   471.33319909
_cell_formula_units_Z   2
loop_
 _symmetry_equiv_pos_site_id
 _symmetry_equiv_pos_as_xyz
  1  'x, y, z'
loop_
 _atom_site_type_symbol
 _atom_site_label
 _atom_site_symmetry_multiplicity
 _atom_site_fract_x
 _atom_site_fract_y
 _atom_site_fract_z
 _atom_site_occupancy
  Na  Na0  1  0.00511000  0.96879900  0.37190300  1
  Na  Na1  1  0.00511000  0.96879900  0.87809700  1
  Na  Na2  1  0.49489000  0.46879900  0.87809700  1
  Na  Na3  1  0.49489000  0.46879900  0.37190300  1
  Na  Na4  1  0.50815500  0.53513300  0.62500000  1
  Na  Na5  1  0.99184500  0.03513300  0.62500000  1
  Er  Er6  1  0.51250600  0.56505800  0.12500000  1
  Er  Er7  1  0.98749400  0.06505800  0.12500000  1
  Ti  Ti8  1  0.01205200  0.52357800  0.99869300  1
  Ti  Ti9  1  0.48794800  0.02357800  0.25130700  1
  Ti  Ti10  1  0.48794800  0.02357800  0.99869300  1
  Ti  Ti11  1  0.01205200  0.52357800  0.25130700  1
  Nb  Nb12  1  0.50003000  0.00093100  0.75216500  1
  Nb  Nb13  1  0.50003000  0.00093100  0.49783500  1
  Nb  Nb14  1  0.99997000  0.50093100  0.49783500  1
  Nb  Nb15  1  0.99997000  0.50093100  0.75216500  1
  O  O16  1  0.10196800  0.45841600  0.12500000  1
  O  O17  1  0.07717300  0.48229400  0.62500000  1
  O  O18  1  0.20672500  0.20839500  0.47788600  1
  O  O19  1  0.19739100  0.19075900  0.26097600  1
  O  O20  1  0.20672500  0.20839500  0.77211400  1
  O  O21  1  0.19739100  0.19075900  0.98902400  1
  O  O22  1  0.29327500  0.70839500  0.47788600  1
  O  O23  1  0.29327500  0.70839500  0.77211400  1
  O  O24  1  0.30260900  0.69075900  0.26097600  1
  O  O25  1  0.30260900  0.69075900  0.98902400  1
  O  O26  1  0.39803200  0.95841600  0.12500000  1
  O  O27  1  0.42282700  0.98229400  0.62500000  1
  O  O28  1  0.57359600  0.01677300  0.88015800  1
  O  O29  1  0.57359600  0.01677300  0.36984200  1
  O  O30  1  0.70276700  0.27872500  0.03379000  1
  O  O31  1  0.70276700  0.27872500  0.21621000  1
  O  O32  1  0.70648600  0.29158800  0.51812300  1
  O  O33  1  0.70648600  0.29158800  0.73187700  1
  O  O34  1  0.79723300  0.77872500  0.03379000  1
  O  O35  1  0.79723300  0.77872500  0.21621000  1
  O  O36  1  0.79351400  0.79158800  0.51812300  1
  O  O37  1  0.79351400  0.79158800  0.73187700  1
  O  O38  1  0.92640400  0.51677300  0.88015800  1
  O  O39  1  0.92640400  0.51677300  0.36984200  1
