# generated using pymatgen
data_Co4Mo4O19
_symmetry_space_group_name_H-M   'P 1'
_cell_length_a   6.87222500
_cell_length_b   6.94423398
_cell_length_c   9.42774129
_cell_angle_alpha   76.97480465
_cell_angle_beta   81.31897182
_cell_angle_gamma   74.96669260
_symmetry_Int_Tables_number   1
_chemical_formula_structural   Co4Mo4O19
_chemical_formula_sum   'Co4 Mo4 O19'
_cell_volume   421.28655852
_cell_formula_units_Z   1
loop_
 _symmetry_equiv_pos_site_id
 _symmetry_equiv_pos_as_xyz
  1  'x, y, z'
loop_
 _atom_site_type_symbol
 _atom_site_label
 _atom_site_symmetry_multiplicity
 _atom_site_fract_x
 _atom_site_fract_y
 _atom_site_fract_z
 _atom_site_occupancy
  Co  Co0  1  0.83294000  0.35047700  0.30702400  1
  Co  Co1  1  0.16561700  0.64825300  0.69307200  1
  Co  Co2  1  0.80392400  0.16782700  0.03184100  1
  Co  Co3  1  0.19983900  0.82852100  0.96700500  1
  Mo  Mo4  1  0.75774900  0.70193000  0.94568300  1
  Mo  Mo5  1  0.24276200  0.29751000  0.05442800  1
  Mo  Mo6  1  0.98905300  0.80592800  0.32016400  1
  Mo  Mo7  1  0.01132900  0.19388000  0.67885100  1
  O  O8  1  0.87459000  0.68286500  0.76420800  1
  O  O9  1  0.12501500  0.31647400  0.23567400  1
  O  O10  1  0.07670500  0.77677100  0.49227800  1
  O  O11  1  0.92144600  0.22358100  0.50756600  1
  O  O12  1  0.20470200  0.74959200  0.19263600  1
  O  O13  1  0.79577800  0.25000000  0.80663000  1
  O  O14  1  0.79504900  0.45393200  0.06936600  1
  O  O15  1  0.20379000  0.54557400  0.93074300  1
  O  O16  1  0.83685100  0.62897800  0.32804400  1
  O  O17  1  0.16325900  0.37095300  0.67205800  1
  O  O18  1  0.85479700  0.07715300  0.25277300  1
  O  O19  1  0.14592200  0.92345600  0.74682200  1
  O  O20  1  0.87334800  0.86558200  0.01474800  1
  O  O21  1  0.12832900  0.13259600  0.98533300  1
  O  O22  1  0.59261800  0.38341000  0.35280400  1
  O  O23  1  0.40575800  0.61525400  0.64706900  1
  O  O24  1  0.49751900  0.81096000  0.93752400  1
  O  O25  1  0.50354900  0.19206000  0.06225700  1
  O  O26  1  0.45476200  0.02048100  0.46039800  1
