# generated using pymatgen
data_CoSiH15N6(OF3)2
_symmetry_space_group_name_H-M   'P 1'
_cell_length_a   6.77311524
_cell_length_b   8.17329466
_cell_length_c   10.47259614
_cell_angle_alpha   90.20688498
_cell_angle_beta   102.55551411
_cell_angle_gamma   89.86374098
_symmetry_Int_Tables_number   1
_chemical_formula_structural   CoSiH15N6(OF3)2
_chemical_formula_sum   'Co2 Si2 H30 N12 O4 F12'
_cell_volume   565.88030594
_cell_formula_units_Z   2
loop_
 _symmetry_equiv_pos_site_id
 _symmetry_equiv_pos_as_xyz
  1  'x, y, z'
loop_
 _atom_site_type_symbol
 _atom_site_label
 _atom_site_symmetry_multiplicity
 _atom_site_fract_x
 _atom_site_fract_y
 _atom_site_fract_z
 _atom_site_occupancy
  Co  Co0  1  0.26035900  0.25039700  0.28344900  1
  Co  Co1  1  0.73964100  0.74960300  0.71655100  1
  Si  Si2  1  0.16587700  0.25180900  0.80877600  1
  Si  Si3  1  0.83412300  0.74819100  0.19122400  1
  H  H4  1  0.35255300  0.39470800  0.08044800  1
  H  H5  1  0.64679600  0.89605200  0.91827800  1
  H  H6  1  0.64744700  0.60529200  0.91955200  1
  H  H7  1  0.35320400  0.10394800  0.08172200  1
  H  H8  1  0.21907600  0.40110500  0.49979000  1
  H  H9  1  0.77718800  0.90166700  0.49958600  1
  H  H10  1  0.78092400  0.59889500  0.50021000  1
  H  H11  1  0.22281200  0.09833300  0.50041400  1
  H  H12  1  0.19281600  0.54389100  0.38341500  1
  H  H13  1  0.80490200  0.04455400  0.61627200  1
  H  H14  1  0.80718400  0.45610900  0.61658500  1
  H  H15  1  0.19509800  0.95544600  0.38372800  1
  H  H16  1  0.00410200  0.42382400  0.38910600  1
  H  H17  1  0.99342400  0.92496100  0.60825000  1
  H  H18  1  0.99589800  0.57617600  0.61089400  1
  H  H19  1  0.00657600  0.07503900  0.39175000  1
  H  H20  1  0.49092500  0.48475200  0.21262700  1
  H  H21  1  0.50894400  0.98660000  0.78660800  1
  H  H22  1  0.50907500  0.51524700  0.78737300  1
  H  H23  1  0.49105600  0.01340000  0.21339200  1
  H  H24  1  0.24777200  0.53084200  0.16015200  1
  H  H25  1  0.75274500  0.03071900  0.83911400  1
  H  H26  1  0.75222800  0.46915800  0.83984800  1
  H  H27  1  0.24725500  0.96928100  0.16088600  1
  H  H28  1  0.00023800  0.20324300  0.06988700  1
  H  H29  1  0.99976200  0.79675700  0.93011300  1
  H  H30  1  0.93644700  0.37084800  0.14188800  1
  H  H31  1  0.06355300  0.62915200  0.85811200  1
  H  H32  1  0.88304800  0.18513200  0.19168000  1
  H  H33  1  0.11695200  0.81486800  0.80832000  1
  N  N34  1  0.35066800  0.43687600  0.17268600  1
  N  N35  1  0.64893000  0.93766300  0.82618000  1
  N  N36  1  0.64933200  0.56312400  0.82731400  1
  N  N37  1  0.35107000  0.06233700  0.17382000  1
  N  N38  1  0.98871500  0.25242700  0.15849700  1
  N  N39  1  0.01128500  0.74757300  0.84150300  1
  N  N40  1  0.15849900  0.42534600  0.40295400  1
  N  N41  1  0.83928900  0.92591600  0.59619800  1
  N  N42  1  0.84150100  0.57465400  0.59704600  1
  N  N43  1  0.16071100  0.07408400  0.40380200  1
  N  N44  1  0.52770700  0.25048400  0.40151000  1
  N  N45  1  0.47229300  0.74951600  0.59849000  1
  O  O46  1  0.68098900  0.25020900  0.35483800  1
  O  O47  1  0.31901100  0.74979100  0.64516200  1
  O  O48  1  0.53603600  0.25049700  0.52131100  1
  O  O49  1  0.46396400  0.74950300  0.47868900  1
  F  F50  1  0.92793300  0.25081600  0.70939400  1
  F  F51  1  0.07206700  0.74918400  0.29060600  1
  F  F52  1  0.24339700  0.39491800  0.70947600  1
  F  F53  1  0.76100300  0.90445300  0.28242200  1
  F  F54  1  0.75660300  0.60508200  0.29052400  1
  F  F55  1  0.23899700  0.09554700  0.71757800  1
  F  F56  1  0.08982900  0.40844100  0.89911000  1
  F  F57  1  0.91606900  0.88968500  0.09189100  1
  F  F58  1  0.91017100  0.59155900  0.10089000  1
  F  F59  1  0.08393100  0.11031500  0.90810900  1
  F  F60  1  0.39884700  0.25231100  0.91287500  1
  F  F61  1  0.60115300  0.74768900  0.08712500  1
