# generated using pymatgen
data_Co3PW2
_symmetry_space_group_name_H-M   'P 1'
_cell_length_a   4.76081771
_cell_length_b   4.76081771
_cell_length_c   7.31691200
_cell_angle_alpha   90.00000000
_cell_angle_beta   90.00000000
_cell_angle_gamma   119.99999602
_symmetry_Int_Tables_number   1
_chemical_formula_structural   Co3PW2
_chemical_formula_sum   'Co6 P2 W4'
_cell_volume   143.62220406
_cell_formula_units_Z   2
loop_
 _symmetry_equiv_pos_site_id
 _symmetry_equiv_pos_as_xyz
  1  'x, y, z'
loop_
 _atom_site_type_symbol
 _atom_site_label
 _atom_site_symmetry_multiplicity
 _atom_site_fract_x
 _atom_site_fract_y
 _atom_site_fract_z
 _atom_site_occupancy
  Co  Co0  1  0.83153100  0.16846900  0.25000000  1
  Co  Co1  1  0.83153100  0.66306200  0.25000000  1
  Co  Co2  1  0.33693800  0.16846900  0.25000000  1
  Co  Co3  1  0.16846900  0.83153100  0.75000000  1
  Co  Co4  1  0.16846900  0.33693800  0.75000000  1
  Co  Co5  1  0.66306200  0.83153100  0.75000000  1
  P  P6  1  0.00000000  0.00000000  0.50000000  1
  P  P7  1  0.00000000  0.00000000  0.00000000  1
  W  W8  1  0.33333300  0.66666700  0.43455300  1
  W  W9  1  0.66666700  0.33333300  0.56544700  1
  W  W10  1  0.66666700  0.33333300  0.93455300  1
  W  W11  1  0.33333300  0.66666700  0.06544700  1
