# generated using pymatgen
data_Na3NdTi2Nb2O12
_symmetry_space_group_name_H-M   'P 1'
_cell_length_a   5.53543100
_cell_length_b   5.62889000
_cell_length_c   15.58607900
_cell_angle_alpha   90.00000000
_cell_angle_beta   90.00000000
_cell_angle_gamma   90.00000000
_symmetry_Int_Tables_number   1
_chemical_formula_structural   Na3NdTi2Nb2O12
_chemical_formula_sum   'Na6 Nd2 Ti4 Nb4 O24'
_cell_volume   485.63622720
_cell_formula_units_Z   2
loop_
 _symmetry_equiv_pos_site_id
 _symmetry_equiv_pos_as_xyz
  1  'x, y, z'
loop_
 _atom_site_type_symbol
 _atom_site_label
 _atom_site_symmetry_multiplicity
 _atom_site_fract_x
 _atom_site_fract_y
 _atom_site_fract_z
 _atom_site_occupancy
  Na  Na0  1  0.99888200  0.99076200  0.37185200  1
  Na  Na1  1  0.99888200  0.99076200  0.87814800  1
  Na  Na2  1  0.50111800  0.49076200  0.87814800  1
  Na  Na3  1  0.50111800  0.49076200  0.37185200  1
  Na  Na4  1  0.50566400  0.53096100  0.62500000  1
  Na  Na5  1  0.99433600  0.03096100  0.62500000  1
  Nd  Nd6  1  0.50699700  0.54361000  0.12500000  1
  Nd  Nd7  1  0.99300300  0.04361000  0.12500000  1
  Ti  Ti8  1  0.00832200  0.52121700  0.99614000  1
  Ti  Ti9  1  0.00832200  0.52121700  0.25386000  1
  Ti  Ti10  1  0.49167800  0.02121700  0.25386000  1
  Ti  Ti11  1  0.49167800  0.02121700  0.99614000  1
  Nb  Nb12  1  0.00560800  0.52087900  0.49874300  1
  Nb  Nb13  1  0.00560800  0.52087900  0.75125700  1
  Nb  Nb14  1  0.49439200  0.02087900  0.75125700  1
  Nb  Nb15  1  0.49439200  0.02087900  0.49874300  1
  O  O16  1  0.07371000  0.47019900  0.12500000  1
  O  O17  1  0.06755700  0.47325200  0.62500000  1
  O  O18  1  0.20686000  0.20091600  0.48119700  1
  O  O19  1  0.21416800  0.20270400  0.26047600  1
  O  O20  1  0.20686000  0.20091600  0.76880300  1
  O  O21  1  0.21416800  0.20270400  0.98952400  1
  O  O22  1  0.28583200  0.70270400  0.26047600  1
  O  O23  1  0.29314000  0.70091600  0.48119700  1
  O  O24  1  0.29314000  0.70091600  0.76880300  1
  O  O25  1  0.28583200  0.70270400  0.98952400  1
  O  O26  1  0.42629000  0.97019900  0.12500000  1
  O  O27  1  0.43244300  0.97325200  0.62500000  1
  O  O28  1  0.56777900  0.00446800  0.87795000  1
  O  O29  1  0.56777900  0.00446800  0.37205000  1
  O  O30  1  0.71384300  0.26865300  0.02568200  1
  O  O31  1  0.71384300  0.26865300  0.22431800  1
  O  O32  1  0.70911000  0.28138800  0.51665200  1
  O  O33  1  0.70911000  0.28138800  0.73334800  1
  O  O34  1  0.78615700  0.76865300  0.02568200  1
  O  O35  1  0.78615700  0.76865300  0.22431800  1
  O  O36  1  0.79089000  0.78138800  0.51665200  1
  O  O37  1  0.79089000  0.78138800  0.73334800  1
  O  O38  1  0.93222100  0.50446800  0.37205000  1
  O  O39  1  0.93222100  0.50446800  0.87795000  1
