# generated using pymatgen
data_CeTh
_symmetry_space_group_name_H-M   'P 1'
_cell_length_a   5.98868500
_cell_length_b   5.98868500
_cell_length_c   5.98868455
_cell_angle_alpha   33.47244651
_cell_angle_beta   33.47244651
_cell_angle_gamma   33.47245173
_symmetry_Int_Tables_number   1
_chemical_formula_structural   CeTh
_chemical_formula_sum   'Ce1 Th1'
_cell_volume   58.18678949
_cell_formula_units_Z   1
loop_
 _symmetry_equiv_pos_site_id
 _symmetry_equiv_pos_as_xyz
  1  'x, y, z'
loop_
 _atom_site_type_symbol
 _atom_site_label
 _atom_site_symmetry_multiplicity
 _atom_site_fract_x
 _atom_site_fract_y
 _atom_site_fract_z
 _atom_site_occupancy
  Ce  Ce0  1  0.00000000  0.00000000  0.00000000  1
  Th  Th1  1  0.50000000  0.50000000  0.50000000  1
