# generated using pymatgen
data_NaHo2F7
_symmetry_space_group_name_H-M   'P 1'
_cell_length_a   4.24263557
_cell_length_b   5.29569095
_cell_length_c   13.49038282
_cell_angle_alpha   46.59350430
_cell_angle_beta   47.79206935
_cell_angle_gamma   50.73117074
_symmetry_Int_Tables_number   1
_chemical_formula_structural   NaHo2F7
_chemical_formula_sum   'Na1 Ho2 F7'
_cell_volume   154.61943122
_cell_formula_units_Z   1
loop_
 _symmetry_equiv_pos_site_id
 _symmetry_equiv_pos_as_xyz
  1  'x, y, z'
loop_
 _atom_site_type_symbol
 _atom_site_label
 _atom_site_symmetry_multiplicity
 _atom_site_fract_x
 _atom_site_fract_y
 _atom_site_fract_z
 _atom_site_occupancy
  Na  Na0  1  0.08021700  0.08454400  0.99360800  1
  Ho  Ho1  1  0.09662000  0.01087900  0.32195000  1
  Ho  Ho2  1  0.95832000  0.93862900  0.65812700  1
  F  F3  1  0.26765900  0.16509500  0.10515600  1
  F  F4  1  0.43790600  0.00447800  0.39676900  1
  F  F5  1  0.07236300  0.46180900  0.48543200  1
  F  F6  1  0.81531900  0.61761500  0.24922900  1
  F  F7  1  0.28378600  0.33889900  0.72506600  1
  F  F8  1  0.62893000  0.89850700  0.59676000  1
  F  F9  1  0.78088100  0.72954500  0.88457000  1
