# generated using pymatgen
data_CeYCu4
_symmetry_space_group_name_H-M   'P 1'
_cell_length_a   5.48438681
_cell_length_b   5.48438681
_cell_length_c   5.48438681
_cell_angle_alpha   133.75732587
_cell_angle_beta   102.23066531
_cell_angle_gamma   95.54034836
_symmetry_Int_Tables_number   1
_chemical_formula_structural   CeYCu4
_chemical_formula_sum   'Ce1 Y1 Cu4'
_cell_volume   109.32273340
_cell_formula_units_Z   1
loop_
 _symmetry_equiv_pos_site_id
 _symmetry_equiv_pos_as_xyz
  1  'x, y, z'
loop_
 _atom_site_type_symbol
 _atom_site_label
 _atom_site_symmetry_multiplicity
 _atom_site_fract_x
 _atom_site_fract_y
 _atom_site_fract_z
 _atom_site_occupancy
  Ce  Ce0  1  0.03956900  0.53956900  0.50000000  1
  Y  Y1  1  0.46259100  0.46259100  0.00000000  1
  Cu  Cu2  1  0.46453500  0.16485700  0.29967800  1
  Cu  Cu3  1  0.03445600  0.83406300  0.20039300  1
  Cu  Cu4  1  0.63367000  0.83406300  0.79960700  1
  Cu  Cu5  1  0.86517900  0.16485700  0.70032200  1
