# generated using pymatgen
data_CeUB8
_symmetry_space_group_name_H-M   'P 1'
_cell_length_a   7.10838723
_cell_length_b   7.10838723
_cell_length_c   4.01070400
_cell_angle_alpha   90.00000000
_cell_angle_beta   90.00000000
_cell_angle_gamma   90.70013061
_symmetry_Int_Tables_number   1
_chemical_formula_structural   CeUB8
_chemical_formula_sum   'Ce2 U2 B16'
_cell_volume   202.64241043
_cell_formula_units_Z   2
loop_
 _symmetry_equiv_pos_site_id
 _symmetry_equiv_pos_as_xyz
  1  'x, y, z'
loop_
 _atom_site_type_symbol
 _atom_site_label
 _atom_site_symmetry_multiplicity
 _atom_site_fract_x
 _atom_site_fract_y
 _atom_site_fract_z
 _atom_site_occupancy
  Ce  Ce0  1  0.81152000  0.81152000  0.00000000  1
  Ce  Ce1  1  0.18848000  0.18848000  0.00000000  1
  U  U2  1  0.68877100  0.31122900  0.00000000  1
  U  U3  1  0.31122900  0.68877100  0.00000000  1
  B  B4  1  0.00000000  0.50000000  0.79911000  1
  B  B5  1  0.50000000  0.00000000  0.79911000  1
  B  B6  1  0.00000000  0.50000000  0.20089000  1
  B  B7  1  0.50000000  0.00000000  0.20089000  1
  B  B8  1  0.04229100  0.67702200  0.50000000  1
  B  B9  1  0.95770900  0.32297800  0.50000000  1
  B  B10  1  0.46483800  0.17829800  0.50000000  1
  B  B11  1  0.53516200  0.82170200  0.50000000  1
  B  B12  1  0.17829800  0.46483800  0.50000000  1
  B  B13  1  0.82170200  0.53516200  0.50000000  1
  B  B14  1  0.67702200  0.04229100  0.50000000  1
  B  B15  1  0.32297800  0.95770900  0.50000000  1
  B  B16  1  0.58736700  0.58736700  0.50000000  1
  B  B17  1  0.41263300  0.41263300  0.50000000  1
  B  B18  1  0.91192200  0.08807800  0.50000000  1
  B  B19  1  0.08807800  0.91192200  0.50000000  1
