# generated using pymatgen
data_CeZr3O8
_symmetry_space_group_name_H-M   'P 1'
_cell_length_a   5.32757700
_cell_length_b   5.35312981
_cell_length_c   5.50218916
_cell_angle_alpha   89.66331119
_cell_angle_beta   80.97963040
_cell_angle_gamma   89.41208267
_symmetry_Int_Tables_number   1
_chemical_formula_structural   CeZr3O8
_chemical_formula_sum   'Ce1 Zr3 O8'
_cell_volume   154.96783065
_cell_formula_units_Z   1
loop_
 _symmetry_equiv_pos_site_id
 _symmetry_equiv_pos_as_xyz
  1  'x, y, z'
loop_
 _atom_site_type_symbol
 _atom_site_label
 _atom_site_symmetry_multiplicity
 _atom_site_fract_x
 _atom_site_fract_y
 _atom_site_fract_z
 _atom_site_occupancy
  Ce  Ce0  1  0.73093800  0.53283400  0.70822500  1
  Zr  Zr1  1  0.27445100  0.03518300  0.79611200  1
  Zr  Zr2  1  0.27711600  0.45128200  0.28306700  1
  Zr  Zr3  1  0.72217600  0.95795000  0.21221200  1
  O  O4  1  0.53092500  0.24200400  0.98674100  1
  O  O5  1  0.44527100  0.76384700  0.52257400  1
  O  O6  1  0.44893200  0.74459000  0.03486800  1
  O  O7  1  0.54995800  0.23886200  0.46980700  1
  O  O8  1  0.93749200  0.83925200  0.85995100  1
  O  O9  1  0.08817600  0.32109200  0.63722700  1
  O  O10  1  0.05075200  0.19011400  0.14456500  1
  O  O11  1  0.94381400  0.68298800  0.34465000  1
