# generated using pymatgen
data_Er6Ge11
_symmetry_space_group_name_H-M   'P 1'
_cell_length_a   4.03854967
_cell_length_b   4.10829500
_cell_length_c   43.68352084
_cell_angle_alpha   92.69523669
_cell_angle_beta   90.12274960
_cell_angle_gamma   90.00000000
_symmetry_Int_Tables_number   1
_chemical_formula_structural   Er6Ge11
_chemical_formula_sum   'Er12 Ge22'
_cell_volume   723.97404659
_cell_formula_units_Z   2
loop_
 _symmetry_equiv_pos_site_id
 _symmetry_equiv_pos_as_xyz
  1  'x, y, z'
loop_
 _atom_site_type_symbol
 _atom_site_label
 _atom_site_symmetry_multiplicity
 _atom_site_fract_x
 _atom_site_fract_y
 _atom_site_fract_z
 _atom_site_occupancy
  Er  Er0  1  0.25519300  0.64645300  0.29290500  1
  Er  Er1  1  0.25497500  0.31320600  0.62641400  1
  Er  Er2  1  0.27794100  0.97967700  0.95935400  1
  Er  Er3  1  0.77793000  0.02035800  0.04071600  1
  Er  Er4  1  0.73762700  0.68789100  0.37578100  1
  Er  Er5  1  0.73825800  0.35460100  0.70920300  1
  Er  Er6  1  0.73827400  0.60931000  0.21862000  1
  Er  Er7  1  0.73772900  0.27605100  0.55210200  1
  Er  Er8  1  0.74210100  0.94191400  0.88382800  1
  Er  Er9  1  0.24131700  0.05821900  0.11643900  1
  Er  Er10  1  0.24326900  0.72402800  0.44805700  1
  Er  Er11  1  0.24421200  0.39057700  0.78115300  1
  Ge  Ge12  1  0.74109100  0.55392200  0.10784400  1
  Ge  Ge13  1  0.74341300  0.21679500  0.43358800  1
  Ge  Ge14  1  0.74494200  0.88289200  0.76578500  1
  Ge  Ge15  1  0.23885400  0.11649000  0.23297900  1
  Ge  Ge16  1  0.23753800  0.78268700  0.56537500  1
  Ge  Ge17  1  0.24093000  0.44593000  0.89186000  1
  Ge  Ge18  1  0.24779600  0.53447700  0.06895500  1
  Ge  Ge19  1  0.23945300  0.19674000  0.39348100  1
  Ge  Ge20  1  0.24074900  0.86309100  0.72618100  1
  Ge  Ge21  1  0.74851500  0.13553300  0.27106700  1
  Ge  Ge22  1  0.74553200  0.80203400  0.60406800  1
  Ge  Ge23  1  0.74909800  0.46547300  0.93094500  1
  Ge  Ge24  1  0.24358600  0.58350200  0.16700500  1
  Ge  Ge25  1  0.23604600  0.25004000  0.50008000  1
  Ge  Ge26  1  0.24175700  0.91652300  0.83304500  1
  Ge  Ge27  1  0.74474300  0.08349900  0.16700000  1
  Ge  Ge28  1  0.75011700  0.75006800  0.50013500  1
  Ge  Ge29  1  0.74998900  0.41651100  0.83302100  1
  Ge  Ge30  1  0.86425500  0.16395600  0.32791300  1
  Ge  Ge31  1  0.86563600  0.83061000  0.66121800  1
  Ge  Ge32  1  0.80281300  0.49290300  0.98580800  1
  Ge  Ge33  1  0.30432200  0.50710500  0.01420900  1
