# generated using pymatgen
data_Na3SmTi2Nb2O12
_symmetry_space_group_name_H-M   'P 1'
_cell_length_a   5.50534900
_cell_length_b   5.61044700
_cell_length_c   15.59311300
_cell_angle_alpha   90.00000000
_cell_angle_beta   90.00000000
_cell_angle_gamma   90.00000000
_symmetry_Int_Tables_number   1
_chemical_formula_structural   Na3SmTi2Nb2O12
_chemical_formula_sum   'Na6 Sm2 Ti4 Nb4 O24'
_cell_volume   481.63179099
_cell_formula_units_Z   2
loop_
 _symmetry_equiv_pos_site_id
 _symmetry_equiv_pos_as_xyz
  1  'x, y, z'
loop_
 _atom_site_type_symbol
 _atom_site_label
 _atom_site_symmetry_multiplicity
 _atom_site_fract_x
 _atom_site_fract_y
 _atom_site_fract_z
 _atom_site_occupancy
  Na  Na0  1  0.99939200  0.98462500  0.37215700  1
  Na  Na1  1  0.99939200  0.98462500  0.87784300  1
  Na  Na2  1  0.50060800  0.48462500  0.87784300  1
  Na  Na3  1  0.50060800  0.48462500  0.37215700  1
  Na  Na4  1  0.50523700  0.53033100  0.62500000  1
  Na  Na5  1  0.99476300  0.03033100  0.62500000  1
  Sm  Sm6  1  0.50956300  0.54989400  0.12500000  1
  Sm  Sm7  1  0.99043700  0.04989400  0.12500000  1
  Ti  Ti8  1  0.48984900  0.02027800  0.25302600  1
  Ti  Ti9  1  0.48984900  0.02027800  0.99697400  1
  Ti  Ti10  1  0.01015100  0.52027800  0.25302600  1
  Ti  Ti11  1  0.01015100  0.52027800  0.99697400  1
  Nb  Nb12  1  0.49569800  0.01857000  0.75184700  1
  Nb  Nb13  1  0.49569800  0.01857000  0.49815300  1
  Nb  Nb14  1  0.00430200  0.51857000  0.49815300  1
  Nb  Nb15  1  0.00430200  0.51857000  0.75184700  1
  O  O16  1  0.08199700  0.46775900  0.12500000  1
  O  O17  1  0.06759500  0.47801800  0.62500000  1
  O  O18  1  0.20698000  0.20276200  0.48041300  1
  O  O19  1  0.20672800  0.19680400  0.26031200  1
  O  O20  1  0.20698000  0.20276200  0.76958700  1
  O  O21  1  0.20672800  0.19680400  0.98968800  1
  O  O22  1  0.29327200  0.69680400  0.26031200  1
  O  O23  1  0.29302000  0.70276200  0.48041300  1
  O  O24  1  0.29302000  0.70276200  0.76958700  1
  O  O25  1  0.29327200  0.69680400  0.98968800  1
  O  O26  1  0.41800300  0.96775900  0.12500000  1
  O  O27  1  0.43240500  0.97801800  0.62500000  1
  O  O28  1  0.56774500  0.00829900  0.87878700  1
  O  O29  1  0.56774500  0.00829900  0.37121300  1
  O  O30  1  0.70995400  0.27154300  0.02816600  1
  O  O31  1  0.70995400  0.27154300  0.22183400  1
  O  O32  1  0.70785900  0.28411800  0.73396300  1
  O  O33  1  0.70785900  0.28411800  0.51603700  1
  O  O34  1  0.79004600  0.77154300  0.02816600  1
  O  O35  1  0.79004600  0.77154300  0.22183400  1
  O  O36  1  0.79214100  0.78411800  0.51603700  1
  O  O37  1  0.79214100  0.78411800  0.73396300  1
  O  O38  1  0.93225500  0.50829900  0.37121300  1
  O  O39  1  0.93225500  0.50829900  0.87878700  1
