# generated using pymatgen
data_CeAlGa
_symmetry_space_group_name_H-M   'P 1'
_cell_length_a   4.10293600
_cell_length_b   4.35227349
_cell_length_c   4.35224104
_cell_angle_alpha   119.99089832
_cell_angle_beta   90.00000000
_cell_angle_gamma   90.00000000
_symmetry_Int_Tables_number   1
_chemical_formula_structural   CeAlGa
_chemical_formula_sum   'Ce1 Al1 Ga1'
_cell_volume   67.31228230
_cell_formula_units_Z   1
loop_
 _symmetry_equiv_pos_site_id
 _symmetry_equiv_pos_as_xyz
  1  'x, y, z'
loop_
 _atom_site_type_symbol
 _atom_site_label
 _atom_site_symmetry_multiplicity
 _atom_site_fract_x
 _atom_site_fract_y
 _atom_site_fract_z
 _atom_site_occupancy
  Ce  Ce0  1  0.00000000  0.99996800  0.00000700  1
  Al  Al1  1  0.50000000  0.33330100  0.66664900  1
  Ga  Ga2  1  0.50000000  0.66663100  0.33334400  1
