# generated using pymatgen
data_Na3CaAl3Si3SO16
_symmetry_space_group_name_H-M   'P 1'
_cell_length_a   9.08804178
_cell_length_b   9.08804178
_cell_length_c   9.08804285
_cell_angle_alpha   89.81956071
_cell_angle_beta   89.81956071
_cell_angle_gamma   89.81955906
_symmetry_Int_Tables_number   1
_chemical_formula_structural   Na3CaAl3Si3SO16
_chemical_formula_sum   'Na6 Ca2 Al6 Si6 S2 O32'
_cell_volume   750.59306599
_cell_formula_units_Z   2
loop_
 _symmetry_equiv_pos_site_id
 _symmetry_equiv_pos_as_xyz
  1  'x, y, z'
loop_
 _atom_site_type_symbol
 _atom_site_label
 _atom_site_symmetry_multiplicity
 _atom_site_fract_x
 _atom_site_fract_y
 _atom_site_fract_z
 _atom_site_occupancy
  Na  Na0  1  0.79368500  0.20329600  0.20539900  1
  Na  Na1  1  0.20329600  0.20539900  0.79368500  1
  Na  Na2  1  0.70329600  0.29368500  0.70539900  1
  Na  Na3  1  0.70539900  0.70329600  0.29368500  1
  Na  Na4  1  0.29368500  0.70539900  0.70329600  1
  Na  Na5  1  0.20539900  0.79368500  0.20329600  1
  Ca  Ca6  1  0.32012600  0.32012600  0.32012600  1
  Ca  Ca7  1  0.82012600  0.82012600  0.82012600  1
  Al  Al8  1  0.99743100  0.25143700  0.50144100  1
  Al  Al9  1  0.75143700  0.49743100  0.00144100  1
  Al  Al10  1  0.25143700  0.50144100  0.99743100  1
  Al  Al11  1  0.00144100  0.75143700  0.49743100  1
  Al  Al12  1  0.50144100  0.99743100  0.25143700  1
  Al  Al13  1  0.49743100  0.00144100  0.75143700  1
  Si  Si14  1  0.24963300  0.00223300  0.50003600  1
  Si  Si15  1  0.50003600  0.24963300  0.00223300  1
  Si  Si16  1  0.00003600  0.50223300  0.74963300  1
  Si  Si17  1  0.00223300  0.50003600  0.24963300  1
  Si  Si18  1  0.50223300  0.74963300  0.00003600  1
  Si  Si19  1  0.74963300  0.00003600  0.50223300  1
  S  S20  1  0.99440800  0.99440800  0.99440800  1
  S  S21  1  0.49440800  0.49440800  0.49440800  1
  O  O22  1  0.35076300  0.05794000  0.35926700  1
  O  O23  1  0.65331800  0.04687000  0.64730500  1
  O  O24  1  0.08758300  0.08758300  0.08758300  1
  O  O25  1  0.89802600  0.08366500  0.89279000  1
  O  O26  1  0.84846000  0.14118700  0.45179200  1
  O  O27  1  0.15331800  0.14730500  0.54687000  1
  O  O28  1  0.54687000  0.15331800  0.14730500  1
  O  O29  1  0.44798400  0.15112900  0.86279600  1
  O  O30  1  0.35926700  0.35076300  0.05794000  1
  O  O31  1  0.64118700  0.34846000  0.95179200  1
  O  O32  1  0.05794000  0.35926700  0.35076300  1
  O  O33  1  0.94798400  0.36279600  0.65112900  1
  O  O34  1  0.58366500  0.39802600  0.39279000  1
  O  O35  1  0.39802600  0.39279000  0.58366500  1
  O  O36  1  0.86279600  0.44798400  0.15112900  1
  O  O37  1  0.14118700  0.45179200  0.84846000  1
  O  O38  1  0.14730500  0.54687000  0.15331800  1
  O  O39  1  0.85926700  0.55794000  0.85076300  1
  O  O40  1  0.39279000  0.58366500  0.39802600  1
  O  O41  1  0.58758300  0.58758300  0.58758300  1
  O  O42  1  0.95179200  0.64118700  0.34846000  1
  O  O43  1  0.04687000  0.64730500  0.65331800  1
  O  O44  1  0.64730500  0.65331800  0.04687000  1
  O  O45  1  0.36279600  0.65112900  0.94798400  1
  O  O46  1  0.45179200  0.84846000  0.14118700  1
  O  O47  1  0.55794000  0.85076300  0.85926700  1
  O  O48  1  0.85076300  0.85926700  0.55794000  1
  O  O49  1  0.15112900  0.86279600  0.44798400  1
  O  O50  1  0.89279000  0.89802600  0.08366500  1
  O  O51  1  0.08366500  0.89279000  0.89802600  1
  O  O52  1  0.65112900  0.94798400  0.36279600  1
  O  O53  1  0.34846000  0.95179200  0.64118700  1
