# generated using pymatgen
data_Er9B5S21
_symmetry_space_group_name_H-M   'P 1'
_cell_length_a   11.14217165
_cell_length_b   11.14217165
_cell_length_c   11.14217184
_cell_angle_alpha   96.05357183
_cell_angle_beta   96.05357183
_cell_angle_gamma   96.05357492
_symmetry_Int_Tables_number   1
_chemical_formula_structural   Er9B5S21
_chemical_formula_sum   'Er18 B10 S42'
_cell_volume   1358.35522353
_cell_formula_units_Z   2
loop_
 _symmetry_equiv_pos_site_id
 _symmetry_equiv_pos_as_xyz
  1  'x, y, z'
loop_
 _atom_site_type_symbol
 _atom_site_label
 _atom_site_symmetry_multiplicity
 _atom_site_fract_x
 _atom_site_fract_y
 _atom_site_fract_z
 _atom_site_occupancy
  Er  Er0  1  0.91928200  0.53027000  0.77211600  1
  Er  Er1  1  0.54645600  0.19457900  0.43234400  1
  Er  Er2  1  0.21945900  0.83479400  0.08549200  1
  Er  Er3  1  0.19457900  0.43234400  0.54645600  1
  Er  Er4  1  0.83479400  0.08549200  0.21945900  1
  Er  Er5  1  0.53027000  0.77211600  0.91928200  1
  Er  Er6  1  0.08549200  0.21945900  0.83479400  1
  Er  Er7  1  0.77211600  0.91928200  0.53027000  1
  Er  Er8  1  0.43234400  0.54645600  0.19457900  1
  Er  Er9  1  0.73338300  0.08610300  0.85614400  1
  Er  Er10  1  0.37311400  0.75853500  0.50742700  1
  Er  Er11  1  0.06561400  0.45303400  0.20036600  1
  Er  Er12  1  0.45303400  0.20036600  0.06561400  1
  Er  Er13  1  0.08610300  0.85614400  0.73338300  1
  Er  Er14  1  0.75853500  0.50742700  0.37311400  1
  Er  Er15  1  0.50742700  0.37311400  0.75853500  1
  Er  Er16  1  0.20036600  0.06561400  0.45303400  1
  Er  Er17  1  0.85614400  0.73338300  0.08610300  1
  B  B18  1  0.75927500  0.41908000  0.07907400  1
  B  B19  1  0.41908000  0.07907400  0.75927500  1
  B  B20  1  0.07907400  0.75927500  0.41908000  1
  B  B21  1  0.58120000  0.91373900  0.26287200  1
  B  B22  1  0.26287200  0.58120000  0.91373900  1
  B  B23  1  0.91373900  0.26287200  0.58120000  1
  B  B24  1  0.04285900  0.04285900  0.04285900  1
  B  B25  1  0.73085000  0.73085000  0.73085000  1
  B  B26  1  0.22888400  0.22888400  0.22888400  1
  B  B27  1  0.54423400  0.54423400  0.54423400  1
  S  S28  1  0.96575900  0.64993200  0.30386600  1
  S  S29  1  0.64993200  0.30386600  0.96575900  1
  S  S30  1  0.30386600  0.96575900  0.64993200  1
  S  S31  1  0.46767600  0.79923500  0.15284000  1
  S  S32  1  0.15284000  0.46767600  0.79923500  1
  S  S33  1  0.79923500  0.15284000  0.46767600  1
  S  S34  1  0.53959400  0.35890900  0.27154700  1
  S  S35  1  0.16931000  0.02661500  0.95210800  1
  S  S36  1  0.84765700  0.70752400  0.62971900  1
  S  S37  1  0.70752400  0.62971900  0.84765700  1
  S  S38  1  0.35890900  0.27154700  0.53959400  1
  S  S39  1  0.02661500  0.95210800  0.16931000  1
  S  S40  1  0.95210800  0.16931000  0.02661500  1
  S  S41  1  0.62971900  0.84765700  0.70752400  1
  S  S42  1  0.27154700  0.53959400  0.35890900  1
  S  S43  1  0.74270400  0.91813300  0.01125600  1
  S  S44  1  0.43032400  0.57254800  0.64802800  1
  S  S45  1  0.10586400  0.25171300  0.32224500  1
  S  S46  1  0.57254800  0.64802800  0.43032400  1
  S  S47  1  0.25171300  0.32224500  0.10586400  1
  S  S48  1  0.91813300  0.01125600  0.74270400  1
  S  S49  1  0.32224500  0.10586400  0.25171300  1
  S  S50  1  0.01125600  0.74270400  0.91813300  1
  S  S51  1  0.64802800  0.43032400  0.57254800  1
  S  S52  1  0.68436600  0.56184200  0.14081500  1
  S  S53  1  0.34229400  0.21697400  0.82961400  1
  S  S54  1  0.01185300  0.90127700  0.48593900  1
  S  S55  1  0.90127700  0.48593900  0.01185300  1
  S  S56  1  0.56184200  0.14081500  0.68436600  1
  S  S57  1  0.21697400  0.82961400  0.34229400  1
  S  S58  1  0.82961400  0.34229400  0.21697400  1
  S  S59  1  0.48593900  0.01185300  0.90127700  1
  S  S60  1  0.14081500  0.68436600  0.56184200  1
  S  S61  1  0.74335300  0.86169900  0.28732100  1
  S  S62  1  0.42430400  0.52971200  0.94272800  1
  S  S63  1  0.07642000  0.21205300  0.59772500  1
  S  S64  1  0.52971200  0.94272800  0.42430400  1
  S  S65  1  0.21205300  0.59772500  0.07642000  1
  S  S66  1  0.86169900  0.28732100  0.74335300  1
  S  S67  1  0.59772500  0.07642000  0.21205300  1
  S  S68  1  0.28732100  0.74335300  0.86169900  1
  S  S69  1  0.94272800  0.42430400  0.52971200  1
