# generated using pymatgen
data_K19Ti3Sb29O88
_symmetry_space_group_name_H-M   'P 1'
_cell_length_a   10.30456810
_cell_length_b   10.41603091
_cell_length_c   20.24688726
_cell_angle_alpha   90.03185490
_cell_angle_beta   81.93076543
_cell_angle_gamma   89.86902338
_symmetry_Int_Tables_number   1
_chemical_formula_structural   K19Ti3Sb29O88
_chemical_formula_sum   'K19 Ti3 Sb29 O88'
_cell_volume   2151.63059552
_cell_formula_units_Z   1
loop_
 _symmetry_equiv_pos_site_id
 _symmetry_equiv_pos_as_xyz
  1  'x, y, z'
loop_
 _atom_site_type_symbol
 _atom_site_label
 _atom_site_symmetry_multiplicity
 _atom_site_fract_x
 _atom_site_fract_y
 _atom_site_fract_z
 _atom_site_occupancy
  K  K0  1  0.20555816  0.71786195  0.33985109  1
  K  K1  1  0.29249885  0.21829891  0.15955577  1
  K  K2  1  0.79480164  0.28383136  0.66179709  1
  K  K3  1  0.71491831  0.77843824  0.84567386  1
  K  K4  1  0.64084483  0.89840701  0.01761816  1
  K  K5  1  0.86658950  0.41136225  0.48094443  1
  K  K6  1  0.36853936  0.09307295  0.98157512  1
  K  K7  1  0.13311877  0.58930210  0.51938301  1
  K  K8  1  0.00145025  0.96314112  0.25270626  1
  K  K9  1  0.49699091  0.46189958  0.24921267  1
  K  K10  1  0.99323419  0.03745743  0.74818266  1
  K  K11  1  0.50812735  0.53718195  0.75059680  1
  K  K12  1  0.80139746  0.70179152  0.14051518  1
  K  K13  1  0.70052916  0.21388009  0.35217062  1
  K  K14  1  0.19913977  0.28913357  0.85255695  1
  K  K15  1  0.29724915  0.78504897  0.64972486  1
  K  K16  1  0.39479861  0.87328458  0.47158470  1
  K  K17  1  0.07866166  0.39344439  0.02484989  1
  K  K18  1  0.60598542  0.12682668  0.52881221  1
  Ti  Ti19  1  0.70216941  0.33265772  0.07624307  1
  Ti  Ti20  1  0.80051983  0.83414742  0.42298021  1
  Ti  Ti21  1  0.19898775  0.16579483  0.57693887  1
  Sb  Sb22  1  0.45972655  0.56029990  0.06799252  1
  Sb  Sb23  1  0.04405904  0.06547158  0.43352375  1
  Sb  Sb24  1  0.54416743  0.43425619  0.93350794  1
  Sb  Sb25  1  0.95611733  0.93422949  0.56643377  1
  Sb  Sb26  1  0.94264212  0.04638809  0.06883531  1
  Sb  Sb27  1  0.55735659  0.54390925  0.43042142  1
  Sb  Sb28  1  0.05531863  0.95919880  0.92898568  1
  Sb  Sb29  1  0.44227837  0.45656705  0.56958984  1
  Sb  Sb30  1  0.14868013  0.55922735  0.18542717  1
  Sb  Sb31  1  0.35231431  0.06070900  0.31517528  1
  Sb  Sb32  1  0.85212056  0.44171467  0.81696513  1
  Sb  Sb33  1  0.64862272  0.93933881  0.68485869  1
  Sb  Sb34  1  0.17110759  0.79233613  0.07726082  1
  Sb  Sb35  1  0.32526314  0.29041031  0.42612625  1
  Sb  Sb36  1  0.82376034  0.21037686  0.92512983  1
  Sb  Sb37  1  0.67495293  0.70961353  0.57397940  1
  Sb  Sb38  1  0.64636475  0.07313225  0.19017863  1
  Sb  Sb39  1  0.85405977  0.57363110  0.30881320  1
  Sb  Sb40  1  0.35606504  0.92864358  0.80912424  1
  Sb  Sb41  1  0.14493667  0.42681156  0.69108264  1
  Sb  Sb42  1  0.92343921  0.29870578  0.19261413  1
  Sb  Sb43  1  0.57871609  0.79964337  0.30711192  1
  Sb  Sb44  1  0.07439784  0.69823208  0.80937425  1
  Sb  Sb45  1  0.42147671  0.20012191  0.69204010  1
  Sb  Sb46  1  0.39573947  0.84889005  0.16980414  1
  Sb  Sb47  1  0.10504065  0.34848604  0.33072556  1
  Sb  Sb48  1  0.60551318  0.15314889  0.82951971  1
  Sb  Sb49  1  0.89502522  0.65145963  0.67008229  1
  Sb  Sb50  1  0.29759509  0.67207891  0.92594560  1
  O  O51  1  0.41919304  0.89871463  0.34448442  1
  O  O52  1  0.08149781  0.39908105  0.15452215  1
  O  O53  1  0.58075542  0.10068754  0.65528658  1
  O  O54  1  0.91639134  0.60311797  0.84709008  1
  O  O55  1  0.48868289  0.66425776  0.36819857  1
  O  O56  1  0.01339495  0.16351068  0.13143386  1
  O  O57  1  0.51190532  0.33521887  0.63087202  1
  O  O58  1  0.99073751  0.84286762  0.86478193  1
  O  O59  1  0.02192734  0.89653546  0.11358029  1
  O  O60  1  0.47492416  0.39555649  0.38690899  1
  O  O61  1  0.97518787  0.10658250  0.88589664  1
  O  O62  1  0.52481416  0.60479184  0.61296939  1
  O  O63  1  0.49998492  0.72991547  0.10322337  1
  O  O64  1  0.99612034  0.23144072  0.39596550  1
  O  O65  1  0.49541833  0.27042674  0.89514704  1
  O  O66  1  0.00328048  0.76840308  0.60410857  1
  O  O67  1  0.32854341  0.50290466  0.14325368  1
  O  O68  1  0.17290654  0.00336135  0.35737789  1
  O  O69  1  0.66973666  0.49606348  0.85682216  1
  O  O70  1  0.82749907  0.99701385  0.64238998  1
  O  O71  1  0.89161224  0.71770822  0.36979498  1
  O  O72  1  0.60984064  0.21737280  0.12897935  1
  O  O73  1  0.10810181  0.28220246  0.63008429  1
  O  O74  1  0.41101794  0.78797683  0.87256519  1
  O  O75  1  0.39898446  0.58061679  0.49735119  1
  O  O76  1  0.10254750  0.07841681  0.00221086  1
  O  O77  1  0.60065554  0.41997610  0.50239684  1
  O  O78  1  0.90141108  0.92306816  0.99682676  1
  O  O79  1  0.72287349  0.49069383  0.37825197  1
  O  O80  1  0.77745756  0.99148521  0.12026734  1
  O  O81  1  0.27657247  0.51000741  0.62157463  1
  O  O82  1  0.22456433  0.00778460  0.87961911  1
  O  O83  1  0.22480824  0.74511394  0.17678744  1
  O  O84  1  0.27553053  0.24475198  0.32385178  1
  O  O85  1  0.77463585  0.25623090  0.82281956  1
  O  O86  1  0.72464297  0.75546563  0.67633856  1
  O  O87  1  0.31027779  0.91497145  0.08857829  1
  O  O88  1  0.18862941  0.41605395  0.41133478  1
  O  O89  1  0.68844663  0.08436265  0.91065355  1
  O  O90  1  0.81099421  0.58394177  0.58906266  1
  O  O91  1  0.99641682  0.64634779  0.24026372  1
  O  O92  1  0.50421458  0.14681593  0.25910197  1
  O  O93  1  0.00384067  0.35455877  0.76012022  1
  O  O94  1  0.49481515  0.85426045  0.73985143  1
  O  O95  1  0.89386744  0.98187299  0.39760747  1
  O  O96  1  0.60919126  0.48141274  0.10355622  1
  O  O97  1  0.10629450  0.01778395  0.60227748  1
  O  O98  1  0.39023733  0.51423077  0.89500358  1
  O  O99  1  0.65671651  0.87318345  0.38504942  1
  O  O100  1  0.84375255  0.37118917  0.11549213  1
  O  O101  1  0.34350869  0.12642465  0.61424144  1
  O  O102  1  0.14800121  0.61505229  0.88808135  1
  O  O103  1  0.52401055  0.97990201  0.13956901  1
  O  O104  1  0.97710279  0.48166924  0.35918245  1
  O  O105  1  0.47514516  0.02401321  0.85895085  1
  O  O106  1  0.02254032  0.51841889  0.64035934  1
  O  O107  1  0.65831142  0.68629510  0.47727447  1
  O  O108  1  0.84364366  0.18929039  0.02178291  1
  O  O109  1  0.34146149  0.31421362  0.52263915  1
  O  O110  1  0.16605578  0.81495456  0.97701991  1
  O  O111  1  0.71769006  0.67414239  0.27073682  1
  O  O112  1  0.78439733  0.17287602  0.22758188  1
  O  O113  1  0.28349433  0.32668112  0.72755595  1
  O  O114  1  0.22416245  0.81581909  0.77681311  1
  O  O115  1  0.07979400  0.62975207  0.10051913  1
  O  O116  1  0.42274056  0.12976702  0.40046909  1
  O  O117  1  0.92246236  0.36790606  0.89970969  1
  O  O118  1  0.57792366  0.87035112  0.59945446  1
  O  O119  1  0.67929784  0.92990855  0.25022315  1
  O  O120  1  0.82131708  0.42840037  0.24987908  1
  O  O121  1  0.31803482  0.07014260  0.74913639  1
  O  O122  1  0.17771335  0.57107774  0.75069698  1
  O  O123  1  0.31070953  0.65835707  0.02300501  1
  O  O124  1  0.18639620  0.16287234  0.47793759  1
  O  O125  1  0.68432197  0.33567717  0.97785409  1
  O  O126  1  0.81381326  0.83711624  0.52180747  1
  O  O127  1  0.46684733  0.74255427  0.23817573  1
  O  O128  1  0.03555147  0.24264185  0.26133045  1
  O  O129  1  0.53287763  0.25757770  0.76077181  1
  O  O130  1  0.96829714  0.75728225  0.73838213  1
  O  O131  1  0.29450443  0.98014007  0.23242841  1
  O  O132  1  0.20682056  0.47918807  0.26757563  1
  O  O133  1  0.70548442  0.01983397  0.76739613  1
  O  O134  1  0.79470892  0.52159170  0.73350216  1
  O  O135  1  0.08082096  0.90018556  0.48134944  1
  O  O136  1  0.41985090  0.39899387  0.01874130  1
  O  O137  1  0.91961657  0.09953224  0.51848557  1
  O  O138  1  0.57114892  0.60109153  0.98089188  1
