# generated using pymatgen
data_NaCaAlFe(SiO3)4
_symmetry_space_group_name_H-M   'P 1'
_cell_length_a   6.60606048
_cell_length_b   6.60606048
_cell_length_c   15.97813597
_cell_angle_alpha   77.41382967
_cell_angle_beta   77.41382967
_cell_angle_gamma   85.09153803
_symmetry_Int_Tables_number   1
_chemical_formula_structural   NaCaAlFe(SiO3)4
_chemical_formula_sum   'Na3 Ca3 Al3 Fe3 Si12 O36'
_cell_volume   663.64565059
_cell_formula_units_Z   3
loop_
 _symmetry_equiv_pos_site_id
 _symmetry_equiv_pos_as_xyz
  1  'x, y, z'
loop_
 _atom_site_type_symbol
 _atom_site_label
 _atom_site_symmetry_multiplicity
 _atom_site_fract_x
 _atom_site_fract_y
 _atom_site_fract_z
 _atom_site_occupancy
  Na  Na0  1  0.29976000  0.70424700  0.66577800  1
  Na  Na1  1  0.70002600  0.29997400  0.50000000  1
  Na  Na2  1  0.29575300  0.70024000  0.33422200  1
  Ca  Ca3  1  0.69710300  0.29566800  0.16871700  1
  Ca  Ca4  1  0.30165600  0.69834400  0.00000000  1
  Ca  Ca5  1  0.70433200  0.30289700  0.83128300  1
  Al  Al6  1  0.90764200  0.10106500  0.66084800  1
  Al  Al7  1  0.10073100  0.89926900  0.50000000  1
  Al  Al8  1  0.89893500  0.09235800  0.33915200  1
  Fe  Fe9  1  0.09068400  0.90068900  0.17163900  1
  Fe  Fe10  1  0.90924900  0.09075100  0.00000000  1
  Fe  Fe11  1  0.09931100  0.90931600  0.82836100  1
  Si  Si12  1  0.80597000  0.62332200  0.65495100  1
  Si  Si13  1  0.38790200  0.19875500  0.66992900  1
  Si  Si14  1  0.61409400  0.80293900  0.49153000  1
  Si  Si15  1  0.19706100  0.38590600  0.50847000  1
  Si  Si16  1  0.80124500  0.61209800  0.33007100  1
  Si  Si17  1  0.37667800  0.19403000  0.34504900  1
  Si  Si18  1  0.61650200  0.80204900  0.16458600  1
  Si  Si19  1  0.19371200  0.36947000  0.17681800  1
  Si  Si20  1  0.80512800  0.62229900  0.99545800  1
  Si  Si21  1  0.37770100  0.19487200  0.00454200  1
  Si  Si22  1  0.63053000  0.80628800  0.82318200  1
  Si  Si23  1  0.19795100  0.38349800  0.83541400  1
  O  O24  1  0.37899000  0.32827400  0.75026000  1
  O  O25  1  0.88839200  0.38267300  0.67900200  1
  O  O26  1  0.96533700  0.81904100  0.62220200  1
  O  O27  1  0.18941600  0.04788400  0.69384200  1
  O  O28  1  0.62485400  0.10784300  0.64605600  1
  O  O29  1  0.65252700  0.64856400  0.58465700  1
  O  O30  1  0.34763300  0.36948400  0.58039800  1
  O  O31  1  0.37834200  0.89714500  0.51221800  1
  O  O32  1  0.81093700  0.96297000  0.45991200  1
  O  O33  1  0.03703000  0.18906300  0.54008800  1
  O  O34  1  0.10285500  0.62165800  0.48778200  1
  O  O35  1  0.63051600  0.65236700  0.41960200  1
  O  O36  1  0.35143600  0.34747300  0.41534300  1
  O  O37  1  0.89215700  0.37514600  0.35394400  1
  O  O38  1  0.95211600  0.81058400  0.30615800  1
  O  O39  1  0.18095900  0.03466300  0.37779800  1
  O  O40  1  0.61732700  0.11160800  0.32099800  1
  O  O41  1  0.67172600  0.62100900  0.24974000  1
  O  O42  1  0.34583600  0.34592600  0.24895800  1
  O  O43  1  0.38941100  0.89601900  0.19378100  1
  O  O44  1  0.79448600  0.97221400  0.13456600  1
  O  O45  1  0.01691600  0.19495600  0.21655800  1
  O  O46  1  0.11082500  0.60183000  0.14623400  1
  O  O47  1  0.62690200  0.66771000  0.08435100  1
  O  O48  1  0.35954200  0.32894000  0.08395800  1
  O  O49  1  0.88531800  0.38878900  0.02767800  1
  O  O50  1  0.97933800  0.79439500  0.96429700  1
  O  O51  1  0.20560500  0.02066200  0.03570300  1
  O  O52  1  0.61121100  0.11468200  0.97232200  1
  O  O53  1  0.67106000  0.64045800  0.91604200  1
  O  O54  1  0.33229000  0.37309800  0.91564900  1
  O  O55  1  0.39817000  0.88917500  0.85376600  1
  O  O56  1  0.80504400  0.98308400  0.78344200  1
  O  O57  1  0.02778600  0.20551400  0.86543400  1
  O  O58  1  0.10398100  0.61058900  0.80621900  1
  O  O59  1  0.65407400  0.65416400  0.75104200  1
