# generated using pymatgen
data_CeAl4Cu2Si
_symmetry_space_group_name_H-M   'P 1'
_cell_length_a   4.22464200
_cell_length_b   4.22358300
_cell_length_c   7.83721500
_cell_angle_alpha   90.00000000
_cell_angle_beta   90.00000000
_cell_angle_gamma   90.00000000
_symmetry_Int_Tables_number   1
_chemical_formula_structural   CeAl4Cu2Si
_chemical_formula_sum   'Ce1 Al4 Cu2 Si1'
_cell_volume   139.84041577
_cell_formula_units_Z   1
loop_
 _symmetry_equiv_pos_site_id
 _symmetry_equiv_pos_as_xyz
  1  'x, y, z'
loop_
 _atom_site_type_symbol
 _atom_site_label
 _atom_site_symmetry_multiplicity
 _atom_site_fract_x
 _atom_site_fract_y
 _atom_site_fract_z
 _atom_site_occupancy
  Ce  Ce0  1  0.00000000  0.00000000  0.99893100  1
  Al  Al1  1  0.00000000  0.50000000  0.66470600  1
  Al  Al2  1  0.50000000  0.00000000  0.32257300  1
  Al  Al3  1  0.00000000  0.50000000  0.31859300  1
  Al  Al4  1  0.50000000  0.50000000  0.86132600  1
  Cu  Cu5  1  0.00000000  0.00000000  0.50474400  1
  Cu  Cu6  1  0.50000000  0.50000000  0.15888300  1
  Si  Si7  1  0.50000000  0.00000000  0.67024300  1
