# generated using pymatgen
data_CdPd3
_symmetry_space_group_name_H-M   'P 1'
_cell_length_a   2.91481012
_cell_length_b   2.91481012
_cell_length_c   9.16967260
_cell_angle_alpha   90.00000000
_cell_angle_beta   80.85476382
_cell_angle_gamma   120.00000000
_symmetry_Int_Tables_number   1
_chemical_formula_structural   CdPd3
_chemical_formula_sum   'Cd1 Pd3'
_cell_volume   66.32314841
_cell_formula_units_Z   1
loop_
 _symmetry_equiv_pos_site_id
 _symmetry_equiv_pos_as_xyz
  1  'x, y, z'
loop_
 _atom_site_type_symbol
 _atom_site_label
 _atom_site_symmetry_multiplicity
 _atom_site_fract_x
 _atom_site_fract_y
 _atom_site_fract_z
 _atom_site_occupancy
  Cd  Cd0  1  0.00000000  0.00000000  0.00000000  1
  Pd  Pd1  1  0.49875700  0.24937900  0.25186400  1
  Pd  Pd2  1  0.00000000  0.50000000  0.50000000  1
  Pd  Pd3  1  0.50124300  0.75062100  0.74813600  1
