# generated using pymatgen
data_CdHg4Se5
_symmetry_space_group_name_H-M   'P 1'
_cell_length_a   15.95953360
_cell_length_b   15.95953360
_cell_length_c   15.95953360
_cell_angle_alpha   164.04322591
_cell_angle_beta   164.04322591
_cell_angle_gamma   22.64044028
_symmetry_Int_Tables_number   1
_chemical_formula_structural   CdHg4Se5
_chemical_formula_sum   'Cd1 Hg4 Se5'
_cell_volume   307.15980903
_cell_formula_units_Z   1
loop_
 _symmetry_equiv_pos_site_id
 _symmetry_equiv_pos_as_xyz
  1  'x, y, z'
loop_
 _atom_site_type_symbol
 _atom_site_label
 _atom_site_symmetry_multiplicity
 _atom_site_fract_x
 _atom_site_fract_y
 _atom_site_fract_z
 _atom_site_occupancy
  Cd  Cd0  1  0.50000000  0.50000000  0.00000000  1
  Hg  Hg1  1  0.90011000  0.90011000  0.00000000  1
  Hg  Hg2  1  0.30002700  0.30002700  0.00000000  1
  Hg  Hg3  1  0.69997300  0.69997300  0.00000000  1
  Hg  Hg4  1  0.09989000  0.09989000  0.00000000  1
  Se  Se5  1  0.25000000  0.75000000  0.50000000  1
  Se  Se6  1  0.65000400  0.15000400  0.50000000  1
  Se  Se7  1  0.04930100  0.54930100  0.50000000  1
  Se  Se8  1  0.45069900  0.95069900  0.50000000  1
  Se  Se9  1  0.84999600  0.34999600  0.50000000  1
