# generated using pymatgen
data_CdBiBrO2
_symmetry_space_group_name_H-M   'P 1'
_cell_length_a   6.93677043
_cell_length_b   6.93677043
_cell_length_c   6.93677043
_cell_angle_alpha   146.71551861
_cell_angle_beta   146.71551861
_cell_angle_gamma   47.78518880
_symmetry_Int_Tables_number   1
_chemical_formula_structural   CdBiBrO2
_chemical_formula_sum   'Cd1 Bi1 Br1 O2'
_cell_volume   100.12763106
_cell_formula_units_Z   1
loop_
 _symmetry_equiv_pos_site_id
 _symmetry_equiv_pos_as_xyz
  1  'x, y, z'
loop_
 _atom_site_type_symbol
 _atom_site_label
 _atom_site_symmetry_multiplicity
 _atom_site_fract_x
 _atom_site_fract_y
 _atom_site_fract_z
 _atom_site_occupancy
  Cd  Cd0  1  0.84095200  0.84095200  0.00000000  1
  Bi  Bi1  1  0.16685800  0.16685800  0.00000000  1
  Br  Br2  1  0.48895600  0.48895600  0.00000000  1
  O  O3  1  0.75161700  0.25161700  0.50000000  1
  O  O4  1  0.25161700  0.75161700  0.50000000  1
