# generated using pymatgen
data_Ce2ZrO6
_symmetry_space_group_name_H-M   'P 1'
_cell_length_a   8.48868616
_cell_length_b   8.48868616
_cell_length_c   8.48868616
_cell_angle_alpha   154.23667279
_cell_angle_beta   154.23667279
_cell_angle_gamma   36.75569640
_symmetry_Int_Tables_number   1
_chemical_formula_structural   Ce2ZrO6
_chemical_formula_sum   'Ce2 Zr1 O6'
_cell_volume   115.40257554
_cell_formula_units_Z   1
loop_
 _symmetry_equiv_pos_site_id
 _symmetry_equiv_pos_as_xyz
  1  'x, y, z'
loop_
 _atom_site_type_symbol
 _atom_site_label
 _atom_site_symmetry_multiplicity
 _atom_site_fract_x
 _atom_site_fract_y
 _atom_site_fract_z
 _atom_site_occupancy
  Ce  Ce0  1  0.33578100  0.33578100  0.00000000  1
  Ce  Ce1  1  0.66421900  0.66421900  0.00000000  1
  Zr  Zr2  1  0.00000000  0.00000000  0.00000000  1
  O  O3  1  0.42180800  0.92180800  0.50000000  1
  O  O4  1  0.75000000  0.25000000  0.50000000  1
  O  O5  1  0.07819200  0.57819200  0.50000000  1
  O  O6  1  0.92180800  0.42180800  0.50000000  1
  O  O7  1  0.25000000  0.75000000  0.50000000  1
  O  O8  1  0.57819200  0.07819200  0.50000000  1
