# generated using pymatgen
data_CdAg2SnSe4
_symmetry_space_group_name_H-M   'P 1'
_cell_length_a   4.36862600
_cell_length_b   7.13538700
_cell_length_c   7.53647425
_cell_angle_alpha   89.96705852
_cell_angle_beta   90.00000000
_cell_angle_gamma   90.00000000
_symmetry_Int_Tables_number   1
_chemical_formula_structural   CdAg2SnSe4
_chemical_formula_sum   'Cd1 Ag2 Sn1 Se4'
_cell_volume   234.92570918
_cell_formula_units_Z   1
loop_
 _symmetry_equiv_pos_site_id
 _symmetry_equiv_pos_as_xyz
  1  'x, y, z'
loop_
 _atom_site_type_symbol
 _atom_site_label
 _atom_site_symmetry_multiplicity
 _atom_site_fract_x
 _atom_site_fract_y
 _atom_site_fract_z
 _atom_site_occupancy
  Cd  Cd0  1  0.00000000  0.11634700  0.82925500  1
  Ag  Ag1  1  0.50000000  0.11809000  0.33882700  1
  Ag  Ag2  1  0.50000000  0.64108300  0.67407500  1
  Sn  Sn3  1  0.00000000  0.63520900  0.15365500  1
  Se  Se4  1  0.50000000  0.50115700  0.32873700  1
  Se  Se5  1  0.00000000  0.50337700  0.83592900  1
  Se  Se6  1  0.50000000  0.00945200  0.66755900  1
  Se  Se7  1  0.00000000  0.99568500  0.17196100  1
