# generated using pymatgen
data_CoH15N6(ClO)2
_symmetry_space_group_name_H-M   'P 1'
_cell_length_a   7.09317753
_cell_length_b   7.09317753
_cell_length_c   11.17730044
_cell_angle_alpha   85.97711869
_cell_angle_beta   85.97711869
_cell_angle_gamma   79.35464248
_symmetry_Int_Tables_number   1
_chemical_formula_structural   CoH15N6(ClO)2
_chemical_formula_sum   'Co2 H30 N12 Cl4 O4'
_cell_volume   550.38594717
_cell_formula_units_Z   2
loop_
 _symmetry_equiv_pos_site_id
 _symmetry_equiv_pos_as_xyz
  1  'x, y, z'
loop_
 _atom_site_type_symbol
 _atom_site_label
 _atom_site_symmetry_multiplicity
 _atom_site_fract_x
 _atom_site_fract_y
 _atom_site_fract_z
 _atom_site_occupancy
  Co  Co0  1  0.71438700  0.28398000  0.25036400  1
  Co  Co1  1  0.28398000  0.71438700  0.75036400  1
  H  H2  1  0.86582500  0.23944900  0.02893900  1
  H  H3  1  0.75918400  0.13638800  0.47399000  1
  H  H4  1  0.13638800  0.75918400  0.97399000  1
  H  H5  1  0.23944900  0.86582500  0.52893900  1
  H  H6  1  0.03948200  0.41848900  0.28270300  1
  H  H7  1  0.57781500  0.96072500  0.22164900  1
  H  H8  1  0.96072500  0.57781500  0.72164900  1
  H  H9  1  0.41848900  0.03948200  0.78270300  1
  H  H10  1  0.91658100  0.55564300  0.17530900  1
  H  H11  1  0.43920000  0.08988800  0.32626500  1
  H  H12  1  0.08988800  0.43920000  0.82626500  1
  H  H13  1  0.55564300  0.91658100  0.67530900  1
  H  H14  1  0.84556800  0.57730000  0.31793500  1
  H  H15  1  0.42126100  0.15393300  0.18136100  1
  H  H16  1  0.15393300  0.42126100  0.68136100  1
  H  H17  1  0.57730000  0.84556800  0.81793600  1
  H  H18  1  0.72612400  0.45259100  0.03397400  1
  H  H19  1  0.54594700  0.27518400  0.46615800  1
  H  H20  1  0.27518400  0.54594700  0.96615800  1
  H  H21  1  0.45259100  0.72612400  0.53397400  1
  H  H22  1  0.62726200  0.25870100  0.02885900  1
  H  H23  1  0.74046700  0.37414800  0.47106000  1
  H  H24  1  0.37414800  0.74046700  0.97106000  1
  H  H25  1  0.25870100  0.62726200  0.52885900  1
  H  H26  1  0.95429800  0.99032000  0.32847700  1
  H  H27  1  0.99032000  0.95429800  0.82847700  1
  H  H28  1  0.05810500  0.10293800  0.21262600  1
  H  H29  1  0.10293800  0.05810500  0.71262600  1
  H  H30  1  0.90577600  0.96278100  0.18620100  1
  H  H31  1  0.96278100  0.90577600  0.68620100  1
  N  N32  1  0.90493800  0.47887100  0.25663700  1
  N  N33  1  0.51710100  0.09667200  0.24490100  1
  N  N34  1  0.09667200  0.51710100  0.74490100  1
  N  N35  1  0.47887100  0.90493800  0.75663700  1
  N  N36  1  0.93349200  0.05918000  0.24525200  1
  N  N37  1  0.05918000  0.93349200  0.74525200  1
  N  N38  1  0.73573400  0.31093300  0.06378600  1
  N  N39  1  0.68846600  0.26518400  0.43678600  1
  N  N40  1  0.26518400  0.68846600  0.93678600  1
  N  N41  1  0.31093300  0.73573400  0.56378600  1
  N  N42  1  0.49922800  0.50124400  0.25112500  1
  N  N43  1  0.50124400  0.49922800  0.75112500  1
  Cl  Cl44  1  0.21487900  0.20636800  0.48297700  1
  Cl  Cl45  1  0.80891900  0.80379100  0.03098500  1
  Cl  Cl46  1  0.80379100  0.80891900  0.53098500  1
  Cl  Cl47  1  0.20636800  0.21487900  0.98297700  1
  O  O48  1  0.50387400  0.63524500  0.31611600  1
  O  O49  1  0.36505600  0.49908300  0.18656600  1
  O  O50  1  0.49908300  0.36505600  0.68656600  1
  O  O51  1  0.63524500  0.50387400  0.81611600  1
