# generated using pymatgen
data_BaCuF4
_symmetry_space_group_name_H-M   'P 1'
_cell_length_a   7.56305741
_cell_length_b   7.56305741
_cell_length_c   5.76112300
_cell_angle_alpha   90.00000000
_cell_angle_beta   90.00000000
_cell_angle_gamma   146.42609898
_symmetry_Int_Tables_number   1
_chemical_formula_structural   BaCuF4
_chemical_formula_sum   'Ba2 Cu2 F8'
_cell_volume   182.23700279
_cell_formula_units_Z   2
loop_
 _symmetry_equiv_pos_site_id
 _symmetry_equiv_pos_as_xyz
  1  'x, y, z'
loop_
 _atom_site_type_symbol
 _atom_site_label
 _atom_site_symmetry_multiplicity
 _atom_site_fract_x
 _atom_site_fract_y
 _atom_site_fract_z
 _atom_site_occupancy
  Ba  Ba0  1  0.14184300  0.85815700  0.49743000  1
  Ba  Ba1  1  0.85815700  0.14184300  0.99743000  1
  Cu  Cu2  1  0.41015500  0.58984500  0.53072400  1
  Cu  Cu3  1  0.58984500  0.41015500  0.03072400  1
  F  F4  1  0.92140900  0.07859100  0.53404500  1
  F  F5  1  0.07859100  0.92140900  0.03404500  1
  F  F6  1  0.32972000  0.67028000  0.25553200  1
  F  F7  1  0.67028000  0.32972000  0.75553200  1
  F  F8  1  0.52263200  0.47736800  0.33840000  1
  F  F9  1  0.47736800  0.52263200  0.83840000  1
  F  F10  1  0.69819200  0.30180800  0.23696900  1
  F  F11  1  0.30180800  0.69819200  0.73696900  1
