# generated using pymatgen
data_Cd5Te4S
_symmetry_space_group_name_H-M   'P 1'
_cell_length_a   18.91932659
_cell_length_b   18.91932659
_cell_length_c   18.91932641
_cell_angle_alpha   13.95533963
_cell_angle_beta   13.95533963
_cell_angle_gamma   13.95533861
_symmetry_Int_Tables_number   1
_chemical_formula_structural   Cd5Te4S
_chemical_formula_sum   'Cd5 Te4 S1'
_cell_volume   342.78326639
_cell_formula_units_Z   1
loop_
 _symmetry_equiv_pos_site_id
 _symmetry_equiv_pos_as_xyz
  1  'x, y, z'
loop_
 _atom_site_type_symbol
 _atom_site_label
 _atom_site_symmetry_multiplicity
 _atom_site_fract_x
 _atom_site_fract_y
 _atom_site_fract_z
 _atom_site_occupancy
  Cd  Cd0  1  0.99501800  0.99501800  0.99501800  1
  Cd  Cd1  1  0.60492200  0.60492200  0.60492200  1
  Cd  Cd2  1  0.20233700  0.20233700  0.20233700  1
  Cd  Cd3  1  0.79993500  0.79993500  0.79993500  1
  Cd  Cd4  1  0.39747100  0.39747100  0.39747100  1
  Te  Te5  1  0.55381300  0.55381300  0.55381300  1
  Te  Te6  1  0.15139400  0.15139400  0.15139400  1
  Te  Te7  1  0.74905600  0.74905600  0.74905600  1
  Te  Te8  1  0.34669400  0.34669400  0.34669400  1
  S  S9  1  0.94935900  0.94935900  0.94935900  1
