# generated using pymatgen
data_Na3GdTi2Nb2O12
_symmetry_space_group_name_H-M   'P 1'
_cell_length_a   5.48389784
_cell_length_b   5.60767737
_cell_length_c   15.59572947
_cell_angle_alpha   90.00711497
_cell_angle_beta   90.02068698
_cell_angle_gamma   90.02107075
_symmetry_Int_Tables_number   1
_chemical_formula_structural   Na3GdTi2Nb2O12
_chemical_formula_sum   'Na6 Gd2 Ti4 Nb4 O24'
_cell_volume   479.59871099
_cell_formula_units_Z   2
loop_
 _symmetry_equiv_pos_site_id
 _symmetry_equiv_pos_as_xyz
  1  'x, y, z'
loop_
 _atom_site_type_symbol
 _atom_site_label
 _atom_site_symmetry_multiplicity
 _atom_site_fract_x
 _atom_site_fract_y
 _atom_site_fract_z
 _atom_site_occupancy
  Na  Na0  1  0.00377600  0.97657000  0.37218300  1
  Na  Na1  1  0.00347500  0.97668700  0.87788800  1
  Na  Na2  1  0.49596200  0.47660400  0.87814600  1
  Na  Na3  1  0.49637500  0.47675100  0.37193400  1
  Na  Na4  1  0.50530400  0.52611800  0.62497900  1
  Na  Na5  1  0.99498000  0.02608700  0.62499700  1
  Gd  Gd6  1  0.50855000  0.55434700  0.12507800  1
  Gd  Gd7  1  0.99108000  0.05468800  0.12498700  1
  Ti  Ti8  1  0.00949100  0.52266500  0.99791400  1
  Ti  Ti9  1  0.48974700  0.02238100  0.99774600  1
  Ti  Ti10  1  0.48984800  0.02233900  0.25224300  1
  Ti  Ti11  1  0.00942100  0.52247100  0.25232500  1
  Nb  Nb12  1  0.00116200  0.49727800  0.49795000  1
  Nb  Nb13  1  0.49984400  0.99637300  0.75216000  1
  Nb  Nb14  1  0.50200800  0.99792100  0.49802600  1
  Nb  Nb15  1  0.99831100  0.49677800  0.75215200  1
  O  O16  1  0.08614700  0.46587400  0.12491600  1
  O  O17  1  0.06919200  0.48670200  0.62496000  1
  O  O18  1  0.20899100  0.21250300  0.48025200  1
  O  O19  1  0.20561300  0.19578300  0.26004400  1
  O  O20  1  0.21018700  0.21324000  0.76971300  1
  O  O21  1  0.20557700  0.19577300  0.98985500  1
  O  O22  1  0.28978800  0.71278500  0.48020000  1
  O  O23  1  0.29078200  0.71296300  0.76976300  1
  O  O24  1  0.29460100  0.69578600  0.25993100  1
  O  O25  1  0.29446700  0.69582100  0.99002100  1
  O  O26  1  0.41419000  0.96623600  0.12498700  1
  O  O27  1  0.43085200  0.98664400  0.62499300  1
  O  O28  1  0.56777800  0.01350100  0.87917300  1
  O  O29  1  0.56750600  0.01340300  0.37082500  1
  O  O30  1  0.70968000  0.27383200  0.02959500  1
  O  O31  1  0.70979800  0.27386200  0.22036800  1
  O  O32  1  0.70814000  0.29112600  0.51592500  1
  O  O33  1  0.70899400  0.29129200  0.73395900  1
  O  O34  1  0.79054700  0.77378900  0.02963400  1
  O  O35  1  0.79044800  0.77364500  0.22030700  1
  O  O36  1  0.79076800  0.79087900  0.51597500  1
  O  O37  1  0.79181500  0.79144000  0.73400200  1
  O  O38  1  0.93233600  0.51348400  0.37075300  1
  O  O39  1  0.93247300  0.51358000  0.87914200  1
