# generated using pymatgen
data_Cd4Mo3WO16
_symmetry_space_group_name_H-M   'P 1'
_cell_length_a   5.24011500
_cell_length_b   5.24011500
_cell_length_c   11.50623800
_cell_angle_alpha   90.00000000
_cell_angle_beta   90.00000000
_cell_angle_gamma   90.00000000
_symmetry_Int_Tables_number   1
_chemical_formula_structural   Cd4Mo3WO16
_chemical_formula_sum   'Cd4 Mo3 W1 O16'
_cell_volume   315.94754798
_cell_formula_units_Z   1
loop_
 _symmetry_equiv_pos_site_id
 _symmetry_equiv_pos_as_xyz
  1  'x, y, z'
loop_
 _atom_site_type_symbol
 _atom_site_label
 _atom_site_symmetry_multiplicity
 _atom_site_fract_x
 _atom_site_fract_y
 _atom_site_fract_z
 _atom_site_occupancy
  Cd  Cd0  1  0.00000000  0.50000000  0.74985600  1
  Cd  Cd1  1  0.50000000  0.00000000  0.25014400  1
  Cd  Cd2  1  0.50000000  0.50000000  0.00000000  1
  Cd  Cd3  1  0.00000000  0.00000000  0.50000000  1
  Mo  Mo4  1  0.50000000  0.00000000  0.75005300  1
  Mo  Mo5  1  0.00000000  0.50000000  0.24994700  1
  Mo  Mo6  1  0.00000000  0.00000000  0.00000000  1
  W  W7  1  0.50000000  0.50000000  0.50000000  1
  O  O8  1  0.34158600  0.24467500  0.83489800  1
  O  O9  1  0.84017900  0.74388200  0.33495900  1
  O  O10  1  0.65841400  0.75532500  0.83489800  1
  O  O11  1  0.15982100  0.25611800  0.33495900  1
  O  O12  1  0.24501100  0.15849100  0.08476400  1
  O  O13  1  0.74761100  0.66016900  0.58566200  1
  O  O14  1  0.75498900  0.84150900  0.08476400  1
  O  O15  1  0.25238900  0.33983100  0.58566200  1
  O  O16  1  0.15849100  0.75498900  0.91523600  1
  O  O17  1  0.66016900  0.25238900  0.41433800  1
  O  O18  1  0.84150900  0.24501100  0.91523600  1
  O  O19  1  0.33983100  0.74761100  0.41433800  1
  O  O20  1  0.25611800  0.84017900  0.66504100  1
  O  O21  1  0.75532500  0.34158600  0.16510200  1
  O  O22  1  0.74388200  0.15982100  0.66504100  1
  O  O23  1  0.24467500  0.65841400  0.16510200  1
