# generated using pymatgen
data_Ce2B4(IrRh)3
_symmetry_space_group_name_H-M   'P 1'
_cell_length_a   3.10181900
_cell_length_b   5.51779414
_cell_length_c   9.55129516
_cell_angle_alpha   89.98650980
_cell_angle_beta   90.00000000
_cell_angle_gamma   90.00000000
_symmetry_Int_Tables_number   1
_chemical_formula_structural   Ce2B4(IrRh)3
_chemical_formula_sum   'Ce2 B4 Ir3 Rh3'
_cell_volume   163.47230997
_cell_formula_units_Z   1
loop_
 _symmetry_equiv_pos_site_id
 _symmetry_equiv_pos_as_xyz
  1  'x, y, z'
loop_
 _atom_site_type_symbol
 _atom_site_label
 _atom_site_symmetry_multiplicity
 _atom_site_fract_x
 _atom_site_fract_y
 _atom_site_fract_z
 _atom_site_occupancy
  Ce  Ce0  1  0.00000000  0.99986800  0.99978800  1
  Ce  Ce1  1  0.00000000  0.50014300  0.50021200  1
  B  B2  1  0.00000000  0.99997100  0.33332200  1
  B  B3  1  0.00000000  0.50012800  0.83350600  1
  B  B4  1  0.00000000  0.49993800  0.16668600  1
  B  B5  1  0.00000000  0.99978800  0.66648800  1
  Ir  Ir6  1  0.50000000  0.00000300  0.50034600  1
  Ir  Ir7  1  0.50000000  0.50001300  0.99964400  1
  Ir  Ir8  1  0.50000000  0.24999400  0.24993300  1
  Rh  Rh9  1  0.50000000  0.74998400  0.75009100  1
  Rh  Rh10  1  0.50000000  0.74999600  0.24990400  1
  Rh  Rh11  1  0.50000000  0.24997400  0.75008000  1
