# generated using pymatgen
data_CdPb3Se4
_symmetry_space_group_name_H-M   'P 1'
_cell_length_a   14.17643627
_cell_length_b   14.17643627
_cell_length_c   14.17643599
_cell_angle_alpha   17.64004192
_cell_angle_beta   17.64004192
_cell_angle_gamma   17.64004022
_symmetry_Int_Tables_number   1
_chemical_formula_structural   CdPb3Se4
_chemical_formula_sum   'Cd1 Pb3 Se4'
_cell_volume   228.36871736
_cell_formula_units_Z   1
loop_
 _symmetry_equiv_pos_site_id
 _symmetry_equiv_pos_as_xyz
  1  'x, y, z'
loop_
 _atom_site_type_symbol
 _atom_site_label
 _atom_site_symmetry_multiplicity
 _atom_site_fract_x
 _atom_site_fract_y
 _atom_site_fract_z
 _atom_site_occupancy
  Cd  Cd0  1  0.00000000  0.00000000  0.00000000  1
  Pb  Pb1  1  0.25386400  0.25386400  0.25386400  1
  Pb  Pb2  1  0.50000000  0.50000000  0.50000000  1
  Pb  Pb3  1  0.74613600  0.74613600  0.74613600  1
  Se  Se4  1  0.12355000  0.12355000  0.12355000  1
  Se  Se5  1  0.37008900  0.37008900  0.37008900  1
  Se  Se6  1  0.62991100  0.62991100  0.62991100  1
  Se  Se7  1  0.87645000  0.87645000  0.87645000  1
