# generated using pymatgen
data_Eu2Ti12(CuO4)9
_symmetry_space_group_name_H-M   'P 1'
_cell_length_a   10.50547728
_cell_length_b   10.50547728
_cell_length_c   6.45001000
_cell_angle_alpha   90.00000000
_cell_angle_beta   90.00000000
_cell_angle_gamma   119.99999549
_symmetry_Int_Tables_number   1
_chemical_formula_structural   Eu2Ti12(CuO4)9
_chemical_formula_sum   'Eu2 Ti12 Cu9 O36'
_cell_volume   616.48514394
_cell_formula_units_Z   1
loop_
 _symmetry_equiv_pos_site_id
 _symmetry_equiv_pos_as_xyz
  1  'x, y, z'
loop_
 _atom_site_type_symbol
 _atom_site_label
 _atom_site_symmetry_multiplicity
 _atom_site_fract_x
 _atom_site_fract_y
 _atom_site_fract_z
 _atom_site_occupancy
  Eu  Eu0  1  0.33333300  0.66666700  0.82848400  1
  Eu  Eu1  1  0.66666700  0.33333300  0.17151600  1
  Ti  Ti2  1  0.00000000  0.50000000  0.00000000  1
  Ti  Ti3  1  0.31949600  0.16105200  0.33677700  1
  Ti  Ti4  1  0.68050400  0.83894800  0.66322300  1
  Ti  Ti5  1  0.33333300  0.66666700  0.34080300  1
  Ti  Ti6  1  0.66666700  0.33333300  0.65919700  1
  Ti  Ti7  1  0.00000000  0.00000000  0.00000000  1
  Ti  Ti8  1  0.50000000  0.50000000  0.00000000  1
  Ti  Ti9  1  0.83894800  0.15844400  0.33677700  1
  Ti  Ti10  1  0.16105200  0.84155600  0.66322300  1
  Ti  Ti11  1  0.15844400  0.31949600  0.66322300  1
  Ti  Ti12  1  0.50000000  0.00000000  0.00000000  1
  Ti  Ti13  1  0.84155600  0.68050400  0.33677700  1
  Cu  Cu14  1  0.33478800  0.16720500  0.83625700  1
  Cu  Cu15  1  0.66521200  0.83279500  0.16374300  1
  Cu  Cu16  1  0.00000000  0.50000000  0.50000000  1
  Cu  Cu17  1  0.16758300  0.33478800  0.16374300  1
  Cu  Cu18  1  0.50000000  0.00000000  0.50000000  1
  Cu  Cu19  1  0.83241700  0.66521200  0.83625700  1
  Cu  Cu20  1  0.50000000  0.50000000  0.50000000  1
  Cu  Cu21  1  0.83279500  0.16758300  0.83625700  1
  Cu  Cu22  1  0.16720500  0.83241700  0.16374300  1
  O  O23  1  0.26859800  0.22384200  0.58914200  1
  O  O24  1  0.59380500  0.88476000  0.91771100  1
  O  O25  1  0.92718900  0.55198700  0.25096100  1
  O  O26  1  0.80959000  0.31684900  0.48682800  1
  O  O27  1  0.14825500  0.98427900  0.82904700  1
  O  O28  1  0.47729700  0.65137500  0.15128200  1
  O  O29  1  0.52270300  0.34862500  0.84871800  1
  O  O30  1  0.85174500  0.01572100  0.17095300  1
  O  O31  1  0.19041000  0.68315100  0.51317200  1
  O  O32  1  0.07281100  0.44801300  0.74903900  1
  O  O33  1  0.40619500  0.11524000  0.08228900  1
  O  O34  1  0.73140200  0.77615800  0.41085800  1
  O  O35  1  0.04475600  0.26859800  0.41085800  1
  O  O36  1  0.37520300  0.92718900  0.74903900  1
  O  O37  1  0.70904500  0.59380500  0.08228900  1
  O  O38  1  0.16397700  0.14825500  0.17095300  1
  O  O39  1  0.49274100  0.80959000  0.51317200  1
  O  O40  1  0.82592200  0.47729700  0.84871800  1
  O  O41  1  0.17407800  0.52270300  0.15128200  1
  O  O42  1  0.50725900  0.19041000  0.48682800  1
  O  O43  1  0.83602300  0.85174500  0.82904700  1
  O  O44  1  0.29095500  0.40619500  0.91771100  1
  O  O45  1  0.62479700  0.07281100  0.25096100  1
  O  O46  1  0.95524400  0.73140200  0.58914200  1
  O  O47  1  0.01572100  0.16397700  0.82904700  1
  O  O48  1  0.34862500  0.82592200  0.15128200  1
  O  O49  1  0.68315100  0.49274100  0.48682800  1
  O  O50  1  0.44801300  0.37520300  0.25096100  1
  O  O51  1  0.77615800  0.04475600  0.58914200  1
  O  O52  1  0.11524000  0.70904500  0.91771100  1
  O  O53  1  0.88476000  0.29095500  0.08228900  1
  O  O54  1  0.22384200  0.95524400  0.41085800  1
  O  O55  1  0.55198700  0.62479700  0.74903900  1
  O  O56  1  0.31684900  0.50725900  0.51317200  1
  O  O57  1  0.65137500  0.17407800  0.84871800  1
  O  O58  1  0.98427900  0.83602300  0.17095300  1
