# generated using pymatgen
data_Ce4ThO10
_symmetry_space_group_name_H-M   'P 1'
_cell_length_a   14.00165921
_cell_length_b   14.00165921
_cell_length_c   14.00165921
_cell_angle_alpha   164.04905976
_cell_angle_beta   164.04905976
_cell_angle_gamma   22.63210776
_symmetry_Int_Tables_number   1
_chemical_formula_structural   Ce4ThO10
_chemical_formula_sum   'Ce4 Th1 O10'
_cell_volume   207.26838837
_cell_formula_units_Z   1
loop_
 _symmetry_equiv_pos_site_id
 _symmetry_equiv_pos_as_xyz
  1  'x, y, z'
loop_
 _atom_site_type_symbol
 _atom_site_label
 _atom_site_symmetry_multiplicity
 _atom_site_fract_x
 _atom_site_fract_y
 _atom_site_fract_z
 _atom_site_occupancy
  Ce  Ce0  1  0.39848700  0.39848700  0.00000000  1
  Ce  Ce1  1  0.79948600  0.79948600  0.00000000  1
  Ce  Ce2  1  0.20051400  0.20051400  0.00000000  1
  Ce  Ce3  1  0.60151300  0.60151300  0.00000000  1
  Th  Th4  1  0.00000000  0.00000000  0.00000000  1
  O  O5  1  0.15100600  0.65100600  0.50000000  1
  O  O6  1  0.55162800  0.05162800  0.50000000  1
  O  O7  1  0.94837200  0.44837200  0.50000000  1
  O  O8  1  0.34899400  0.84899400  0.50000000  1
  O  O9  1  0.75000000  0.25000000  0.50000000  1
  O  O10  1  0.05162800  0.55162800  0.50000000  1
  O  O11  1  0.44837200  0.94837200  0.50000000  1
  O  O12  1  0.84899400  0.34899400  0.50000000  1
  O  O13  1  0.25000000  0.75000000  0.50000000  1
  O  O14  1  0.65100600  0.15100600  0.50000000  1
