# generated using pymatgen
data_Cd3Hg
_symmetry_space_group_name_H-M   'P 1'
_cell_length_a   3.13695772
_cell_length_b   3.13695772
_cell_length_c   11.23318400
_cell_angle_alpha   90.00000000
_cell_angle_beta   90.00000000
_cell_angle_gamma   119.99999418
_symmetry_Int_Tables_number   1
_chemical_formula_structural   Cd3Hg
_chemical_formula_sum   'Cd3 Hg1'
_cell_volume   95.73061779
_cell_formula_units_Z   1
loop_
 _symmetry_equiv_pos_site_id
 _symmetry_equiv_pos_as_xyz
  1  'x, y, z'
loop_
 _atom_site_type_symbol
 _atom_site_label
 _atom_site_symmetry_multiplicity
 _atom_site_fract_x
 _atom_site_fract_y
 _atom_site_fract_z
 _atom_site_occupancy
  Cd  Cd0  1  0.00000000  0.00000000  0.00000000  1
  Cd  Cd1  1  0.33333300  0.66666700  0.75509800  1
  Cd  Cd2  1  0.33333300  0.66666700  0.24490200  1
  Hg  Hg3  1  0.00000000  0.00000000  0.50000000  1
