# generated using pymatgen
data_Cd4HgSe5
_symmetry_space_group_name_H-M   'P 1'
_cell_length_a   4.41062809
_cell_length_b   4.41062809
_cell_length_c   35.93631200
_cell_angle_alpha   90.00000000
_cell_angle_beta   90.00000000
_cell_angle_gamma   120.00000137
_symmetry_Int_Tables_number   1
_chemical_formula_structural   Cd4HgSe5
_chemical_formula_sum   'Cd8 Hg2 Se10'
_cell_volume   605.43149451
_cell_formula_units_Z   2
loop_
 _symmetry_equiv_pos_site_id
 _symmetry_equiv_pos_as_xyz
  1  'x, y, z'
loop_
 _atom_site_type_symbol
 _atom_site_label
 _atom_site_symmetry_multiplicity
 _atom_site_fract_x
 _atom_site_fract_y
 _atom_site_fract_z
 _atom_site_occupancy
  Cd  Cd0  1  0.00000000  0.00000000  0.10023800  1
  Cd  Cd1  1  0.00000000  0.00000000  0.30008100  1
  Cd  Cd2  1  0.00000000  0.00000000  0.50009200  1
  Cd  Cd3  1  0.00000000  0.00000000  0.70005700  1
  Cd  Cd4  1  0.00000000  0.00000000  0.90021400  1
  Cd  Cd5  1  0.33333300  0.66666700  0.20006400  1
  Cd  Cd6  1  0.33333300  0.66666700  0.40008900  1
  Cd  Cd7  1  0.33333300  0.66666700  0.60007900  1
  Hg  Hg8  1  0.33333300  0.66666700  0.79996400  1
  Hg  Hg9  1  0.33333300  0.66666700  0.99994400  1
  Se  Se10  1  0.00000000  0.00000000  0.02541900  1
  Se  Se11  1  0.00000000  0.00000000  0.22492000  1
  Se  Se12  1  0.00000000  0.00000000  0.42491000  1
  Se  Se13  1  0.00000000  0.00000000  0.62488600  1
  Se  Se14  1  0.00000000  0.00000000  0.82538500  1
  Se  Se15  1  0.33333300  0.66666700  0.12494100  1
  Se  Se16  1  0.33333300  0.66666700  0.32491200  1
  Se  Se17  1  0.33333300  0.66666700  0.52490600  1
  Se  Se18  1  0.33333300  0.66666700  0.72443100  1
  Se  Se19  1  0.33333300  0.66666700  0.92446700  1
