# generated using pymatgen
data_Na9Mg9Al(Si2O7)5
_symmetry_space_group_name_H-M   'P 1'
_cell_length_a   25.12591308
_cell_length_b   8.70348242
_cell_length_c   6.49278501
_cell_angle_alpha   90.00000080
_cell_angle_beta   90.00306439
_cell_angle_gamma   30.00444055
_symmetry_Int_Tables_number   1
_chemical_formula_structural   Na9Mg9Al(Si2O7)5
_chemical_formula_sum   'Na9 Mg9 Al1 Si10 O35'
_cell_volume   710.02595985
_cell_formula_units_Z   1
loop_
 _symmetry_equiv_pos_site_id
 _symmetry_equiv_pos_as_xyz
  1  'x, y, z'
loop_
 _atom_site_type_symbol
 _atom_site_label
 _atom_site_symmetry_multiplicity
 _atom_site_fract_x
 _atom_site_fract_y
 _atom_site_fract_z
 _atom_site_occupancy
  Na  Na0  1  0.20024200  0.33178500  0.49968800  1
  Na  Na1  1  0.19555500  0.68570400  0.50044800  1
  Na  Na2  1  0.39975800  0.33299600  0.50031200  1
  Na  Na3  1  0.40444500  0.66347700  0.49955200  1
  Na  Na4  1  0.63331700  0.22245400  0.50035900  1
  Na  Na5  1  0.60463100  0.64699700  0.50116900  1
  Na  Na6  1  0.80000000  0.38826100  0.50000000  1
  Na  Na7  1  0.96668300  0.38904100  0.49964100  1
  Na  Na8  1  0.99536900  0.67015100  0.49883100  1
  Mg  Mg9  1  0.19885600  0.33769000  0.00032800  1
  Mg  Mg10  1  0.20089200  0.66583400  0.00023500  1
  Mg  Mg11  1  0.40114400  0.33197000  0.99967200  1
  Mg  Mg12  1  0.39910800  0.67029600  0.99976500  1
  Mg  Mg13  1  0.59746900  0.34149000  0.00051300  1
  Mg  Mg14  1  0.59977500  0.66630900  0.00097700  1
  Mg  Mg15  1  0.80000000  0.32625500  0.00000000  1
  Mg  Mg16  1  0.00253100  0.32883600  0.99948700  1
  Mg  Mg17  1  0.00022500  0.66518500  0.99902300  1
  Al  Al18  1  0.80000000  0.66595800  0.00000000  1
  Si  Si19  1  0.99398900  0.01538100  0.24430000  1
  Si  Si20  1  0.20026600  0.99994100  0.24483600  1
  Si  Si21  1  0.40005100  0.00098600  0.24744200  1
  Si  Si22  1  0.19994900  0.00124400  0.75255800  1
  Si  Si23  1  0.60385600  0.99622300  0.24552700  1
  Si  Si24  1  0.39973400  0.00126900  0.75516400  1
  Si  Si25  1  0.80191000  0.98755700  0.24507400  1
  Si  Si26  1  0.60601100  0.98532600  0.75570000  1
  Si  Si27  1  0.79809000  0.99710900  0.75492600  1
  Si  Si28  1  0.99614400  0.01550000  0.75447300  1
  O  O29  1  0.98433600  0.05123300  0.49928800  1
  O  O30  1  0.06392700  0.00185300  0.80772700  1
  O  O31  1  0.07252100  0.31969100  0.81005200  1
  O  O32  1  0.20343100  0.99445800  0.49804000  1
  O  O33  1  0.13612900  0.31928600  0.18635700  1
  O  O34  1  0.26271000  0.00411100  0.81217100  1
  O  O35  1  0.05915100  0.69705700  0.80555800  1
  O  O36  1  0.12216600  0.69697500  0.19395400  1
  O  O37  1  0.27245100  0.31937500  0.81542300  1
  O  O38  1  0.39656900  0.01161100  0.50196000  1
  O  O39  1  0.33729000  0.31766300  0.18782900  1
  O  O40  1  0.13685800  0.99879400  0.18756700  1
  O  O41  1  0.46387100  0.99992900  0.81364300  1
  O  O42  1  0.26435200  0.68162900  0.81064600  1
  O  O43  1  0.32754900  0.68162800  0.18457700  1
  O  O44  1  0.47783400  0.30780800  0.80604600  1
  O  O45  1  0.61566400  0.97291400  0.50071200  1
  O  O46  1  0.53607300  0.32149000  0.19227300  1
  O  O47  1  0.33564800  0.00339100  0.18935400  1
  O  O48  1  0.67059300  0.97954200  0.83340100  1
  O  O49  1  0.46314200  0.68308400  0.81243300  1
  O  O50  1  0.52747900  0.68229400  0.18994800  1
  O  O51  1  0.67076500  0.32161500  0.80849000  1
  O  O52  1  0.80000000  0.97372500  0.50000000  1
  O  O53  1  0.73674700  0.30935400  0.19252400  1
  O  O54  1  0.54084900  0.99281100  0.19444200  1
  O  O55  1  0.86325300  0.99309100  0.80747600  1
  O  O56  1  0.66562600  0.67367300  0.80977500  1
  O  O57  1  0.72956000  0.68399500  0.16778300  1
  O  O58  1  0.87044000  0.33179600  0.83221700  1
  O  O59  1  0.92940700  0.33250600  0.16659900  1
  O  O60  1  0.74110200  0.98048800  0.16754700  1
  O  O61  1  0.85889800  0.68599600  0.83245300  1
  O  O62  1  0.92923500  0.67543900  0.19151000  1
  O  O63  1  0.93437400  0.00180400  0.19022500  1
