# generated using pymatgen
data_Cd3FeS4
_symmetry_space_group_name_H-M   'P 1'
_cell_length_a   4.09672700
_cell_length_b   4.09672700
_cell_length_c   11.64150100
_cell_angle_alpha   90.00000000
_cell_angle_beta   90.00000000
_cell_angle_gamma   90.00000000
_symmetry_Int_Tables_number   1
_chemical_formula_structural   Cd3FeS4
_chemical_formula_sum   'Cd3 Fe1 S4'
_cell_volume   195.38131493
_cell_formula_units_Z   1
loop_
 _symmetry_equiv_pos_site_id
 _symmetry_equiv_pos_as_xyz
  1  'x, y, z'
loop_
 _atom_site_type_symbol
 _atom_site_label
 _atom_site_symmetry_multiplicity
 _atom_site_fract_x
 _atom_site_fract_y
 _atom_site_fract_z
 _atom_site_occupancy
  Cd  Cd0  1  0.00000000  0.00000000  0.76481800  1
  Cd  Cd1  1  0.50000000  0.50000000  0.50000000  1
  Cd  Cd2  1  0.00000000  0.00000000  0.23518200  1
  Fe  Fe3  1  0.50000000  0.50000000  0.00000000  1
  S  S4  1  0.00000000  0.50000000  0.36739200  1
  S  S5  1  0.50000000  0.00000000  0.10142200  1
  S  S6  1  0.00000000  0.50000000  0.89857800  1
  S  S7  1  0.50000000  0.00000000  0.63260800  1
