# generated using pymatgen
data_CdBi8(Cl5O4)2
_symmetry_space_group_name_H-M   'P 1'
_cell_length_a   18.45503175
_cell_length_b   18.45503175
_cell_length_c   5.52078500
_cell_angle_alpha   90.00000000
_cell_angle_beta   90.00000000
_cell_angle_gamma   162.79462764
_symmetry_Int_Tables_number   1
_chemical_formula_structural   CdBi8(Cl5O4)2
_chemical_formula_sum   'Cd1 Bi8 Cl10 O8'
_cell_volume   556.19246884
_cell_formula_units_Z   1
loop_
 _symmetry_equiv_pos_site_id
 _symmetry_equiv_pos_as_xyz
  1  'x, y, z'
loop_
 _atom_site_type_symbol
 _atom_site_label
 _atom_site_symmetry_multiplicity
 _atom_site_fract_x
 _atom_site_fract_y
 _atom_site_fract_z
 _atom_site_occupancy
  Cd  Cd0  1  0.00000000  0.00000000  0.50000000  1
  Bi  Bi1  1  0.88828600  0.11171400  0.00000000  1
  Bi  Bi2  1  0.38828900  0.61171100  0.50000000  1
  Bi  Bi3  1  0.61171100  0.38828900  0.50000000  1
  Bi  Bi4  1  0.11171400  0.88828600  0.00000000  1
  Bi  Bi5  1  0.68157400  0.31842600  0.00000000  1
  Bi  Bi6  1  0.18227700  0.81772300  0.50000000  1
  Bi  Bi7  1  0.81772300  0.18227700  0.50000000  1
  Bi  Bi8  1  0.31842600  0.68157400  0.00000000  1
  Cl  Cl9  1  0.57493500  0.42506500  0.00000000  1
  Cl  Cl10  1  0.07417700  0.92582300  0.50000000  1
  Cl  Cl11  1  0.92582300  0.07417700  0.50000000  1
  Cl  Cl12  1  0.42506500  0.57493500  0.00000000  1
  Cl  Cl13  1  0.50000000  0.50000000  0.50000000  1
  Cl  Cl14  1  0.00000000  0.00000000  0.00000000  1
  Cl  Cl15  1  0.78081400  0.21918600  0.00000000  1
  Cl  Cl16  1  0.28082800  0.71917200  0.50000000  1
  Cl  Cl17  1  0.71917200  0.28082800  0.50000000  1
  Cl  Cl18  1  0.21918600  0.78081400  0.00000000  1
  O  O19  1  0.60449200  0.89803200  0.74872800  1
  O  O20  1  0.10196800  0.39550800  0.25127200  1
  O  O21  1  0.10196800  0.39550800  0.74872800  1
  O  O22  1  0.60449200  0.89803200  0.25127200  1
  O  O23  1  0.89803200  0.60449200  0.74872800  1
  O  O24  1  0.39550800  0.10196800  0.25127200  1
  O  O25  1  0.39550800  0.10196800  0.74872800  1
  O  O26  1  0.89803200  0.60449200  0.25127200  1
