# generated using pymatgen
data_CdCu2GeSe4
_symmetry_space_group_name_H-M   'P 1'
_cell_length_a   6.66699127
_cell_length_b   7.04544500
_cell_length_c   8.09123338
_cell_angle_alpha   90.00000000
_cell_angle_beta   90.38348659
_cell_angle_gamma   90.00000000
_symmetry_Int_Tables_number   1
_chemical_formula_structural   CdCu2GeSe4
_chemical_formula_sum   'Cd2 Cu4 Ge2 Se8'
_cell_volume   380.05225688
_cell_formula_units_Z   2
loop_
 _symmetry_equiv_pos_site_id
 _symmetry_equiv_pos_as_xyz
  1  'x, y, z'
loop_
 _atom_site_type_symbol
 _atom_site_label
 _atom_site_symmetry_multiplicity
 _atom_site_fract_x
 _atom_site_fract_y
 _atom_site_fract_z
 _atom_site_occupancy
  Cd  Cd0  1  0.98128600  0.16917100  0.75365500  1
  Cd  Cd1  1  0.48128600  0.83082900  0.25365500  1
  Cu  Cu2  1  0.98359000  0.16617200  0.24748700  1
  Cu  Cu3  1  0.48359000  0.83382800  0.74748700  1
  Cu  Cu4  1  0.97584500  0.65386400  0.50055800  1
  Cu  Cu5  1  0.47584500  0.34613600  0.00055800  1
  Ge  Ge6  1  0.47928700  0.33406600  0.50016100  1
  Ge  Ge7  1  0.97928700  0.66593400  0.00016100  1
  Se  Se8  1  0.34510700  0.18821400  0.24776100  1
  Se  Se9  1  0.38524900  0.16191000  0.75094900  1
  Se  Se10  1  0.88524900  0.83809000  0.25094900  1
  Se  Se11  1  0.84510700  0.81178600  0.74776100  1
  Se  Se12  1  0.84394400  0.33512600  0.48011400  1
  Se  Se13  1  0.34394400  0.66487400  0.98011400  1
  Se  Se14  1  0.34159200  0.65165700  0.51931600  1
  Se  Se15  1  0.84159200  0.34834300  0.01931600  1
