# generated using pymatgen
data_Cd2MoWO8
_symmetry_space_group_name_H-M   'P 1'
_cell_length_a   6.80874257
_cell_length_b   6.80874257
_cell_length_c   6.80874257
_cell_angle_alpha   134.44402896
_cell_angle_beta   134.44402896
_cell_angle_gamma   66.39529123
_symmetry_Int_Tables_number   1
_chemical_formula_structural   Cd2MoWO8
_chemical_formula_sum   'Cd2 Mo1 W1 O8'
_cell_volume   158.36513115
_cell_formula_units_Z   1
loop_
 _symmetry_equiv_pos_site_id
 _symmetry_equiv_pos_as_xyz
  1  'x, y, z'
loop_
 _atom_site_type_symbol
 _atom_site_label
 _atom_site_symmetry_multiplicity
 _atom_site_fract_x
 _atom_site_fract_y
 _atom_site_fract_z
 _atom_site_occupancy
  Cd  Cd0  1  0.75000000  0.25000000  0.50000000  1
  Cd  Cd1  1  0.50000000  0.50000000  0.00000000  1
  Mo  Mo2  1  0.00000000  0.00000000  0.00000000  1
  W  W3  1  0.25000000  0.75000000  0.50000000  1
  O  O4  1  0.49543500  0.59233600  0.41343200  1
  O  O5  1  0.17890400  0.08200300  0.58656800  1
  O  O6  1  0.32824000  0.24425500  0.39923600  1
  O  O7  1  0.84502000  0.92900500  0.60076400  1
  O  O8  1  0.75574500  0.15498000  0.08398500  1
  O  O9  1  0.07099500  0.67176000  0.91601500  1
  O  O10  1  0.91799700  0.50456500  0.09690200  1
  O  O11  1  0.40766400  0.82109600  0.90309800  1
