# generated using pymatgen
data_Cd5Bi6(Cl3O2)4
_symmetry_space_group_name_H-M   'P 1'
_cell_length_a   12.42387076
_cell_length_b   12.42387076
_cell_length_c   12.42387076
_cell_angle_alpha   154.15880494
_cell_angle_beta   126.86063621
_cell_angle_gamma   60.00818424
_symmetry_Int_Tables_number   1
_chemical_formula_structural   Cd5Bi6(Cl3O2)4
_chemical_formula_sum   'Cd5 Bi6 Cl12 O8'
_cell_volume   664.35696825
_cell_formula_units_Z   1
loop_
 _symmetry_equiv_pos_site_id
 _symmetry_equiv_pos_as_xyz
  1  'x, y, z'
loop_
 _atom_site_type_symbol
 _atom_site_label
 _atom_site_symmetry_multiplicity
 _atom_site_fract_x
 _atom_site_fract_y
 _atom_site_fract_z
 _atom_site_occupancy
  Cd  Cd0  1  0.80475900  0.30475900  0.50000000  1
  Cd  Cd1  1  0.19524100  0.69524100  0.50000000  1
  Cd  Cd2  1  0.73096300  0.50000000  0.23096300  1
  Cd  Cd3  1  0.00000000  0.00000000  0.00000000  1
  Cd  Cd4  1  0.26903700  0.50000000  0.76903700  1
  Bi  Bi5  1  0.06102800  0.80683000  0.25419800  1
  Bi  Bi6  1  0.30530600  0.30530600  0.00000000  1
  Bi  Bi7  1  0.55263100  0.80683000  0.74580200  1
  Bi  Bi8  1  0.44736900  0.19317000  0.25419800  1
  Bi  Bi9  1  0.69469400  0.69469400  0.00000000  1
  Bi  Bi10  1  0.93897200  0.19317000  0.74580200  1
  Cl  Cl11  1  0.62744600  0.12744600  0.50000000  1
  Cl  Cl12  1  0.88229700  0.61891500  0.26338200  1
  Cl  Cl13  1  0.12401100  0.12401100  0.00000000  1
  Cl  Cl14  1  0.35553300  0.61891500  0.73661800  1
  Cl  Cl15  1  0.64446700  0.38108500  0.26338200  1
  Cl  Cl16  1  0.87598900  0.87598900  0.00000000  1
  Cl  Cl17  1  0.11770300  0.38108500  0.73661800  1
  Cl  Cl18  1  0.37255400  0.87255400  0.50000000  1
  Cl  Cl19  1  0.23358500  0.00000000  0.23358500  1
  Cl  Cl20  1  0.50000000  0.50000000  0.00000000  1
  Cl  Cl21  1  0.76641500  0.00000000  0.76641500  1
  Cl  Cl22  1  0.00000000  0.50000000  0.50000000  1
  O  O23  1  0.62189800  0.99386800  0.11571200  1
  O  O24  1  0.87815600  0.50618600  0.88428800  1
  O  O25  1  0.12184400  0.00613200  0.62803000  1
  O  O26  1  0.37810200  0.49381400  0.37197000  1
  O  O27  1  0.62189800  0.50618600  0.62803000  1
  O  O28  1  0.87815600  0.99386800  0.37197000  1
  O  O29  1  0.12184400  0.49381400  0.11571200  1
  O  O30  1  0.37810200  0.00613200  0.88428800  1
