# generated using pymatgen
data_Cd2GaAg(SeS)2
_symmetry_space_group_name_H-M   'P 1'
_cell_length_a   7.98680367
_cell_length_b   7.98680367
_cell_length_c   7.33359664
_cell_angle_alpha   64.20024412
_cell_angle_beta   64.20024412
_cell_angle_gamma   30.04370343
_symmetry_Int_Tables_number   1
_chemical_formula_structural   Cd2GaAg(SeS)2
_chemical_formula_sum   'Cd2 Ga1 Ag1 Se2 S2'
_cell_volume   209.08263411
_cell_formula_units_Z   1
loop_
 _symmetry_equiv_pos_site_id
 _symmetry_equiv_pos_as_xyz
  1  'x, y, z'
loop_
 _atom_site_type_symbol
 _atom_site_label
 _atom_site_symmetry_multiplicity
 _atom_site_fract_x
 _atom_site_fract_y
 _atom_site_fract_z
 _atom_site_occupancy
  Cd  Cd0  1  0.17955500  0.17955500  0.49013500  1
  Cd  Cd1  1  0.68175000  0.68175000  0.97310600  1
  Ga  Ga2  1  0.44356600  0.44356600  0.90305400  1
  Ag  Ag3  1  0.94593600  0.94593600  0.38234900  1
  Se  Se4  1  0.75414600  0.75414600  0.57810000  1
  Se  Se5  1  0.26236500  0.26236500  0.07457400  1
  S  S6  1  0.49747100  0.49747100  0.14723200  1
  S  S7  1  0.98932800  0.98932800  0.69705000  1
