# generated using pymatgen
data_Na3CaFe4(SiO3)8
_symmetry_space_group_name_H-M   'P 1'
_cell_length_a   7.58954400
_cell_length_b   9.40021792
_cell_length_c   19.95528436
_cell_angle_alpha   101.06485844
_cell_angle_beta   93.84292949
_cell_angle_gamma   102.66697371
_symmetry_Int_Tables_number   1
_chemical_formula_structural   Na3CaFe4(SiO3)8
_chemical_formula_sum   'Na9 Ca3 Fe12 Si24 O72'
_cell_volume   1354.32653163
_cell_formula_units_Z   3
loop_
 _symmetry_equiv_pos_site_id
 _symmetry_equiv_pos_as_xyz
  1  'x, y, z'
loop_
 _atom_site_type_symbol
 _atom_site_label
 _atom_site_symmetry_multiplicity
 _atom_site_fract_x
 _atom_site_fract_y
 _atom_site_fract_z
 _atom_site_occupancy
  Na  Na0  1  0.77852700  0.47653800  0.56685700  1
  Na  Na1  1  0.77292600  0.47156500  0.89894000  1
  Na  Na2  1  0.72359400  0.02298600  0.10077200  1
  Na  Na3  1  0.72578100  0.02732600  0.43310500  1
  Na  Na4  1  0.72473700  0.02770000  0.76692500  1
  Na  Na5  1  0.27301200  0.97156300  0.23315000  1
  Na  Na6  1  0.22552000  0.52805300  0.10001500  1
  Na  Na7  1  0.22258400  0.52407700  0.43399800  1
  Na  Na8  1  0.22426200  0.52367900  0.76709700  1
  Ca  Ca9  1  0.78108400  0.48010300  0.23304300  1
  Ca  Ca10  1  0.27057700  0.96959900  0.56537700  1
  Ca  Ca11  1  0.28096100  0.97909300  0.90011600  1
  Fe  Fe12  1  0.92568400  0.83155700  0.30039700  1
  Fe  Fe13  1  0.92007900  0.82183200  0.63494100  1
  Fe  Fe14  1  0.92122200  0.82137100  0.96817800  1
  Fe  Fe15  1  0.42197100  0.32229100  0.30118500  1
  Fe  Fe16  1  0.42671400  0.32993600  0.63362700  1
  Fe  Fe17  1  0.42649000  0.33176500  0.96633200  1
  Fe  Fe18  1  0.57267600  0.67181000  0.03370400  1
  Fe  Fe19  1  0.57528100  0.67844300  0.36698500  1
  Fe  Fe20  1  0.57716100  0.67754200  0.69965200  1
  Fe  Fe21  1  0.07546300  0.17761300  0.03383300  1
  Fe  Fe22  1  0.07256600  0.17140700  0.36666200  1
  Fe  Fe23  1  0.07316600  0.17454600  0.70087100  1
  Si  Si24  1  0.96595500  0.76805100  0.12658400  1
  Si  Si25  1  0.96431200  0.76664400  0.45798300  1
  Si  Si26  1  0.96382500  0.76566100  0.79334300  1
  Si  Si27  1  0.80784200  0.42947000  0.06553400  1
  Si  Si28  1  0.80768500  0.42616800  0.40001100  1
  Si  Si29  1  0.80741000  0.42625900  0.73280800  1
  Si  Si30  1  0.46441300  0.26577400  0.12586400  1
  Si  Si31  1  0.69281000  0.07479100  0.26775800  1
  Si  Si32  1  0.46556200  0.26749900  0.46020300  1
  Si  Si33  1  0.69588600  0.07330600  0.60008200  1
  Si  Si34  1  0.46611900  0.26819600  0.79239800  1
  Si  Si35  1  0.30771200  0.92594800  0.06667300  1
  Si  Si36  1  0.69716800  0.07097100  0.93373700  1
  Si  Si37  1  0.53263500  0.73311900  0.20728800  1
  Si  Si38  1  0.30815100  0.92971400  0.39863600  1
  Si  Si39  1  0.53266600  0.72871900  0.54004600  1
  Si  Si40  1  0.30738400  0.92907800  0.73246500  1
  Si  Si41  1  0.53349000  0.72908700  0.87291800  1
  Si  Si42  1  0.19706900  0.57135000  0.26714100  1
  Si  Si43  1  0.19390600  0.57290400  0.60084700  1
  Si  Si44  1  0.19310500  0.57464500  0.93431400  1
  Si  Si45  1  0.03362000  0.22958200  0.20656600  1
  Si  Si46  1  0.03334300  0.23380000  0.53970300  1
  Si  Si47  1  0.03284600  0.23299100  0.87389400  1
  O  O48  1  0.95408900  0.85230500  0.20250400  1
  O  O49  1  0.83595500  0.79990100  0.06373200  1
  O  O50  1  0.96566900  0.85470600  0.53543200  1
  O  O51  1  0.83070800  0.80080800  0.39853100  1
  O  O52  1  0.92260200  0.58324700  0.12231900  1
  O  O53  1  0.96572000  0.84777800  0.87306100  1
  O  O54  1  0.82880600  0.80345900  0.73607900  1
  O  O55  1  0.95962900  0.34511600  0.03581600  1
  O  O56  1  0.92267600  0.58365300  0.45252600  1
  O  O57  1  0.67595400  0.48050200  0.01229900  1
  O  O58  1  0.96025600  0.34513000  0.36920200  1
  O  O59  1  0.92385000  0.58283300  0.78646200  1
  O  O60  1  0.66917900  0.46932100  0.34326100  1
  O  O61  1  0.68307400  0.32689600  0.11345700  1
  O  O62  1  0.96052200  0.34495100  0.70203200  1
  O  O63  1  0.81574400  0.18144200  0.22103700  1
  O  O64  1  0.66670600  0.47097300  0.67822500  1
  O  O65  1  0.46475200  0.34836600  0.20563300  1
  O  O66  1  0.68142900  0.32426300  0.44639800  1
  O  O67  1  0.33138900  0.30200900  0.06708300  1
  O  O68  1  0.81708200  0.17656400  0.55321100  1
  O  O69  1  0.83096900  0.03781400  0.32414200  1
  O  O70  1  0.45443800  0.34915600  0.53830700  1
  O  O71  1  0.68294700  0.31987200  0.77762000  1
  O  O72  1  0.53844600  0.15648100  0.29758800  1
  O  O73  1  0.33622700  0.30157100  0.39837100  1
  O  O74  1  0.42291900  0.08333900  0.11992600  1
  O  O75  1  0.81568900  0.17509700  0.88631900  1
  O  O76  1  0.83288300  0.03361700  0.65650400  1
  O  O77  1  0.45396000  0.35328500  0.86825500  1
  O  O78  1  0.57789500  0.91683500  0.21494400  1
  O  O79  1  0.53483500  0.15142400  0.62733700  1
  O  O80  1  0.33627000  0.29885200  0.72910700  1
  O  O81  1  0.46109600  0.84607100  0.03557100  1
  O  O82  1  0.42191900  0.08375700  0.45618400  1
  O  O83  1  0.16939100  0.97053500  0.01036300  1
  O  O84  1  0.83763000  0.02630700  0.98845500  1
  O  O85  1  0.57522000  0.91446200  0.54765700  1
  O  O86  1  0.53839100  0.14298000  0.96334100  1
  O  O87  1  0.65406000  0.68674500  0.26682000  1
  O  O88  1  0.46104500  0.84700700  0.36871500  1
  O  O89  1  0.42087500  0.08353300  0.78877500  1
  O  O90  1  0.54522100  0.65202200  0.12899300  1
  O  O91  1  0.17639300  0.98178000  0.34579000  1
  O  O92  1  0.18241700  0.82221400  0.11187300  1
  O  O93  1  0.57797300  0.91308500  0.87959300  1
  O  O94  1  0.65276200  0.68979900  0.60156500  1
  O  O95  1  0.45964500  0.84647600  0.70211400  1
  O  O96  1  0.31536200  0.67560400  0.21982000  1
  O  O97  1  0.54201300  0.64966900  0.46139800  1
  O  O98  1  0.17924800  0.98017000  0.67709800  1
  O  O99  1  0.18424600  0.82424600  0.44493800  1
  O  O100  1  0.66365300  0.69725300  0.93473600  1
  O  O101  1  0.31342100  0.68040200  0.55361800  1
  O  O102  1  0.54107600  0.64812500  0.79466200  1
  O  O103  1  0.33778000  0.52621400  0.32169600  1
  O  O104  1  0.18187800  0.82850100  0.78037600  1
  O  O105  1  0.03836700  0.64287000  0.29682200  1
  O  O106  1  0.31549300  0.68142400  0.88754200  1
  O  O107  1  0.33637900  0.52762600  0.65482900  1
  O  O108  1  0.07785300  0.41328000  0.21308700  1
  O  O109  1  0.04385600  0.65172800  0.63342900  1
  O  O110  1  0.33145100  0.53735900  0.99070000  1
  O  O111  1  0.07929300  0.41613700  0.54680400  1
  O  O112  1  0.03896400  0.65606500  0.96410200  1
  O  O113  1  0.16423000  0.19781700  0.26835800  1
  O  O114  1  0.04268800  0.14861800  0.12839900  1
  O  O115  1  0.07786800  0.41653500  0.88146300  1
  O  O116  1  0.16523500  0.19547300  0.60013600  1
  O  O117  1  0.04503500  0.15138800  0.46206700  1
  O  O118  1  0.15486900  0.18704800  0.93346100  1
  O  O119  1  0.04547900  0.15197800  0.79537500  1
