# generated using pymatgen
data_Na6Np2H10S4O25
_symmetry_space_group_name_H-M   'P 1'
_cell_length_a   7.10548751
_cell_length_b   7.93815780
_cell_length_c   10.81729178
_cell_angle_alpha   89.05252822
_cell_angle_beta   90.08500190
_cell_angle_gamma   90.29443870
_symmetry_Int_Tables_number   1
_chemical_formula_structural   Na6Np2H10S4O25
_chemical_formula_sum   'Na6 Np2 H10 S4 O25'
_cell_volume   610.05165517
_cell_formula_units_Z   1
loop_
 _symmetry_equiv_pos_site_id
 _symmetry_equiv_pos_as_xyz
  1  'x, y, z'
loop_
 _atom_site_type_symbol
 _atom_site_label
 _atom_site_symmetry_multiplicity
 _atom_site_fract_x
 _atom_site_fract_y
 _atom_site_fract_z
 _atom_site_occupancy
  Na  Na0  1  0.00175900  0.99947500  0.49888300  1
  Na  Na1  1  0.25228300  0.99598000  0.77884800  1
  Na  Na2  1  0.44873600  0.68242600  0.04914200  1
  Na  Na3  1  0.50235300  0.00056300  0.50007200  1
  Na  Na4  1  0.75201900  0.01136700  0.21967800  1
  Na  Na5  1  0.96568200  0.30326600  0.96817300  1
  Np  Np6  1  0.25303900  0.36397800  0.30933900  1
  Np  Np7  1  0.75269700  0.63316000  0.69005600  1
  H  H8  1  0.98152700  0.71559400  0.33019500  1
  H  H9  1  0.08593400  0.84575100  0.24524800  1
  H  H10  1  0.40268200  0.85289800  0.25632900  1
  H  H11  1  0.50641900  0.71610300  0.33685000  1
  H  H12  1  0.48653100  0.28331000  0.66991900  1
  H  H13  1  0.58798200  0.15375800  0.75574000  1
  H  H14  1  0.71176700  0.48044600  0.96686800  1
  H  H15  1  0.79290900  0.58900900  0.07344500  1
  H  H16  1  0.90153600  0.14633100  0.74687200  1
  H  H17  1  0.00238600  0.28288300  0.66451800  1
  S  S18  1  0.25294700  0.63904500  0.59789200  1
  S  S19  1  0.25302000  0.08869100  0.09987300  1
  S  S20  1  0.75285300  0.36194000  0.40603600  1
  S  S21  1  0.74951200  0.90353200  0.90359500  1
  O  O22  1  0.00824000  0.16446200  0.68977200  1
  O  O23  1  0.08143400  0.16344500  0.16153300  1
  O  O24  1  0.08243600  0.57116400  0.66255500  1
  O  O25  1  0.25585200  0.58195700  0.46800800  1
  O  O26  1  0.25247300  0.82644600  0.59950800  1
  O  O27  1  0.25151600  0.19386200  0.42929400  1
  O  O28  1  0.25330600  0.52687500  0.18511000  1
  O  O29  1  0.24525000  0.13193400  0.96702500  1
  O  O30  1  0.25423400  0.90228600  0.12015500  1
  O  O31  1  0.42048700  0.57228000  0.66602000  1
  O  O32  1  0.41991200  0.16502800  0.16283000  1
  O  O33  1  0.49577700  0.16263800  0.68793700  1
  O  O34  1  0.51142500  0.83482400  0.31169600  1
  O  O35  1  0.57696900  0.82886900  0.84265900  1
  O  O36  1  0.58230800  0.43048300  0.34341600  1
  O  O37  1  0.72428000  0.48415200  0.05854600  1
  O  O38  1  0.75215700  0.17464000  0.40237000  1
  O  O39  1  0.75548600  0.41528500  0.53733000  1
  O  O40  1  0.75470400  0.08989300  0.88488200  1
  O  O41  1  0.75903800  0.46487700  0.81284600  1
  O  O42  1  0.74999600  0.80381300  0.57099400  1
  O  O43  1  0.74496600  0.85864400  0.03691200  1
  O  O44  1  0.92191200  0.43102500  0.34058600  1
  O  O45  1  0.91527900  0.82666000  0.84031000  1
  O  O46  1  0.99159000  0.83595100  0.31213400  1
