# generated using pymatgen
data_Ce2Co3Ge4Ru
_symmetry_space_group_name_H-M   'P 1'
_cell_length_a   4.12110100
_cell_length_b   4.12110100
_cell_length_c   10.04366100
_cell_angle_alpha   90.00000000
_cell_angle_beta   90.00000000
_cell_angle_gamma   90.00000000
_symmetry_Int_Tables_number   1
_chemical_formula_structural   Ce2Co3Ge4Ru
_chemical_formula_sum   'Ce2 Co3 Ge4 Ru1'
_cell_volume   170.57624996
_cell_formula_units_Z   1
loop_
 _symmetry_equiv_pos_site_id
 _symmetry_equiv_pos_as_xyz
  1  'x, y, z'
loop_
 _atom_site_type_symbol
 _atom_site_label
 _atom_site_symmetry_multiplicity
 _atom_site_fract_x
 _atom_site_fract_y
 _atom_site_fract_z
 _atom_site_occupancy
  Ce  Ce0  1  0.00000000  0.00000000  0.99604800  1
  Ce  Ce1  1  0.50000000  0.50000000  0.50395200  1
  Co  Co2  1  0.50000000  0.00000000  0.75000000  1
  Co  Co3  1  0.50000000  0.00000000  0.25000000  1
  Co  Co4  1  0.00000000  0.50000000  0.75000000  1
  Ge  Ge5  1  0.50000000  0.50000000  0.12510900  1
  Ge  Ge6  1  0.00000000  0.00000000  0.63611800  1
  Ge  Ge7  1  0.00000000  0.00000000  0.37489100  1
  Ge  Ge8  1  0.50000000  0.50000000  0.86388200  1
  Ru  Ru9  1  0.00000000  0.50000000  0.25000000  1
