# generated using pymatgen
data_CaScAlSiO6
_symmetry_space_group_name_H-M   'P 1'
_cell_length_a   6.77163030
_cell_length_b   6.77163030
_cell_length_c   5.52301654
_cell_angle_alpha   78.11356961
_cell_angle_beta   78.11356961
_cell_angle_gamma   84.41168489
_symmetry_Int_Tables_number   1
_chemical_formula_structural   CaScAlSiO6
_chemical_formula_sum   'Ca2 Sc2 Al2 Si2 O12'
_cell_volume   242.11372159
_cell_formula_units_Z   2
loop_
 _symmetry_equiv_pos_site_id
 _symmetry_equiv_pos_as_xyz
  1  'x, y, z'
loop_
 _atom_site_type_symbol
 _atom_site_label
 _atom_site_symmetry_multiplicity
 _atom_site_fract_x
 _atom_site_fract_y
 _atom_site_fract_z
 _atom_site_occupancy
  Ca  Ca0  1  0.30773400  0.69226600  0.50000000  1
  Ca  Ca1  1  0.68757000  0.31243000  0.00000000  1
  Sc  Sc2  1  0.90220000  0.09780000  0.50000000  1
  Sc  Sc3  1  0.09786500  0.90213500  0.00000000  1
  Al  Al4  1  0.80397700  0.61979800  0.48027100  1
  Al  Al5  1  0.38020200  0.19602300  0.51972900  1
  Si  Si6  1  0.20205100  0.38351000  0.01635500  1
  Si  Si7  1  0.61649000  0.79794900  0.98364500  1
  O  O8  1  0.98674200  0.80239900  0.38048700  1
  O  O9  1  0.19760100  0.01325800  0.61951300  1
  O  O10  1  0.03158000  0.21071500  0.10360200  1
  O  O11  1  0.78928500  0.96842000  0.89639800  1
  O  O12  1  0.88628100  0.37191900  0.58890900  1
  O  O13  1  0.62808100  0.11371900  0.41109100  1
  O  O14  1  0.11225300  0.61355700  0.92581100  1
  O  O15  1  0.38644300  0.88774700  0.07418900  1
  O  O16  1  0.66294600  0.63061600  0.23553900  1
  O  O17  1  0.36938400  0.33705400  0.76446100  1
  O  O18  1  0.32786000  0.37654500  0.24558400  1
  O  O19  1  0.62345500  0.67214000  0.75441600  1
