# generated using pymatgen
data_NaCaAlSi2O7
_symmetry_space_group_name_H-M   'P 1'
_cell_length_a   12.71980000
_cell_length_b   7.75864700
_cell_length_c   7.75864700
_cell_angle_alpha   90.00000000
_cell_angle_beta   90.00000000
_cell_angle_gamma   90.00000000
_symmetry_Int_Tables_number   1
_chemical_formula_structural   NaCaAlSi2O7
_chemical_formula_sum   'Na4 Ca4 Al4 Si8 O28'
_cell_volume   765.68875428
_cell_formula_units_Z   4
loop_
 _symmetry_equiv_pos_site_id
 _symmetry_equiv_pos_as_xyz
  1  'x, y, z'
loop_
 _atom_site_type_symbol
 _atom_site_label
 _atom_site_symmetry_multiplicity
 _atom_site_fract_x
 _atom_site_fract_y
 _atom_site_fract_z
 _atom_site_occupancy
  Na  Na0  1  0.31251500  0.13325600  0.63325600  1
  Na  Na1  1  0.31251500  0.86674400  0.36674400  1
  Na  Na2  1  0.68748500  0.63325600  0.86674400  1
  Na  Na3  1  0.68748500  0.36674400  0.13325600  1
  Ca  Ca4  1  0.21166200  0.34638400  0.15361600  1
  Ca  Ca5  1  0.21166200  0.65361600  0.84638400  1
  Ca  Ca6  1  0.78833800  0.15361600  0.65361600  1
  Ca  Ca7  1  0.78833800  0.84638400  0.34638400  1
  Al  Al8  1  0.00000000  0.00000000  0.00000000  1
  Al  Al9  1  0.00000000  0.50000000  0.50000000  1
  Al  Al10  1  0.50000000  0.00000000  0.00000000  1
  Al  Al11  1  0.50000000  0.50000000  0.50000000  1
  Si  Si12  1  0.60741300  0.13859900  0.36140100  1
  Si  Si13  1  0.60741300  0.86140100  0.63859900  1
  Si  Si14  1  0.89322200  0.36448100  0.86448100  1
  Si  Si15  1  0.89322200  0.63551900  0.13551900  1
  Si  Si16  1  0.10677800  0.13551900  0.36448100  1
  Si  Si17  1  0.10677800  0.86448100  0.63551900  1
  Si  Si18  1  0.39258700  0.36140100  0.86140100  1
  Si  Si19  1  0.39258700  0.63859900  0.13859900  1
  O  O20  1  0.04872300  0.00000000  0.50000000  1
  O  O21  1  0.07490400  0.89803600  0.83846700  1
  O  O22  1  0.07490400  0.66153300  0.60196400  1
  O  O23  1  0.07490400  0.10196400  0.16153300  1
  O  O24  1  0.07490400  0.33846700  0.39803600  1
  O  O25  1  0.26379400  0.37358400  0.87358400  1
  O  O26  1  0.26379400  0.62641600  0.12641600  1
  O  O27  1  0.23474400  0.13544600  0.36455400  1
  O  O28  1  0.23474400  0.86455400  0.63544600  1
  O  O29  1  0.42363600  0.83626700  0.09302500  1
  O  O30  1  0.42363600  0.59302500  0.33626700  1
  O  O31  1  0.42363600  0.40697500  0.66373300  1
  O  O32  1  0.42363600  0.16373300  0.90697500  1
  O  O33  1  0.44727600  0.50000000  0.00000000  1
  O  O34  1  0.55272400  0.00000000  0.50000000  1
  O  O35  1  0.57636400  0.90697500  0.83626700  1
  O  O36  1  0.57636400  0.66373300  0.59302500  1
  O  O37  1  0.57636400  0.09302500  0.16373300  1
  O  O38  1  0.57636400  0.33626700  0.40697500  1
  O  O39  1  0.76525600  0.36455400  0.86455400  1
  O  O40  1  0.76525600  0.63544600  0.13544600  1
  O  O41  1  0.73620600  0.12641600  0.37358400  1
  O  O42  1  0.73620600  0.87358400  0.62641600  1
  O  O43  1  0.92509600  0.83846700  0.10196400  1
  O  O44  1  0.92509600  0.60196400  0.33846700  1
  O  O45  1  0.92509600  0.39803600  0.66153300  1
  O  O46  1  0.92509600  0.16153300  0.89803600  1
  O  O47  1  0.95127700  0.50000000  0.00000000  1
