# generated using pymatgen
data_CaYAl3O7
_symmetry_space_group_name_H-M   'P 1'
_cell_length_a   7.75901137
_cell_length_b   7.75901137
_cell_length_c   5.09811400
_cell_angle_alpha   90.00000000
_cell_angle_beta   90.00000000
_cell_angle_gamma   90.17023374
_symmetry_Int_Tables_number   1
_chemical_formula_structural   CaYAl3O7
_chemical_formula_sum   'Ca2 Y2 Al6 O14'
_cell_volume   306.91661669
_cell_formula_units_Z   2
loop_
 _symmetry_equiv_pos_site_id
 _symmetry_equiv_pos_as_xyz
  1  'x, y, z'
loop_
 _atom_site_type_symbol
 _atom_site_label
 _atom_site_symmetry_multiplicity
 _atom_site_fract_x
 _atom_site_fract_y
 _atom_site_fract_z
 _atom_site_occupancy
  Ca  Ca0  1  0.33892300  0.66107700  0.51543100  1
  Ca  Ca1  1  0.66107700  0.33892300  0.51543100  1
  Y  Y2  1  0.16152800  0.16152800  0.48500400  1
  Y  Y3  1  0.83847200  0.83847200  0.48500400  1
  Al  Al4  1  0.50000000  0.00000000  0.00085900  1
  Al  Al5  1  0.00000000  0.50000000  0.00085900  1
  Al  Al6  1  0.14261300  0.85738700  0.95619600  1
  Al  Al7  1  0.35433100  0.35433100  0.04399600  1
  Al  Al8  1  0.85738700  0.14261300  0.95619600  1
  Al  Al9  1  0.64566900  0.64566900  0.04399600  1
  O  O10  1  0.33729600  0.91336200  0.79920800  1
  O  O11  1  0.15631100  0.40207800  0.20481100  1
  O  O12  1  0.66270400  0.08663800  0.79920800  1
  O  O13  1  0.84368900  0.59792200  0.20481100  1
  O  O14  1  0.59792200  0.84368900  0.20481100  1
  O  O15  1  0.91336200  0.33729600  0.79920800  1
  O  O16  1  0.40207800  0.15631100  0.20481100  1
  O  O17  1  0.08663800  0.66270400  0.79920800  1
  O  O18  1  0.13073100  0.86926900  0.29872500  1
  O  O19  1  0.34718700  0.34718700  0.70265100  1
  O  O20  1  0.86926900  0.13073100  0.29872500  1
  O  O21  1  0.65281300  0.65281300  0.70265100  1
  O  O22  1  0.50000000  0.50000000  0.18334700  1
  O  O23  1  0.00000000  0.00000000  0.79487200  1
