# generated using pymatgen
data_NaAlH22C10(NO6)2
_symmetry_space_group_name_H-M   'P 1'
_cell_length_a   9.33079940
_cell_length_b   9.32369028
_cell_length_c   9.80995289
_cell_angle_alpha   55.18267754
_cell_angle_beta   51.00041439
_cell_angle_gamma   54.73181551
_symmetry_Int_Tables_number   1
_chemical_formula_structural   NaAlH22C10(NO6)2
_chemical_formula_sum   'Na1 Al1 H22 C10 N2 O12'
_cell_volume   511.71576301
_cell_formula_units_Z   1
loop_
 _symmetry_equiv_pos_site_id
 _symmetry_equiv_pos_as_xyz
  1  'x, y, z'
loop_
 _atom_site_type_symbol
 _atom_site_label
 _atom_site_symmetry_multiplicity
 _atom_site_fract_x
 _atom_site_fract_y
 _atom_site_fract_z
 _atom_site_occupancy
  Na  Na0  1  0.02825300  0.97209000  0.02610200  1
  Al  Al1  1  0.48516800  0.52138000  0.49462400  1
  H  H2  1  0.18673600  0.27284800  0.15329600  1
  H  H3  1  0.33393500  0.22898800  0.39109900  1
  H  H4  1  0.18944300  0.33296500  0.84480100  1
  H  H5  1  0.36376200  0.78432900  0.19060800  1
  H  H6  1  0.77352600  0.19074600  0.35491300  1
  H  H7  1  0.15980000  0.82525700  0.66961800  1
  H  H8  1  0.62483100  0.31449100  0.80922100  1
  H  H9  1  0.83964700  0.64633400  0.20976100  1
  H  H10  1  0.94435900  0.40728600  0.70015700  1
  H  H11  1  0.61980400  0.83679300  0.88984700  1
  H  H12  1  0.82653700  0.80454800  0.46700000  1
  H  H13  1  0.82156100  0.45174400  0.89709200  1
  H  H14  1  0.26702600  0.05460100  0.32668800  1
  H  H15  1  0.02633000  0.23304000  0.53492300  1
  H  H16  1  0.94404200  0.59574700  0.68415000  1
  H  H17  1  0.20960600  0.44662700  0.26331000  1
  H  H18  1  0.54199600  0.62374000  0.83740400  1
  H  H19  1  0.70606500  0.94161300  0.91859800  1
  H  H20  1  0.45201400  0.31373600  0.14788600  1
  H  H21  1  0.57074500  0.88172500  0.55388100  1
  H  H22  1  0.81706700  0.92214100  0.69776800  1
  H  H23  1  0.85406600  0.71977500  0.89013800  1
  C  C24  1  0.23434200  0.20455400  0.25975000  1
  C  C25  1  0.30870100  0.30227300  0.26809600  1
  C  C26  1  0.23166900  0.75042200  0.31533000  1
  C  C27  1  0.29823100  0.24447700  0.75368800  1
  C  C28  1  0.74719500  0.31486100  0.23801400  1
  C  C29  1  0.23580200  0.71487100  0.75888000  1
  C  C30  1  0.70993600  0.76832300  0.24999300  1
  C  C31  1  0.74686900  0.32233800  0.66959300  1
  C  C32  1  0.68374700  0.62954300  0.71815900  1
  C  C33  1  0.74949500  0.85500500  0.84846200  1
  N  N34  1  0.69335600  0.78753500  0.57181400  1
  N  N35  1  0.85719700  0.51860900  0.75008200  1
  O  O36  1  0.07981800  0.81440000  0.30034000  1
  O  O37  1  0.26704700  0.11104900  0.78926400  1
  O  O38  1  0.24714500  0.64497000  0.46852700  1
  O  O39  1  0.45052900  0.29099400  0.61561900  1
  O  O40  1  0.82467900  0.29257500  0.08706000  1
  O  O41  1  0.64007500  0.47181500  0.26554100  1
  O  O42  1  0.35072000  0.56044000  0.72169900  1
  O  O43  1  0.20545100  0.74327000  0.88549700  1
  O  O44  1  0.54236900  0.74211000  0.36418700  1
  O  O45  1  0.72972100  0.38437300  0.52726600  1
  O  O46  1  0.73221000  0.91761100  0.18583800  1
  O  O47  1  0.92578000  0.23443500  0.66431800  1
