# generated using pymatgen
data_CaSmCrO4
_symmetry_space_group_name_H-M   'P 1'
_cell_length_a   6.49279236
_cell_length_b   6.49279236
_cell_length_c   5.63009400
_cell_angle_alpha   90.00000000
_cell_angle_beta   90.00000000
_cell_angle_gamma   130.64005683
_symmetry_Int_Tables_number   1
_chemical_formula_structural   CaSmCrO4
_chemical_formula_sum   'Ca2 Sm2 Cr2 O8'
_cell_volume   180.10063348
_cell_formula_units_Z   2
loop_
 _symmetry_equiv_pos_site_id
 _symmetry_equiv_pos_as_xyz
  1  'x, y, z'
loop_
 _atom_site_type_symbol
 _atom_site_label
 _atom_site_symmetry_multiplicity
 _atom_site_fract_x
 _atom_site_fract_y
 _atom_site_fract_z
 _atom_site_occupancy
  Ca  Ca0  1  0.89656500  0.10343500  0.51809200  1
  Ca  Ca1  1  0.10343500  0.89656500  0.01809200  1
  Sm  Sm2  1  0.61160400  0.38839600  0.48044000  1
  Sm  Sm3  1  0.38839600  0.61160400  0.98044000  1
  Cr  Cr4  1  0.24968800  0.75031200  0.49796900  1
  Cr  Cr5  1  0.75031200  0.24968800  0.99796900  1
  O  O6  1  0.52273100  0.97823200  0.24922600  1
  O  O7  1  0.47726900  0.02176800  0.74922600  1
  O  O8  1  0.97823200  0.52273100  0.74922600  1
  O  O9  1  0.02176800  0.47726900  0.24922600  1
  O  O10  1  0.08209500  0.91790500  0.43725400  1
  O  O11  1  0.42490600  0.57509400  0.56779300  1
  O  O12  1  0.91790500  0.08209500  0.93725400  1
  O  O13  1  0.57509400  0.42490600  0.06779300  1
