# generated using pymatgen
data_Ca4Nb6O21
_symmetry_space_group_name_H-M   'P 1'
_cell_length_a   5.51881798
_cell_length_b   5.51881798
_cell_length_c   14.68858900
_cell_angle_alpha   90.00000000
_cell_angle_beta   90.00000000
_cell_angle_gamma   90.02811644
_symmetry_Int_Tables_number   1
_chemical_formula_structural   Ca4Nb6O21
_chemical_formula_sum   'Ca4 Nb6 O21'
_cell_volume   447.37547009
_cell_formula_units_Z   1
loop_
 _symmetry_equiv_pos_site_id
 _symmetry_equiv_pos_as_xyz
  1  'x, y, z'
loop_
 _atom_site_type_symbol
 _atom_site_label
 _atom_site_symmetry_multiplicity
 _atom_site_fract_x
 _atom_site_fract_y
 _atom_site_fract_z
 _atom_site_occupancy
  Ca  Ca0  1  0.50000000  0.50000000  0.15626300  1
  Ca  Ca1  1  0.00000000  0.00000000  0.15630000  1
  Ca  Ca2  1  0.50000000  0.50000000  0.84533600  1
  Ca  Ca3  1  0.00000000  0.00000000  0.84528000  1
  Nb  Nb4  1  0.50000000  0.00000000  0.29764300  1
  Nb  Nb5  1  0.00000000  0.50000000  0.29764300  1
  Nb  Nb6  1  0.50000000  0.00000000  0.70337400  1
  Nb  Nb7  1  0.00000000  0.50000000  0.70337400  1
  Nb  Nb8  1  0.50000000  0.00000000  0.00007200  1
  Nb  Nb9  1  0.00000000  0.50000000  0.00007200  1
  O  O10  1  0.50000000  0.00000000  0.41767800  1
  O  O11  1  0.00000000  0.50000000  0.41767800  1
  O  O12  1  0.50000000  0.00000000  0.58200800  1
  O  O13  1  0.00000000  0.50000000  0.58200800  1
  O  O14  1  0.50000000  0.00000000  0.13232600  1
  O  O15  1  0.00000000  0.50000000  0.13232600  1
  O  O16  1  0.50000000  0.00000000  0.86683400  1
  O  O17  1  0.00000000  0.50000000  0.86683400  1
  O  O18  1  0.82433200  0.82433200  0.99957400  1
  O  O19  1  0.17566800  0.17566800  0.99957400  1
  O  O20  1  0.32439600  0.67560400  0.99960700  1
  O  O21  1  0.67560400  0.32439600  0.99960700  1
  O  O22  1  0.76664400  0.76664400  0.26130000  1
  O  O23  1  0.23335600  0.23335600  0.26130000  1
  O  O24  1  0.26694500  0.73305500  0.26134900  1
  O  O25  1  0.73305500  0.26694500  0.26134900  1
  O  O26  1  0.23292800  0.23292800  0.73802200  1
  O  O27  1  0.76707200  0.76707200  0.73802200  1
  O  O28  1  0.73231200  0.26768800  0.73803000  1
  O  O29  1  0.26768800  0.73231200  0.73803000  1
  O  O30  1  0.50000000  0.50000000  0.52818500  1
