# generated using pymatgen
data_Ca4ZnFe3(SiO3)8
_symmetry_space_group_name_H-M   'P 1'
_cell_length_a   9.13389800
_cell_length_b   5.31570400
_cell_length_c   9.96934020
_cell_angle_alpha   74.71549243
_cell_angle_beta   90.00000000
_cell_angle_gamma   90.00000000
_symmetry_Int_Tables_number   1
_chemical_formula_structural   Ca4ZnFe3(SiO3)8
_chemical_formula_sum   'Ca4 Zn1 Fe3 Si8 O24'
_cell_volume   466.92116146
_cell_formula_units_Z   1
loop_
 _symmetry_equiv_pos_site_id
 _symmetry_equiv_pos_as_xyz
  1  'x, y, z'
loop_
 _atom_site_type_symbol
 _atom_site_label
 _atom_site_symmetry_multiplicity
 _atom_site_fract_x
 _atom_site_fract_y
 _atom_site_fract_z
 _atom_site_occupancy
  Ca  Ca0  1  0.20116700  0.50000000  0.50000000  1
  Ca  Ca1  1  0.70091600  0.50000000  0.00000000  1
  Ca  Ca2  1  0.79936100  0.00000000  0.50000000  1
  Ca  Ca3  1  0.29905400  0.00000000  0.00000000  1
  Zn  Zn4  1  0.59390200  0.50000000  0.50000000  1
  Fe  Fe5  1  0.09307800  0.50000000  0.00000000  1
  Fe  Fe6  1  0.40671600  0.00000000  0.50000000  1
  Fe  Fe7  1  0.90689000  0.00000000  0.00000000  1
  Si  Si8  1  0.90741200  0.51820700  0.28745100  1
  Si  Si9  1  0.40787700  0.51819900  0.78716300  1
  Si  Si10  1  0.90741200  0.48179300  0.71254900  1
  Si  Si11  1  0.40787700  0.48180100  0.21283700  1
  Si  Si12  1  0.09217800  0.98175200  0.71278600  1
  Si  Si13  1  0.59228100  0.98136900  0.21288400  1
  Si  Si14  1  0.09217800  0.01824800  0.28721400  1
  Si  Si15  1  0.59228100  0.01863100  0.78711600  1
  O  O16  1  0.98076700  0.75630000  0.34968500  1
  O  O17  1  0.48092700  0.75658400  0.84950700  1
  O  O18  1  0.98076700  0.24370000  0.65031500  1
  O  O19  1  0.48092700  0.24341600  0.15049300  1
  O  O20  1  0.01908600  0.74365000  0.65030800  1
  O  O21  1  0.51917700  0.74369700  0.15034000  1
  O  O22  1  0.01908600  0.25635000  0.34969200  1
  O  O23  1  0.51917700  0.25630300  0.84966000  1
  O  O24  1  0.90968000  0.59959000  0.11927400  1
  O  O25  1  0.41050500  0.59955800  0.61862600  1
  O  O26  1  0.90968000  0.40041000  0.88072600  1
  O  O27  1  0.41050500  0.40044200  0.38137400  1
  O  O28  1  0.09033200  0.90052100  0.88085000  1
  O  O29  1  0.59003100  0.89827300  0.38193300  1
  O  O30  1  0.09033200  0.09947900  0.11915000  1
  O  O31  1  0.59003100  0.10172700  0.61806700  1
  O  O32  1  0.75362000  0.42586200  0.36274100  1
  O  O33  1  0.25464100  0.42659200  0.86244400  1
  O  O34  1  0.75362000  0.57413800  0.63725900  1
  O  O35  1  0.25464100  0.57340800  0.13755600  1
  O  O36  1  0.24558000  0.07373300  0.63721200  1
  O  O37  1  0.74536500  0.07335900  0.13765900  1
  O  O38  1  0.24558000  0.92626700  0.36278800  1
  O  O39  1  0.74536500  0.92664100  0.86234100  1
