# generated using pymatgen
data_CaTmMn2O6
_symmetry_space_group_name_H-M   'P 1'
_cell_length_a   5.31266800
_cell_length_b   5.55191600
_cell_length_c   7.54314900
_cell_angle_alpha   90.00000000
_cell_angle_beta   90.00000000
_cell_angle_gamma   90.00000000
_symmetry_Int_Tables_number   1
_chemical_formula_structural   CaTmMn2O6
_chemical_formula_sum   'Ca2 Tm2 Mn4 O12'
_cell_volume   222.48884928
_cell_formula_units_Z   2
loop_
 _symmetry_equiv_pos_site_id
 _symmetry_equiv_pos_as_xyz
  1  'x, y, z'
loop_
 _atom_site_type_symbol
 _atom_site_label
 _atom_site_symmetry_multiplicity
 _atom_site_fract_x
 _atom_site_fract_y
 _atom_site_fract_z
 _atom_site_occupancy
  Ca  Ca0  1  0.51139100  0.19467900  0.50000000  1
  Ca  Ca1  1  0.01139100  0.80532100  0.00000000  1
  Tm  Tm2  1  0.98101300  0.68034800  0.50000000  1
  Tm  Tm3  1  0.48101300  0.31965200  0.00000000  1
  Mn  Mn4  1  0.49939100  0.75485400  0.74977400  1
  Mn  Mn5  1  0.99939100  0.24514600  0.24977400  1
  Mn  Mn6  1  0.49939100  0.75485400  0.25022600  1
  Mn  Mn7  1  0.99939100  0.24514600  0.75022600  1
  O  O8  1  0.38904700  0.77833200  0.50000000  1
  O  O9  1  0.08720800  0.28662800  0.50000000  1
  O  O10  1  0.58720800  0.71337200  0.00000000  1
  O  O11  1  0.88904700  0.22166800  0.00000000  1
  O  O12  1  0.70712400  0.45955700  0.70146200  1
  O  O13  1  0.80915500  0.94219300  0.30298000  1
  O  O14  1  0.30915500  0.05780700  0.19702000  1
  O  O15  1  0.20712400  0.54044300  0.79853800  1
  O  O16  1  0.30915500  0.05780700  0.80298000  1
  O  O17  1  0.20712400  0.54044300  0.20146200  1
  O  O18  1  0.70712400  0.45955700  0.29853800  1
  O  O19  1  0.80915500  0.94219300  0.69702000  1
