# generated using pymatgen
data_CaYGa3O7
_symmetry_space_group_name_H-M   'P 1'
_cell_length_a   7.92470880
_cell_length_b   7.92470880
_cell_length_c   5.23242600
_cell_angle_alpha   90.00000000
_cell_angle_beta   90.00000000
_cell_angle_gamma   90.49286698
_symmetry_Int_Tables_number   1
_chemical_formula_structural   CaYGa3O7
_chemical_formula_sum   'Ca2 Y2 Ga6 O14'
_cell_volume   328.58947756
_cell_formula_units_Z   2
loop_
 _symmetry_equiv_pos_site_id
 _symmetry_equiv_pos_as_xyz
  1  'x, y, z'
loop_
 _atom_site_type_symbol
 _atom_site_label
 _atom_site_symmetry_multiplicity
 _atom_site_fract_x
 _atom_site_fract_y
 _atom_site_fract_z
 _atom_site_occupancy
  Ca  Ca0  1  0.16106700  0.83893300  0.48447900  1
  Ca  Ca1  1  0.83893300  0.16106700  0.48447900  1
  Y  Y2  1  0.66084600  0.66084600  0.51584000  1
  Y  Y3  1  0.33915400  0.33915400  0.51584000  1
  Ga  Ga4  1  0.50000000  0.00000000  0.99884200  1
  Ga  Ga5  1  0.00000000  0.50000000  0.99884200  1
  Ga  Ga6  1  0.35642100  0.64357900  0.03634700  1
  Ga  Ga7  1  0.85347500  0.85347500  0.96318700  1
  Ga  Ga8  1  0.64357900  0.35642100  0.03634700  1
  Ga  Ga9  1  0.14652500  0.14652500  0.96318700  1
  O  O10  1  0.41165700  0.83892100  0.21528100  1
  O  O11  1  0.89830600  0.65384600  0.78174200  1
  O  O12  1  0.58834300  0.16107900  0.21528100  1
  O  O13  1  0.10169400  0.34615400  0.78174200  1
  O  O14  1  0.34615400  0.10169400  0.78174200  1
  O  O15  1  0.83892100  0.41165700  0.21528100  1
  O  O16  1  0.65384600  0.89830600  0.78174200  1
  O  O17  1  0.16107900  0.58834300  0.21528100  1
  O  O18  1  0.37077400  0.62922600  0.68910400  1
  O  O19  1  0.84784800  0.84784800  0.30917300  1
  O  O20  1  0.62922600  0.37077400  0.68910400  1
  O  O21  1  0.15215200  0.15215200  0.30917300  1
  O  O22  1  0.00000000  0.00000000  0.79972000  1
  O  O23  1  0.50000000  0.50000000  0.21824300  1
