# generated using pymatgen
data_CaTbMn2O6
_symmetry_space_group_name_H-M   'P 1'
_cell_length_a   5.37277100
_cell_length_b   5.55389100
_cell_length_c   7.58551600
_cell_angle_alpha   90.00000000
_cell_angle_beta   90.00000000
_cell_angle_gamma   90.00000000
_symmetry_Int_Tables_number   1
_chemical_formula_structural   CaTbMn2O6
_chemical_formula_sum   'Ca2 Tb2 Mn4 O12'
_cell_volume   226.35016278
_cell_formula_units_Z   2
loop_
 _symmetry_equiv_pos_site_id
 _symmetry_equiv_pos_as_xyz
  1  'x, y, z'
loop_
 _atom_site_type_symbol
 _atom_site_label
 _atom_site_symmetry_multiplicity
 _atom_site_fract_x
 _atom_site_fract_y
 _atom_site_fract_z
 _atom_site_occupancy
  Ca  Ca0  1  0.48979100  0.19916500  0.50000000  1
  Ca  Ca1  1  0.98979100  0.80083500  0.00000000  1
  Tb  Tb2  1  0.01555800  0.68932700  0.50000000  1
  Tb  Tb3  1  0.51555800  0.31067300  0.00000000  1
  Mn  Mn4  1  0.00043400  0.24632600  0.75002400  1
  Mn  Mn5  1  0.50043400  0.75367400  0.25002400  1
  Mn  Mn6  1  0.00043400  0.24632600  0.24997600  1
  Mn  Mn7  1  0.50043400  0.75367400  0.74997600  1
  O  O8  1  0.19880300  0.94946000  0.70156000  1
  O  O9  1  0.29148000  0.45950300  0.29620400  1
  O  O10  1  0.79148000  0.54049700  0.20379600  1
  O  O11  1  0.69880300  0.05054000  0.79844000  1
  O  O12  1  0.79148000  0.54049700  0.79620400  1
  O  O13  1  0.69880300  0.05054000  0.20156000  1
  O  O14  1  0.19880300  0.94946000  0.29844000  1
  O  O15  1  0.29148000  0.45950300  0.70379600  1
  O  O16  1  0.59782700  0.77467200  0.50000000  1
  O  O17  1  0.91539100  0.28004700  0.50000000  1
  O  O18  1  0.41539100  0.71995300  0.00000000  1
  O  O19  1  0.09782700  0.22532800  0.00000000  1
