# generated using pymatgen
data_CaNdMn2O6
_symmetry_space_group_name_H-M   'P 1'
_cell_length_a   5.45427100
_cell_length_b   5.52702800
_cell_length_c   7.69558500
_cell_angle_alpha   90.00000000
_cell_angle_beta   90.00000000
_cell_angle_gamma   90.00000000
_symmetry_Int_Tables_number   1
_chemical_formula_structural   CaNdMn2O6
_chemical_formula_sum   'Ca2 Nd2 Mn4 O12'
_cell_volume   231.99040155
_cell_formula_units_Z   2
loop_
 _symmetry_equiv_pos_site_id
 _symmetry_equiv_pos_as_xyz
  1  'x, y, z'
loop_
 _atom_site_type_symbol
 _atom_site_label
 _atom_site_symmetry_multiplicity
 _atom_site_fract_x
 _atom_site_fract_y
 _atom_site_fract_z
 _atom_site_occupancy
  Ca  Ca0  1  0.50659600  0.29255100  0.50000000  1
  Ca  Ca1  1  0.00659600  0.70744900  0.00000000  1
  Nd  Nd2  1  0.98981300  0.79430700  0.50000000  1
  Nd  Nd3  1  0.48981300  0.20569300  0.00000000  1
  Mn  Mn4  1  0.99967400  0.25207500  0.74982500  1
  Mn  Mn5  1  0.49967400  0.74792500  0.24982500  1
  Mn  Mn6  1  0.99967400  0.25207500  0.25017500  1
  Mn  Mn7  1  0.49967400  0.74792500  0.75017500  1
  O  O8  1  0.42316600  0.73128800  0.50000000  1
  O  O9  1  0.07713000  0.23065100  0.50000000  1
  O  O10  1  0.57713000  0.76934900  0.00000000  1
  O  O11  1  0.92316600  0.26871200  0.00000000  1
  O  O12  1  0.79104400  0.54135300  0.71130900  1
  O  O13  1  0.71093000  0.03911800  0.29181900  1
  O  O14  1  0.21093000  0.96088200  0.20818100  1
  O  O15  1  0.29104400  0.45864700  0.78869100  1
  O  O16  1  0.21093000  0.96088200  0.79181900  1
  O  O17  1  0.29104400  0.45864700  0.21130900  1
  O  O18  1  0.79104400  0.54135300  0.28869100  1
  O  O19  1  0.71093000  0.03911800  0.70818100  1
