# generated using pymatgen
data_CaNdGa3O7
_symmetry_space_group_name_H-M   'P 1'
_cell_length_a   7.98476684
_cell_length_b   7.98476684
_cell_length_c   5.28497500
_cell_angle_alpha   90.00000000
_cell_angle_beta   90.00000000
_cell_angle_gamma   90.55524351
_symmetry_Int_Tables_number   1
_chemical_formula_structural   CaNdGa3O7
_chemical_formula_sum   'Ca2 Nd2 Ga6 O14'
_cell_volume   336.93569473
_cell_formula_units_Z   2
loop_
 _symmetry_equiv_pos_site_id
 _symmetry_equiv_pos_as_xyz
  1  'x, y, z'
loop_
 _atom_site_type_symbol
 _atom_site_label
 _atom_site_symmetry_multiplicity
 _atom_site_fract_x
 _atom_site_fract_y
 _atom_site_fract_z
 _atom_site_occupancy
  Ca  Ca0  1  0.66025600  0.66025600  0.48234400  1
  Ca  Ca1  1  0.33974400  0.33974400  0.48234400  1
  Nd  Nd2  1  0.83706400  0.16293600  0.50976300  1
  Nd  Nd3  1  0.16293600  0.83706400  0.50976300  1
  Ga  Ga4  1  0.50000000  0.00000000  0.00489600  1
  Ga  Ga5  1  0.00000000  0.50000000  0.00489600  1
  Ga  Ga6  1  0.85419300  0.85419300  0.03498200  1
  Ga  Ga7  1  0.64257500  0.35742500  0.96182800  1
  Ga  Ga8  1  0.14580700  0.14580700  0.03498200  1
  Ga  Ga9  1  0.35742500  0.64257500  0.96182800  1
  O  O10  1  0.86604500  0.86604500  0.69155300  1
  O  O11  1  0.64451400  0.35548600  0.30488200  1
  O  O12  1  0.13395500  0.13395500  0.69155300  1
  O  O13  1  0.35548600  0.64451400  0.30488200  1
  O  O14  1  0.66246900  0.91351400  0.21616500  1
  O  O15  1  0.84356800  0.40398200  0.78907500  1
  O  O16  1  0.33753100  0.08648600  0.21616500  1
  O  O17  1  0.15643200  0.59601800  0.78907500  1
  O  O18  1  0.40398200  0.84356800  0.78907500  1
  O  O19  1  0.08648600  0.33753100  0.21616500  1
  O  O20  1  0.59601800  0.15643200  0.78907500  1
  O  O21  1  0.91351400  0.66246900  0.21616500  1
  O  O22  1  0.50000000  0.50000000  0.79240100  1
  O  O23  1  0.00000000  0.00000000  0.20614400  1
