# generated using pymatgen
data_CaNd2BeO5
_symmetry_space_group_name_H-M   'P 1'
_cell_length_a   6.53092200
_cell_length_b   7.21060300
_cell_length_c   9.52218200
_cell_angle_alpha   90.00000000
_cell_angle_beta   90.00000000
_cell_angle_gamma   90.00000000
_symmetry_Int_Tables_number   1
_chemical_formula_structural   CaNd2BeO5
_chemical_formula_sum   'Ca4 Nd8 Be4 O20'
_cell_volume   448.41750699
_cell_formula_units_Z   4
loop_
 _symmetry_equiv_pos_site_id
 _symmetry_equiv_pos_as_xyz
  1  'x, y, z'
loop_
 _atom_site_type_symbol
 _atom_site_label
 _atom_site_symmetry_multiplicity
 _atom_site_fract_x
 _atom_site_fract_y
 _atom_site_fract_z
 _atom_site_occupancy
  Ca  Ca0  1  0.57832400  0.97954500  0.67573400  1
  Ca  Ca1  1  0.42167600  0.47954500  0.32426600  1
  Ca  Ca2  1  0.07832400  0.47954500  0.82426600  1
  Ca  Ca3  1  0.92167600  0.97954500  0.17573400  1
  Nd  Nd4  1  0.09764100  0.74565500  0.52369200  1
  Nd  Nd5  1  0.40235900  0.74565500  0.02369200  1
  Nd  Nd6  1  0.90235900  0.24565500  0.47630800  1
  Nd  Nd7  1  0.59764100  0.24565500  0.97630800  1
  Nd  Nd8  1  0.92694000  0.52721100  0.17211200  1
  Nd  Nd9  1  0.07306000  0.02721100  0.82788800  1
  Nd  Nd10  1  0.42694000  0.02721100  0.32788800  1
  Nd  Nd11  1  0.57306000  0.52721100  0.67211200  1
  Be  Be12  1  0.69294500  0.74851300  0.39658800  1
  Be  Be13  1  0.80705500  0.74851300  0.89658800  1
  Be  Be14  1  0.30705500  0.24851300  0.60341200  1
  Be  Be15  1  0.19294500  0.24851300  0.10341200  1
  O  O16  1  0.16699700  0.74901500  0.27415200  1
  O  O17  1  0.33300300  0.74901500  0.77415200  1
  O  O18  1  0.83300300  0.24901500  0.72584800  1
  O  O19  1  0.66699700  0.24901500  0.22584800  1
  O  O20  1  0.01945000  0.75048300  0.98882100  1
  O  O21  1  0.48055000  0.75048300  0.48882100  1
  O  O22  1  0.98055000  0.25048300  0.01117900  1
  O  O23  1  0.51945000  0.25048300  0.51117900  1
  O  O24  1  0.64041800  0.75032700  0.22325400  1
  O  O25  1  0.85958200  0.75032700  0.72325400  1
  O  O26  1  0.35958200  0.25032700  0.77674600  1
  O  O27  1  0.14041800  0.25032700  0.27674600  1
  O  O28  1  0.31221400  0.05717600  0.07073000  1
  O  O29  1  0.19305700  0.44207500  0.57282500  1
  O  O30  1  0.68778600  0.55717600  0.92927000  1
  O  O31  1  0.80694300  0.94207500  0.42717500  1
  O  O32  1  0.69305700  0.94207500  0.92717500  1
  O  O33  1  0.81221400  0.55717600  0.42927000  1
  O  O34  1  0.30694300  0.44207500  0.07282500  1
  O  O35  1  0.18778600  0.05717600  0.57073000  1
