# generated using pymatgen
data_CaPr2BeO5
_symmetry_space_group_name_H-M   'P 1'
_cell_length_a   6.56595900
_cell_length_b   7.25188200
_cell_length_c   9.57902500
_cell_angle_alpha   90.00000000
_cell_angle_beta   90.00000000
_cell_angle_gamma   90.00000000
_symmetry_Int_Tables_number   1
_chemical_formula_structural   CaPr2BeO5
_chemical_formula_sum   'Ca4 Pr8 Be4 O20'
_cell_volume   456.11063853
_cell_formula_units_Z   4
loop_
 _symmetry_equiv_pos_site_id
 _symmetry_equiv_pos_as_xyz
  1  'x, y, z'
loop_
 _atom_site_type_symbol
 _atom_site_label
 _atom_site_symmetry_multiplicity
 _atom_site_fract_x
 _atom_site_fract_y
 _atom_site_fract_z
 _atom_site_occupancy
  Ca  Ca0  1  0.57812900  0.97912400  0.67591700  1
  Ca  Ca1  1  0.42187100  0.47912400  0.32408300  1
  Ca  Ca2  1  0.07812900  0.47912400  0.82408300  1
  Ca  Ca3  1  0.92187100  0.97912400  0.17591700  1
  Pr  Pr4  1  0.09781500  0.74575700  0.52390300  1
  Pr  Pr5  1  0.40218500  0.74575700  0.02390300  1
  Pr  Pr6  1  0.90218500  0.24575700  0.47609700  1
  Pr  Pr7  1  0.59781500  0.24575700  0.97609700  1
  Pr  Pr8  1  0.92634000  0.52729900  0.17163600  1
  Pr  Pr9  1  0.07366000  0.02729900  0.82836400  1
  Pr  Pr10  1  0.42634000  0.02729900  0.32836400  1
  Pr  Pr11  1  0.57366000  0.52729900  0.67163600  1
  Be  Be12  1  0.69257300  0.74842500  0.39571700  1
  Be  Be13  1  0.80742700  0.74842500  0.89571700  1
  Be  Be14  1  0.30742700  0.24842500  0.60428300  1
  Be  Be15  1  0.19257300  0.24842500  0.10428300  1
  O  O16  1  0.31106000  0.05785900  0.07115500  1
  O  O17  1  0.19342600  0.44138000  0.57384900  1
  O  O18  1  0.68894000  0.55785900  0.92884500  1
  O  O19  1  0.80657400  0.94138000  0.42615100  1
  O  O20  1  0.69342600  0.94138000  0.92615100  1
  O  O21  1  0.81106000  0.55785900  0.42884500  1
  O  O22  1  0.30657400  0.44138000  0.07384900  1
  O  O23  1  0.18894000  0.05785900  0.57115500  1
  O  O24  1  0.64029600  0.75046200  0.22341600  1
  O  O25  1  0.85970400  0.75046200  0.72341600  1
  O  O26  1  0.35970400  0.25046200  0.77658400  1
  O  O27  1  0.14029600  0.25046200  0.27658400  1
  O  O28  1  0.01865200  0.75035500  0.98778800  1
  O  O29  1  0.48134800  0.75035500  0.48778800  1
  O  O30  1  0.98134800  0.25035500  0.01221200  1
  O  O31  1  0.51865200  0.25035500  0.51221200  1
  O  O32  1  0.16594000  0.74933900  0.27336900  1
  O  O33  1  0.33406000  0.74933900  0.77336900  1
  O  O34  1  0.83406000  0.24933900  0.72663100  1
  O  O35  1  0.66594000  0.24933900  0.22663100  1
