# generated using pymatgen
data_Na2MnCdFe(PO4)3
_symmetry_space_group_name_H-M   'P 1'
_cell_length_a   8.91481938
_cell_length_b   8.91481938
_cell_length_c   9.36545830
_cell_angle_alpha   60.19253436
_cell_angle_beta   60.19253436
_cell_angle_gamma   86.01504224
_symmetry_Int_Tables_number   1
_chemical_formula_structural   Na2MnCdFe(PO4)3
_chemical_formula_sum   'Na4 Mn2 Cd2 Fe2 P6 O24'
_cell_volume   544.58053405
_cell_formula_units_Z   2
loop_
 _symmetry_equiv_pos_site_id
 _symmetry_equiv_pos_as_xyz
  1  'x, y, z'
loop_
 _atom_site_type_symbol
 _atom_site_label
 _atom_site_symmetry_multiplicity
 _atom_site_fract_x
 _atom_site_fract_y
 _atom_site_fract_z
 _atom_site_occupancy
  Na  Na0  1  0.12367800  0.87632200  0.50000000  1
  Na  Na1  1  0.80909200  0.63455600  0.08025000  1
  Na  Na2  1  0.93715200  0.06284800  0.00000000  1
  Na  Na3  1  0.36544400  0.19090800  0.91975000  1
  Mn  Mn4  1  0.80681900  0.72672100  0.45040000  1
  Mn  Mn5  1  0.27327900  0.19318100  0.54960000  1
  Cd  Cd6  1  0.40073800  0.59926200  0.50000000  1
  Cd  Cd7  1  0.48528000  0.51472000  0.00000000  1
  Fe  Fe8  1  0.71993700  0.93980200  0.71961100  1
  Fe  Fe9  1  0.06019800  0.28006300  0.28038900  1
  P  P10  1  0.56873500  0.04800600  0.30723900  1
  P  P11  1  0.65882200  0.34117800  0.50000000  1
  P  P12  1  0.95199400  0.43126500  0.69276100  1
  P  P13  1  0.20299500  0.58384900  0.82444000  1
  P  P14  1  0.18700900  0.81299100  0.00000000  1
  P  P15  1  0.41615100  0.79700500  0.17556000  1
  O  O16  1  0.00191800  0.61703700  0.52309700  1
  O  O17  1  0.61646100  0.15095100  0.67369000  1
  O  O18  1  0.76716800  0.32272600  0.82523100  1
  O  O19  1  0.97240400  0.98408300  0.25426500  1
  O  O20  1  0.64781700  0.89625900  0.29471900  1
  O  O21  1  0.64024900  0.48452900  0.55492400  1
  O  O22  1  0.51547100  0.35975100  0.44507600  1
  O  O23  1  0.10374100  0.35218300  0.70528100  1
  O  O24  1  0.01591700  0.02759600  0.74573500  1
  O  O25  1  0.60682400  0.81423500  0.00992700  1
  O  O26  1  0.67727400  0.23283200  0.17476900  1
  O  O27  1  0.84904900  0.38353900  0.32631000  1
  O  O28  1  0.98773800  0.74699900  0.14302000  1
  O  O29  1  0.28817900  0.73882600  0.11700900  1
  O  O30  1  0.38296300  0.99808200  0.47690300  1
  O  O31  1  0.95444800  0.04617700  0.62337100  1
  O  O32  1  0.02942100  0.62005100  0.83217400  1
  O  O33  1  0.67355100  0.73162800  0.72264700  1
  O  O34  1  0.26837200  0.32644900  0.27735300  1
  O  O35  1  0.37994900  0.97057900  0.16782600  1
  O  O36  1  0.95382300  0.04555200  0.37662900  1
  O  O37  1  0.26117400  0.71182100  0.88299100  1
  O  O38  1  0.25300100  0.01226200  0.85698000  1
  O  O39  1  0.18576500  0.39317600  0.99007300  1
