# generated using pymatgen
data_CaZnFe(AsO5)2
_symmetry_space_group_name_H-M   'P 1'
_cell_length_a   5.35653400
_cell_length_b   5.42706939
_cell_length_c   7.66744198
_cell_angle_alpha   69.92748038
_cell_angle_beta   71.09015832
_cell_angle_gamma   70.57361069
_symmetry_Int_Tables_number   1
_chemical_formula_structural   CaZnFe(AsO5)2
_chemical_formula_sum   'Ca1 Zn1 Fe1 As2 O10'
_cell_volume   191.81214746
_cell_formula_units_Z   1
loop_
 _symmetry_equiv_pos_site_id
 _symmetry_equiv_pos_as_xyz
  1  'x, y, z'
loop_
 _atom_site_type_symbol
 _atom_site_label
 _atom_site_symmetry_multiplicity
 _atom_site_fract_x
 _atom_site_fract_y
 _atom_site_fract_z
 _atom_site_occupancy
  Ca  Ca0  1  0.00000000  0.00000000  0.00000000  1
  Zn  Zn1  1  0.50000000  0.00000000  0.50000000  1
  Fe  Fe2  1  0.00000000  0.50000000  0.50000000  1
  As  As3  1  0.41188400  0.42716800  0.79087400  1
  As  As4  1  0.58811600  0.57283200  0.20912600  1
  O  O5  1  0.86924000  0.82877900  0.57148100  1
  O  O6  1  0.13076000  0.17122100  0.42851900  1
  O  O7  1  0.31191100  0.33330600  0.63110700  1
  O  O8  1  0.68808900  0.66669400  0.36889300  1
  O  O9  1  0.73163300  0.73866400  0.98866100  1
  O  O10  1  0.26836700  0.26133600  0.01133900  1
  O  O11  1  0.31367500  0.77352200  0.75426000  1
  O  O12  1  0.76518000  0.32143500  0.74611200  1
  O  O13  1  0.68632500  0.22647800  0.24574000  1
  O  O14  1  0.23482000  0.67856500  0.25388800  1
