# generated using pymatgen
data_CaLaGa3S6O
_symmetry_space_group_name_H-M   'P 1'
_cell_length_a   9.38290800
_cell_length_b   6.08739700
_cell_length_c   9.37853701
_cell_angle_alpha   89.90831852
_cell_angle_beta   90.00000000
_cell_angle_gamma   90.00000000
_symmetry_Int_Tables_number   1
_chemical_formula_structural   CaLaGa3S6O
_chemical_formula_sum   'Ca2 La2 Ga6 S12 O2'
_cell_volume   535.67777049
_cell_formula_units_Z   2
loop_
 _symmetry_equiv_pos_site_id
 _symmetry_equiv_pos_as_xyz
  1  'x, y, z'
loop_
 _atom_site_type_symbol
 _atom_site_label
 _atom_site_symmetry_multiplicity
 _atom_site_fract_x
 _atom_site_fract_y
 _atom_site_fract_z
 _atom_site_occupancy
  Ca  Ca0  1  0.34824500  0.51445600  0.59657500  1
  Ca  Ca1  1  0.84824500  0.48554400  0.40342500  1
  La  La2  1  0.65075900  0.51345900  0.89870800  1
  La  La3  1  0.15075900  0.48654100  0.10129200  1
  Ga  Ga4  1  0.50042000  0.00004400  0.25314300  1
  Ga  Ga5  1  0.00042000  0.99995600  0.74685700  1
  Ga  Ga6  1  0.12616500  0.06946000  0.37844600  1
  Ga  Ga7  1  0.62616500  0.93054000  0.62155400  1
  Ga  Ga8  1  0.87260100  0.07131100  0.12488600  1
  Ga  Ga9  1  0.37260100  0.92868900  0.87511400  1
  S  S10  1  0.13401800  0.70538500  0.38269600  1
  S  S11  1  0.63401800  0.29461500  0.61730400  1
  S  S12  1  0.86539600  0.70651200  0.11452100  1
  S  S13  1  0.36539600  0.29348800  0.88547900  1
  S  S14  1  0.16710600  0.74953300  0.81811300  1
  S  S15  1  0.66710600  0.25046700  0.18188700  1
  S  S16  1  0.83263000  0.74921200  0.68258900  1
  S  S17  1  0.33263000  0.25078800  0.31741100  1
  S  S18  1  0.06781700  0.25127900  0.58216300  1
  S  S19  1  0.56781700  0.74872100  0.41783700  1
  S  S20  1  0.93235200  0.25008700  0.91671000  1
  S  S21  1  0.43235200  0.74991300  0.08329000  1
  O  O22  1  0.50249000  0.77679200  0.75289200  1
  O  O23  1  0.00249000  0.22320800  0.24710800  1
