# generated using pymatgen
data_Ce2(MoO4)3
_symmetry_space_group_name_H-M   'P 1'
_cell_length_a   6.92607098
_cell_length_b   6.92607098
_cell_length_c   11.94744112
_cell_angle_alpha   79.95641548
_cell_angle_beta   79.95641548
_cell_angle_gamma   113.04028679
_symmetry_Int_Tables_number   1
_chemical_formula_structural   Ce2(MoO4)3
_chemical_formula_sum   'Ce4 Mo6 O24'
_cell_volume   500.35655052
_cell_formula_units_Z   2
loop_
 _symmetry_equiv_pos_site_id
 _symmetry_equiv_pos_as_xyz
  1  'x, y, z'
loop_
 _atom_site_type_symbol
 _atom_site_label
 _atom_site_symmetry_multiplicity
 _atom_site_fract_x
 _atom_site_fract_y
 _atom_site_fract_z
 _atom_site_occupancy
  Ce  Ce0  1  0.20445300  0.45192800  0.59029900  1
  Ce  Ce1  1  0.54807200  0.79554700  0.90970100  1
  Ce  Ce2  1  0.45192800  0.20445300  0.09029900  1
  Ce  Ce3  1  0.79554700  0.54807200  0.40970100  1
  Mo  Mo4  1  0.71124600  0.96177800  0.57726100  1
  Mo  Mo5  1  0.03822200  0.28875400  0.92273900  1
  Mo  Mo6  1  0.37592600  0.62407400  0.25000000  1
  Mo  Mo7  1  0.28875400  0.03822200  0.42273900  1
  Mo  Mo8  1  0.62407400  0.37592600  0.75000000  1
  Mo  Mo9  1  0.96177800  0.71124600  0.07726100  1
  O  O10  1  0.06203400  0.46638800  0.78755800  1
  O  O11  1  0.42730100  0.83579600  0.11144600  1
  O  O12  1  0.71516200  0.16499600  0.46055400  1
  O  O13  1  0.53361200  0.93796600  0.71244200  1
  O  O14  1  0.83500400  0.28483800  0.03944600  1
  O  O15  1  0.16420400  0.57269900  0.38855400  1
  O  O16  1  0.70213700  0.63740000  0.78540800  1
  O  O17  1  0.07183200  0.97724400  0.10245800  1
  O  O18  1  0.38953100  0.30816500  0.45535300  1
  O  O19  1  0.36260000  0.29786300  0.71459200  1
  O  O20  1  0.69183500  0.61046900  0.04464700  1
  O  O21  1  0.02275600  0.92816800  0.39754200  1
  O  O22  1  0.57269900  0.16420400  0.88855400  1
  O  O23  1  0.93796600  0.53361200  0.21244200  1
  O  O24  1  0.28483800  0.83500400  0.53944600  1
  O  O25  1  0.16499600  0.71516200  0.96055400  1
  O  O26  1  0.46638800  0.06203400  0.28755800  1
  O  O27  1  0.83579600  0.42730100  0.61144600  1
  O  O28  1  0.92816800  0.02275600  0.89754200  1
  O  O29  1  0.29786300  0.36260000  0.21459200  1
  O  O30  1  0.61046900  0.69183500  0.54464700  1
  O  O31  1  0.30816500  0.38953100  0.95535300  1
  O  O32  1  0.63740000  0.70213700  0.28540800  1
  O  O33  1  0.97724400  0.07183200  0.60245800  1
