# generated using pymatgen
data_Ca4ZrTi3(SiO5)4
_symmetry_space_group_name_H-M   'P 1'
_cell_length_a   5.53044800
_cell_length_b   5.56689812
_cell_length_c   13.23126430
_cell_angle_alpha   92.35351762
_cell_angle_beta   92.16761049
_cell_angle_gamma   105.70931094
_symmetry_Int_Tables_number   1
_chemical_formula_structural   Ca4ZrTi3(SiO5)4
_chemical_formula_sum   'Ca4 Zr1 Ti3 Si4 O20'
_cell_volume   391.30274127
_cell_formula_units_Z   1
loop_
 _symmetry_equiv_pos_site_id
 _symmetry_equiv_pos_as_xyz
  1  'x, y, z'
loop_
 _atom_site_type_symbol
 _atom_site_label
 _atom_site_symmetry_multiplicity
 _atom_site_fract_x
 _atom_site_fract_y
 _atom_site_fract_z
 _atom_site_occupancy
  Ca  Ca0  1  0.95314300  0.28945000  0.13217100  1
  Ca  Ca1  1  0.45398800  0.79647300  0.62398200  1
  Ca  Ca2  1  0.54601200  0.20352700  0.37601800  1
  Ca  Ca3  1  0.04685700  0.71055000  0.86782900  1
  Zr  Zr4  1  0.50000000  0.50000000  0.00000000  1
  Ti  Ti5  1  0.00000000  0.00000000  0.50000000  1
  Ti  Ti6  1  0.74997700  0.74829600  0.25371800  1
  Ti  Ti7  1  0.25002300  0.25170400  0.74628200  1
  Si  Si8  1  0.19465600  0.55607100  0.37707300  1
  Si  Si9  1  0.70278000  0.06082700  0.87046300  1
  Si  Si10  1  0.29722000  0.93917300  0.12953700  1
  Si  Si11  1  0.80534400  0.44392900  0.62292700  1
  O  O12  1  0.41815900  0.54870800  0.29854600  1
  O  O13  1  0.91760200  0.04143000  0.78966400  1
  O  O14  1  0.28451200  0.15451000  0.04960100  1
  O  O15  1  0.79601400  0.66916900  0.54665200  1
  O  O16  1  0.08239800  0.95857000  0.21033600  1
  O  O17  1  0.58184100  0.45129200  0.70145400  1
  O  O18  1  0.20398600  0.33083100  0.45334800  1
  O  O19  1  0.71548800  0.84549000  0.95039900  1
  O  O20  1  0.80413400  0.94510100  0.37717500  1
  O  O21  1  0.29138500  0.44723400  0.86644600  1
  O  O22  1  0.70861500  0.55276600  0.13355400  1
  O  O23  1  0.19586600  0.05489900  0.62282500  1
  O  O24  1  0.23084100  0.66867600  0.06368800  1
  O  O25  1  0.74598800  0.17176400  0.55755400  1
  O  O26  1  0.92124300  0.49625900  0.31224800  1
  O  O27  1  0.42533500  0.00206800  0.80796500  1
  O  O28  1  0.25401200  0.82823600  0.44244600  1
  O  O29  1  0.76915900  0.33132400  0.93631200  1
  O  O30  1  0.57466500  0.99793200  0.19203500  1
  O  O31  1  0.07875700  0.50374100  0.68775200  1
