# generated using pymatgen
data_Cd5Si(PO6)2
_symmetry_space_group_name_H-M   'P 1'
_cell_length_a   6.83631300
_cell_length_b   10.32214100
_cell_length_c   15.17565800
_cell_angle_alpha   90.00000000
_cell_angle_beta   90.00000000
_cell_angle_gamma   90.00000000
_symmetry_Int_Tables_number   1
_chemical_formula_structural   Cd5Si(PO6)2
_chemical_formula_sum   'Cd20 Si4 P8 O48'
_cell_volume   1070.87617529
_cell_formula_units_Z   4
loop_
 _symmetry_equiv_pos_site_id
 _symmetry_equiv_pos_as_xyz
  1  'x, y, z'
loop_
 _atom_site_type_symbol
 _atom_site_label
 _atom_site_symmetry_multiplicity
 _atom_site_fract_x
 _atom_site_fract_y
 _atom_site_fract_z
 _atom_site_occupancy
  Cd  Cd0  1  0.19820800  0.71729500  0.49755900  1
  Cd  Cd1  1  0.69820800  0.78270500  0.50244100  1
  Cd  Cd2  1  0.30179200  0.28270500  0.99755900  1
  Cd  Cd3  1  0.80179200  0.21729500  0.00244100  1
  Cd  Cd4  1  0.89408200  0.56040900  0.66171800  1
  Cd  Cd5  1  0.39408200  0.93959100  0.33828200  1
  Cd  Cd6  1  0.60591800  0.43959100  0.16171800  1
  Cd  Cd7  1  0.10591800  0.06040900  0.83828200  1
  Cd  Cd8  1  0.60469900  0.44818200  0.84143000  1
  Cd  Cd9  1  0.10469900  0.05181800  0.15857000  1
  Cd  Cd10  1  0.89530100  0.55181800  0.34143000  1
  Cd  Cd11  1  0.39530100  0.94818200  0.65857000  1
  Cd  Cd12  1  0.08523200  0.66033200  0.85796600  1
  Cd  Cd13  1  0.58523200  0.83966800  0.14203400  1
  Cd  Cd14  1  0.41476800  0.33966800  0.35796600  1
  Cd  Cd15  1  0.91476800  0.16033200  0.64203400  1
  Cd  Cd16  1  0.39908600  0.33606300  0.64145800  1
  Cd  Cd17  1  0.89908600  0.16393700  0.35854200  1
  Cd  Cd18  1  0.10091400  0.66393700  0.14145800  1
  Cd  Cd19  1  0.60091400  0.83606300  0.85854200  1
  Si  Si20  1  0.89780600  0.86701700  0.67850400  1
  Si  Si21  1  0.39780600  0.63298300  0.32149600  1
  Si  Si22  1  0.60219400  0.13298300  0.17850400  1
  Si  Si23  1  0.10219400  0.36701700  0.82149600  1
  P  P24  1  0.24340900  0.08719000  0.49777300  1
  P  P25  1  0.74340900  0.41281000  0.50222700  1
  P  P26  1  0.25659100  0.91281000  0.99777300  1
  P  P27  1  0.75659100  0.58719000  0.00222700  1
  P  P28  1  0.60390400  0.13195900  0.82159500  1
  P  P29  1  0.10390400  0.36804100  0.17840500  1
  P  P30  1  0.89609600  0.86804100  0.32159500  1
  P  P31  1  0.39609600  0.63195900  0.67840500  1
  O  O32  1  0.95844400  0.76257200  0.59875500  1
  O  O33  1  0.45844400  0.73742800  0.40124500  1
  O  O34  1  0.54155600  0.23742800  0.09875500  1
  O  O35  1  0.04155600  0.26257200  0.90124500  1
  O  O36  1  0.54423400  0.22952500  0.89632000  1
  O  O37  1  0.04423400  0.27047500  0.10368000  1
  O  O38  1  0.95576600  0.77047500  0.39632000  1
  O  O39  1  0.45576600  0.72952500  0.60368000  1
  O  O40  1  0.07571100  0.97293700  0.69946300  1
  O  O41  1  0.57571100  0.52706300  0.30053700  1
  O  O42  1  0.42428900  0.02706300  0.19946300  1
  O  O43  1  0.92428900  0.47293700  0.80053700  1
  O  O44  1  0.43447200  0.03241400  0.80306700  1
  O  O45  1  0.93447200  0.46758600  0.19693300  1
  O  O46  1  0.06552800  0.96758600  0.30306700  1
  O  O47  1  0.56552800  0.53241400  0.69693300  1
  O  O48  1  0.84574400  0.77736200  0.76518600  1
  O  O49  1  0.34574400  0.72263800  0.23481400  1
  O  O50  1  0.65425600  0.22263800  0.26518600  1
  O  O51  1  0.15425600  0.27736200  0.73481400  1
  O  O52  1  0.65426000  0.21461700  0.73954600  1
  O  O53  1  0.15426000  0.28538300  0.26045400  1
  O  O54  1  0.84574000  0.78538300  0.23954600  1
  O  O55  1  0.34574000  0.71461700  0.76045400  1
  O  O56  1  0.01779700  0.10996500  0.49777500  1
  O  O57  1  0.51779700  0.39003500  0.50222500  1
  O  O58  1  0.48220300  0.89003500  0.99777500  1
  O  O59  1  0.98220300  0.60996500  0.00222500  1
  O  O60  1  0.71787200  0.95529300  0.63708200  1
  O  O61  1  0.21787200  0.54470700  0.36291800  1
  O  O62  1  0.78212800  0.04470700  0.13708200  1
  O  O63  1  0.28212800  0.45529300  0.86291800  1
  O  O64  1  0.77416800  0.04758000  0.85796500  1
  O  O65  1  0.27416800  0.45242000  0.14203500  1
  O  O66  1  0.72583200  0.95242000  0.35796500  1
  O  O67  1  0.22583200  0.54758000  0.64203500  1
  O  O68  1  0.33328000  0.14410200  0.58316900  1
  O  O69  1  0.83328000  0.35589800  0.41683100  1
  O  O70  1  0.16672000  0.85589800  0.08316900  1
  O  O71  1  0.66672000  0.64410200  0.91683100  1
  O  O72  1  0.16788200  0.85724600  0.91120700  1
  O  O73  1  0.66788200  0.64275400  0.08879300  1
  O  O74  1  0.33211800  0.14275400  0.41120700  1
  O  O75  1  0.83211800  0.35724600  0.58879300  1
  O  O76  1  0.29720100  0.94010000  0.49964900  1
  O  O77  1  0.79720100  0.55990000  0.50035100  1
  O  O78  1  0.20279900  0.05990000  0.99964900  1
  O  O79  1  0.70279900  0.44010000  0.00035100  1
