# generated using pymatgen
data_CaAl4(SiO3)8
_symmetry_space_group_name_H-M   'P 1'
_cell_length_a   5.22024400
_cell_length_b   9.08413944
_cell_length_c   15.75302611
_cell_angle_alpha   106.48491116
_cell_angle_beta   99.41094524
_cell_angle_gamma   89.80906080
_symmetry_Int_Tables_number   1
_chemical_formula_structural   CaAl4(SiO3)8
_chemical_formula_sum   'Ca1 Al4 Si8 O24'
_cell_volume   705.95009977
_cell_formula_units_Z   1
loop_
 _symmetry_equiv_pos_site_id
 _symmetry_equiv_pos_as_xyz
  1  'x, y, z'
loop_
 _atom_site_type_symbol
 _atom_site_label
 _atom_site_symmetry_multiplicity
 _atom_site_fract_x
 _atom_site_fract_y
 _atom_site_fract_z
 _atom_site_occupancy
  Ca  Ca0  1  0.04432500  0.04430600  0.27801700  1
  Al  Al1  1  0.95890700  0.61582400  0.77855100  1
  Al  Al2  1  0.45684600  0.11627300  0.77855700  1
  Al  Al3  1  0.94645300  0.28744200  0.77887800  1
  Al  Al4  1  0.44422500  0.78697400  0.77829200  1
  Si  Si5  1  0.71079400  0.36801000  0.59840800  1
  Si  Si6  1  0.21111600  0.86776500  0.59850300  1
  Si  Si7  1  0.69655900  0.03950900  0.59841400  1
  Si  Si8  1  0.19650100  0.53968400  0.59850100  1
  Si  Si9  1  0.19216500  0.53527400  0.95876800  1
  Si  Si10  1  0.69232800  0.03555800  0.95862300  1
  Si  Si11  1  0.70659400  0.36387000  0.95886700  1
  Si  Si12  1  0.20701600  0.86345000  0.95861000  1
  O  O13  1  0.98587000  0.98555200  0.99086100  1
  O  O14  1  0.48578200  0.48597100  0.98889900  1
  O  O15  1  0.71906000  0.10949000  0.70673200  1
  O  O16  1  0.21896200  0.60894900  0.70699700  1
  O  O17  1  0.80329100  0.41400600  0.70682100  1
  O  O18  1  0.30519300  0.91416600  0.70691800  1
  O  O19  1  0.71946600  0.18117100  0.55367600  1
  O  O20  1  0.22035700  0.68163500  0.55481300  1
  O  O21  1  0.91292900  0.44958900  0.55409400  1
  O  O22  1  0.41110300  0.95142700  0.55398700  1
  O  O23  1  0.22093400  0.22111000  0.71763000  1
  O  O24  1  0.72128300  0.72079700  0.71688300  1
  O  O25  1  0.49149200  0.95287100  0.00335900  1
  O  O26  1  0.99080600  0.45267400  0.00263500  1
  O  O27  1  0.68388000  0.22151400  0.00275700  1
  O  O28  1  0.18334400  0.72228400  0.00327400  1
  O  O29  1  0.18198800  0.18217300  0.83959100  1
  O  O30  1  0.68226500  0.68249000  0.84025500  1
  O  O31  1  0.91787500  0.91807800  0.56772000  1
  O  O32  1  0.41654100  0.41652700  0.56754700  1
  O  O33  1  0.18420100  0.79475200  0.85035500  1
  O  O34  1  0.68397400  0.29353100  0.85032700  1
  O  O35  1  0.60028900  0.98864200  0.85028100  1
  O  O36  1  0.09848700  0.48986200  0.85030000  1
