# generated using pymatgen
data_Ca8Al3(FeO4)5
_symmetry_space_group_name_H-M   'P 1'
_cell_length_a   5.49865100
_cell_length_b   8.41133436
_cell_length_c   10.71762105
_cell_angle_alpha   108.56508598
_cell_angle_beta   90.01020006
_cell_angle_gamma   108.97686447
_symmetry_Int_Tables_number   1
_chemical_formula_structural   Ca8Al3(FeO4)5
_chemical_formula_sum   'Ca8 Al3 Fe5 O20'
_cell_volume   441.38236285
_cell_formula_units_Z   1
loop_
 _symmetry_equiv_pos_site_id
 _symmetry_equiv_pos_as_xyz
  1  'x, y, z'
loop_
 _atom_site_type_symbol
 _atom_site_label
 _atom_site_symmetry_multiplicity
 _atom_site_fract_x
 _atom_site_fract_y
 _atom_site_fract_z
 _atom_site_occupancy
  Ca  Ca0  1  0.37254800  0.78861900  0.44480400  1
  Ca  Ca1  1  0.37405400  0.78882900  0.94356300  1
  Ca  Ca2  1  0.62741200  0.21094600  0.54961900  1
  Ca  Ca3  1  0.62598200  0.21166700  0.05015700  1
  Ca  Ca4  1  0.08337300  0.21197900  0.30125800  1
  Ca  Ca5  1  0.08380400  0.21116300  0.79734800  1
  Ca  Ca6  1  0.91543000  0.78810400  0.69123200  1
  Ca  Ca7  1  0.91736900  0.78869800  0.19583600  1
  Al  Al8  1  0.50002400  0.00010100  0.74838600  1
  Al  Al9  1  0.49998800  0.99988000  0.25508700  1
  Al  Al10  1  0.00002200  0.99997600  0.50119600  1
  Fe  Fe11  1  0.00003300  0.00007300  0.00200100  1
  Fe  Fe12  1  0.31558500  0.50444300  0.10339000  1
  Fe  Fe13  1  0.31265400  0.49971700  0.60171500  1
  Fe  Fe14  1  0.68502000  0.49652900  0.85063700  1
  Fe  Fe15  1  0.68664400  0.49939500  0.35243700  1
  O  O16  1  0.30339100  0.72865600  0.69131000  1
  O  O17  1  0.30810600  0.73246700  0.19791500  1
  O  O18  1  0.69528300  0.27180700  0.33312500  1
  O  O19  1  0.69319900  0.26709300  0.82541200  1
  O  O20  1  0.07773700  0.27029300  0.57958600  1
  O  O21  1  0.07095100  0.28238500  0.08662800  1
  O  O22  1  0.92206400  0.72953300  0.44376500  1
  O  O23  1  0.92928000  0.71775800  0.94603500  1
  O  O24  1  0.25767200  0.02311000  0.38316700  1
  O  O25  1  0.26672800  0.02559500  0.87805900  1
  O  O26  1  0.73259800  0.97302600  0.86485500  1
  O  O27  1  0.74302700  0.97809700  0.37191300  1
  O  O28  1  0.73580500  0.97684900  0.61903500  1
  O  O29  1  0.72600700  0.97376800  0.12386400  1
  O  O30  1  0.27489500  0.02747300  0.13730100  1
  O  O31  1  0.26342600  0.02197100  0.63035500  1
  O  O32  1  0.36027900  0.49975500  0.42094500  1
  O  O33  1  0.36083500  0.49962400  0.92080500  1
  O  O34  1  0.63952900  0.50047200  0.67052700  1
  O  O35  1  0.63924400  0.50014900  0.17153300  1
