# generated using pymatgen
data_Ca5P3O13
_symmetry_space_group_name_H-M   'P 1'
_cell_length_a   9.53673767
_cell_length_b   9.53673767
_cell_length_c   6.91594900
_cell_angle_alpha   90.00000000
_cell_angle_beta   90.00000000
_cell_angle_gamma   119.99999773
_symmetry_Int_Tables_number   1
_chemical_formula_structural   Ca5P3O13
_chemical_formula_sum   'Ca10 P6 O26'
_cell_volume   544.73100730
_cell_formula_units_Z   2
loop_
 _symmetry_equiv_pos_site_id
 _symmetry_equiv_pos_as_xyz
  1  'x, y, z'
loop_
 _atom_site_type_symbol
 _atom_site_label
 _atom_site_symmetry_multiplicity
 _atom_site_fract_x
 _atom_site_fract_y
 _atom_site_fract_z
 _atom_site_occupancy
  Ca  Ca0  1  0.66666700  0.33333300  0.50091500  1
  Ca  Ca1  1  0.33333300  0.66666700  0.00091500  1
  Ca  Ca2  1  0.33333300  0.66666700  0.49784100  1
  Ca  Ca3  1  0.66666700  0.33333300  0.99784100  1
  Ca  Ca4  1  0.24937800  0.00113500  0.74750400  1
  Ca  Ca5  1  0.99886500  0.24824300  0.74750400  1
  Ca  Ca6  1  0.75175700  0.75062200  0.74750400  1
  Ca  Ca7  1  0.75062200  0.99886500  0.24750400  1
  Ca  Ca8  1  0.00113500  0.75175700  0.24750400  1
  Ca  Ca9  1  0.24824300  0.24937800  0.24750400  1
  P  P10  1  0.03005200  0.63089700  0.74785300  1
  P  P11  1  0.36910300  0.39915500  0.74785300  1
  P  P12  1  0.60084500  0.96994800  0.74785300  1
  P  P13  1  0.96994800  0.36910300  0.24785300  1
  P  P14  1  0.63089700  0.60084500  0.24785300  1
  P  P15  1  0.39915500  0.03005200  0.24785300  1
  O  O16  1  0.12388800  0.53597500  0.75140000  1
  O  O17  1  0.46402500  0.58791300  0.75140000  1
  O  O18  1  0.41208700  0.87611200  0.75140000  1
  O  O19  1  0.87611200  0.46402500  0.25140000  1
  O  O20  1  0.53597500  0.41208700  0.25140000  1
  O  O21  1  0.58791300  0.12388800  0.25140000  1
  O  O22  1  0.08658400  0.74049300  0.56560600  1
  O  O23  1  0.25950700  0.34609100  0.56560600  1
  O  O24  1  0.65390900  0.91341600  0.56560600  1
  O  O25  1  0.91341600  0.25950700  0.06560600  1
  O  O26  1  0.74049300  0.65390900  0.06560600  1
  O  O27  1  0.34609100  0.08658400  0.06560600  1
  O  O28  1  0.91643200  0.25614200  0.42729700  1
  O  O29  1  0.74385800  0.66028900  0.42729700  1
  O  O30  1  0.33971100  0.08356800  0.42729700  1
  O  O31  1  0.08356800  0.74385800  0.92729700  1
  O  O32  1  0.25614200  0.33971100  0.92729700  1
  O  O33  1  0.66028900  0.91643200  0.92729700  1
  O  O34  1  0.84480200  0.51385300  0.74751300  1
  O  O35  1  0.48614700  0.33095000  0.74751300  1
  O  O36  1  0.66905000  0.15519800  0.74751300  1
  O  O37  1  0.15519800  0.48614700  0.24751300  1
  O  O38  1  0.51385300  0.66905000  0.24751300  1
  O  O39  1  0.33095000  0.84480200  0.24751300  1
  O  O40  1  0.00000000  0.00000000  0.73273200  1
  O  O41  1  0.00000000  0.00000000  0.23273200  1
