# generated using pymatgen
data_Ca4Ti3FeO12
_symmetry_space_group_name_H-M   'P 1'
_cell_length_a   5.47801959
_cell_length_b   5.46855479
_cell_length_c   7.67474421
_cell_angle_alpha   90.02974497
_cell_angle_beta   89.90394484
_cell_angle_gamma   89.84010059
_symmetry_Int_Tables_number   1
_chemical_formula_structural   Ca4Ti3FeO12
_chemical_formula_sum   'Ca4 Ti3 Fe1 O12'
_cell_volume   229.90991333
_cell_formula_units_Z   1
loop_
 _symmetry_equiv_pos_site_id
 _symmetry_equiv_pos_as_xyz
  1  'x, y, z'
loop_
 _atom_site_type_symbol
 _atom_site_label
 _atom_site_symmetry_multiplicity
 _atom_site_fract_x
 _atom_site_fract_y
 _atom_site_fract_z
 _atom_site_occupancy
  Ca  Ca0  1  0.98551100  0.99811900  0.75237500  1
  Ca  Ca1  1  0.01447600  0.00158500  0.24757600  1
  Ca  Ca2  1  0.49050400  0.50366300  0.24603300  1
  Ca  Ca3  1  0.50955500  0.49593200  0.75411800  1
  Ti  Ti4  1  0.00005100  0.49975400  0.00003700  1
  Ti  Ti5  1  0.50003600  0.99987000  0.50003700  1
  Ti  Ti6  1  0.00005900  0.49987600  0.50000800  1
  Fe  Fe7  1  0.49992400  0.99965700  0.00022400  1
  O  O8  1  0.75167100  0.24877000  0.54262300  1
  O  O9  1  0.24805000  0.75086900  0.45728400  1
  O  O10  1  0.08005000  0.50036300  0.74918100  1
  O  O11  1  0.91994900  0.49892100  0.25073400  1
  O  O12  1  0.25308900  0.25345800  0.04644200  1
  O  O13  1  0.74704500  0.74595700  0.95349100  1
  O  O14  1  0.74851800  0.74800500  0.54521300  1
  O  O15  1  0.25137900  0.25153800  0.45469700  1
  O  O16  1  0.41464000  0.00611100  0.74916100  1
  O  O17  1  0.58534800  0.99321100  0.25079900  1
  O  O18  1  0.24559700  0.75018000  0.04496400  1
  O  O19  1  0.75455100  0.24915200  0.95500300  1
