# generated using pymatgen
data_CaTi8Zn2O19
_symmetry_space_group_name_H-M   'P 1'
_cell_length_a   9.28606400
_cell_length_b   9.30507951
_cell_length_c   9.30870780
_cell_angle_alpha   68.48729822
_cell_angle_beta   68.51845463
_cell_angle_gamma   68.57990364
_symmetry_Int_Tables_number   1
_chemical_formula_structural   CaTi8Zn2O19
_chemical_formula_sum   'Ca2 Ti16 Zn4 O38'
_cell_volume   671.10055785
_cell_formula_units_Z   2
loop_
 _symmetry_equiv_pos_site_id
 _symmetry_equiv_pos_as_xyz
  1  'x, y, z'
loop_
 _atom_site_type_symbol
 _atom_site_label
 _atom_site_symmetry_multiplicity
 _atom_site_fract_x
 _atom_site_fract_y
 _atom_site_fract_z
 _atom_site_occupancy
  Ca  Ca0  1  0.00415100  0.99952000  0.99634400  1
  Ca  Ca1  1  0.49783200  0.50162100  0.50067800  1
  Ti  Ti2  1  0.84830800  0.70344900  0.28241100  1
  Ti  Ti3  1  0.27742100  0.85004400  0.69472900  1
  Ti  Ti4  1  0.69634700  0.28105500  0.85043300  1
  Ti  Ti5  1  0.14985600  0.30803300  0.71593800  1
  Ti  Ti6  1  0.72170800  0.14908200  0.30394400  1
  Ti  Ti7  1  0.29707000  0.72424900  0.15023900  1
  Ti  Ti8  1  0.35284200  0.52778700  0.92366900  1
  Ti  Ti9  1  0.91977500  0.35651800  0.52748500  1
  Ti  Ti10  1  0.52041900  0.92032100  0.36350000  1
  Ti  Ti11  1  0.64055300  0.47157200  0.08075900  1
  Ti  Ti12  1  0.07817100  0.64254400  0.47835600  1
  Ti  Ti13  1  0.47249200  0.07769700  0.64382600  1
  Ti  Ti14  1  0.87388300  0.98220700  0.64904000  1
  Ti  Ti15  1  0.65488400  0.86551600  0.98498900  1
  Ti  Ti16  1  0.01323400  0.35320600  0.13098300  1
  Ti  Ti17  1  0.34596800  0.13233600  0.01722300  1
  Zn  Zn18  1  0.69131500  0.69012400  0.69146100  1
  Zn  Zn19  1  0.31086500  0.30874100  0.30684700  1
  Zn  Zn20  1  0.98866000  0.65271900  0.86629800  1
  Zn  Zn21  1  0.13224200  0.01219400  0.34637000  1
  O  O22  1  0.70178400  0.08005900  0.53996600  1
  O  O23  1  0.54592600  0.69998900  0.07701600  1
  O  O24  1  0.08536600  0.53269200  0.69420500  1
  O  O25  1  0.30730200  0.91471900  0.46331500  1
  O  O26  1  0.46055300  0.29670900  0.92054200  1
  O  O27  1  0.92181700  0.45768700  0.29966800  1
  O  O28  1  0.93190800  0.28419300  0.76091400  1
  O  O29  1  0.76284100  0.93159400  0.28674000  1
  O  O30  1  0.28426800  0.75609300  0.93306300  1
  O  O31  1  0.06781600  0.71668700  0.23787700  1
  O  O32  1  0.24566100  0.06583900  0.71561900  1
  O  O33  1  0.71125800  0.23917900  0.06876100  1
  O  O34  1  0.05830800  0.86502700  0.75899400  1
  O  O35  1  0.76330500  0.05895500  0.84626300  1
  O  O36  1  0.84024800  0.77292800  0.06408900  1
  O  O37  1  0.93763900  0.15955000  0.22740300  1
  O  O38  1  0.24327100  0.93993600  0.13412400  1
  O  O39  1  0.15516000  0.23414700  0.93983900  1
  O  O40  1  0.77558900  0.79696300  0.78726500  1
  O  O41  1  0.21892200  0.21632000  0.20405100  1
  O  O42  1  0.62708400  0.70591300  0.36714800  1
  O  O43  1  0.36435800  0.62606600  0.70783500  1
  O  O44  1  0.70340300  0.36865300  0.62817000  1
  O  O45  1  0.37492300  0.29379200  0.63260200  1
  O  O46  1  0.63059500  0.37193500  0.29620100  1
  O  O47  1  0.29320700  0.63657000  0.37172100  1
  O  O48  1  0.00182100  0.84990100  0.49980100  1
  O  O49  1  0.48634600  0.01399500  0.85963900  1
  O  O50  1  0.85769100  0.47610900  0.01776700  1
  O  O51  1  0.98028200  0.14464500  0.52097700  1
  O  O52  1  0.51356500  0.98795500  0.13977100  1
  O  O53  1  0.14784500  0.50330800  0.99688900  1
  O  O54  1  0.86392300  0.61053000  0.51289200  1
  O  O55  1  0.51787200  0.86452500  0.60859300  1
  O  O56  1  0.61369200  0.51130200  0.86409700  1
  O  O57  1  0.13663800  0.38415900  0.48565100  1
  O  O58  1  0.48662500  0.13509800  0.38967500  1
  O  O59  1  0.39319200  0.48574100  0.13533500  1
