# generated using pymatgen
data_Na8(WO3)19
_symmetry_space_group_name_H-M   'P 1'
_cell_length_a   3.90150600
_cell_length_b   3.90150600
_cell_length_c   74.48541500
_cell_angle_alpha   90.00000000
_cell_angle_beta   90.00000000
_cell_angle_gamma   90.00000000
_symmetry_Int_Tables_number   1
_chemical_formula_structural   Na8(WO3)19
_chemical_formula_sum   'Na8 W19 O57'
_cell_volume   1133.79829636
_cell_formula_units_Z   1
loop_
 _symmetry_equiv_pos_site_id
 _symmetry_equiv_pos_as_xyz
  1  'x, y, z'
loop_
 _atom_site_type_symbol
 _atom_site_label
 _atom_site_symmetry_multiplicity
 _atom_site_fract_x
 _atom_site_fract_y
 _atom_site_fract_z
 _atom_site_occupancy
  Na  Na0  1  0.00000000  0.00000000  0.73701300  1
  Na  Na1  1  0.00000000  0.00000000  0.26298700  1
  Na  Na2  1  0.00000000  0.00000000  0.36779100  1
  Na  Na3  1  0.00000000  0.00000000  0.42084600  1
  Na  Na4  1  0.00000000  0.00000000  0.47375700  1
  Na  Na5  1  0.00000000  0.00000000  0.52624300  1
  Na  Na6  1  0.00000000  0.00000000  0.63220900  1
  Na  Na7  1  0.00000000  0.00000000  0.57915400  1
  W  W8  1  0.50000000  0.50000000  0.76450400  1
  W  W9  1  0.50000000  0.50000000  0.71025700  1
  W  W10  1  0.50000000  0.50000000  0.86948500  1
  W  W11  1  0.50000000  0.50000000  0.81712300  1
  W  W12  1  0.50000000  0.50000000  0.97393900  1
  W  W13  1  0.50000000  0.50000000  0.92176300  1
  W  W14  1  0.50000000  0.50000000  0.02606100  1
  W  W15  1  0.50000000  0.50000000  0.07823700  1
  W  W16  1  0.50000000  0.50000000  0.13051500  1
  W  W17  1  0.50000000  0.50000000  0.18287700  1
  W  W18  1  0.50000000  0.50000000  0.23549600  1
  W  W19  1  0.50000000  0.50000000  0.34116000  1
  W  W20  1  0.50000000  0.50000000  0.28974300  1
  W  W21  1  0.50000000  0.50000000  0.44724800  1
  W  W22  1  0.50000000  0.50000000  0.39437800  1
  W  W23  1  0.50000000  0.50000000  0.50000000  1
  W  W24  1  0.50000000  0.50000000  0.55275200  1
  W  W25  1  0.50000000  0.50000000  0.60562200  1
  W  W26  1  0.50000000  0.50000000  0.65884000  1
  O  O27  1  0.00000000  0.50000000  0.71129800  1
  O  O28  1  0.00000000  0.50000000  0.76241400  1
  O  O29  1  0.00000000  0.50000000  0.81554000  1
  O  O30  1  0.00000000  0.50000000  0.86823800  1
  O  O31  1  0.00000000  0.50000000  0.92093900  1
  O  O32  1  0.00000000  0.50000000  0.97364400  1
  O  O33  1  0.00000000  0.50000000  0.02635600  1
  O  O34  1  0.00000000  0.50000000  0.07906100  1
  O  O35  1  0.00000000  0.50000000  0.18446000  1
  O  O36  1  0.00000000  0.50000000  0.23758600  1
  O  O37  1  0.00000000  0.50000000  0.28870200  1
  O  O38  1  0.00000000  0.50000000  0.34256300  1
  O  O39  1  0.00000000  0.50000000  0.39470600  1
  O  O40  1  0.00000000  0.50000000  0.44732600  1
  O  O41  1  0.00000000  0.50000000  0.50000000  1
  O  O42  1  0.00000000  0.50000000  0.55267400  1
  O  O43  1  0.00000000  0.50000000  0.60529400  1
  O  O44  1  0.00000000  0.50000000  0.65743700  1
  O  O45  1  0.50000000  0.50000000  0.68499700  1
  O  O46  1  0.50000000  0.50000000  0.73700200  1
  O  O47  1  0.50000000  0.00000000  0.71129800  1
  O  O48  1  0.50000000  0.50000000  0.78919000  1
  O  O49  1  0.50000000  0.00000000  0.76241400  1
  O  O50  1  0.50000000  0.50000000  0.84195400  1
  O  O51  1  0.50000000  0.00000000  0.81554000  1
  O  O52  1  0.50000000  0.50000000  0.89459400  1
  O  O53  1  0.50000000  0.00000000  0.86823800  1
  O  O54  1  0.50000000  0.50000000  0.94727500  1
  O  O55  1  0.50000000  0.00000000  0.92093900  1
  O  O56  1  0.50000000  0.00000000  0.02635600  1
  O  O57  1  0.50000000  0.50000000  0.00000000  1
  O  O58  1  0.50000000  0.00000000  0.97364400  1
  O  O59  1  0.50000000  0.00000000  0.07906100  1
  O  O60  1  0.50000000  0.50000000  0.05272500  1
  O  O61  1  0.50000000  0.00000000  0.13176200  1
  O  O62  1  0.50000000  0.00000000  0.23758600  1
  O  O63  1  0.50000000  0.50000000  0.10540600  1
  O  O64  1  0.50000000  0.00000000  0.18446000  1
  O  O65  1  0.50000000  0.50000000  0.15804600  1
  O  O66  1  0.50000000  0.00000000  0.34256300  1
  O  O67  1  0.50000000  0.00000000  0.28870200  1
  O  O68  1  0.50000000  0.50000000  0.21081000  1
  O  O69  1  0.50000000  0.00000000  0.44732600  1
  O  O70  1  0.50000000  0.50000000  0.26299800  1
  O  O71  1  0.50000000  0.00000000  0.39470600  1
  O  O72  1  0.50000000  0.00000000  0.50000000  1
  O  O73  1  0.50000000  0.50000000  0.31500300  1
  O  O74  1  0.50000000  0.00000000  0.55267400  1
  O  O75  1  0.50000000  0.50000000  0.36879200  1
  O  O76  1  0.50000000  0.00000000  0.60529400  1
  O  O77  1  0.50000000  0.50000000  0.42017800  1
  O  O78  1  0.50000000  0.00000000  0.65743700  1
  O  O79  1  0.50000000  0.50000000  0.47433900  1
  O  O80  1  0.50000000  0.50000000  0.52566100  1
  O  O81  1  0.50000000  0.50000000  0.57982200  1
  O  O82  1  0.50000000  0.50000000  0.63120800  1
  O  O83  1  0.00000000  0.50000000  0.13176200  1
