# generated using pymatgen
data_K6Rh2(C4O11)3
_symmetry_space_group_name_H-M   'P 1'
_cell_length_a   6.89269400
_cell_length_b   10.39212600
_cell_length_c   12.58063732
_cell_angle_alpha   78.07676154
_cell_angle_beta   88.49234477
_cell_angle_gamma   86.64953164
_symmetry_Int_Tables_number   1
_chemical_formula_structural   K6Rh2(C4O11)3
_chemical_formula_sum   'K6 Rh2 C12 O33'
_cell_volume   880.10524492
_cell_formula_units_Z   1
loop_
 _symmetry_equiv_pos_site_id
 _symmetry_equiv_pos_as_xyz
  1  'x, y, z'
loop_
 _atom_site_type_symbol
 _atom_site_label
 _atom_site_symmetry_multiplicity
 _atom_site_fract_x
 _atom_site_fract_y
 _atom_site_fract_z
 _atom_site_occupancy
  K  K0  1  0.27963900  0.31767000  0.32191400  1
  K  K1  1  0.73941800  0.70441400  0.65526700  1
  K  K2  1  0.45132500  0.86500100  0.91980600  1
  K  K3  1  0.55062200  0.14495100  0.08188500  1
  K  K4  1  0.73975900  0.25213800  0.54465500  1
  K  K5  1  0.26233500  0.75006500  0.44967700  1
  Rh  Rh6  1  0.16365100  0.18495400  0.71119400  1
  Rh  Rh7  1  0.83961100  0.81417400  0.28591800  1
  C  C8  1  0.99850400  0.15574100  0.92151400  1
  C  C9  1  0.00148200  0.84061700  0.07485000  1
  C  C10  1  0.84515200  0.10703100  0.85091600  1
  C  C11  1  0.15319500  0.89518000  0.14361700  1
  C  C12  1  0.36089000  0.42205200  0.64603500  1
  C  C13  1  0.64703400  0.57702200  0.35707900  1
  C  C14  1  0.31094200  0.95872000  0.63775700  1
  C  C15  1  0.69140100  0.04258700  0.35734400  1
  C  C16  1  0.13959300  0.46292300  0.64745700  1
  C  C17  1  0.86791300  0.53697800  0.35276400  1
  C  C18  1  0.22505700  0.05430000  0.53634600  1
  C  C19  1  0.78009100  0.94928600  0.45868200  1
  O  O20  1  0.68335100  0.07693600  0.88928200  1
  O  O21  1  0.31206800  0.93023800  0.10414300  1
  O  O22  1  0.22754400  0.02282000  0.44678400  1
  O  O23  1  0.77722400  0.98081600  0.54827400  1
  O  O24  1  0.48320900  0.50625500  0.62287800  1
  O  O25  1  0.52607200  0.49254300  0.38506000  1
  O  O26  1  0.15711500  0.16954300  0.55199900  1
  O  O27  1  0.84993100  0.83394900  0.44382300  1
  O  O28  1  0.02564900  0.36686100  0.68196300  1
  O  O29  1  0.98080200  0.63355000  0.31734900  1
  O  O30  1  0.90642900  0.10033400  0.75327500  1
  O  O31  1  0.09353200  0.90067000  0.24164500  1
  O  O32  1  0.30436200  0.00365300  0.72724100  1
  O  O33  1  0.69559100  0.99529800  0.26896700  1
  O  O34  1  0.08162700  0.57947300  0.61664800  1
  O  O35  1  0.92784900  0.42078400  0.38281300  1
  O  O36  1  0.95242100  0.15838800  0.01766500  1
  O  O37  1  0.04592900  0.83765800  0.97861900  1
  O  O38  1  0.40218600  0.29483600  0.66922500  1
  O  O39  1  0.60293900  0.70360900  0.33132400  1
  O  O40  1  0.38323400  0.84872800  0.63038700  1
  O  O41  1  0.61843700  0.15239700  0.36426700  1
  O  O42  1  0.26551400  0.39309300  0.96735500  1
  O  O43  1  0.53750700  0.51953000  0.10452500  1
  O  O44  1  0.82693100  0.78296900  0.85705100  1
  O  O45  1  0.16302400  0.20794400  0.14274700  1
  O  O46  1  0.49404100  0.59991100  0.85021900  1
  O  O47  1  0.57818600  0.39542300  0.15198600  1
  O  O48  1  0.62746900  0.51408800  0.86959500  1
  O  O49  1  0.36680400  0.57003600  0.12785700  1
  O  O50  1  0.16253200  0.18634600  0.87410100  1
  O  O51  1  0.84013200  0.80610600  0.12402000  1
  O  O52  1  0.11974500  0.45441400  0.99423200  1
