# generated using pymatgen
data_Ca4Tl2CO9
_symmetry_space_group_name_H-M   'P 1'
_cell_length_a   9.86968359
_cell_length_b   9.86968359
_cell_length_c   9.86968359
_cell_angle_alpha   151.66833553
_cell_angle_beta   151.21048255
_cell_angle_gamma   40.83375076
_symmetry_Int_Tables_number   1
_chemical_formula_structural   Ca4Tl2CO9
_chemical_formula_sum   'Ca4 Tl2 C1 O9'
_cell_volume   219.27118232
_cell_formula_units_Z   1
loop_
 _symmetry_equiv_pos_site_id
 _symmetry_equiv_pos_as_xyz
  1  'x, y, z'
loop_
 _atom_site_type_symbol
 _atom_site_label
 _atom_site_symmetry_multiplicity
 _atom_site_fract_x
 _atom_site_fract_y
 _atom_site_fract_z
 _atom_site_occupancy
  Ca  Ca0  1  0.60797400  0.10156800  0.49359400  1
  Ca  Ca1  1  0.11104700  0.58764800  0.47660100  1
  Ca  Ca2  1  0.39202600  0.88561900  0.49359400  1
  Ca  Ca3  1  0.88895300  0.36555500  0.47660100  1
  Tl  Tl4  1  0.25371500  0.24542400  0.99170900  1
  Tl  Tl5  1  0.74628500  0.73799400  0.99170900  1
  C  C6  1  0.00000000  0.97436400  0.97436400  1
  O  O7  1  0.62901200  0.62145200  0.99244000  1
  O  O8  1  0.37098800  0.36342800  0.99244000  1
  O  O9  1  0.13807300  0.12398000  0.98590700  1
  O  O10  1  0.86192700  0.84783500  0.98590700  1
  O  O11  1  0.74994600  0.24104200  0.49109600  1
  O  O12  1  0.25005400  0.74114900  0.49109600  1
  O  O13  1  0.77210600  0.10921500  0.88132100  1
  O  O14  1  0.22789400  0.10921500  0.33710900  1
  O  O15  1  0.00000000  0.70451100  0.70451100  1
