# generated using pymatgen
data_Na6Mn7Fe6(PO4)12
_symmetry_space_group_name_H-M   'P 1'
_cell_length_a   6.58307776
_cell_length_b   8.83180227
_cell_length_c   17.51811646
_cell_angle_alpha   92.84723552
_cell_angle_beta   106.43393714
_cell_angle_gamma   106.75444841
_symmetry_Int_Tables_number   1
_chemical_formula_structural   Na6Mn7Fe6(PO4)12
_chemical_formula_sum   'Na6 Mn7 Fe6 P12 O48'
_cell_volume   925.83302879
_cell_formula_units_Z   1
loop_
 _symmetry_equiv_pos_site_id
 _symmetry_equiv_pos_as_xyz
  1  'x, y, z'
loop_
 _atom_site_type_symbol
 _atom_site_label
 _atom_site_symmetry_multiplicity
 _atom_site_fract_x
 _atom_site_fract_y
 _atom_site_fract_z
 _atom_site_occupancy
  Na  Na0  1  0.00194200  0.49622400  0.74728500  1
  Na  Na1  1  0.24429400  0.98143900  0.50599700  1
  Na  Na2  1  0.99776300  0.49890000  0.25253200  1
  Na  Na3  1  0.49853900  0.49607900  0.74919700  1
  Na  Na4  1  0.75489200  0.02015200  0.99547100  1
  Na  Na5  1  0.75365900  0.02143300  0.48912000  1
  Mn  Mn6  1  0.25324400  0.26481800  0.87023800  1
  Mn  Mn7  1  0.36077700  0.93427500  0.31238200  1
  Mn  Mn8  1  0.25406900  0.26760600  0.36795000  1
  Mn  Mn9  1  0.74078400  0.72416100  0.63201800  1
  Mn  Mn10  1  0.49718300  0.50388100  0.25114700  1
  Mn  Mn11  1  0.86269900  0.61898600  0.46625600  1
  Mn  Mn12  1  0.75562300  0.73352100  0.13490700  1
  Fe  Fe13  1  0.36728200  0.93748700  0.81340300  1
  Fe  Fe14  1  0.13766500  0.38232600  0.53283300  1
  Fe  Fe15  1  0.13563900  0.38228900  0.03081600  1
  Fe  Fe16  1  0.87650800  0.62310200  0.96907400  1
  Fe  Fe17  1  0.63548500  0.06255700  0.68984200  1
  Fe  Fe18  1  0.62240400  0.06089500  0.18368500  1
  P  P19  1  0.37855200  0.65633000  0.93365300  1
  P  P20  1  0.25090000  0.71918800  0.64661200  1
  P  P21  1  0.12663700  0.12621000  0.67480400  1
  P  P22  1  0.37888700  0.65888600  0.43770900  1
  P  P23  1  0.25276000  0.71179900  0.14384800  1
  P  P24  1  0.13087000  0.13242800  0.16990800  1
  P  P25  1  0.87090700  0.86451100  0.82600300  1
  P  P26  1  0.75050600  0.28466900  0.85680200  1
  P  P27  1  0.62138300  0.33837900  0.56465900  1
  P  P28  1  0.86477600  0.87821500  0.32668200  1
  P  P29  1  0.74645700  0.28405400  0.35162400  1
  P  P30  1  0.62601200  0.34889900  0.06580200  1
  O  O31  1  0.18876800  0.61155500  0.97358600  1
  O  O32  1  0.04055900  0.74806900  0.59127200  1
  O  O33  1  0.25294500  0.74381500  0.73581500  1
  O  O34  1  0.40396700  0.82528700  0.90756600  1
  O  O35  1  0.10423500  0.98954500  0.83458200  1
  O  O36  1  0.17748400  0.27240200  0.73710200  1
  O  O37  1  0.32446200  0.52622000  0.86276000  1
  O  O38  1  0.40134800  0.32999100  0.00073800  1
  O  O39  1  0.11367100  0.16214500  0.58890700  1
  O  O40  1  0.26014000  0.54837800  0.63428500  1
  O  O41  1  0.18267000  0.59596500  0.47176600  1
  O  O42  1  0.03630400  0.73038500  0.08442700  1
  O  O43  1  0.46414900  0.83684800  0.63269500  1
  O  O44  1  0.31629700  0.04596800  0.70579300  1
  O  O45  1  0.23170200  0.73067300  0.22845700  1
  O  O46  1  0.39388400  0.83115200  0.41955600  1
  O  O47  1  0.09464800  0.00090100  0.33373600  1
  O  O48  1  0.68990200  0.95318300  0.80020400  1
  O  O49  1  0.20324400  0.28185400  0.23598300  1
  O  O50  1  0.34442100  0.54028900  0.36187700  1
  O  O51  1  0.53804000  0.16800000  0.87070300  1
  O  O52  1  0.39202600  0.31380300  0.49960800  1
  O  O53  1  0.09974400  0.17836500  0.08573100  1
  O  O54  1  0.27640900  0.54154000  0.13486200  1
  O  O55  1  0.74561800  0.45822300  0.87072700  1
  O  O56  1  0.87331500  0.81077000  0.90900100  1
  O  O57  1  0.60178500  0.67004100  0.50336000  1
  O  O58  1  0.46659700  0.82804300  0.13117200  1
  O  O59  1  0.66531100  0.46312600  0.63707400  1
  O  O60  1  0.81713700  0.72209500  0.76149200  1
  O  O61  1  0.31262900  0.04769300  0.19303900  1
  O  O62  1  0.89402500  0.00198600  0.66972100  1
  O  O63  1  0.60687400  0.16787700  0.59209700  1
  O  O64  1  0.74848600  0.25967400  0.76816400  1
  O  O65  1  0.67985200  0.95601400  0.29289900  1
  O  O66  1  0.54038600  0.17647300  0.37065100  1
  O  O67  1  0.96177700  0.25716200  0.91254500  1
  O  O68  1  0.80900600  0.38834300  0.52571600  1
  O  O69  1  0.73385100  0.45798900  0.35569600  1
  O  O70  1  0.87311600  0.83879800  0.41230000  1
  O  O71  1  0.60854600  0.67199900  0.99847900  1
  O  O72  1  0.66825400  0.47153400  0.14029800  1
  O  O73  1  0.80537900  0.72244800  0.26616000  1
  O  O74  1  0.90017400  0.00841400  0.16826000  1
  O  O75  1  0.62939800  0.18301700  0.09132400  1
  O  O76  1  0.74972100  0.25344900  0.26338900  1
  O  O77  1  0.96268100  0.26513900  0.40881300  1
  O  O78  1  0.81596100  0.41265800  0.02685300  1
