# generated using pymatgen
data_CaZrNbFeO7
_symmetry_space_group_name_H-M   'P 1'
_cell_length_a   7.47489845
_cell_length_b   7.47489845
_cell_length_c   11.59826147
_cell_angle_alpha   80.66859795
_cell_angle_beta   80.66859795
_cell_angle_gamma   59.86317304
_symmetry_Int_Tables_number   1
_chemical_formula_structural   CaZrNbFeO7
_chemical_formula_sum   'Ca4 Zr4 Nb4 Fe4 O28'
_cell_volume   550.54892891
_cell_formula_units_Z   4
loop_
 _symmetry_equiv_pos_site_id
 _symmetry_equiv_pos_as_xyz
  1  'x, y, z'
loop_
 _atom_site_type_symbol
 _atom_site_label
 _atom_site_symmetry_multiplicity
 _atom_site_fract_x
 _atom_site_fract_y
 _atom_site_fract_z
 _atom_site_occupancy
  Ca  Ca0  1  0.49477400  0.24907900  0.00290800  1
  Ca  Ca1  1  0.74505000  0.49933300  0.48847900  1
  Ca  Ca2  1  0.49933300  0.74505000  0.98847900  1
  Ca  Ca3  1  0.24907900  0.49477400  0.50290800  1
  Zr  Zr4  1  0.25637700  0.99822900  0.52819900  1
  Zr  Zr5  1  0.01937000  0.73052100  0.97799100  1
  Zr  Zr6  1  0.73052100  0.01937000  0.47799100  1
  Zr  Zr7  1  0.99822900  0.25637700  0.02819900  1
  Nb  Nb8  1  0.12384900  0.87415700  0.25428000  1
  Nb  Nb9  1  0.87415700  0.12384900  0.75428000  1
  Nb  Nb10  1  0.85430100  0.63223400  0.74068600  1
  Nb  Nb11  1  0.63223400  0.85430100  0.24068600  1
  Fe  Fe12  1  0.53477500  0.38389100  0.24477000  1
  Fe  Fe13  1  0.38389100  0.53477500  0.74477000  1
  Fe  Fe14  1  0.36443600  0.13408400  0.76027000  1
  Fe  Fe15  1  0.13408400  0.36443600  0.26027000  1
  O  O16  1  0.44873600  0.17979300  0.21865200  1
  O  O17  1  0.83993500  0.58223200  0.28363300  1
  O  O18  1  0.58223200  0.83993500  0.78363300  1
  O  O19  1  0.17979300  0.44873600  0.71865200  1
  O  O20  1  0.28617700  0.11917800  0.93522900  1
  O  O21  1  0.87556000  0.71476800  0.56865300  1
  O  O22  1  0.71476800  0.87556000  0.06865300  1
  O  O23  1  0.11917800  0.28617700  0.43522900  1
  O  O24  1  0.88163200  0.53590400  0.91660100  1
  O  O25  1  0.45544700  0.11958100  0.58089700  1
  O  O26  1  0.11958100  0.45544700  0.08089700  1
  O  O27  1  0.53590400  0.88163200  0.41660100  1
  O  O28  1  0.56335500  0.23186000  0.78634000  1
  O  O29  1  0.77401500  0.43689100  0.71260000  1
  O  O30  1  0.43689100  0.77401500  0.21260000  1
  O  O31  1  0.23186000  0.56335500  0.28634000  1
  O  O32  1  0.11396000  0.86735200  0.08275300  1
  O  O33  1  0.13201700  0.88690400  0.41785000  1
  O  O34  1  0.88690400  0.13201700  0.91785000  1
  O  O35  1  0.86735200  0.11396000  0.58275300  1
  O  O36  1  0.16288000  0.06801500  0.70729200  1
  O  O37  1  0.94817000  0.83050100  0.79571600  1
  O  O38  1  0.83050100  0.94817000  0.29571600  1
  O  O39  1  0.06801500  0.16288000  0.20729200  1
  O  O40  1  0.60268500  0.33132200  0.40138700  1
  O  O41  1  0.66533600  0.39307300  0.09330500  1
  O  O42  1  0.39307300  0.66533600  0.59330500  1
  O  O43  1  0.33132200  0.60268500  0.90138700  1
