# generated using pymatgen
data_Na2Ca2P2O7F2
_symmetry_space_group_name_H-M   'P 1'
_cell_length_a   7.53458845
_cell_length_b   10.56105528
_cell_length_c   11.10150367
_cell_angle_alpha   90.34029024
_cell_angle_beta   109.63020346
_cell_angle_gamma   90.07546109
_symmetry_Int_Tables_number   1
_chemical_formula_structural   Na2Ca2P2O7F2
_chemical_formula_sum   'Na8 Ca8 P8 O28 F8'
_cell_volume   832.02066659
_cell_formula_units_Z   4
loop_
 _symmetry_equiv_pos_site_id
 _symmetry_equiv_pos_as_xyz
  1  'x, y, z'
loop_
 _atom_site_type_symbol
 _atom_site_label
 _atom_site_symmetry_multiplicity
 _atom_site_fract_x
 _atom_site_fract_y
 _atom_site_fract_z
 _atom_site_occupancy
  Na  Na0  1  0.02369100  0.40303400  0.30253900  1
  Na  Na1  1  0.17432800  0.88022400  0.58939200  1
  Na  Na2  1  0.35527900  0.39900000  0.93298900  1
  Na  Na3  1  0.15250200  0.62469400  0.07015900  1
  Na  Na4  1  0.46331400  0.58909200  0.69212500  1
  Na  Na5  1  0.53801400  0.09323400  0.81230700  1
  Na  Na6  1  0.67593600  0.61960200  0.07730900  1
  Na  Na7  1  0.97090300  0.90510200  0.17937500  1
  Ca  Ca8  1  0.02161300  0.08302100  0.81158300  1
  Ca  Ca9  1  0.32961000  0.11799300  0.41728200  1
  Ca  Ca10  1  0.47223900  0.88123400  0.20263100  1
  Ca  Ca11  1  0.51884600  0.43491200  0.31471700  1
  Ca  Ca12  1  0.65574200  0.86443800  0.57775800  1
  Ca  Ca13  1  0.83376700  0.37894200  0.93079000  1
  Ca  Ca14  1  0.85144500  0.10933000  0.41526700  1
  Ca  Ca15  1  0.98164800  0.59311100  0.69343500  1
  P  P16  1  0.19709100  0.31461200  0.63330400  1
  P  P17  1  0.34799700  0.82093200  0.87706000  1
  P  P18  1  0.22642300  0.68534300  0.37851600  1
  P  P19  1  0.23477900  0.18265400  0.12239600  1
  P  P20  1  0.77103500  0.81470500  0.86793800  1
  P  P21  1  0.67950200  0.32249500  0.62136000  1
  P  P22  1  0.64610600  0.18584300  0.13678600  1
  P  P23  1  0.89901800  0.68362200  0.37783900  1
  O  O24  1  0.07801900  0.21071400  0.99638500  1
  O  O25  1  0.18649500  0.45833600  0.62608700  1
  O  O26  1  0.15362400  0.24653700  0.50360300  1
  O  O27  1  0.34487400  0.26176400  0.75107700  1
  O  O28  1  0.23819000  0.73097400  0.76941400  1
  O  O29  1  0.28865300  0.95964400  0.84521900  1
  O  O30  1  0.24415600  0.04388900  0.16529600  1
  O  O31  1  0.23738200  0.77074400  0.26756400  1
  O  O32  1  0.24840700  0.27006500  0.23651300  1
  O  O33  1  0.27747800  0.54789800  0.35760600  1
  O  O34  1  0.35577100  0.73889100  0.50926700  1
  O  O35  1  0.56582500  0.81107100  0.88373200  1
  O  O36  1  0.70401100  0.22154300  0.02405700  1
  O  O37  1  0.35650800  0.78062000  0.01090600  1
  O  O38  1  0.41953600  0.21364400  0.08174200  1
  O  O39  1  0.51969200  0.29395700  0.49613000  1
  O  O40  1  0.70729900  0.46316200  0.65173500  1
  O  O41  1  0.75756300  0.72696800  0.75253300  1
  O  O42  1  0.71243300  0.23944500  0.73843000  1
  O  O43  1  0.79384700  0.95168200  0.82749200  1
  O  O44  1  0.67813100  0.04601600  0.17739500  1
  O  O45  1  0.72572700  0.26911800  0.25924500  1
  O  O46  1  0.77821300  0.76883400  0.26653800  1
  O  O47  1  0.89994600  0.73766300  0.51001700  1
  O  O48  1  0.82302000  0.54649300  0.36100700  1
  O  O49  1  0.84477200  0.27566700  0.56358300  1
  O  O50  1  0.01929300  0.26510200  0.67857500  1
  O  O51  1  0.90695200  0.77417000  0.99529100  1
  F  F52  1  0.06301000  0.49193500  0.88134400  1
  F  F53  1  0.07368600  0.99705300  0.38397500  1
  F  F54  1  0.44064200  0.00242200  0.60081800  1
  F  F55  1  0.58326400  0.50419000  0.89119000  1
  F  F56  1  0.43584700  0.51112100  0.12334400  1
  F  F57  1  0.57889300  0.99241100  0.39837000  1
  F  F58  1  0.91549700  0.00120600  0.60610800  1
  F  F59  1  0.93171300  0.49248300  0.10755600  1
