# generated using pymatgen
data_CaMn2V4CuO12
_symmetry_space_group_name_H-M   'P 1'
_cell_length_a   6.46278963
_cell_length_b   6.46278963
_cell_length_c   6.46278963
_cell_angle_alpha   71.21279458
_cell_angle_beta   69.73601081
_cell_angle_gamma   109.36589310
_symmetry_Int_Tables_number   1
_chemical_formula_structural   CaMn2V4CuO12
_chemical_formula_sum   'Ca1 Mn2 V4 Cu1 O12'
_cell_volume   207.76136497
_cell_formula_units_Z   1
loop_
 _symmetry_equiv_pos_site_id
 _symmetry_equiv_pos_as_xyz
  1  'x, y, z'
loop_
 _atom_site_type_symbol
 _atom_site_label
 _atom_site_symmetry_multiplicity
 _atom_site_fract_x
 _atom_site_fract_y
 _atom_site_fract_z
 _atom_site_occupancy
  Ca  Ca0  1  0.00000000  0.00000000  0.00000000  1
  Mn  Mn1  1  0.50000000  0.50000000  0.00000000  1
  Mn  Mn2  1  0.00000000  0.50000000  0.50000000  1
  V  V3  1  0.00000000  0.50000000  0.00000000  1
  V  V4  1  0.50000000  0.50000000  0.50000000  1
  V  V5  1  0.50000000  0.00000000  0.00000000  1
  V  V6  1  0.00000000  0.00000000  0.50000000  1
  Cu  Cu7  1  0.50000000  0.00000000  0.50000000  1
  O  O8  1  0.81792000  0.52461200  0.29330700  1
  O  O9  1  0.18208000  0.47538800  0.70669300  1
  O  O10  1  0.81792000  0.11122700  0.70669300  1
  O  O11  1  0.18208000  0.88877300  0.29330700  1
  O  O12  1  0.69237300  0.18886500  0.11876200  1
  O  O13  1  0.30762700  0.81113500  0.88123800  1
  O  O14  1  0.30762700  0.18886500  0.50350800  1
  O  O15  1  0.69237300  0.81113500  0.49649200  1
  O  O16  1  0.49364400  0.30387100  0.81022700  1
  O  O17  1  0.50635600  0.69612900  0.18977300  1
  O  O18  1  0.88590200  0.69612900  0.81022700  1
  O  O19  1  0.11409900  0.30387100  0.18977300  1
