# generated using pymatgen
data_Ca(BC3)2
_symmetry_space_group_name_H-M   'P 1'
_cell_length_a   6.35438031
_cell_length_b   5.20992368
_cell_length_c   5.15605818
_cell_angle_alpha   75.61195373
_cell_angle_beta   52.57776616
_cell_angle_gamma   51.81028011
_symmetry_Int_Tables_number   1
_chemical_formula_structural   Ca(BC3)2
_chemical_formula_sum   'Ca1 B2 C6'
_cell_volume   104.31145532
_cell_formula_units_Z   1
loop_
 _symmetry_equiv_pos_site_id
 _symmetry_equiv_pos_as_xyz
  1  'x, y, z'
loop_
 _atom_site_type_symbol
 _atom_site_label
 _atom_site_symmetry_multiplicity
 _atom_site_fract_x
 _atom_site_fract_y
 _atom_site_fract_z
 _atom_site_occupancy
  Ca  Ca0  1  0.00086100  0.00086100  0.99913900  1
  B  B1  1  0.09054800  0.57684500  0.42315500  1
  B  B2  1  0.57684500  0.09054800  0.90945200  1
  C  C3  1  0.08203600  0.08203600  0.41796400  1
  C  C4  1  0.58203600  0.58203600  0.91796400  1
  C  C5  1  0.92118300  0.92118300  0.57881700  1
  C  C6  1  0.42118300  0.42118300  0.07881700  1
  C  C7  1  0.91394300  0.41141800  0.58858200  1
  C  C8  1  0.41141800  0.91394300  0.08605700  1
