# generated using pymatgen
data_Na4Al3Si3NO14
_symmetry_space_group_name_H-M   'P 1'
_cell_length_a   9.14956953
_cell_length_b   9.22735040
_cell_length_c   9.26987963
_cell_angle_alpha   91.45370954
_cell_angle_beta   90.49110034
_cell_angle_gamma   90.49426236
_symmetry_Int_Tables_number   1
_chemical_formula_structural   Na4Al3Si3NO14
_chemical_formula_sum   'Na8 Al6 Si6 N2 O28'
_cell_volume   782.31024566
_cell_formula_units_Z   2
loop_
 _symmetry_equiv_pos_site_id
 _symmetry_equiv_pos_as_xyz
  1  'x, y, z'
loop_
 _atom_site_type_symbol
 _atom_site_label
 _atom_site_symmetry_multiplicity
 _atom_site_fract_x
 _atom_site_fract_y
 _atom_site_fract_z
 _atom_site_occupancy
  Na  Na0  1  0.16702300  0.18462600  0.18297000  1
  Na  Na1  1  0.18710900  0.78649100  0.79679600  1
  Na  Na2  1  0.27600900  0.26560400  0.71894500  1
  Na  Na3  1  0.28829000  0.73168600  0.26019200  1
  Na  Na4  1  0.72225800  0.31480600  0.28139000  1
  Na  Na5  1  0.75988000  0.74090200  0.74672300  1
  Na  Na6  1  0.81154600  0.16151900  0.80189300  1
  Na  Na7  1  0.77935700  0.77027100  0.18466300  1
  Al  Al8  1  0.00184600  0.25400700  0.50242700  1
  Al  Al9  1  0.01790800  0.73109600  0.49598400  1
  Al  Al10  1  0.25556700  0.49439900  0.00181000  1
  Al  Al11  1  0.49962600  0.99667000  0.75326400  1
  Al  Al12  1  0.48658500  0.01594300  0.24114700  1
  Al  Al13  1  0.77036900  0.47236900  0.99970100  1
  Si  Si14  1  0.01672600  0.49372600  0.24770200  1
  Si  Si15  1  0.00274300  0.49578200  0.75437900  1
  Si  Si16  1  0.24935600  0.00191500  0.49623000  1
  Si  Si17  1  0.51169800  0.74568700  0.99897200  1
  Si  Si18  1  0.49305900  0.25213400  0.99826700  1
  Si  Si19  1  0.72210600  0.03442400  0.48994400  1
  N  N20  1  0.23876300  0.04370200  0.91629700  1
  N  N21  1  0.93635200  0.91767400  0.02320500  1
  O  O22  1  0.04863500  0.34835200  0.66355500  1
  O  O23  1  0.07414300  0.63746200  0.34144600  1
  O  O24  1  0.04430800  0.96239700  0.09713500  1
  O  O25  1  0.16220600  0.44332100  0.15807000  1
  O  O26  1  0.13223100  0.54242900  0.86834000  1
  O  O27  1  0.15241400  0.14473900  0.46001500  1
  O  O28  1  0.14870900  0.86343100  0.53917200  1
  O  O29  1  0.35302100  0.04155100  0.63742100  1
  O  O30  1  0.34121800  0.95824300  0.35070900  1
  O  O31  1  0.35727800  0.34773200  0.93473800  1
  O  O32  1  0.36313900  0.65187600  0.03722000  1
  O  O33  1  0.42807700  0.15677800  0.13170900  1
  O  O34  1  0.47834200  0.83362000  0.84800800  1
  O  O35  1  0.55117900  0.14741300  0.86433200  1
  O  O36  1  0.53707800  0.85991700  0.13913800  1
  O  O37  1  0.62156300  0.35938500  0.06145100  1
  O  O38  1  0.65893600  0.64868500  0.98106800  1
  O  O39  1  0.61987600  0.09677400  0.36001800  1
  O  O40  1  0.64978400  0.97270800  0.63526500  1
  O  O41  1  0.83893300  0.16016500  0.53981400  1
  O  O42  1  0.82759600  0.77263100  0.49231900  1
  O  O43  1  0.86868300  0.54007700  0.16034700  1
  O  O44  1  0.83520400  0.49138800  0.81530700  1
  O  O45  1  0.80122700  0.89648700  0.39654800  1
  O  O46  1  0.96794400  0.35836100  0.35016800  1
  O  O47  1  0.00109400  0.63452100  0.65025500  1
  O  O48  1  0.95031000  0.91051300  0.88693000  1
  O  O49  1  0.89669700  0.31361000  0.97459900  1
