# generated using pymatgen
data_CdOs2(NO)6
_symmetry_space_group_name_H-M   'P 1'
_cell_length_a   7.22853625
_cell_length_b   7.22853625
_cell_length_c   6.30239125
_cell_angle_alpha   90.00000000
_cell_angle_beta   55.00704691
_cell_angle_gamma   120.00000000
_symmetry_Int_Tables_number   1
_chemical_formula_structural   CdOs2(NO)6
_chemical_formula_sum   'Cd1 Os2 N6 O6'
_cell_volume   213.70364481
_cell_formula_units_Z   1
loop_
 _symmetry_equiv_pos_site_id
 _symmetry_equiv_pos_as_xyz
  1  'x, y, z'
loop_
 _atom_site_type_symbol
 _atom_site_label
 _atom_site_symmetry_multiplicity
 _atom_site_fract_x
 _atom_site_fract_y
 _atom_site_fract_z
 _atom_site_occupancy
  Cd  Cd0  1  0.94662500  0.47331300  0.58006200  1
  Os  Os1  1  0.08970400  0.04485200  0.86544400  1
  Os  Os2  1  0.49667000  0.74833500  0.75499500  1
  N  N3  1  0.62116900  0.31058500  0.06824600  1
  N  N4  1  0.23054900  0.26395800  0.50549300  1
  N  N5  1  0.23054900  0.96659200  0.50549300  1
  N  N6  1  0.52791500  0.26395800  0.50549300  1
  N  N7  1  0.25587000  0.62793500  0.11619500  1
  N  N8  1  0.43156900  0.21578500  0.35264600  1
  O  O9  1  0.71051400  0.65602500  0.63346100  1
  O  O10  1  0.71051400  0.05448900  0.63346100  1
  O  O11  1  0.31205000  0.65602500  0.63346100  1
  O  O12  1  0.85325400  0.11489600  0.03185000  1
  O  O13  1  0.85325400  0.73835900  0.03185000  1
  O  O14  1  0.22979100  0.11489600  0.03185000  1
