# generated using pymatgen
data_Ce2NiSn4
_symmetry_space_group_name_H-M   'P 1'
_cell_length_a   8.89830941
_cell_length_b   8.89830941
_cell_length_c   4.50225400
_cell_angle_alpha   90.00000000
_cell_angle_beta   90.00000000
_cell_angle_gamma   150.52636517
_symmetry_Int_Tables_number   1
_chemical_formula_structural   Ce2NiSn4
_chemical_formula_sum   'Ce2 Ni1 Sn4'
_cell_volume   175.40033080
_cell_formula_units_Z   1
loop_
 _symmetry_equiv_pos_site_id
 _symmetry_equiv_pos_as_xyz
  1  'x, y, z'
loop_
 _atom_site_type_symbol
 _atom_site_label
 _atom_site_symmetry_multiplicity
 _atom_site_fract_x
 _atom_site_fract_y
 _atom_site_fract_z
 _atom_site_occupancy
  Ce  Ce0  1  0.10458600  0.89541400  0.00000000  1
  Ce  Ce1  1  0.89626300  0.10373700  0.50000000  1
  Ni  Ni2  1  0.31053400  0.68946600  0.00000000  1
  Sn  Sn3  1  0.74180000  0.25820000  0.00000000  1
  Sn  Sn4  1  0.24093400  0.75906600  0.50000000  1
  Sn  Sn5  1  0.45537300  0.54462700  0.00000000  1
  Sn  Sn6  1  0.56591000  0.43409000  0.50000000  1
