# generated using pymatgen
data_Bi2Te4Pb
_symmetry_space_group_name_H-M   'P 1'
_cell_length_a   14.42857345
_cell_length_b   14.42857345
_cell_length_c   14.42857363
_cell_angle_alpha   17.88386133
_cell_angle_beta   17.88386133
_cell_angle_gamma   17.88386394
_symmetry_Int_Tables_number   1
_chemical_formula_structural   Bi2Te4Pb
_chemical_formula_sum   'Bi2 Te4 Pb1'
_cell_volume   247.30864118
_cell_formula_units_Z   1
loop_
 _symmetry_equiv_pos_site_id
 _symmetry_equiv_pos_as_xyz
  1  'x, y, z'
loop_
 _atom_site_type_symbol
 _atom_site_label
 _atom_site_symmetry_multiplicity
 _atom_site_fract_x
 _atom_site_fract_y
 _atom_site_fract_z
 _atom_site_occupancy
  Bi  Bi0  1  0.42873100  0.42873100  0.42873100  1
  Bi  Bi1  1  0.99969600  0.99969600  0.99969600  1
  Te  Te2  1  0.86356600  0.86356600  0.86356600  1
  Te  Te3  1  0.13503100  0.13503100  0.13503100  1
  Te  Te4  1  0.71175700  0.71175700  0.71175700  1
  Te  Te5  1  0.29199700  0.29199700  0.29199700  1
  Pb  Pb6  1  0.56922100  0.56922100  0.56922100  1
