# generated using pymatgen
data_CaLaMn2O6
_symmetry_space_group_name_H-M   'P 1'
_cell_length_a   5.56587131
_cell_length_b   5.55841014
_cell_length_c   7.59380900
_cell_angle_alpha   90.00047937
_cell_angle_beta   90.00045566
_cell_angle_gamma   87.17310444
_symmetry_Int_Tables_number   1
_chemical_formula_structural   CaLaMn2O6
_chemical_formula_sum   'Ca2 La2 Mn4 O12'
_cell_volume   234.64678229
_cell_formula_units_Z   2
loop_
 _symmetry_equiv_pos_site_id
 _symmetry_equiv_pos_as_xyz
  1  'x, y, z'
loop_
 _atom_site_type_symbol
 _atom_site_label
 _atom_site_symmetry_multiplicity
 _atom_site_fract_x
 _atom_site_fract_y
 _atom_site_fract_z
 _atom_site_occupancy
  Ca  Ca0  1  0.46240100  0.98796800  0.74997200  1
  Ca  Ca1  1  0.53758200  0.01212200  0.24997900  1
  La  La2  1  0.96911300  0.50181000  0.74998500  1
  La  La3  1  0.03087000  0.49811200  0.24999100  1
  Mn  Mn4  1  0.50004000  0.50004600  0.00003800  1
  Mn  Mn5  1  0.00028200  0.99996300  0.00002200  1
  Mn  Mn6  1  0.49997800  0.49999100  0.50009600  1
  Mn  Mn7  1  0.00004700  0.99997700  0.49995400  1
  O  O8  1  0.02284200  0.06394700  0.74999400  1
  O  O9  1  0.97711600  0.93601100  0.24999200  1
  O  O10  1  0.50848700  0.41178300  0.75001000  1
  O  O11  1  0.49137300  0.58829900  0.25001300  1
  O  O12  1  0.71004300  0.76466700  0.54323800  1
  O  O13  1  0.28992000  0.23534200  0.04326300  1
  O  O14  1  0.28987300  0.23536400  0.45672900  1
  O  O15  1  0.71006300  0.76468900  0.95673300  1
  O  O16  1  0.78489100  0.28866600  0.46475000  1
  O  O17  1  0.21507500  0.71127200  0.96476900  1
  O  O18  1  0.21502400  0.71135900  0.53523400  1
  O  O19  1  0.78498100  0.28861100  0.03523700  1
