# generated using pymatgen
data_Na2Al2Si3(HO3)4
_symmetry_space_group_name_H-M   'P 1'
_cell_length_a   13.26703288
_cell_length_b   13.60794682
_cell_length_c   9.99035866
_cell_angle_alpha   76.25124270
_cell_angle_beta   70.90383270
_cell_angle_gamma   43.43454629
_symmetry_Int_Tables_number   1
_chemical_formula_structural   Na2Al2Si3(HO3)4
_chemical_formula_sum   'Na8 Al8 Si12 H16 O48'
_cell_volume   1171.80315936
_cell_formula_units_Z   4
loop_
 _symmetry_equiv_pos_site_id
 _symmetry_equiv_pos_as_xyz
  1  'x, y, z'
loop_
 _atom_site_type_symbol
 _atom_site_label
 _atom_site_symmetry_multiplicity
 _atom_site_fract_x
 _atom_site_fract_y
 _atom_site_fract_z
 _atom_site_occupancy
  Na  Na0  1  0.24641900  0.06409800  0.56029800  1
  Na  Na1  1  0.15621400  0.55989600  0.93594900  1
  Na  Na2  1  0.46270200  0.44164000  0.06121900  1
  Na  Na3  1  0.12116700  0.93791500  0.43556800  1
  Na  Na4  1  0.74752600  0.06247400  0.55909500  1
  Na  Na5  1  0.65148900  0.56251400  0.93833000  1
  Na  Na6  1  0.96345300  0.43915200  0.06007400  1
  Na  Na7  1  0.61858000  0.94013800  0.43923100  1
  Al  Al8  1  0.20523300  0.07618800  0.18586800  1
  Al  Al9  1  0.14860300  0.69156700  0.58295700  1
  Al  Al10  1  0.70394500  0.07800300  0.19017700  1
  Al  Al11  1  0.44321900  0.42565200  0.68675100  1
  Al  Al12  1  0.41790200  0.58078300  0.31463400  1
  Al  Al13  1  0.41201400  0.92165600  0.81328400  1
  Al  Al14  1  0.94439700  0.42314700  0.68612900  1
  Al  Al15  1  0.92092000  0.57745600  0.31231300  1
  Si  Si16  1  0.99858200  0.00043400  0.00255500  1
  Si  Si17  1  0.06566200  0.18951800  0.91867900  1
  Si  Si18  1  0.50011600  0.99994800  0.99955800  1
  Si  Si19  1  0.12329800  0.50133900  0.49913700  1
  Si  Si20  1  0.47165100  0.31145300  0.42164400  1
  Si  Si21  1  0.56636100  0.18886200  0.92444000  1
  Si  Si22  1  0.31037400  0.80742500  0.07803900  1
  Si  Si23  1  0.62663800  0.49877800  0.49786800  1
  Si  Si24  1  0.65023300  0.69037300  0.57950100  1
  Si  Si25  1  0.97337400  0.30986900  0.41944700  1
  Si  Si26  1  0.80783300  0.81131200  0.08010800  1
  Si  Si27  1  0.90897500  0.92384200  0.81723100  1
  H  H28  1  0.37402400  0.10004900  0.29100500  1
  H  H29  1  0.34712000  0.19953300  0.38605900  1
  H  H30  1  0.14788500  0.40300900  0.79008500  1
  H  H31  1  0.14640900  0.59856000  0.21102500  1
  H  H32  1  0.26978600  0.30036700  0.88324500  1
  H  H33  1  0.16635600  0.69767800  0.11552300  1
  H  H34  1  0.17295100  0.89826800  0.70914700  1
  H  H35  1  0.33790200  0.79936100  0.61365200  1
  H  H36  1  0.87419100  0.10008100  0.29118000  1
  H  H37  1  0.84721300  0.19935200  0.38606300  1
  H  H38  1  0.64760900  0.40249000  0.78992300  1
  H  H39  1  0.64592700  0.59844200  0.21015700  1
  H  H40  1  0.77041700  0.30038000  0.88295600  1
  H  H41  1  0.66440600  0.69875000  0.11481500  1
  H  H42  1  0.67160000  0.89897800  0.70942900  1
  H  H43  1  0.83992600  0.79875700  0.61283100  1
  O  O44  1  0.08937400  0.19477700  0.06595500  1
  O  O45  1  0.10656400  0.14553500  0.35925400  1
  O  O46  1  0.00437800  0.30411800  0.56719700  1
  O  O47  1  0.22485000  0.08074800  0.80381300  1
  O  O48  1  0.36615600  0.04709300  0.13868500  1
  O  O49  1  0.06360900  0.44821000  0.63652900  1
  O  O50  1  0.06192200  0.54039000  0.35854100  1
  O  O51  1  0.38141400  0.10704500  0.38302400  1
  O  O52  1  0.16629700  0.39251300  0.88368800  1
  O  O53  1  0.06921900  0.64210700  0.54571200  1
  O  O54  1  0.19482200  0.60780500  0.11652300  1
  O  O55  1  0.30941600  0.36080000  0.45216600  1
  O  O56  1  0.99023500  0.86879900  0.65618900  1
  O  O57  1  0.58990500  0.19537800  0.06957700  1
  O  O58  1  0.48220700  0.13591100  0.95135400  1
  O  O59  1  0.16216900  0.86041200  0.04131600  1
  O  O60  1  0.25393200  0.58117500  0.70966500  1
  O  O61  1  0.60473000  0.14596300  0.36256400  1
  O  O62  1  0.24565100  0.70557400  0.42777700  1
  O  O63  1  0.99011800  0.95462500  0.87000300  1
  O  O64  1  0.50601500  0.30361200  0.56837400  1
  O  O65  1  0.47105900  0.41857800  0.30521000  1
  O  O66  1  0.46268200  0.34712500  0.85764800  1
  O  O67  1  0.41101600  0.64369600  0.13629400  1
  O  O68  1  0.25095200  0.91715000  0.19239100  1
  O  O69  1  0.73264300  0.07353800  0.81375000  1
  O  O70  1  0.86508300  0.04765000  0.14039500  1
  O  O71  1  0.23436100  0.89331600  0.61746000  1
  O  O72  1  0.56395500  0.45114300  0.63686900  1
  O  O73  1  0.56200800  0.54407000  0.35914100  1
  O  O74  1  0.88096800  0.10716200  0.38350400  1
  O  O75  1  0.66705400  0.39260000  0.88265500  1
  O  O76  1  0.58164500  0.63725000  0.54469800  1
  O  O77  1  0.41480300  0.80192000  0.93117200  1
  O  O78  1  0.69699200  0.60676100  0.11699100  1
  O  O79  1  0.81114500  0.35901900  0.45175000  1
  O  O80  1  0.50572900  0.85402900  0.63932800  1
  O  O81  1  0.97981600  0.13584000  0.94817300  1
  O  O82  1  0.66329100  0.86180700  0.04319500  1
  O  O83  1  0.75211900  0.58301400  0.69609400  1
  O  O84  1  0.74611800  0.69726300  0.43256400  1
  O  O85  1  0.50191500  0.95333000  0.86384000  1
  O  O86  1  0.96894200  0.41918600  0.30316800  1
  O  O87  1  0.95164700  0.35351400  0.86041100  1
  O  O88  1  0.91028900  0.64736700  0.13620000  1
  O  O89  1  0.75206500  0.91775000  0.19439700  1
  O  O90  1  0.73463400  0.89237400  0.61767400  1
  O  O91  1  0.91105100  0.81147200  0.92994500  1
