# generated using pymatgen
data_Cs3Bi11Se18
_symmetry_space_group_name_H-M   'P 1'
_cell_length_a   12.83305593
_cell_length_b   14.06212236
_cell_length_c   23.95966775
_cell_angle_alpha   90.00000000
_cell_angle_beta   90.00000000
_cell_angle_gamma   90.00000000
_symmetry_Int_Tables_number   1
_chemical_formula_structural   Cs3Bi11Se18
_chemical_formula_sum   'Cs12 Bi44 Se72'
_cell_volume   4323.76170782
_cell_formula_units_Z   4
loop_
 _symmetry_equiv_pos_site_id
 _symmetry_equiv_pos_as_xyz
  1  'x, y, z'
loop_
 _atom_site_type_symbol
 _atom_site_label
 _atom_site_symmetry_multiplicity
 _atom_site_fract_x
 _atom_site_fract_y
 _atom_site_fract_z
 _atom_site_occupancy
  Cs  Cs0  1  0.25000000  0.54461229  0.62902709  1
  Cs  Cs1  1  0.58556535  0.53492293  0.63189101  1
  Cs  Cs2  1  0.91443465  0.53492293  0.63189101  1
  Cs  Cs3  1  0.25000000  0.95538771  0.12902709  1
  Cs  Cs4  1  0.58556535  0.96507707  0.13189101  1
  Cs  Cs5  1  0.91443465  0.96507707  0.13189101  1
  Cs  Cs6  1  0.08556535  0.46507707  0.36810899  1
  Cs  Cs7  1  0.41443465  0.46507707  0.36810899  1
  Cs  Cs8  1  0.75000000  0.45538771  0.37097291  1
  Cs  Cs9  1  0.08556535  0.03492293  0.86810899  1
  Cs  Cs10  1  0.41443465  0.03492293  0.86810899  1
  Cs  Cs11  1  0.75000000  0.04461229  0.87097291  1
  Bi  Bi12  1  0.08538627  0.66717909  0.82713650  1
  Bi  Bi13  1  0.41461373  0.66717909  0.82713650  1
  Bi  Bi14  1  0.75000000  0.66004246  0.82962073  1
  Bi  Bi15  1  0.08538627  0.83282091  0.32713650  1
  Bi  Bi16  1  0.41461373  0.83282091  0.32713650  1
  Bi  Bi17  1  0.75000000  0.83995754  0.32962073  1
  Bi  Bi18  1  0.25000000  0.33995754  0.17037927  1
  Bi  Bi19  1  0.58538627  0.33282091  0.17286350  1
  Bi  Bi20  1  0.91461373  0.33282091  0.17286350  1
  Bi  Bi21  1  0.25000000  0.16004246  0.67037927  1
  Bi  Bi22  1  0.58538627  0.16717909  0.67286350  1
  Bi  Bi23  1  0.91461373  0.16717909  0.67286350  1
  Bi  Bi24  1  0.08084736  0.27406904  0.52956737  1
  Bi  Bi25  1  0.41915264  0.27406904  0.52956737  1
  Bi  Bi26  1  0.75000000  0.26390112  0.52530269  1
  Bi  Bi27  1  0.08084736  0.22593096  0.02956737  1
  Bi  Bi28  1  0.41915264  0.22593096  0.02956737  1
  Bi  Bi29  1  0.75000000  0.23609888  0.02530269  1
  Bi  Bi30  1  0.25000000  0.73609888  0.47469731  1
  Bi  Bi31  1  0.58084736  0.72593096  0.47043263  1
  Bi  Bi32  1  0.91915264  0.72593096  0.47043263  1
  Bi  Bi33  1  0.25000000  0.76390112  0.97469731  1
  Bi  Bi34  1  0.58084736  0.77406904  0.97043263  1
  Bi  Bi35  1  0.91915264  0.77406904  0.97043263  1
  Bi  Bi36  1  0.09196813  0.95044077  0.57778559  1
  Bi  Bi37  1  0.40803187  0.95044077  0.57778559  1
  Bi  Bi38  1  0.75000000  0.96688064  0.57671392  1
  Bi  Bi39  1  0.09196813  0.54955923  0.07778559  1
  Bi  Bi40  1  0.40803187  0.54955923  0.07778559  1
  Bi  Bi41  1  0.75000000  0.53311936  0.07671392  1
  Bi  Bi42  1  0.25000000  0.03311936  0.42328608  1
  Bi  Bi43  1  0.59196813  0.04955923  0.42221441  1
  Bi  Bi44  1  0.90803187  0.04955923  0.42221441  1
  Bi  Bi45  1  0.25000000  0.46688064  0.92328608  1
  Bi  Bi46  1  0.59196813  0.45044077  0.92221441  1
  Bi  Bi47  1  0.90803187  0.45044077  0.92221441  1
  Bi  Bi48  1  0.56997604  0.84016396  0.71167087  1
  Bi  Bi49  1  0.93002396  0.84016396  0.71167087  1
  Bi  Bi50  1  0.56997604  0.65983604  0.21167087  1
  Bi  Bi51  1  0.93002396  0.65983604  0.21167087  1
  Bi  Bi52  1  0.06997604  0.15983604  0.28832913  1
  Bi  Bi53  1  0.43002396  0.15983604  0.28832913  1
  Bi  Bi54  1  0.06997604  0.34016396  0.78832913  1
  Bi  Bi55  1  0.43002396  0.34016396  0.78832913  1
  Se  Se56  1  0.25000000  0.81512288  0.59605304  1
  Se  Se57  1  0.58504221  0.82078929  0.59739885  1
  Se  Se58  1  0.91495779  0.82078929  0.59739885  1
  Se  Se59  1  0.25000000  0.68487712  0.09605304  1
  Se  Se60  1  0.58504221  0.67921071  0.09739885  1
  Se  Se61  1  0.91495779  0.67921071  0.09739885  1
  Se  Se62  1  0.08504221  0.17921071  0.40260115  1
  Se  Se63  1  0.41495779  0.17921071  0.40260115  1
  Se  Se64  1  0.75000000  0.18487712  0.40394696  1
  Se  Se65  1  0.08504221  0.32078929  0.90260115  1
  Se  Se66  1  0.41495779  0.32078929  0.90260115  1
  Se  Se67  1  0.75000000  0.31512288  0.90394696  1
  Se  Se68  1  0.08373991  0.70954096  0.71303644  1
  Se  Se69  1  0.41626009  0.70954096  0.71303644  1
  Se  Se70  1  0.75000000  0.71494587  0.71497837  1
  Se  Se71  1  0.08373991  0.79045904  0.21303644  1
  Se  Se72  1  0.41626009  0.79045904  0.21303644  1
  Se  Se73  1  0.75000000  0.78505413  0.21497837  1
  Se  Se74  1  0.25000000  0.28505413  0.28502163  1
  Se  Se75  1  0.58373991  0.29045904  0.28696356  1
  Se  Se76  1  0.91626009  0.29045904  0.28696356  1
  Se  Se77  1  0.25000000  0.21494587  0.78502163  1
  Se  Se78  1  0.58373991  0.20954096  0.78696356  1
  Se  Se79  1  0.91626009  0.20954096  0.78696356  1
  Se  Se80  1  0.25000000  0.80531798  0.85665470  1
  Se  Se81  1  0.58798631  0.80557973  0.85221112  1
  Se  Se82  1  0.91201369  0.80557973  0.85221112  1
  Se  Se83  1  0.25000000  0.69468202  0.35665470  1
  Se  Se84  1  0.58798631  0.69442027  0.35221112  1
  Se  Se85  1  0.91201369  0.69442027  0.35221112  1
  Se  Se86  1  0.08798631  0.19442027  0.14778888  1
  Se  Se87  1  0.41201369  0.19442027  0.14778888  1
  Se  Se88  1  0.75000000  0.19468202  0.14334530  1
  Se  Se89  1  0.08798631  0.30557973  0.64778888  1
  Se  Se90  1  0.41201369  0.30557973  0.64778888  1
  Se  Se91  1  0.75000000  0.30531798  0.64334530  1
  Se  Se92  1  0.25000000  0.10019821  0.54724028  1
  Se  Se93  1  0.58364144  0.10401194  0.54757409  1
  Se  Se94  1  0.91635856  0.10401194  0.54757409  1
  Se  Se95  1  0.25000000  0.39980179  0.04724028  1
  Se  Se96  1  0.58364144  0.39598806  0.04757409  1
  Se  Se97  1  0.91635856  0.39598806  0.04757409  1
  Se  Se98  1  0.08364144  0.89598806  0.45242591  1
  Se  Se99  1  0.41635856  0.89598806  0.45242591  1
  Se  Se100  1  0.75000000  0.89980179  0.45275972  1
  Se  Se101  1  0.08364144  0.60401194  0.95242591  1
  Se  Se102  1  0.41635856  0.60401194  0.95242591  1
  Se  Se103  1  0.75000000  0.60019821  0.95275972  1
  Se  Se104  1  0.08081387  0.60882481  0.49827755  1
  Se  Se105  1  0.41918613  0.60882481  0.49827755  1
  Se  Se106  1  0.75000000  0.60817131  0.49750925  1
  Se  Se107  1  0.08081387  0.89117519  0.99827755  1
  Se  Se108  1  0.41918613  0.89117519  0.99827755  1
  Se  Se109  1  0.75000000  0.89182869  0.99750925  1
  Se  Se110  1  0.25000000  0.39182869  0.50249075  1
  Se  Se111  1  0.58081387  0.39117519  0.50172245  1
  Se  Se112  1  0.91918613  0.39117519  0.50172245  1
  Se  Se113  1  0.25000000  0.10817131  0.00249075  1
  Se  Se114  1  0.58081387  0.10882481  0.00172245  1
  Se  Se115  1  0.91918613  0.10882481  0.00172245  1
  Se  Se116  1  0.07848729  0.01660748  0.69128331  1
  Se  Se117  1  0.42151271  0.01660748  0.69128331  1
  Se  Se118  1  0.75000000  0.01991373  0.69278609  1
  Se  Se119  1  0.07848729  0.48339252  0.19128331  1
  Se  Se120  1  0.42151271  0.48339252  0.19128331  1
  Se  Se121  1  0.75000000  0.48008627  0.19278609  1
  Se  Se122  1  0.25000000  0.98008627  0.30721391  1
  Se  Se123  1  0.57848729  0.98339252  0.30871669  1
  Se  Se124  1  0.92151271  0.98339252  0.30871669  1
  Se  Se125  1  0.25000000  0.51991373  0.80721391  1
  Se  Se126  1  0.57848729  0.51660748  0.80871669  1
  Se  Se127  1  0.92151271  0.51660748  0.80871669  1
