# generated using pymatgen
data_Ca10Ge6F
_symmetry_space_group_name_H-M   'P 1'
_cell_length_a   9.18390799
_cell_length_b   9.18390799
_cell_length_c   9.18390799
_cell_angle_alpha   130.25500706
_cell_angle_beta   130.25500706
_cell_angle_gamma   72.99942202
_symmetry_Int_Tables_number   1
_chemical_formula_structural   Ca10Ge6F
_chemical_formula_sum   'Ca10 Ge6 F1'
_cell_volume   440.61795015
_cell_formula_units_Z   1
loop_
 _symmetry_equiv_pos_site_id
 _symmetry_equiv_pos_as_xyz
  1  'x, y, z'
loop_
 _atom_site_type_symbol
 _atom_site_label
 _atom_site_symmetry_multiplicity
 _atom_site_fract_x
 _atom_site_fract_y
 _atom_site_fract_z
 _atom_site_occupancy
  Ca  Ca0  1  0.25000000  0.75000000  0.50000000  1
  Ca  Ca1  1  0.75000000  0.25000000  0.50000000  1
  Ca  Ca2  1  0.76777900  0.43495800  0.00000000  1
  Ca  Ca3  1  0.43495800  0.76777900  0.00000000  1
  Ca  Ca4  1  0.93254700  0.93254700  0.64982800  1
  Ca  Ca5  1  0.28271800  0.28271800  0.35017200  1
  Ca  Ca6  1  0.71728200  0.06745300  0.00000000  1
  Ca  Ca7  1  0.06745300  0.71728200  0.00000000  1
  Ca  Ca8  1  0.56504200  0.56504200  0.33282100  1
  Ca  Ca9  1  0.23222100  0.23222100  0.66717900  1
  Ge  Ge10  1  0.00000000  0.50000000  0.50000000  1
  Ge  Ge11  1  0.50000000  0.00000000  0.50000000  1
  Ge  Ge12  1  0.12955400  0.36656600  0.00000000  1
  Ge  Ge13  1  0.36656600  0.12955400  0.00000000  1
  Ge  Ge14  1  0.87044600  0.87044600  0.23701200  1
  Ge  Ge15  1  0.63343400  0.63343400  0.76298800  1
  F  F16  1  0.50000000  0.50000000  0.00000000  1
