# generated using pymatgen
data_Ca2MgAl2(SiO4)3
_symmetry_space_group_name_H-M   'P 1'
_cell_length_a   5.35191200
_cell_length_b   6.59067452
_cell_length_c   6.60128021
_cell_angle_alpha   84.25569278
_cell_angle_beta   78.12657898
_cell_angle_gamma   77.44864286
_symmetry_Int_Tables_number   1
_chemical_formula_structural   Ca2MgAl2(SiO4)3
_chemical_formula_sum   'Ca2 Mg1 Al2 Si3 O12'
_cell_volume   222.04357991
_cell_formula_units_Z   1
loop_
 _symmetry_equiv_pos_site_id
 _symmetry_equiv_pos_as_xyz
  1  'x, y, z'
loop_
 _atom_site_type_symbol
 _atom_site_label
 _atom_site_symmetry_multiplicity
 _atom_site_fract_x
 _atom_site_fract_y
 _atom_site_fract_z
 _atom_site_occupancy
  Ca  Ca0  1  0.25409200  0.69225700  0.29755400  1
  Ca  Ca1  1  0.75623600  0.30025800  0.68856000  1
  Mg  Mg2  1  0.74527400  0.90881800  0.09129400  1
  Al  Al3  1  0.27925300  0.18788300  0.38508900  1
  Al  Al4  1  0.24678000  0.09282900  0.91157400  1
  Si  Si5  1  0.22622400  0.61735100  0.80687900  1
  Si  Si6  1  0.72062900  0.80709200  0.62181100  1
  Si  Si7  1  0.78014100  0.38279900  0.19660700  1
  O  O8  1  0.52305600  0.33571700  0.36992400  1
  O  O9  1  0.98968200  0.63482000  0.67158500  1
  O  O10  1  0.49275300  0.66372600  0.63400800  1
  O  O11  1  0.00066300  0.38268800  0.33894200  1
  O  O12  1  0.35121700  0.02560000  0.17623200  1
  O  O13  1  0.14410200  0.80209500  0.96867200  1
  O  O14  1  0.61895100  0.97871600  0.79885500  1
  O  O15  1  0.88335600  0.20004600  0.02614800  1
  O  O16  1  0.17794300  0.10612300  0.64393100  1
  O  O17  1  0.31535500  0.37724800  0.88799000  1
  O  O18  1  0.81106500  0.89134900  0.38844900  1
  O  O19  1  0.68322800  0.61258600  0.09589600  1
