# generated using pymatgen
data_Ca2MnSbO6
_symmetry_space_group_name_H-M   'P 1'
_cell_length_a   5.55584450
_cell_length_b   11.42187900
_cell_length_c   7.64275064
_cell_angle_alpha   90.00032693
_cell_angle_beta   90.73907639
_cell_angle_gamma   89.99954637
_symmetry_Int_Tables_number   1
_chemical_formula_structural   Ca2MnSbO6
_chemical_formula_sum   'Ca8 Mn4 Sb4 O24'
_cell_volume   484.95472431
_cell_formula_units_Z   4
loop_
 _symmetry_equiv_pos_site_id
 _symmetry_equiv_pos_as_xyz
  1  'x, y, z'
loop_
 _atom_site_type_symbol
 _atom_site_label
 _atom_site_symmetry_multiplicity
 _atom_site_fract_x
 _atom_site_fract_y
 _atom_site_fract_z
 _atom_site_occupancy
  Ca  Ca0  1  0.50989600  0.27569200  0.24898600  1
  Ca  Ca1  1  0.50984100  0.77566800  0.24890900  1
  Ca  Ca2  1  0.99002700  0.02579300  0.25110900  1
  Ca  Ca3  1  0.98994200  0.52577200  0.25102100  1
  Ca  Ca4  1  0.48998200  0.22422500  0.75098900  1
  Ca  Ca5  1  0.48996300  0.72420500  0.75109000  1
  Ca  Ca6  1  0.00984000  0.47431500  0.74898600  1
  Ca  Ca7  1  0.00992100  0.97432100  0.74896000  1
  Mn  Mn8  1  0.00024500  0.75019000  0.00009100  1
  Mn  Mn9  1  0.50001600  0.49994800  0.50003800  1
  Mn  Mn10  1  0.00005600  0.25000800  0.99977100  1
  Mn  Mn11  1  0.50031600  0.99985400  0.49997700  1
  Sb  Sb12  1  0.00001500  0.25001300  0.49991200  1
  Sb  Sb13  1  0.99997900  0.75002300  0.50000800  1
  Sb  Sb14  1  0.50000700  0.99995800  0.00008300  1
  Sb  Sb15  1  0.49998600  0.49996500  0.99996800  1
  O  O16  1  0.79141900  0.40261400  0.04887900  1
  O  O17  1  0.79151100  0.90260700  0.04891700  1
  O  O18  1  0.70861400  0.15253600  0.45115000  1
  O  O19  1  0.70859800  0.65257700  0.45111500  1
  O  O20  1  0.20862800  0.09742000  0.95110800  1
  O  O21  1  0.20864300  0.59746900  0.95112300  1
  O  O22  1  0.29141200  0.34741100  0.54888300  1
  O  O23  1  0.29145000  0.84736800  0.54894900  1
  O  O24  1  0.19362000  0.10487600  0.54803300  1
  O  O25  1  0.19354600  0.60490300  0.54799900  1
  O  O26  1  0.30648400  0.35485100  0.95196100  1
  O  O27  1  0.30650200  0.85484700  0.95195400  1
  O  O28  1  0.80648000  0.39517700  0.45199500  1
  O  O29  1  0.80656500  0.89514500  0.45199900  1
  O  O30  1  0.69356300  0.14511700  0.04798400  1
  O  O31  1  0.69354000  0.64511300  0.04797900  1
  O  O32  1  0.40537200  0.48354400  0.25625500  1
  O  O33  1  0.40547100  0.98346300  0.25637700  1
  O  O34  1  0.09444100  0.23332400  0.24366100  1
  O  O35  1  0.09441500  0.73337100  0.24374400  1
  O  O36  1  0.59450300  0.01664200  0.74378100  1
  O  O37  1  0.59438800  0.51667400  0.74370000  1
  O  O38  1  0.90540500  0.26648700  0.75625600  1
  O  O39  1  0.90540000  0.76651300  0.75630000  1
