# generated using pymatgen
data_BaSrMgSi2O7
_symmetry_space_group_name_H-M   'P 1'
_cell_length_a   8.21702500
_cell_length_b   5.34452200
_cell_length_c   8.20722521
_cell_angle_alpha   88.98325545
_cell_angle_beta   90.00000000
_cell_angle_gamma   90.00000000
_symmetry_Int_Tables_number   1
_chemical_formula_structural   BaSrMgSi2O7
_chemical_formula_sum   'Ba2 Sr2 Mg2 Si4 O14'
_cell_volume   360.37233532
_cell_formula_units_Z   2
loop_
 _symmetry_equiv_pos_site_id
 _symmetry_equiv_pos_as_xyz
  1  'x, y, z'
loop_
 _atom_site_type_symbol
 _atom_site_label
 _atom_site_symmetry_multiplicity
 _atom_site_fract_x
 _atom_site_fract_y
 _atom_site_fract_z
 _atom_site_occupancy
  Ba  Ba0  1  0.16479900  0.48766600  0.08716700  1
  Ba  Ba1  1  0.66479900  0.51233400  0.91283300  1
  Sr  Sr2  1  0.83103000  0.49449000  0.41758600  1
  Sr  Sr3  1  0.33103000  0.50551000  0.58241400  1
  Mg  Mg4  1  0.50130200  0.99913500  0.25253300  1
  Mg  Mg5  1  0.00130200  0.00086500  0.74746700  1
  Si  Si6  1  0.63768400  0.05446900  0.60198300  1
  Si  Si7  1  0.13768400  0.94553100  0.39801700  1
  Si  Si8  1  0.36226600  0.04534600  0.87707700  1
  Si  Si9  1  0.86226600  0.95465400  0.12292300  1
  O  O10  1  0.99894400  0.84779900  0.26104000  1
  O  O11  1  0.49894400  0.15220100  0.73896000  1
  O  O12  1  0.57989400  0.20490800  0.43455900  1
  O  O13  1  0.07989400  0.79509200  0.56544100  1
  O  O14  1  0.42265100  0.16778400  0.04993600  1
  O  O15  1  0.92265100  0.83221600  0.95006400  1
  O  O16  1  0.69432000  0.80983700  0.18064300  1
  O  O17  1  0.19432000  0.19016300  0.81935700  1
  O  O18  1  0.30895600  0.81464100  0.33805700  1
  O  O19  1  0.80895600  0.18535900  0.66194300  1
  O  O20  1  0.63964200  0.75156800  0.59576400  1
  O  O21  1  0.13964200  0.24843200  0.40423600  1
  O  O22  1  0.35851100  0.74270300  0.87474600  1
  O  O23  1  0.85851100  0.25729700  0.12525400  1
