# generated using pymatgen
data_Ca2La2MgTi3O12
_symmetry_space_group_name_H-M   'P 1'
_cell_length_a   5.52575300
_cell_length_b   5.56496273
_cell_length_c   7.82857184
_cell_angle_alpha   89.94409457
_cell_angle_beta   89.95780709
_cell_angle_gamma   89.90447546
_symmetry_Int_Tables_number   1
_chemical_formula_structural   Ca2La2MgTi3O12
_chemical_formula_sum   'Ca2 La2 Mg1 Ti3 O12'
_cell_volume   240.73284162
_cell_formula_units_Z   1
loop_
 _symmetry_equiv_pos_site_id
 _symmetry_equiv_pos_as_xyz
  1  'x, y, z'
loop_
 _atom_site_type_symbol
 _atom_site_label
 _atom_site_symmetry_multiplicity
 _atom_site_fract_x
 _atom_site_fract_y
 _atom_site_fract_z
 _atom_site_occupancy
  Ca  Ca0  1  0.49427800  0.53150800  0.75814900  1
  Ca  Ca1  1  0.98931500  0.96419100  0.24176500  1
  La  La2  1  0.00998900  0.03269300  0.76170900  1
  La  La3  1  0.50362400  0.47588100  0.23880000  1
  Mg  Mg4  1  0.00007100  0.50123100  0.99979300  1
  Ti  Ti5  1  0.50144900  0.00041600  0.49911500  1
  Ti  Ti6  1  0.00071000  0.50267800  0.50136300  1
  Ti  Ti7  1  0.50037200  0.99939000  0.00055500  1
  O  O8  1  0.57480500  0.98242600  0.74607700  1
  O  O9  1  0.91984500  0.48267200  0.73885300  1
  O  O10  1  0.41836300  0.01299400  0.25395200  1
  O  O11  1  0.07557800  0.51784100  0.26055700  1
  O  O12  1  0.22504800  0.79026400  0.96209800  1
  O  O13  1  0.28557300  0.28142600  0.54271400  1
  O  O14  1  0.78068200  0.21373700  0.45669300  1
  O  O15  1  0.70901800  0.72236700  0.03793700  1
  O  O16  1  0.77804000  0.20609900  0.04083500  1
  O  O17  1  0.71738000  0.72070000  0.45918500  1
  O  O18  1  0.22103900  0.78303200  0.54140600  1
  O  O19  1  0.29482200  0.27845400  0.95844300  1
