# generated using pymatgen
data_Na12Mg5Al2Si29O72
_symmetry_space_group_name_H-M   'P 1'
_cell_length_a   5.34409678
_cell_length_b   8.71760600
_cell_length_c   27.93063075
_cell_angle_alpha   90.00000000
_cell_angle_beta   104.12927271
_cell_angle_gamma   90.00000000
_symmetry_Int_Tables_number   1
_chemical_formula_structural   Na12Mg5Al2Si29O72
_chemical_formula_sum   'Na12 Mg5 Al2 Si29 O72'
_cell_volume   1261.85929112
_cell_formula_units_Z   1
loop_
 _symmetry_equiv_pos_site_id
 _symmetry_equiv_pos_as_xyz
  1  'x, y, z'
loop_
 _atom_site_type_symbol
 _atom_site_label
 _atom_site_symmetry_multiplicity
 _atom_site_fract_x
 _atom_site_fract_y
 _atom_site_fract_z
 _atom_site_occupancy
  Na  Na0  1  0.00000000  0.54011100  0.75000000  1
  Na  Na1  1  0.00015300  0.53804200  0.41668800  1
  Na  Na2  1  0.49735000  0.04463500  0.91617200  1
  Na  Na3  1  0.50000000  0.95701400  0.75000000  1
  Na  Na4  1  0.99984700  0.53804200  0.08331200  1
  Na  Na5  1  0.50265000  0.04463500  0.58382800  1
  Na  Na6  1  0.49981200  0.95411100  0.41670900  1
  Na  Na7  1  0.00303000  0.46055800  0.91755300  1
  Na  Na8  1  0.50000000  0.04579100  0.25000000  1
  Na  Na9  1  0.50018800  0.95411100  0.08329100  1
  Na  Na10  1  0.99697000  0.46055800  0.58244700  1
  Na  Na11  1  0.00000000  0.46184100  0.25000000  1
  Mg  Mg12  1  0.50086200  0.65400600  0.91723100  1
  Mg  Mg13  1  0.49913800  0.65400600  0.58276900  1
  Mg  Mg14  1  0.49983400  0.34617900  0.41664400  1
  Mg  Mg15  1  0.50000000  0.65368800  0.25000000  1
  Mg  Mg16  1  0.50016600  0.34617900  0.08335600  1
  Al  Al17  1  0.00000000  0.15483200  0.75000000  1
  Al  Al18  1  0.50000000  0.34692900  0.75000000  1
  Si  Si19  1  0.18507100  0.15074600  0.98500800  1
  Si  Si20  1  0.18463200  0.84561500  0.81895800  1
  Si  Si21  1  0.30593000  0.33674700  0.84649700  1
  Si  Si22  1  0.00005400  0.15288700  0.41673900  1
  Si  Si23  1  0.19046100  0.15410300  0.65161100  1
  Si  Si24  1  0.30211600  0.66249500  0.68005400  1
  Si  Si25  1  0.18482900  0.84855400  0.48523600  1
  Si  Si26  1  0.29798800  0.33290400  0.51262700  1
  Si  Si27  1  0.99994600  0.15288700  0.08326100  1
  Si  Si28  1  0.18473100  0.15126900  0.31831400  1
  Si  Si29  1  0.70201200  0.33290400  0.98737300  1
  Si  Si30  1  0.29808300  0.66658400  0.34590000  1
  Si  Si31  1  0.18459500  0.84865700  0.15159500  1
  Si  Si32  1  0.69788400  0.66249500  0.81994600  1
  Si  Si33  1  0.29801300  0.33338900  0.17921700  1
  Si  Si34  1  0.80953900  0.15410300  0.84838900  1
  Si  Si35  1  0.69407000  0.33674700  0.65350300  1
  Si  Si36  1  0.29754700  0.66636400  0.01266200  1
  Si  Si37  1  0.81536800  0.84561500  0.68104200  1
  Si  Si38  1  0.00043300  0.84591600  0.91633600  1
  Si  Si39  1  0.70245300  0.66636400  0.48733800  1
  Si  Si40  1  0.81492900  0.15074600  0.51499200  1
  Si  Si41  1  0.70198700  0.33338900  0.32078300  1
  Si  Si42  1  0.81540500  0.84865700  0.34840500  1
  Si  Si43  1  0.99956700  0.84591600  0.58366400  1
  Si  Si44  1  0.70191700  0.66658400  0.15410000  1
  Si  Si45  1  0.81526900  0.15126900  0.18168600  1
  Si  Si46  1  0.81517100  0.84855400  0.01476400  1
  Si  Si47  1  0.00000000  0.84703300  0.25000000  1
  O  O48  1  0.08786100  0.24069400  0.86840600  1
  O  O49  1  0.17889200  0.98427300  0.95821700  1
  O  O50  1  0.19687100  0.69226200  0.95228400  1
  O  O51  1  0.08865700  0.75427500  0.70394200  1
  O  O52  1  0.24017100  0.83858700  0.87993600  1
  O  O53  1  0.17907500  0.01339300  0.79525000  1
  O  O54  1  0.23356500  0.32010100  0.78541700  1
  O  O55  1  0.31011400  0.50607900  0.86763900  1
  O  O56  1  0.42374900  0.23991600  0.96932200  1
  O  O57  1  0.08970000  0.23773900  0.53750600  1
  O  O58  1  0.26683800  0.17142300  0.71225600  1
  O  O59  1  0.17929300  0.98432800  0.62606800  1
  O  O60  1  0.20184100  0.68815500  0.61955600  1
  O  O61  1  0.32227000  0.49196900  0.70352800  1
  O  O62  1  0.42065600  0.75400500  0.80215800  1
  O  O63  1  0.09107400  0.76220000  0.37101800  1
  O  O64  1  0.24044100  0.84238600  0.54634400  1
  O  O65  1  0.17990300  0.01532900  0.45875500  1
  O  O66  1  0.19921500  0.30631400  0.45210600  1
  O  O67  1  0.30977400  0.50360800  0.53274300  1
  O  O68  1  0.41955700  0.24327700  0.63228300  1
  O  O69  1  0.58044300  0.24327700  0.86771700  1
  O  O70  1  0.09084400  0.23781100  0.20431100  1
  O  O71  1  0.24041000  0.15655700  0.37923800  1
  O  O72  1  0.69022600  0.50360800  0.96725700  1
  O  O73  1  0.17972000  0.98452000  0.29180800  1
  O  O74  1  0.19911000  0.69318600  0.28541200  1
  O  O75  1  0.31056100  0.49623000  0.36643200  1
  O  O76  1  0.75955900  0.84238600  0.95365600  1
  O  O77  1  0.42469400  0.76004200  0.46977900  1
  O  O78  1  0.57934400  0.75400500  0.69784200  1
  O  O79  1  0.09057800  0.76234300  0.03768600  1
  O  O80  1  0.24034000  0.84327200  0.21251200  1
  O  O81  1  0.67773000  0.49196900  0.79647200  1
  O  O82  1  0.17947300  0.01539900  0.12506500  1
  O  O83  1  0.19904100  0.30676500  0.11872100  1
  O  O84  1  0.79815900  0.68815500  0.88044400  1
  O  O85  1  0.82070700  0.98432800  0.87393200  1
  O  O86  1  0.31066900  0.50370000  0.19976000  1
  O  O87  1  0.73316200  0.17142300  0.78774400  1
  O  O88  1  0.91030000  0.23773900  0.96249400  1
  O  O89  1  0.42422200  0.24008400  0.30280300  1
  O  O90  1  0.57625100  0.23991600  0.53067800  1
  O  O91  1  0.24075300  0.15635200  0.04590000  1
  O  O92  1  0.68988600  0.50607900  0.63236100  1
  O  O93  1  0.76643500  0.32010100  0.71458300  1
  O  O94  1  0.82092500  0.01339300  0.70475000  1
  O  O95  1  0.31084900  0.49620800  0.03328600  1
  O  O96  1  0.75982900  0.83858700  0.62006400  1
  O  O97  1  0.91134300  0.75427500  0.79605800  1
  O  O98  1  0.42413800  0.75983700  0.13609500  1
  O  O99  1  0.57586200  0.75983700  0.36390500  1
  O  O100  1  0.68915100  0.49620800  0.46671400  1
  O  O101  1  0.80312900  0.69226200  0.54771600  1
  O  O102  1  0.82110800  0.98427300  0.54178300  1
  O  O103  1  0.75924700  0.15635200  0.45410000  1
  O  O104  1  0.91213900  0.24069400  0.63159400  1
  O  O105  1  0.57577800  0.24008400  0.19719700  1
  O  O106  1  0.68933100  0.50370000  0.30024000  1
  O  O107  1  0.80095900  0.30676500  0.38127900  1
  O  O108  1  0.82052700  0.01539900  0.37493500  1
  O  O109  1  0.75966000  0.84327200  0.28748800  1
  O  O110  1  0.90942200  0.76234300  0.46231400  1
  O  O111  1  0.57530600  0.76004200  0.03022100  1
  O  O112  1  0.68943900  0.49623000  0.13356800  1
  O  O113  1  0.80089000  0.69318600  0.21458800  1
  O  O114  1  0.82028000  0.98452000  0.20819200  1
  O  O115  1  0.75959000  0.15655700  0.12076200  1
  O  O116  1  0.90915600  0.23781100  0.29568900  1
  O  O117  1  0.80078500  0.30631400  0.04789400  1
  O  O118  1  0.82009700  0.01532900  0.04124500  1
  O  O119  1  0.90892600  0.76220000  0.12898200  1
