# generated using pymatgen
data_Ca2Pr2MnNiO8
_symmetry_space_group_name_H-M   'P 1'
_cell_length_a   6.65747115
_cell_length_b   6.65747115
_cell_length_c   5.44967519
_cell_angle_alpha   89.98610902
_cell_angle_beta   89.98610902
_cell_angle_gamma   47.95112123
_symmetry_Int_Tables_number   1
_chemical_formula_structural   Ca2Pr2MnNiO8
_chemical_formula_sum   'Ca2 Pr2 Mn1 Ni1 O8'
_cell_volume   179.36130981
_cell_formula_units_Z   1
loop_
 _symmetry_equiv_pos_site_id
 _symmetry_equiv_pos_as_xyz
  1  'x, y, z'
loop_
 _atom_site_type_symbol
 _atom_site_label
 _atom_site_symmetry_multiplicity
 _atom_site_fract_x
 _atom_site_fract_y
 _atom_site_fract_z
 _atom_site_occupancy
  Ca  Ca0  1  0.14400200  0.14400200  0.49445400  1
  Ca  Ca1  1  0.35670600  0.35670600  0.98748300  1
  Pr  Pr2  1  0.63780000  0.63780000  0.00969300  1
  Pr  Pr3  1  0.86191700  0.86191700  0.50375900  1
  Mn  Mn4  1  0.00158700  0.00158700  0.00065200  1
  Ni  Ni5  1  0.49835900  0.49835900  0.50117500  1
  O  O6  1  0.75820400  0.25044600  0.75819300  1
  O  O7  1  0.75022200  0.24220500  0.24297700  1
  O  O8  1  0.24220500  0.75022200  0.24297700  1
  O  O9  1  0.25044600  0.75820400  0.75819300  1
  O  O10  1  0.32711600  0.32711600  0.51930800  1
  O  O11  1  0.83298800  0.83298800  0.98786300  1
  O  O12  1  0.67386500  0.67386500  0.47945000  1
  O  O13  1  0.16458400  0.16458400  0.01382400  1
