# generated using pymatgen
data_CaLa2Mn3O9
_symmetry_space_group_name_H-M   'P 1'
_cell_length_a   5.55609400
_cell_length_b   7.74046700
_cell_length_c   16.62937500
_cell_angle_alpha   90.00000000
_cell_angle_beta   90.00000000
_cell_angle_gamma   90.00000000
_symmetry_Int_Tables_number   1
_chemical_formula_structural   CaLa2Mn3O9
_chemical_formula_sum   'Ca4 La8 Mn12 O36'
_cell_volume   715.17557709
_cell_formula_units_Z   4
loop_
 _symmetry_equiv_pos_site_id
 _symmetry_equiv_pos_as_xyz
  1  'x, y, z'
loop_
 _atom_site_type_symbol
 _atom_site_label
 _atom_site_symmetry_multiplicity
 _atom_site_fract_x
 _atom_site_fract_y
 _atom_site_fract_z
 _atom_site_occupancy
  Ca  Ca0  1  0.00731000  0.75000000  0.34255300  1
  Ca  Ca1  1  0.49269000  0.75000000  0.84255300  1
  Ca  Ca2  1  0.99269000  0.25000000  0.65744700  1
  Ca  Ca3  1  0.50731000  0.25000000  0.15744700  1
  La  La4  1  0.00320900  0.75000000  0.00589200  1
  La  La5  1  0.00665700  0.75000000  0.67615900  1
  La  La6  1  0.49334300  0.75000000  0.17615900  1
  La  La7  1  0.49679100  0.75000000  0.50589200  1
  La  La8  1  0.99334300  0.25000000  0.32384100  1
  La  La9  1  0.99679100  0.25000000  0.99410800  1
  La  La10  1  0.50320900  0.25000000  0.49410800  1
  La  La11  1  0.50665700  0.25000000  0.82384100  1
  Mn  Mn12  1  0.49948500  0.50094300  0.33254500  1
  Mn  Mn13  1  0.50000000  0.50000000  0.00000000  1
  Mn  Mn14  1  0.50051500  0.49905700  0.66745500  1
  Mn  Mn15  1  0.99948500  0.00094300  0.16745500  1
  Mn  Mn16  1  0.00051500  0.99905700  0.83254500  1
  Mn  Mn17  1  0.00000000  0.00000000  0.50000000  1
  Mn  Mn18  1  0.49948500  0.99905700  0.33254500  1
  Mn  Mn19  1  0.50000000  0.00000000  0.00000000  1
  Mn  Mn20  1  0.50051500  0.00094300  0.66745500  1
  Mn  Mn21  1  0.00000000  0.50000000  0.50000000  1
  Mn  Mn22  1  0.99948500  0.49905700  0.16745500  1
  Mn  Mn23  1  0.00051500  0.50094300  0.83254500  1
  O  O24  1  0.71943400  0.45937000  0.23940300  1
  O  O25  1  0.72805800  0.46104600  0.90820300  1
  O  O26  1  0.72174700  0.46674500  0.57355400  1
  O  O27  1  0.77194200  0.03895400  0.40820300  1
  O  O28  1  0.77825300  0.03325500  0.07355400  1
  O  O29  1  0.78056600  0.04063000  0.73940300  1
  O  O30  1  0.27825300  0.96674500  0.42644600  1
  O  O31  1  0.27194200  0.96104600  0.09179700  1
  O  O32  1  0.28056600  0.95937000  0.76059700  1
  O  O33  1  0.21943400  0.54063000  0.26059700  1
  O  O34  1  0.22174700  0.53325500  0.92644600  1
  O  O35  1  0.22805800  0.53895400  0.59179700  1
  O  O36  1  0.27825300  0.53325500  0.42644600  1
  O  O37  1  0.27194200  0.53895400  0.09179700  1
  O  O38  1  0.28056600  0.54063000  0.76059700  1
  O  O39  1  0.21943400  0.95937000  0.26059700  1
  O  O40  1  0.22174700  0.96674500  0.92644600  1
  O  O41  1  0.22805800  0.96104600  0.59179700  1
  O  O42  1  0.71943400  0.04063000  0.23940300  1
  O  O43  1  0.72805800  0.03895400  0.90820300  1
  O  O44  1  0.72174700  0.03325500  0.57355400  1
  O  O45  1  0.77194200  0.46104600  0.40820300  1
  O  O46  1  0.77825300  0.46674500  0.07355400  1
  O  O47  1  0.78056600  0.45937000  0.73940300  1
  O  O48  1  0.93320000  0.75000000  0.49722900  1
  O  O49  1  0.92931300  0.75000000  0.16046000  1
  O  O50  1  0.92196600  0.75000000  0.82929600  1
  O  O51  1  0.57803400  0.75000000  0.32929600  1
  O  O52  1  0.56680000  0.75000000  0.99722900  1
  O  O53  1  0.57068700  0.75000000  0.66046000  1
  O  O54  1  0.07803400  0.25000000  0.17070400  1
  O  O55  1  0.07068700  0.25000000  0.83954000  1
  O  O56  1  0.06680000  0.25000000  0.50277100  1
  O  O57  1  0.42931300  0.25000000  0.33954000  1
  O  O58  1  0.43320000  0.25000000  0.00277100  1
  O  O59  1  0.42196600  0.25000000  0.67070400  1
