# generated using pymatgen
data_BaSrY4O8
_symmetry_space_group_name_H-M   'P 1'
_cell_length_a   3.46597100
_cell_length_b   10.34116800
_cell_length_c   12.14261900
_cell_angle_alpha   90.00000000
_cell_angle_beta   90.00000000
_cell_angle_gamma   90.00000000
_symmetry_Int_Tables_number   1
_chemical_formula_structural   BaSrY4O8
_chemical_formula_sum   'Ba2 Sr2 Y8 O16'
_cell_volume   435.21803780
_cell_formula_units_Z   2
loop_
 _symmetry_equiv_pos_site_id
 _symmetry_equiv_pos_as_xyz
  1  'x, y, z'
loop_
 _atom_site_type_symbol
 _atom_site_label
 _atom_site_symmetry_multiplicity
 _atom_site_fract_x
 _atom_site_fract_y
 _atom_site_fract_z
 _atom_site_occupancy
  Ba  Ba0  1  0.75000000  0.74674200  0.14915200  1
  Ba  Ba1  1  0.75000000  0.24674200  0.35084800  1
  Sr  Sr2  1  0.25000000  0.25379100  0.85170700  1
  Sr  Sr3  1  0.25000000  0.75379100  0.64829300  1
  Y  Y4  1  0.75000000  0.07691900  0.61297900  1
  Y  Y5  1  0.75000000  0.57691900  0.88702100  1
  Y  Y6  1  0.25000000  0.92063300  0.39342100  1
  Y  Y7  1  0.25000000  0.42063300  0.10657900  1
  Y  Y8  1  0.75000000  0.07591000  0.10774100  1
  Y  Y9  1  0.75000000  0.57591000  0.39225900  1
  Y  Y10  1  0.25000000  0.92699200  0.88477400  1
  Y  Y11  1  0.25000000  0.42699200  0.61522600  1
  O  O12  1  0.75000000  0.29013000  0.67083100  1
  O  O13  1  0.75000000  0.79013000  0.82916900  1
  O  O14  1  0.25000000  0.70970500  0.33783900  1
  O  O15  1  0.25000000  0.20970500  0.16216100  1
  O  O16  1  0.75000000  0.98092900  0.28406700  1
  O  O17  1  0.75000000  0.48092900  0.21593300  1
  O  O18  1  0.25000000  0.01657100  0.71691600  1
  O  O19  1  0.25000000  0.51657100  0.78308400  1
  O  O20  1  0.75000000  0.37610400  0.97600300  1
  O  O21  1  0.75000000  0.87610400  0.52399700  1
  O  O22  1  0.25000000  0.61644000  0.01556100  1
  O  O23  1  0.25000000  0.11644000  0.48443900  1
  O  O24  1  0.75000000  0.07839900  0.92059800  1
  O  O25  1  0.75000000  0.57839900  0.57940200  1
  O  O26  1  0.25000000  0.93073300  0.07128500  1
  O  O27  1  0.25000000  0.43073300  0.42871500  1
