# generated using pymatgen
data_Ca2Be2P2O9F
_symmetry_space_group_name_H-M   'P 1'
_cell_length_a   7.77280400
_cell_length_b   4.86649500
_cell_length_c   9.78981710
_cell_angle_alpha   89.67028671
_cell_angle_beta   90.00000000
_cell_angle_gamma   90.00000000
_symmetry_Int_Tables_number   1
_chemical_formula_structural   Ca2Be2P2O9F
_chemical_formula_sum   'Ca4 Be4 P4 O18 F2'
_cell_volume   370.30654246
_cell_formula_units_Z   2
loop_
 _symmetry_equiv_pos_site_id
 _symmetry_equiv_pos_as_xyz
  1  'x, y, z'
loop_
 _atom_site_type_symbol
 _atom_site_label
 _atom_site_symmetry_multiplicity
 _atom_site_fract_x
 _atom_site_fract_y
 _atom_site_fract_z
 _atom_site_occupancy
  Ca  Ca0  1  0.63707300  0.99598700  0.16869700  1
  Ca  Ca1  1  0.13409600  0.00189300  0.32965600  1
  Ca  Ca2  1  0.86590400  0.00189300  0.82965600  1
  Ca  Ca3  1  0.36292700  0.99598700  0.66869700  1
  Be  Be4  1  0.33475700  0.54124300  0.16035400  1
  Be  Be5  1  0.83613100  0.45978500  0.33851500  1
  Be  Be6  1  0.16386900  0.45978500  0.83851500  1
  Be  Be7  1  0.66524300  0.54124300  0.66035400  1
  P  P8  1  0.48062400  0.47133800  0.41703100  1
  P  P9  1  0.97923600  0.53021800  0.08142800  1
  P  P10  1  0.02076400  0.53021800  0.58142800  1
  P  P11  1  0.51937600  0.47133800  0.91703100  1
  O  O12  1  0.46889800  0.64852900  0.04254500  1
  O  O13  1  0.96761700  0.35423100  0.45606100  1
  O  O14  1  0.03238300  0.35423100  0.95606100  1
  O  O15  1  0.53110200  0.64852900  0.54254500  1
  O  O16  1  0.64508300  0.33720100  0.35541000  1
  O  O17  1  0.14207400  0.66672000  0.14524400  1
  O  O18  1  0.85792600  0.66672000  0.64524400  1
  O  O19  1  0.35491700  0.33720100  0.85541000  1
  O  O20  1  0.40492200  0.67097400  0.30615400  1
  O  O21  1  0.90416400  0.32835900  0.19212500  1
  O  O22  1  0.09583600  0.32835900  0.69212500  1
  O  O23  1  0.59507800  0.67097400  0.80615400  1
  O  O24  1  0.35345100  0.24308100  0.45615700  1
  O  O25  1  0.85165800  0.75482100  0.03977800  1
  O  O26  1  0.14834200  0.75482100  0.53977800  1
  O  O27  1  0.64654900  0.24308100  0.95615700  1
  O  O28  1  0.34564200  0.21207300  0.18326600  1
  O  O29  1  0.65435800  0.21207300  0.68326600  1
  F  F30  1  0.83935900  0.78354600  0.32757900  1
  F  F31  1  0.16064100  0.78354600  0.82757900  1
