# generated using pymatgen
data_CaZrNbFeO7
_symmetry_space_group_name_H-M   'P 1'
_cell_length_a   7.38783900
_cell_length_b   7.41397494
_cell_length_c   11.59668426
_cell_angle_alpha   81.32952060
_cell_angle_beta   81.02552128
_cell_angle_gamma   61.08102357
_symmetry_Int_Tables_number   1
_chemical_formula_structural   CaZrNbFeO7
_chemical_formula_sum   'Ca4 Zr4 Nb4 Fe4 O28'
_cell_volume   547.08885652
_cell_formula_units_Z   4
loop_
 _symmetry_equiv_pos_site_id
 _symmetry_equiv_pos_as_xyz
  1  'x, y, z'
loop_
 _atom_site_type_symbol
 _atom_site_label
 _atom_site_symmetry_multiplicity
 _atom_site_fract_x
 _atom_site_fract_y
 _atom_site_fract_z
 _atom_site_occupancy
  Ca  Ca0  1  0.25251500  0.50270800  0.99795500  1
  Ca  Ca1  1  0.49773200  0.74658900  0.49734900  1
  Ca  Ca2  1  0.74748500  0.49729200  0.00204500  1
  Ca  Ca3  1  0.50226800  0.25341100  0.50265100  1
  Zr  Zr4  1  0.98981000  0.23612200  0.52872500  1
  Zr  Zr5  1  0.76292500  0.00892200  0.97332500  1
  Zr  Zr6  1  0.01019000  0.76387800  0.47127500  1
  Zr  Zr7  1  0.23707500  0.99107800  0.02667500  1
  Nb  Nb8  1  0.11182400  0.38507700  0.75458800  1
  Nb  Nb9  1  0.61970100  0.89169200  0.74377900  1
  Nb  Nb10  1  0.88817600  0.61492300  0.24541200  1
  Nb  Nb11  1  0.38029900  0.10830800  0.25622100  1
  Fe  Fe12  1  0.86425600  0.13401700  0.25110700  1
  Fe  Fe13  1  0.13574400  0.86598300  0.74889300  1
  Fe  Fe14  1  0.43023700  0.53262800  0.24635600  1
  Fe  Fe15  1  0.56976300  0.46737200  0.75364400  1
  O  O16  1  0.52850900  0.89120200  0.91470700  1
  O  O17  1  0.10803100  0.47654900  0.58526700  1
  O  O18  1  0.47149100  0.10879800  0.08529300  1
  O  O19  1  0.89196900  0.52345100  0.41473300  1
  O  O20  1  0.24930000  0.54963800  0.78114000  1
  O  O21  1  0.44154900  0.76897300  0.71446700  1
  O  O22  1  0.75070000  0.45036200  0.21886000  1
  O  O23  1  0.55845100  0.23102700  0.28553300  1
  O  O24  1  0.06120600  0.16589100  0.70759100  1
  O  O25  1  0.83977500  0.93170500  0.79279300  1
  O  O26  1  0.93879400  0.83410900  0.29240900  1
  O  O27  1  0.16022500  0.06829500  0.20720700  1
  O  O28  1  0.33188800  0.60554500  0.40108100  1
  O  O29  1  0.39110600  0.67205500  0.09495900  1
  O  O30  1  0.66811200  0.39445500  0.59891900  1
  O  O31  1  0.60889400  0.32794500  0.90504100  1
  O  O32  1  0.88135100  0.12219600  0.07846600  1
  O  O33  1  0.87598300  0.11863900  0.42348800  1
  O  O34  1  0.11864900  0.87780400  0.92153400  1
  O  O35  1  0.12401700  0.88136100  0.57651200  1
  O  O36  1  0.12481400  0.28940100  0.92925000  1
  O  O37  1  0.71554800  0.87210200  0.56984200  1
  O  O38  1  0.87518600  0.71059900  0.07075000  1
  O  O39  1  0.28445200  0.12789800  0.43015800  1
  O  O40  1  0.18774500  0.44058600  0.21426200  1
  O  O41  1  0.57602400  0.82979200  0.28972100  1
  O  O42  1  0.81225500  0.55941400  0.78573800  1
  O  O43  1  0.42397600  0.17020800  0.71027900  1
