# generated using pymatgen
data_Ca6AlCr3(SiO4)6
_symmetry_space_group_name_H-M   'P 1'
_cell_length_a   10.47035866
_cell_length_b   10.47035866
_cell_length_c   12.10744863
_cell_angle_alpha   54.86218503
_cell_angle_beta   54.86218503
_cell_angle_gamma   70.65123976
_symmetry_Int_Tables_number   1
_chemical_formula_structural   Ca6AlCr3(SiO4)6
_chemical_formula_sum   'Ca12 Al2 Cr6 Si12 O48'
_cell_volume   887.64260664
_cell_formula_units_Z   2
loop_
 _symmetry_equiv_pos_site_id
 _symmetry_equiv_pos_as_xyz
  1  'x, y, z'
loop_
 _atom_site_type_symbol
 _atom_site_label
 _atom_site_symmetry_multiplicity
 _atom_site_fract_x
 _atom_site_fract_y
 _atom_site_fract_z
 _atom_site_occupancy
  Ca  Ca0  1  0.62503000  0.37497000  0.75000000  1
  Ca  Ca1  1  0.87543000  0.12457000  0.25000000  1
  Ca  Ca2  1  0.75025400  0.74978600  0.62518200  1
  Ca  Ca3  1  0.25021400  0.24974600  0.87481800  1
  Ca  Ca4  1  0.62519800  0.12521900  0.62500500  1
  Ca  Ca5  1  0.87478100  0.37480200  0.87499500  1
  Ca  Ca6  1  0.37497000  0.62503000  0.25000000  1
  Ca  Ca7  1  0.12457000  0.87543000  0.75000000  1
  Ca  Ca8  1  0.24974600  0.25021400  0.37481800  1
  Ca  Ca9  1  0.74978600  0.75025400  0.12518200  1
  Ca  Ca10  1  0.37480200  0.87478100  0.37499500  1
  Ca  Ca11  1  0.12521900  0.62519800  0.12500500  1
  Al  Al12  1  0.00000000  0.50000000  0.50000000  1
  Al  Al13  1  0.50000000  0.00000000  0.00000000  1
  Cr  Cr14  1  0.50000000  0.00000000  0.50000000  1
  Cr  Cr15  1  0.00000000  0.50000000  0.00000000  1
  Cr  Cr16  1  0.50000000  0.50000000  0.00000000  1
  Cr  Cr17  1  0.00000000  0.00000000  0.50000000  1
  Cr  Cr18  1  0.50000000  0.50000000  0.50000000  1
  Cr  Cr19  1  0.00000000  0.00000000  0.00000000  1
  Si  Si20  1  0.37468400  0.62531600  0.75000000  1
  Si  Si21  1  0.12693800  0.87306200  0.25000000  1
  Si  Si22  1  0.74785800  0.75202600  0.87618300  1
  Si  Si23  1  0.24797400  0.25214200  0.62381700  1
  Si  Si24  1  0.87646100  0.37579700  0.37564800  1
  Si  Si25  1  0.62420300  0.12353900  0.12435200  1
  Si  Si26  1  0.62531600  0.37468400  0.25000000  1
  Si  Si27  1  0.87306200  0.12693800  0.75000000  1
  Si  Si28  1  0.25214200  0.24797400  0.12381700  1
  Si  Si29  1  0.75202600  0.74785800  0.37618300  1
  Si  Si30  1  0.12353900  0.62420300  0.62435200  1
  Si  Si31  1  0.37579700  0.87646100  0.87564800  1
  O  O32  1  0.31082400  0.88620200  0.19669400  1
  O  O33  1  0.11379800  0.68917600  0.30330600  1
  O  O34  1  0.19421700  0.61633500  0.89296300  1
  O  O35  1  0.38366500  0.80578300  0.60703700  1
  O  O36  1  0.19634900  0.39484800  0.49238900  1
  O  O37  1  0.29635800  0.10810500  0.58637700  1
  O  O38  1  0.89189500  0.70364200  0.91362300  1
  O  O39  1  0.60515200  0.80365100  0.00761100  1
  O  O40  1  0.49130100  0.08658800  0.30512800  1
  O  O41  1  0.58337400  0.99195500  0.11299700  1
  O  O42  1  0.91341200  0.50869900  0.19487200  1
  O  O43  1  0.00804500  0.41662600  0.38700300  1
  O  O44  1  0.68917600  0.11379800  0.80330600  1
  O  O45  1  0.88620200  0.31082400  0.69669400  1
  O  O46  1  0.80578300  0.38366500  0.10703700  1
  O  O47  1  0.61633500  0.19421700  0.39296300  1
  O  O48  1  0.80365100  0.60515200  0.50761100  1
  O  O49  1  0.70364200  0.89189500  0.41362300  1
  O  O50  1  0.10810500  0.29635800  0.08637700  1
  O  O51  1  0.39484800  0.19634900  0.99238900  1
  O  O52  1  0.50869900  0.91341200  0.69487200  1
  O  O53  1  0.41662600  0.00804500  0.88700300  1
  O  O54  1  0.08658800  0.49130100  0.80512800  1
  O  O55  1  0.99195500  0.58337400  0.61299700  1
  O  O56  1  0.79634100  0.89316300  0.69441700  1
  O  O57  1  0.70286200  0.60755800  0.88444500  1
  O  O58  1  0.10683700  0.20365900  0.80558300  1
  O  O59  1  0.39244200  0.29713800  0.61555500  1
  O  O60  1  0.50963400  0.58723300  0.79647100  1
  O  O61  1  0.41276700  0.49036600  0.70352900  1
  O  O62  1  0.08765200  0.00764500  0.10770300  1
  O  O63  1  0.99235500  0.91234800  0.39229700  1
  O  O64  1  0.69440800  0.38388100  0.50935700  1
  O  O65  1  0.88449900  0.19487700  0.41275200  1
  O  O66  1  0.80512300  0.11550100  0.08724800  1
  O  O67  1  0.61611900  0.30559200  0.99064300  1
  O  O68  1  0.20365900  0.10683700  0.30558300  1
  O  O69  1  0.29713800  0.39244200  0.11555500  1
  O  O70  1  0.89316300  0.79634100  0.19441700  1
  O  O71  1  0.60755800  0.70286200  0.38444500  1
  O  O72  1  0.49036600  0.41276700  0.20352900  1
  O  O73  1  0.58723300  0.50963400  0.29647100  1
  O  O74  1  0.91234800  0.99235500  0.89229700  1
  O  O75  1  0.00764500  0.08765200  0.60770300  1
  O  O76  1  0.30559200  0.61611900  0.49064300  1
  O  O77  1  0.11550100  0.80512300  0.58724800  1
  O  O78  1  0.19487700  0.88449900  0.91275200  1
  O  O79  1  0.38388100  0.69440800  0.00935700  1
