# generated using pymatgen
data_Ca2AlH10ClO8
_symmetry_space_group_name_H-M   'P 1'
_cell_length_a   5.73608926
_cell_length_b   5.73608926
_cell_length_c   16.30490973
_cell_angle_alpha   79.73397966
_cell_angle_beta   79.73397966
_cell_angle_gamma   60.69057204
_symmetry_Int_Tables_number   1
_chemical_formula_structural   Ca2AlH10ClO8
_chemical_formula_sum   'Ca4 Al2 H20 Cl2 O16'
_cell_volume   457.71708975
_cell_formula_units_Z   2
loop_
 _symmetry_equiv_pos_site_id
 _symmetry_equiv_pos_as_xyz
  1  'x, y, z'
loop_
 _atom_site_type_symbol
 _atom_site_label
 _atom_site_symmetry_multiplicity
 _atom_site_fract_x
 _atom_site_fract_y
 _atom_site_fract_z
 _atom_site_occupancy
  Ca  Ca0  1  0.84765400  0.34512500  0.46154500  1
  Ca  Ca1  1  0.34512500  0.84765400  0.96154500  1
  Ca  Ca2  1  0.15359600  0.65428800  0.53844100  1
  Ca  Ca3  1  0.65428800  0.15359600  0.03844100  1
  Al  Al4  1  0.50100300  0.99971500  0.49999500  1
  Al  Al5  1  0.99971500  0.50100300  0.99999500  1
  H  H6  1  0.40058600  0.38073200  0.38118700  1
  H  H7  1  0.88503300  0.83897400  0.38192100  1
  H  H8  1  0.33035900  0.90348800  0.38153900  1
  H  H9  1  0.38073200  0.40058600  0.88118700  1
  H  H10  1  0.90348800  0.33035900  0.88153900  1
  H  H11  1  0.83897400  0.88503300  0.88192100  1
  H  H12  1  0.59633800  0.61546500  0.61869200  1
  H  H13  1  0.11852900  0.16244600  0.61902700  1
  H  H14  1  0.66143200  0.10528800  0.61765100  1
  H  H15  1  0.61546500  0.59633800  0.11869200  1
  H  H16  1  0.10528800  0.66143200  0.11765100  1
  H  H17  1  0.16244600  0.11852900  0.11902700  1
  H  H18  1  0.72390100  0.49012600  0.27786100  1
  H  H19  1  0.99344100  0.50402200  0.27780400  1
  H  H20  1  0.50402200  0.99344100  0.77780400  1
  H  H21  1  0.49012600  0.72390100  0.77786100  1
  H  H22  1  0.99647900  0.77418800  0.72207500  1
  H  H23  1  0.00918800  0.49153100  0.72230700  1
  H  H24  1  0.77418800  0.99647900  0.22207500  1
  H  H25  1  0.49153100  0.00918800  0.22230700  1
  Cl  Cl26  1  0.24737400  0.74991500  0.25000600  1
  Cl  Cl27  1  0.74991500  0.24737400  0.75000600  1
  O  O28  1  0.46628600  0.33015100  0.43600900  1
  O  O29  1  0.83009600  0.76998600  0.43656200  1
  O  O30  1  0.26762500  0.96631200  0.43683000  1
  O  O31  1  0.33015100  0.46628600  0.93600900  1
  O  O32  1  0.96631200  0.26762500  0.93683000  1
  O  O33  1  0.76998600  0.83009600  0.93656200  1
  O  O34  1  0.53470300  0.66978700  0.56324000  1
  O  O35  1  0.17175600  0.23055200  0.56396100  1
  O  O36  1  0.73197400  0.03569100  0.56339000  1
  O  O37  1  0.66978700  0.53470300  0.06324000  1
  O  O38  1  0.03569100  0.73197400  0.06339000  1
  O  O39  1  0.23055200  0.17175600  0.06396100  1
  O  O40  1  0.89079200  0.40962600  0.30453400  1
  O  O41  1  0.40962600  0.89079200  0.80453400  1
  O  O42  1  0.09009600  0.60636200  0.69542100  1
  O  O43  1  0.60636200  0.09009600  0.19542100  1
