# generated using pymatgen
data_CaEr2(GeO3)4
_symmetry_space_group_name_H-M   'P 1'
_cell_length_a   10.07394602
_cell_length_b   10.07394602
_cell_length_c   5.07966300
_cell_angle_alpha   90.00000000
_cell_angle_beta   90.00000000
_cell_angle_gamma   90.01295787
_symmetry_Int_Tables_number   1
_chemical_formula_structural   CaEr2(GeO3)4
_chemical_formula_sum   'Ca2 Er4 Ge8 O24'
_cell_volume   515.50647994
_cell_formula_units_Z   2
loop_
 _symmetry_equiv_pos_site_id
 _symmetry_equiv_pos_as_xyz
  1  'x, y, z'
loop_
 _atom_site_type_symbol
 _atom_site_label
 _atom_site_symmetry_multiplicity
 _atom_site_fract_x
 _atom_site_fract_y
 _atom_site_fract_z
 _atom_site_occupancy
  Ca  Ca0  1  0.50000000  0.00000000  0.50000000  1
  Ca  Ca1  1  0.00000000  0.50000000  0.50000000  1
  Er  Er2  1  0.50000000  0.50000000  0.50000000  1
  Er  Er3  1  0.00000000  0.00000000  0.50000000  1
  Er  Er4  1  0.25000000  0.25000000  0.50000000  1
  Er  Er5  1  0.75000000  0.75000000  0.50000000  1
  Ge  Ge6  1  0.97984100  0.25047000  0.99847400  1
  Ge  Ge7  1  0.02015900  0.74953000  0.00152600  1
  Ge  Ge8  1  0.47984100  0.75047000  0.00152600  1
  Ge  Ge9  1  0.52015900  0.24953000  0.99847400  1
  Ge  Ge10  1  0.24953000  0.52015900  0.00152600  1
  Ge  Ge11  1  0.75047000  0.47984100  0.99847400  1
  Ge  Ge12  1  0.74953000  0.02015900  0.99847400  1
  Ge  Ge13  1  0.25047000  0.97984100  0.00152600  1
  O  O14  1  0.32274300  0.06866500  0.25400500  1
  O  O15  1  0.67162600  0.55927100  0.26022400  1
  O  O16  1  0.82837400  0.94072900  0.26022400  1
  O  O17  1  0.17725700  0.43133500  0.25400500  1
  O  O18  1  0.67725700  0.93133500  0.74599500  1
  O  O19  1  0.32837400  0.44072900  0.73977600  1
  O  O20  1  0.17162600  0.05927100  0.73977600  1
  O  O21  1  0.82274300  0.56866500  0.74599500  1
  O  O22  1  0.43133500  0.17725700  0.74599500  1
  O  O23  1  0.94072900  0.82837400  0.73977600  1
  O  O24  1  0.55927100  0.67162600  0.73977600  1
  O  O25  1  0.06866500  0.32274300  0.74599500  1
  O  O26  1  0.56866500  0.82274300  0.25400500  1
  O  O27  1  0.05927100  0.17162600  0.26022400  1
  O  O28  1  0.44072900  0.32837400  0.26022400  1
  O  O29  1  0.93133500  0.67725700  0.25400500  1
  O  O30  1  0.87043400  0.37043400  0.15588800  1
  O  O31  1  0.12419500  0.87580500  0.16532600  1
  O  O32  1  0.37580500  0.62419500  0.16532600  1
  O  O33  1  0.62956600  0.12956600  0.15588800  1
  O  O34  1  0.12956600  0.62956600  0.84411200  1
  O  O35  1  0.87580500  0.12419500  0.83467400  1
  O  O36  1  0.62419500  0.37580500  0.83467400  1
  O  O37  1  0.37043400  0.87043400  0.84411200  1
