# generated using pymatgen
data_CaLaMn2O6
_symmetry_space_group_name_H-M   'P 1'
_cell_length_a   7.67318100
_cell_length_b   5.52695800
_cell_length_c   11.05800924
_cell_angle_alpha   89.62946118
_cell_angle_beta   90.00000000
_cell_angle_gamma   90.00000000
_symmetry_Int_Tables_number   1
_chemical_formula_structural   CaLaMn2O6
_chemical_formula_sum   'Ca4 La4 Mn8 O24'
_cell_volume   468.95316762
_cell_formula_units_Z   4
loop_
 _symmetry_equiv_pos_site_id
 _symmetry_equiv_pos_as_xyz
  1  'x, y, z'
loop_
 _atom_site_type_symbol
 _atom_site_label
 _atom_site_symmetry_multiplicity
 _atom_site_fract_x
 _atom_site_fract_y
 _atom_site_fract_z
 _atom_site_occupancy
  Ca  Ca0  1  0.00000000  0.01257300  0.98269600  1
  Ca  Ca1  1  0.50000000  0.99101300  0.51850700  1
  Ca  Ca2  1  0.00000000  0.48173100  0.73661700  1
  Ca  Ca3  1  0.50000000  0.52124700  0.26869100  1
  La  La4  1  0.50000000  0.99465000  0.01133600  1
  La  La5  1  0.50000000  0.49376300  0.75791600  1
  La  La6  1  0.00000000  0.50314300  0.23528500  1
  La  La7  1  0.00000000  0.00252200  0.48981100  1
  Mn  Mn8  1  0.75507100  0.99201500  0.74975400  1
  Mn  Mn9  1  0.25557700  0.00830900  0.25132100  1
  Mn  Mn10  1  0.74442300  0.00830900  0.25132100  1
  Mn  Mn11  1  0.24492900  0.99201500  0.74975400  1
  Mn  Mn12  1  0.74649900  0.50039900  0.49947100  1
  Mn  Mn13  1  0.25350100  0.50039900  0.49947100  1
  Mn  Mn14  1  0.75329000  0.49920400  0.99941500  1
  Mn  Mn15  1  0.24671000  0.49920400  0.99941500  1
  O  O16  1  0.00000000  0.90908700  0.75598100  1
  O  O17  1  0.50000000  0.09582000  0.23598300  1
  O  O18  1  0.21324500  0.21458800  0.61525300  1
  O  O19  1  0.71028000  0.79231700  0.38884300  1
  O  O20  1  0.28972000  0.79231700  0.38884300  1
  O  O21  1  0.78675500  0.21458800  0.61525300  1
  O  O22  1  0.78463800  0.26318400  0.86039200  1
  O  O23  1  0.28949500  0.73481000  0.14232100  1
  O  O24  1  0.71050500  0.73481000  0.14232100  1
  O  O25  1  0.21536200  0.26318400  0.86039200  1
  O  O26  1  0.50000000  0.05686000  0.74431600  1
  O  O27  1  0.00000000  0.93883000  0.26238200  1
  O  O28  1  0.70572500  0.76501300  0.88625900  1
  O  O29  1  0.20405000  0.22855600  0.10976200  1
  O  O30  1  0.79595000  0.22855600  0.10976200  1
  O  O31  1  0.29427500  0.76501300  0.88625900  1
  O  O32  1  0.00000000  0.56602700  0.50241900  1
  O  O33  1  0.50000000  0.41945400  0.49676500  1
  O  O34  1  0.50000000  0.42931500  0.99433200  1
  O  O35  1  0.00000000  0.58586500  0.00579600  1
  O  O36  1  0.28547700  0.71508000  0.63693000  1
  O  O37  1  0.78897400  0.28557400  0.36086100  1
  O  O38  1  0.21102600  0.28557400  0.36086100  1
  O  O39  1  0.71452300  0.71508000  0.63693000  1
