# generated using pymatgen
data_BaSrYb4O8
_symmetry_space_group_name_H-M   'P 1'
_cell_length_a   3.49784300
_cell_length_b   10.08495000
_cell_length_c   12.04739500
_cell_angle_alpha   90.00000000
_cell_angle_beta   90.00000000
_cell_angle_gamma   90.00000000
_symmetry_Int_Tables_number   1
_chemical_formula_structural   BaSrYb4O8
_chemical_formula_sum   'Ba2 Sr2 Yb8 O16'
_cell_volume   424.97874688
_cell_formula_units_Z   2
loop_
 _symmetry_equiv_pos_site_id
 _symmetry_equiv_pos_as_xyz
  1  'x, y, z'
loop_
 _atom_site_type_symbol
 _atom_site_label
 _atom_site_symmetry_multiplicity
 _atom_site_fract_x
 _atom_site_fract_y
 _atom_site_fract_z
 _atom_site_occupancy
  Ba  Ba0  1  0.75000000  0.74705100  0.15463200  1
  Ba  Ba1  1  0.75000000  0.24705100  0.34536800  1
  Sr  Sr2  1  0.25000000  0.25396300  0.84125700  1
  Sr  Sr3  1  0.25000000  0.75396300  0.65874300  1
  Yb  Yb4  1  0.75000000  0.08103200  0.10278100  1
  Yb  Yb5  1  0.75000000  0.58103200  0.39721900  1
  Yb  Yb6  1  0.25000000  0.92366000  0.88986400  1
  Yb  Yb7  1  0.25000000  0.42366000  0.61013600  1
  Yb  Yb8  1  0.75000000  0.07700000  0.61258900  1
  Yb  Yb9  1  0.75000000  0.57700000  0.88741100  1
  Yb  Yb10  1  0.25000000  0.91944900  0.39647200  1
  Yb  Yb11  1  0.25000000  0.41944900  0.10352800  1
  O  O12  1  0.75000000  0.08307500  0.91270600  1
  O  O13  1  0.75000000  0.58307500  0.58729400  1
  O  O14  1  0.25000000  0.92919100  0.07549800  1
  O  O15  1  0.25000000  0.42919100  0.42450200  1
  O  O16  1  0.75000000  0.37204000  0.97404500  1
  O  O17  1  0.75000000  0.87204000  0.52595500  1
  O  O18  1  0.25000000  0.61799500  0.01488900  1
  O  O19  1  0.25000000  0.11799500  0.48511100  1
  O  O20  1  0.75000000  0.28758300  0.67810400  1
  O  O21  1  0.75000000  0.78758300  0.82189600  1
  O  O22  1  0.25000000  0.71279500  0.33302600  1
  O  O23  1  0.25000000  0.21279500  0.16697400  1
  O  O24  1  0.75000000  0.98310700  0.27766000  1
  O  O25  1  0.75000000  0.48310700  0.22234000  1
  O  O26  1  0.25000000  0.01206100  0.72145900  1
  O  O27  1  0.25000000  0.51206100  0.77854100  1
