# generated using pymatgen
data_Ca8Al9Fe3Si12(HO13)4
_symmetry_space_group_name_H-M   'P 1'
_cell_length_a   5.69442100
_cell_length_b   8.99338600
_cell_length_c   18.59195259
_cell_angle_alpha   89.59233938
_cell_angle_beta   90.00000000
_cell_angle_gamma   90.00000000
_symmetry_Int_Tables_number   1
_chemical_formula_structural   Ca8Al9Fe3Si12(HO13)4
_chemical_formula_sum   'Ca8 Al9 Fe3 Si12 H4 O52'
_cell_volume   952.10932056
_cell_formula_units_Z   1
loop_
 _symmetry_equiv_pos_site_id
 _symmetry_equiv_pos_as_xyz
  1  'x, y, z'
loop_
 _atom_site_type_symbol
 _atom_site_label
 _atom_site_symmetry_multiplicity
 _atom_site_fract_x
 _atom_site_fract_y
 _atom_site_fract_z
 _atom_site_occupancy
  Ca  Ca0  1  0.00000000  0.89585500  0.70975100  1
  Ca  Ca1  1  0.00000000  0.39454900  0.21054200  1
  Ca  Ca2  1  0.50000000  0.60502800  0.79015800  1
  Ca  Ca3  1  0.50000000  0.10528600  0.28989100  1
  Ca  Ca4  1  0.00000000  0.18125500  0.57684400  1
  Ca  Ca5  1  0.00000000  0.68168700  0.07690800  1
  Ca  Ca6  1  0.50000000  0.31818500  0.92327000  1
  Ca  Ca7  1  0.50000000  0.81833300  0.42422800  1
  Al  Al8  1  0.74945700  0.24925600  0.74957800  1
  Al  Al9  1  0.74990700  0.75002500  0.25015300  1
  Al  Al10  1  0.25054300  0.24925600  0.74957800  1
  Al  Al11  1  0.25009300  0.75002500  0.25015300  1
  Al  Al12  1  0.74947100  0.50282300  0.50103100  1
  Al  Al13  1  0.75007900  0.00006700  0.00007300  1
  Al  Al14  1  0.24992100  0.00006700  0.00007300  1
  Al  Al15  1  0.25052900  0.50282300  0.50103100  1
  Al  Al16  1  0.50000000  0.67638000  0.61457900  1
  Fe  Fe17  1  0.50000000  0.18103900  0.11182900  1
  Fe  Fe18  1  0.00000000  0.81887300  0.88833500  1
  Fe  Fe19  1  0.00000000  0.31991600  0.38877900  1
  Si  Si20  1  0.00000000  0.52657800  0.65816400  1
  Si  Si21  1  0.00000000  0.02432300  0.15947700  1
  Si  Si22  1  0.50000000  0.97570600  0.84061200  1
  Si  Si23  1  0.50000000  0.47565300  0.34096900  1
  Si  Si24  1  0.00000000  0.81472100  0.52359600  1
  Si  Si25  1  0.00000000  0.31447900  0.02298800  1
  Si  Si26  1  0.50000000  0.68561100  0.97702200  1
  Si  Si27  1  0.50000000  0.18585600  0.47726600  1
  Si  Si28  1  0.50000000  0.04118000  0.63655500  1
  Si  Si29  1  0.50000000  0.54856500  0.13753400  1
  Si  Si30  1  0.00000000  0.45125200  0.86233500  1
  Si  Si31  1  0.00000000  0.95156100  0.36268900  1
  H  H32  1  0.50000000  0.39320400  0.66341300  1
  H  H33  1  0.50000000  0.89272100  0.16360300  1
  H  H34  1  0.00000000  0.10760700  0.83613100  1
  H  H35  1  0.00000000  0.60725800  0.33638800  1
  O  O36  1  0.50000000  0.49684500  0.56640700  1
  O  O37  1  0.50000000  0.98581100  0.06411200  1
  O  O38  1  0.00000000  0.01414100  0.93577000  1
  O  O39  1  0.00000000  0.51496400  0.43643600  1
  O  O40  1  0.76379600  0.62677100  0.67511100  1
  O  O41  1  0.76878500  0.12582200  0.17873200  1
  O  O42  1  0.26901200  0.87404500  0.82098800  1
  O  O43  1  0.26873200  0.37434600  0.32133200  1
  O  O44  1  0.73098800  0.87404500  0.82098800  1
  O  O45  1  0.73126800  0.37434600  0.32133200  1
  O  O46  1  0.23620400  0.62677100  0.67511100  1
  O  O47  1  0.23121500  0.12582200  0.17873200  1
  O  O48  1  0.00000000  0.46885400  0.57256200  1
  O  O49  1  0.00000000  0.96944900  0.07296000  1
  O  O50  1  0.50000000  0.03048500  0.92701000  1
  O  O51  1  0.50000000  0.53062900  0.42755300  1
  O  O52  1  0.50000000  0.36802800  0.71507600  1
  O  O53  1  0.50000000  0.86844800  0.21531100  1
  O  O54  1  0.00000000  0.13195800  0.78439600  1
  O  O55  1  0.00000000  0.63140200  0.28465200  1
  O  O56  1  0.50000000  0.86358400  0.64800900  1
  O  O57  1  0.50000000  0.37290900  0.15380900  1
  O  O58  1  0.00000000  0.62703700  0.84564500  1
  O  O59  1  0.00000000  0.12748000  0.34648600  1
  O  O60  1  0.00000000  0.92640000  0.58922000  1
  O  O61  1  0.00000000  0.42478400  0.08915000  1
  O  O62  1  0.50000000  0.57537200  0.91074800  1
  O  O63  1  0.50000000  0.07581500  0.41093300  1
  O  O64  1  0.00000000  0.36464500  0.70279200  1
  O  O65  1  0.00000000  0.86230400  0.20293400  1
  O  O66  1  0.50000000  0.13779100  0.79721700  1
  O  O67  1  0.50000000  0.63738600  0.29711500  1
  O  O68  1  0.75433600  0.71387700  0.52109400  1
  O  O69  1  0.75549300  0.21238100  0.01931300  1
  O  O70  1  0.25534700  0.78759300  0.98047700  1
  O  O71  1  0.25729400  0.28930200  0.48173800  1
  O  O72  1  0.74465300  0.78759300  0.98047700  1
  O  O73  1  0.74270600  0.28930200  0.48173800  1
  O  O74  1  0.24566400  0.71387700  0.52109400  1
  O  O75  1  0.24450700  0.21238100  0.01931300  1
  O  O76  1  0.73482300  0.12007000  0.67077100  1
  O  O77  1  0.73714200  0.62553100  0.17015000  1
  O  O78  1  0.23731000  0.37446300  0.82964100  1
  O  O79  1  0.23716500  0.87467700  0.32985700  1
  O  O80  1  0.76269000  0.37446300  0.82964100  1
  O  O81  1  0.76283500  0.87467700  0.32985700  1
  O  O82  1  0.26517700  0.12007000  0.67077100  1
  O  O83  1  0.26285800  0.62553100  0.17015000  1
  O  O84  1  0.50000000  0.07994900  0.55005500  1
  O  O85  1  0.50000000  0.58059100  0.05020200  1
  O  O86  1  0.00000000  0.41953900  0.94965700  1
  O  O87  1  0.00000000  0.91864000  0.44984900  1
