# generated using pymatgen
data_Ca4Mg3Si8NiO24
_symmetry_space_group_name_H-M   'P 1'
_cell_length_a   9.03312800
_cell_length_b   5.32137300
_cell_length_c   9.85002715
_cell_angle_alpha   74.65347337
_cell_angle_beta   90.00000000
_cell_angle_gamma   90.00000000
_symmetry_Int_Tables_number   1
_chemical_formula_structural   Ca4Mg3Si8NiO24
_chemical_formula_sum   'Ca4 Mg3 Si8 Ni1 O24'
_cell_volume   456.59457456
_cell_formula_units_Z   1
loop_
 _symmetry_equiv_pos_site_id
 _symmetry_equiv_pos_as_xyz
  1  'x, y, z'
loop_
 _atom_site_type_symbol
 _atom_site_label
 _atom_site_symmetry_multiplicity
 _atom_site_fract_x
 _atom_site_fract_y
 _atom_site_fract_z
 _atom_site_occupancy
  Ca  Ca0  1  0.79914000  0.50000000  0.50000000  1
  Ca  Ca1  1  0.29929800  0.00000000  0.00000000  1
  Ca  Ca2  1  0.20132700  0.00000000  0.50000000  1
  Ca  Ca3  1  0.70070500  0.50000000  0.00000000  1
  Mg  Mg4  1  0.90728300  0.00000000  0.00000000  1
  Mg  Mg5  1  0.59236400  0.00000000  0.50000000  1
  Mg  Mg6  1  0.09272800  0.50000000  0.00000000  1
  Si  Si7  1  0.09257800  0.69210400  0.28674300  1
  Si  Si8  1  0.59239600  0.19280200  0.78671600  1
  Si  Si9  1  0.09257800  0.30789600  0.71325700  1
  Si  Si10  1  0.59239600  0.80719800  0.21328400  1
  Si  Si11  1  0.90738100  0.80744800  0.71335400  1
  Si  Si12  1  0.40733300  0.30797300  0.21327200  1
  Si  Si13  1  0.90738100  0.19255200  0.28664600  1
  Si  Si14  1  0.40733300  0.69202700  0.78672800  1
  Ni  Ni15  1  0.40731900  0.50000000  0.50000000  1
  O  O16  1  0.08656700  0.77526200  0.11583900  1
  O  O17  1  0.58672000  0.27524300  0.61571700  1
  O  O18  1  0.08656700  0.22473800  0.88416100  1
  O  O19  1  0.58672000  0.72475700  0.38428300  1
  O  O20  1  0.91344700  0.72475500  0.88422400  1
  O  O21  1  0.41348900  0.22433400  0.38428000  1
  O  O22  1  0.91344700  0.27524500  0.11577600  1
  O  O23  1  0.41348900  0.77566600  0.61572000  1
  O  O24  1  0.24813100  0.70894200  0.36291300  1
  O  O25  1  0.74801200  0.20820200  0.86305200  1
  O  O26  1  0.24813100  0.29105800  0.63708700  1
  O  O27  1  0.74801200  0.79179800  0.13694800  1
  O  O28  1  0.75194000  0.79185100  0.63691200  1
  O  O29  1  0.25194600  0.29174300  0.13686900  1
  O  O30  1  0.75194000  0.20814900  0.36308800  1
  O  O31  1  0.25194600  0.70825700  0.86313100  1
  O  O32  1  0.01849800  0.39422200  0.34995400  1
  O  O33  1  0.51849700  0.89424500  0.84989500  1
  O  O34  1  0.01849800  0.60577800  0.65004600  1
  O  O35  1  0.51849700  0.10575500  0.15010500  1
  O  O36  1  0.98152500  0.10574800  0.65008300  1
  O  O37  1  0.48145800  0.60575900  0.14997100  1
  O  O38  1  0.98152500  0.89425200  0.34991700  1
  O  O39  1  0.48145800  0.39424100  0.85002900  1
