# generated using pymatgen
data_Ca4Al6SO16
_symmetry_space_group_name_H-M   'P 1'
_cell_length_a   8.07786318
_cell_length_b   8.07786318
_cell_length_c   8.07786318
_cell_angle_alpha   109.51686423
_cell_angle_beta   109.51686423
_cell_angle_gamma   109.37997197
_symmetry_Int_Tables_number   1
_chemical_formula_structural   Ca4Al6SO16
_chemical_formula_sum   'Ca4 Al6 S1 O16'
_cell_volume   405.75769184
_cell_formula_units_Z   1
loop_
 _symmetry_equiv_pos_site_id
 _symmetry_equiv_pos_as_xyz
  1  'x, y, z'
loop_
 _atom_site_type_symbol
 _atom_site_label
 _atom_site_symmetry_multiplicity
 _atom_site_fract_x
 _atom_site_fract_y
 _atom_site_fract_z
 _atom_site_occupancy
  Ca  Ca0  1  0.42559500  0.00399900  0.01025400  1
  Ca  Ca1  1  0.99600100  0.00625500  0.42159600  1
  Ca  Ca2  1  0.99374500  0.41534100  0.98974600  1
  Ca  Ca3  1  0.58465900  0.57440500  0.57840400  1
  Al  Al4  1  0.50007700  0.74884300  0.25188000  1
  Al  Al5  1  0.25000000  0.75000000  0.50000000  1
  Al  Al6  1  0.75180300  0.49992300  0.24876600  1
  Al  Al7  1  0.75000000  0.25000000  0.50000000  1
  Al  Al8  1  0.49696300  0.24819700  0.74812000  1
  Al  Al9  1  0.25115700  0.50303700  0.75123400  1
  S  S10  1  0.00000000  0.00000000  0.00000000  1
  O  O11  1  0.59977600  0.99824600  0.29671000  1
  O  O12  1  0.30969500  0.71278000  0.71148000  1
  O  O13  1  0.59888900  0.29104900  0.99855700  1
  O  O14  1  0.28722000  0.99870000  0.59691600  1
  O  O15  1  0.00175400  0.29846400  0.60153000  1
  O  O16  1  0.70895100  0.70750900  0.30784100  1
  O  O17  1  0.70153600  0.30306600  0.70329000  1
  O  O18  1  0.00130000  0.59821500  0.28852000  1
  O  O19  1  0.29249100  0.60033200  0.00144300  1
  O  O20  1  0.40178500  0.69030500  0.40308400  1
  O  O21  1  0.69693400  0.40022400  0.39847000  1
  O  O22  1  0.39966800  0.40111100  0.69215900  1
  O  O23  1  0.91074500  0.03979500  0.13317600  1
  O  O24  1  0.96020500  0.09338100  0.87094900  1
  O  O25  1  0.90661900  0.77756800  0.86682400  1
  O  O26  1  0.22243200  0.08925500  0.12905100  1
