# generated using pymatgen
data_La9In5Se21
_symmetry_space_group_name_H-M   'P 1'
_cell_length_a   12.60651707
_cell_length_b   12.60651707
_cell_length_c   12.60651670
_cell_angle_alpha   96.01231212
_cell_angle_beta   96.01231212
_cell_angle_gamma   96.01230940
_symmetry_Int_Tables_number   1
_chemical_formula_structural   La9In5Se21
_chemical_formula_sum   'La18 In10 Se42'
_cell_volume   1967.89312654
_cell_formula_units_Z   2
loop_
 _symmetry_equiv_pos_site_id
 _symmetry_equiv_pos_as_xyz
  1  'x, y, z'
loop_
 _atom_site_type_symbol
 _atom_site_label
 _atom_site_symmetry_multiplicity
 _atom_site_fract_x
 _atom_site_fract_y
 _atom_site_fract_z
 _atom_site_occupancy
  La  La0  1  0.11576800  0.88063300  0.24941100  1
  La  La1  1  0.77989600  0.54326200  0.91777500  1
  La  La2  1  0.45033800  0.21676500  0.58729300  1
  La  La3  1  0.21676500  0.58729300  0.45033800  1
  La  La4  1  0.88063300  0.24941100  0.11576800  1
  La  La5  1  0.54326200  0.91777500  0.77989600  1
  La  La6  1  0.91777500  0.77989600  0.54326200  1
  La  La7  1  0.58729300  0.45033800  0.21676500  1
  La  La8  1  0.24941100  0.11576800  0.88063300  1
  La  La9  1  0.54898100  0.78345500  0.41427900  1
  La  La10  1  0.21395000  0.45103400  0.07597900  1
  La  La11  1  0.88532000  0.11896800  0.74910500  1
  La  La12  1  0.45103400  0.07597900  0.21395000  1
  La  La13  1  0.11896800  0.74910500  0.88532000  1
  La  La14  1  0.78345500  0.41427900  0.54898100  1
  La  La15  1  0.74910500  0.88532000  0.11896800  1
  La  La16  1  0.41427900  0.54898100  0.78345500  1
  La  La17  1  0.07597900  0.21395000  0.45103400  1
  In  In18  1  0.60920500  0.27629000  0.94198000  1
  In  In19  1  0.27629000  0.94198000  0.60920500  1
  In  In20  1  0.94198000  0.60920500  0.27629000  1
  In  In21  1  0.77562800  0.10975100  0.44200300  1
  In  In22  1  0.44200300  0.77562800  0.10975100  1
  In  In23  1  0.10975100  0.44200300  0.77562800  1
  In  In24  1  0.14855200  0.14855200  0.14855200  1
  In  In25  1  0.83993500  0.83993500  0.83993500  1
  In  In26  1  0.34003400  0.34003400  0.34003400  1
  In  In27  1  0.64847300  0.64847300  0.64847300  1
  Se  Se28  1  0.60312400  0.44250300  0.69499500  1
  Se  Se29  1  0.25959100  0.11090800  0.34959800  1
  Se  Se30  1  0.92103600  0.76571700  0.01978900  1
  Se  Se31  1  0.76571700  0.01978900  0.92103600  1
  Se  Se32  1  0.44250300  0.69499500  0.60312400  1
  Se  Se33  1  0.11090800  0.34959800  0.25959100  1
  Se  Se34  1  0.34959800  0.25959100  0.11090800  1
  Se  Se35  1  0.01978900  0.92103600  0.76571700  1
  Se  Se36  1  0.69499500  0.60312400  0.44250300  1
  Se  Se37  1  0.71994300  0.86906900  0.63058600  1
  Se  Se38  1  0.38312100  0.53891000  0.28439700  1
  Se  Se39  1  0.05754100  0.21789600  0.96545100  1
  Se  Se40  1  0.53891000  0.28439700  0.38312100  1
  Se  Se41  1  0.21789600  0.96545100  0.05754100  1
  Se  Se42  1  0.86906900  0.63058600  0.71994300  1
  Se  Se43  1  0.96545100  0.05754100  0.21789600  1
  Se  Se44  1  0.63058600  0.71994300  0.86906900  1
  Se  Se45  1  0.28439700  0.38312100  0.53891000  1
  Se  Se46  1  0.47574300  0.14576500  0.81124200  1
  Se  Se47  1  0.14576500  0.81124200  0.47574300  1
  Se  Se48  1  0.81124200  0.47574300  0.14576500  1
  Se  Se49  1  0.97547800  0.31185100  0.64541900  1
  Se  Se50  1  0.64541900  0.97547800  0.31185100  1
  Se  Se51  1  0.31185100  0.64541900  0.97547800  1
  Se  Se52  1  0.55196400  0.46940700  0.98003000  1
  Se  Se53  1  0.21951300  0.13478200  0.64336600  1
  Se  Se54  1  0.88894100  0.80487200  0.30702500  1
  Se  Se55  1  0.80487200  0.30702500  0.88894100  1
  Se  Se56  1  0.46940700  0.98003000  0.55196400  1
  Se  Se57  1  0.13478200  0.64336600  0.21951300  1
  Se  Se58  1  0.64336600  0.21951300  0.13478200  1
  Se  Se59  1  0.30702500  0.88894100  0.80487200  1
  Se  Se60  1  0.98003000  0.55196400  0.46940700  1
  Se  Se61  1  0.94370800  0.03023100  0.52631300  1
  Se  Se62  1  0.61350500  0.69731800  0.18992300  1
  Se  Se63  1  0.28197800  0.36328300  0.85328600  1
  Se  Se64  1  0.69731800  0.18992300  0.61350500  1
  Se  Se65  1  0.36328300  0.85328600  0.28197800  1
  Se  Se66  1  0.03023100  0.52631300  0.94370800  1
  Se  Se67  1  0.85328600  0.28197800  0.36328300  1
  Se  Se68  1  0.52631300  0.94370800  0.03023100  1
  Se  Se69  1  0.18992300  0.61350500  0.69731800  1
