# generated using pymatgen
data_BaSrSi4(NO)4
_symmetry_space_group_name_H-M   'P 1'
_cell_length_a   7.34922500
_cell_length_b   7.39638877
_cell_length_c   7.44849117
_cell_angle_alpha   87.99005912
_cell_angle_beta   76.70275412
_cell_angle_gamma   83.39358872
_symmetry_Int_Tables_number   1
_chemical_formula_structural   BaSrSi4(NO)4
_chemical_formula_sum   'Ba2 Sr2 Si8 N8 O8'
_cell_volume   391.39617814
_cell_formula_units_Z   2
loop_
 _symmetry_equiv_pos_site_id
 _symmetry_equiv_pos_as_xyz
  1  'x, y, z'
loop_
 _atom_site_type_symbol
 _atom_site_label
 _atom_site_symmetry_multiplicity
 _atom_site_fract_x
 _atom_site_fract_y
 _atom_site_fract_z
 _atom_site_occupancy
  Ba  Ba0  1  0.70414800  0.82157800  0.79052900  1
  Ba  Ba1  1  0.70832200  0.31407900  0.75827800  1
  Sr  Sr2  1  0.21232400  0.81255300  0.74930500  1
  Sr  Sr3  1  0.20240900  0.31385400  0.78450400  1
  Si  Si4  1  0.37397900  0.40139300  0.21434900  1
  Si  Si5  1  0.57913000  0.64615600  0.40617500  1
  Si  Si6  1  0.98960000  0.55412100  0.41473400  1
  Si  Si7  1  0.78679600  0.30429400  0.21664600  1
  Si  Si8  1  0.27888700  0.80745400  0.21489200  1
  Si  Si9  1  0.08350700  0.14664900  0.41393400  1
  Si  Si10  1  0.87793300  0.89865000  0.21927800  1
  Si  Si11  1  0.48627100  0.05634900  0.41111000  1
  N  N12  1  0.20562500  0.59020000  0.27402200  1
  N  N13  1  0.30841800  0.21957100  0.36729200  1
  N  N14  1  0.43085000  0.83953200  0.36165600  1
  N  N15  1  0.58379100  0.46360800  0.26177500  1
  N  N16  1  0.80698800  0.71476200  0.37117500  1
  N  N17  1  0.92903300  0.33692100  0.37283200  1
  N  N18  1  0.70606100  0.08804400  0.27232600  1
  N  N19  1  0.07800000  0.96275900  0.27901500  1
  O  O20  1  0.99633000  0.56012600  0.63496700  1
  O  O21  1  0.90359000  0.31451900  0.00603100  1
  O  O22  1  0.37660100  0.82357200  0.99891500  1
  O  O23  1  0.47910000  0.06579400  0.63361300  1
  O  O24  1  0.50709800  0.59025400  0.62486400  1
  O  O25  1  0.92581000  0.83770700  0.00616800  1
  O  O26  1  0.39944000  0.34243900  0.00288100  1
  O  O27  1  0.03016200  0.08836200  0.63393200  1
