# generated using pymatgen
data_Na3Sr14La3Ti20O60
_symmetry_space_group_name_H-M   'P 1'
_cell_length_a   5.54903700
_cell_length_b   5.54903806
_cell_length_c   55.60199397
_cell_angle_alpha   119.93389438
_cell_angle_beta   119.93389529
_cell_angle_gamma   89.99991052
_symmetry_Int_Tables_number   1
_chemical_formula_structural   Na3Sr14La3Ti20O60
_chemical_formula_sum   'Na3 Sr14 La3 Ti20 O60'
_cell_volume   1213.04412548
_cell_formula_units_Z   1
loop_
 _symmetry_equiv_pos_site_id
 _symmetry_equiv_pos_as_xyz
  1  'x, y, z'
loop_
 _atom_site_type_symbol
 _atom_site_label
 _atom_site_symmetry_multiplicity
 _atom_site_fract_x
 _atom_site_fract_y
 _atom_site_fract_z
 _atom_site_occupancy
  Na  Na0  1  0.25125429  0.75125195  0.95025037  1
  Na  Na1  1  0.25275315  0.75275184  0.85054948  1
  Na  Na2  1  0.73974831  0.23974784  0.64794049  1
  Sr  Sr3  1  0.24754899  0.74755379  0.74950804  1
  Sr  Sr4  1  0.24458627  0.74459413  0.64891765  1
  Sr  Sr5  1  0.25766042  0.75766136  0.55153460  1
  Sr  Sr6  1  0.25249819  0.75249840  0.45049863  1
  Sr  Sr7  1  0.75334856  0.25335965  0.55067190  1
  Sr  Sr8  1  0.25172732  0.75172914  0.35034436  1
  Sr  Sr9  1  0.75297286  0.25297429  0.45059393  1
  Sr  Sr10  1  0.25115887  0.75115747  0.25023289  1
  Sr  Sr11  1  0.75169619  0.25168823  0.35033719  1
  Sr  Sr12  1  0.25034339  0.75033940  0.15006996  1
  Sr  Sr13  1  0.75111397  0.25111362  0.25022504  1
  Sr  Sr14  1  0.25030593  0.75031463  0.05006206  1
  Sr  Sr15  1  0.75071232  0.25071924  0.15014596  1
  Sr  Sr16  1  0.74832021  0.24831486  0.04966339  1
  La  La17  1  0.75168168  0.25167899  0.95033136  1
  La  La18  1  0.75896632  0.25894915  0.85178585  1
  La  La19  1  0.74533694  0.24532969  0.74906407  1
  Ti  Ti20  1  0.50220500  0.50219504  0.90043283  1
  Ti  Ti21  1  0.50512953  0.50514208  0.80102548  1
  Ti  Ti22  1  0.00218702  0.00219507  0.90043251  1
  Ti  Ti23  1  0.49388960  0.49389102  0.69877503  1
  Ti  Ti24  1  0.00515055  0.00513242  0.80102539  1
  Ti  Ti25  1  0.50374244  0.50373794  0.60075836  1
  Ti  Ti26  1  0.99388814  0.99388963  0.69877503  1
  Ti  Ti27  1  0.50413871  0.50414624  0.50082953  1
  Ti  Ti28  1  0.00373822  0.00374547  0.60075799  1
  Ti  Ti29  1  0.50353559  0.50353795  0.40070361  1
  Ti  Ti30  1  0.00414423  0.00414045  0.50082971  1
  Ti  Ti31  1  0.50301563  0.50301397  0.30060209  1
  Ti  Ti32  1  0.00353778  0.00353459  0.40070340  1
  Ti  Ti33  1  0.50249421  0.50248546  0.20050389  1
  Ti  Ti34  1  0.00301708  0.00301507  0.30060218  1
  Ti  Ti35  1  0.99788992  0.99789957  0.99957812  1
  Ti  Ti36  1  0.50127271  0.50127652  0.10025871  1
  Ti  Ti37  1  0.00248476  0.00249378  0.20050366  1
  Ti  Ti38  1  0.49789245  0.49788314  0.99957759  1
  Ti  Ti39  1  0.00127048  0.00126655  0.10025842  1
  O  O40  1  0.24627416  0.24628021  0.94926099  1
  O  O41  1  0.21722639  0.71722281  0.89874515  1
  O  O42  1  0.27655728  0.22658902  0.90032262  1
  O  O43  1  0.25030340  0.25029932  0.85006838  1
  O  O44  1  0.74628012  0.74627814  0.94926108  1
  O  O45  1  0.22294950  0.72294969  0.79917908  1
  O  O46  1  0.72659387  0.77654996  0.90032248  1
  O  O47  1  0.28434049  0.22694373  0.80113440  1
  O  O48  1  0.77015158  0.27014973  0.89874778  1
  O  O49  1  0.25513489  0.25511880  0.75102878  1
  O  O50  1  0.75030113  0.75031154  0.85006853  1
  O  O51  1  0.25478567  0.75478551  0.70248134  1
  O  O52  1  0.72694102  0.78434019  0.80113397  1
  O  O53  1  0.28668435  0.24398526  0.70306849  1
  O  O54  1  0.76879077  0.26879155  0.79918438  1
  O  O55  1  0.25466151  0.25464898  0.65092775  1
  O  O56  1  0.75512240  0.75513926  0.75102874  1
  O  O57  1  0.23418227  0.73418340  0.59963984  1
  O  O58  1  0.74398733  0.78668134  0.70306816  1
  O  O59  1  0.25908358  0.24002272  0.59990076  1
  O  O60  1  0.77002601  0.27002329  0.70248625  1
  O  O61  1  0.24977376  0.24976615  0.54994961  1
  O  O62  1  0.75465213  0.75466306  0.65092782  1
  O  O63  1  0.23572778  0.73572915  0.49981953  1
  O  O64  1  0.74001928  0.75908311  0.59990048  1
  O  O65  1  0.26215911  0.23537962  0.49975329  1
  O  O66  1  0.76231883  0.26232107  0.59964180  1
  O  O67  1  0.24847567  0.24846828  0.44969687  1
  O  O68  1  0.74976652  0.74977587  0.54994966  1
  O  O69  1  0.23486406  0.73486260  0.39965772  1
  O  O70  1  0.73537735  0.76215806  0.49975278  1
  O  O71  1  0.26165049  0.23489634  0.39965929  1
  O  O72  1  0.76247339  0.26247353  0.49982053  1
  O  O73  1  0.24784590  0.24783378  0.34957152  1
  O  O74  1  0.74847150  0.74847841  0.44969694  1
  O  O75  1  0.23452191  0.73452322  0.29957532  1
  O  O76  1  0.73489590  0.76164579  0.39965882  1
  O  O77  1  0.26122799  0.23454082  0.29957872  1
  O  O78  1  0.76167003  0.26166894  0.39965950  1
  O  O79  1  0.24745199  0.24744089  0.24948702  1
  O  O80  1  0.74783505  0.74784937  0.34957142  1
  O  O81  1  0.23412782  0.73412890  0.19949335  1
  O  O82  1  0.73453897  0.76122810  0.29957863  1
  O  O83  1  0.26093107  0.23422077  0.19950820  1
  O  O84  1  0.76122051  0.26122230  0.29957837  1
  O  O85  1  0.24663845  0.24663103  0.14932149  1
  O  O86  1  0.74743888  0.74745409  0.24948709  1
  O  O87  1  0.23215089  0.73215117  0.09917546  1
  O  O88  1  0.73422046  0.76092967  0.19950798  1
  O  O89  1  0.26023647  0.23350765  0.09936835  1
  O  O90  1  0.76089783  0.26089793  0.19949520  1
  O  O91  1  0.24453597  0.24453213  0.04890459  1
  O  O92  1  0.74663151  0.74663986  0.14932155  1
  O  O93  1  0.21535244  0.71535328  0.99806271  1
  O  O94  1  0.73350772  0.76023814  0.09936855  1
  O  O95  1  0.25614568  0.23202280  0.99881759  1
  O  O96  1  0.75967679  0.25967689  0.09917581  1
  O  O97  1  0.74452915  0.74453247  0.04890461  1
  O  O98  1  0.73202670  0.75615156  0.99881850  1
  O  O99  1  0.76527807  0.26527912  0.99806359  1
