# generated using pymatgen
data_Ca2Se4O11
_symmetry_space_group_name_H-M   'P 1'
_cell_length_a   8.33764981
_cell_length_b   8.33764981
_cell_length_c   12.17565518
_cell_angle_alpha   65.11946191
_cell_angle_beta   65.11946191
_cell_angle_gamma   50.96985560
_symmetry_Int_Tables_number   1
_chemical_formula_structural   Ca2Se4O11
_chemical_formula_sum   'Ca4 Se8 O22'
_cell_volume   581.72083377
_cell_formula_units_Z   2
loop_
 _symmetry_equiv_pos_site_id
 _symmetry_equiv_pos_as_xyz
  1  'x, y, z'
loop_
 _atom_site_type_symbol
 _atom_site_label
 _atom_site_symmetry_multiplicity
 _atom_site_fract_x
 _atom_site_fract_y
 _atom_site_fract_z
 _atom_site_occupancy
  Ca  Ca0  1  0.22852200  0.72795200  0.92841000  1
  Ca  Ca1  1  0.26189800  0.77838400  0.57263200  1
  Ca  Ca2  1  0.77838400  0.26189800  0.07263200  1
  Ca  Ca3  1  0.72795200  0.22852200  0.42841000  1
  Se  Se4  1  0.62291100  0.94276800  0.32553100  1
  Se  Se5  1  0.06315700  0.37225000  0.17629100  1
  Se  Se6  1  0.37225000  0.06315700  0.67629100  1
  Se  Se7  1  0.94276800  0.62291100  0.82553100  1
  Se  Se8  1  0.36062200  0.83831900  0.09300200  1
  Se  Se9  1  0.17954000  0.66205900  0.38388500  1
  Se  Se10  1  0.66205900  0.17954000  0.88388500  1
  Se  Se11  1  0.83831900  0.36062200  0.59300200  1
  O  O12  1  0.50810300  0.64539400  0.01288200  1
  O  O13  1  0.34550100  0.49271800  0.48249800  1
  O  O14  1  0.49271800  0.34550100  0.98249800  1
  O  O15  1  0.64539400  0.50810300  0.51288200  1
  O  O16  1  0.11377500  0.92536100  0.09436500  1
  O  O17  1  0.05926400  0.89341100  0.42118600  1
  O  O18  1  0.89341100  0.05926400  0.92118600  1
  O  O19  1  0.92536100  0.11377500  0.59436500  1
  O  O20  1  0.63689900  0.92784700  0.18895200  1
  O  O21  1  0.07166700  0.36600600  0.31286800  1
  O  O22  1  0.36600600  0.07166700  0.81286800  1
  O  O23  1  0.92784700  0.63689900  0.68895200  1
  O  O24  1  0.39142100  0.99072900  0.42570000  1
  O  O25  1  0.01308200  0.60397700  0.07557000  1
  O  O26  1  0.60397700  0.01308200  0.57557000  1
  O  O27  1  0.99072900  0.39142100  0.92570000  1
  O  O28  1  0.64180900  0.15244200  0.29312200  1
  O  O29  1  0.85994000  0.34587400  0.20651700  1
  O  O30  1  0.34587400  0.85994000  0.70651700  1
  O  O31  1  0.15244200  0.64180900  0.79312200  1
  O  O32  1  0.39447200  0.66572600  0.24938900  1
  O  O33  1  0.66572600  0.39447200  0.74938900  1
