# generated using pymatgen
data_BaSr2ScInO6
_symmetry_space_group_name_H-M   'P 1'
_cell_length_a   10.82990427
_cell_length_b   10.82990427
_cell_length_c   10.82990427
_cell_angle_alpha   157.86093517
_cell_angle_beta   157.86093517
_cell_angle_gamma   31.51056500
_symmetry_Int_Tables_number   1
_chemical_formula_structural   BaSr2ScInO6
_chemical_formula_sum   'Ba1 Sr2 Sc1 In1 O6'
_cell_volume   180.26280451
_cell_formula_units_Z   1
loop_
 _symmetry_equiv_pos_site_id
 _symmetry_equiv_pos_as_xyz
  1  'x, y, z'
loop_
 _atom_site_type_symbol
 _atom_site_label
 _atom_site_symmetry_multiplicity
 _atom_site_fract_x
 _atom_site_fract_y
 _atom_site_fract_z
 _atom_site_occupancy
  Ba  Ba0  1  0.31887700  0.31887700  0.00000000  1
  Sr  Sr1  1  0.49862900  0.49862900  0.00000000  1
  Sr  Sr2  1  0.68230000  0.68230000  0.00000000  1
  Sc  Sc3  1  0.90043300  0.90043300  0.00000000  1
  In  In4  1  0.09808600  0.09808600  0.00000000  1
  O  O5  1  0.91993200  0.41993200  0.50000000  1
  O  O6  1  0.41993200  0.91993200  0.50000000  1
  O  O7  1  0.07964600  0.57964600  0.50000000  1
  O  O8  1  0.57964600  0.07964600  0.50000000  1
  O  O9  1  0.80445500  0.80445500  0.00000000  1
  O  O10  1  0.19806200  0.19806200  0.00000000  1
