# generated using pymatgen
data_Ca3Ta4(O6F)2
_symmetry_space_group_name_H-M   'P 1'
_cell_length_a   7.39729098
_cell_length_b   7.39729098
_cell_length_c   7.39729051
_cell_angle_alpha   60.84071609
_cell_angle_beta   60.84071609
_cell_angle_gamma   60.84072032
_symmetry_Int_Tables_number   1
_chemical_formula_structural   Ca3Ta4(O6F)2
_chemical_formula_sum   'Ca3 Ta4 O12 F2'
_cell_volume   291.64806254
_cell_formula_units_Z   1
loop_
 _symmetry_equiv_pos_site_id
 _symmetry_equiv_pos_as_xyz
  1  'x, y, z'
loop_
 _atom_site_type_symbol
 _atom_site_label
 _atom_site_symmetry_multiplicity
 _atom_site_fract_x
 _atom_site_fract_y
 _atom_site_fract_z
 _atom_site_occupancy
  Ca  Ca0  1  0.00000000  0.50000000  0.50000000  1
  Ca  Ca1  1  0.50000000  0.50000000  0.00000000  1
  Ca  Ca2  1  0.50000000  0.00000000  0.50000000  1
  Ta  Ta3  1  0.00000000  0.00000000  0.00000000  1
  Ta  Ta4  1  0.50000000  0.00000000  0.00000000  1
  Ta  Ta5  1  0.00000000  0.00000000  0.50000000  1
  Ta  Ta6  1  0.00000000  0.50000000  0.00000000  1
  O  O7  1  0.94412500  0.31455900  0.31455900  1
  O  O8  1  0.31816700  0.92897700  0.92897700  1
  O  O9  1  0.31455900  0.31455900  0.94412500  1
  O  O10  1  0.92897700  0.92897700  0.31816700  1
  O  O11  1  0.92897700  0.31816700  0.92897700  1
  O  O12  1  0.31455900  0.94412500  0.31455900  1
  O  O13  1  0.05587500  0.68544100  0.68544100  1
  O  O14  1  0.68183300  0.07102300  0.07102300  1
  O  O15  1  0.68544100  0.68544100  0.05587500  1
  O  O16  1  0.07102300  0.07102300  0.68183300  1
  O  O17  1  0.07102300  0.68183300  0.07102300  1
  O  O18  1  0.68544100  0.05587500  0.68544100  1
  F  F19  1  0.36253200  0.36253200  0.36253200  1
  F  F20  1  0.63746800  0.63746800  0.63746800  1
