# generated using pymatgen
data_Be12Al8Si24O73
_symmetry_space_group_name_H-M   'P 1'
_cell_length_a   13.13569797
_cell_length_b   13.13569797
_cell_length_c   13.13569797
_cell_angle_alpha   138.53800372
_cell_angle_beta   104.37317963
_cell_angle_gamma   90.13570359
_symmetry_Int_Tables_number   1
_chemical_formula_structural   Be12Al8Si24O73
_chemical_formula_sum   'Be12 Al8 Si24 O73'
_cell_volume   1389.61656000
_cell_formula_units_Z   1
loop_
 _symmetry_equiv_pos_site_id
 _symmetry_equiv_pos_as_xyz
  1  'x, y, z'
loop_
 _atom_site_type_symbol
 _atom_site_label
 _atom_site_symmetry_multiplicity
 _atom_site_fract_x
 _atom_site_fract_y
 _atom_site_fract_z
 _atom_site_occupancy
  Be  Be0  1  0.00000000  0.00000000  0.00000000  1
  Be  Be1  1  0.50000000  0.50000000  0.00000000  1
  Be  Be2  1  0.24999000  0.25007600  0.50004200  1
  Be  Be3  1  0.75003400  0.74994800  0.49995800  1
  Be  Be4  1  0.24996600  0.74992400  0.99991400  1
  Be  Be5  1  0.75001000  0.25005200  0.00008600  1
  Be  Be6  1  0.74998000  0.74998000  0.00000000  1
  Be  Be7  1  0.25002000  0.25002000  0.00000000  1
  Be  Be8  1  0.99999000  0.99998100  0.49998800  1
  Be  Be9  1  0.49999300  0.50000200  0.50001200  1
  Be  Be10  1  0.00001000  0.49999800  0.99999000  1
  Be  Be11  1  0.50000700  0.00001900  0.00001000  1
  Al  Al12  1  0.16670300  0.00000000  0.16670300  1
  Al  Al13  1  0.66668600  0.50000000  0.16668600  1
  Al  Al14  1  0.91667500  0.75000300  0.16671100  1
  Al  Al15  1  0.41670800  0.24999700  0.16667200  1
  Al  Al16  1  0.08332500  0.25003600  0.83332800  1
  Al  Al17  1  0.58329200  0.74996400  0.83328900  1
  Al  Al18  1  0.33331400  0.50000000  0.83331400  1
  Al  Al19  1  0.83329700  0.00000000  0.83329700  1
  Si  Si20  1  0.18123400  0.79700300  0.22822300  1
  Si  Si21  1  0.68128500  0.29710300  0.22826100  1
  Si  Si22  1  0.93290600  0.70469600  0.88762000  1
  Si  Si23  1  0.43289300  0.20469300  0.88755600  1
  Si  Si24  1  0.01097700  0.12343200  0.38436100  1
  Si  Si25  1  0.51091100  0.62337000  0.38426200  1
  Si  Si26  1  0.31871500  0.54697600  0.61581800  1
  Si  Si27  1  0.81876600  0.04698900  0.61577000  1
  Si  Si28  1  0.56710700  0.45466300  0.77180000  1
  Si  Si29  1  0.06709400  0.95471400  0.77179000  1
  Si  Si30  1  0.98902300  0.37338300  0.11245400  1
  Si  Si31  1  0.48908900  0.87335100  0.11245900  1
  Si  Si32  1  0.06884200  0.45302400  0.77173900  1
  Si  Si33  1  0.56878000  0.95301100  0.77177700  1
  Si  Si34  1  0.31713700  0.54533700  0.11244400  1
  Si  Si35  1  0.81707600  0.04528600  0.11238000  1
  Si  Si36  1  0.23910800  0.12664900  0.61573800  1
  Si  Si37  1  0.73907100  0.62661700  0.61563900  1
  Si  Si38  1  0.93115800  0.70289700  0.38418200  1
  Si  Si39  1  0.43122000  0.20299700  0.38423000  1
  Si  Si40  1  0.68286300  0.79530700  0.22820000  1
  Si  Si41  1  0.18292400  0.29530400  0.22821000  1
  Si  Si42  1  0.76089200  0.37663000  0.88754100  1
  Si  Si43  1  0.26092900  0.87656800  0.88754600  1
  O  O44  1  0.22029900  0.95629600  0.42659500  1
  O  O45  1  0.72014600  0.45625000  0.42662700  1
  O  O46  1  0.99291900  0.56643800  0.80944700  1
  O  O47  1  0.49298600  0.06641900  0.80940800  1
  O  O48  1  0.91171200  0.10243900  0.26407000  1
  O  O49  1  0.41169600  0.60231500  0.26401700  1
  O  O50  1  0.27985400  0.70648100  0.73610400  1
  O  O51  1  0.77970100  0.20629600  0.73599700  1
  O  O52  1  0.50701400  0.31642200  0.57343400  1
  O  O53  1  0.00708100  0.81652800  0.57351900  1
  O  O54  1  0.08828800  0.35235900  0.19072700  1
  O  O55  1  0.58830400  0.85232100  0.19061900  1
  O  O56  1  0.02962400  0.29351900  0.57337300  1
  O  O57  1  0.52970100  0.79370400  0.57340500  1
  O  O58  1  0.25701100  0.68357800  0.19059200  1
  O  O59  1  0.75699100  0.18347200  0.19055300  1
  O  O60  1  0.33829800  0.14767900  0.73598300  1
  O  O61  1  0.83836800  0.64764100  0.73593000  1
  O  O62  1  0.97037600  0.54375000  0.26389600  1
  O  O63  1  0.47029900  0.04370400  0.26400300  1
  O  O64  1  0.74298900  0.93358100  0.42656600  1
  O  O65  1  0.24300900  0.43356200  0.42648100  1
  O  O66  1  0.66170200  0.39768500  0.80938100  1
  O  O67  1  0.16163200  0.89756100  0.80927300  1
  O  O68  1  0.47963900  0.47835300  0.85368500  1
  O  O69  1  0.97964200  0.97835600  0.85370600  1
  O  O70  1  0.30157800  0.44782800  0.64508300  1
  O  O71  1  0.80151500  0.94785000  0.64506500  1
  O  O72  1  0.37532100  0.73028900  0.00129900  1
  O  O73  1  0.87531500  0.23021600  0.00122500  1
  O  O74  1  0.12535500  0.12409200  0.85372700  1
  O  O75  1  0.62534700  0.62406600  0.85369100  1
  O  O76  1  0.94722300  0.09355800  0.64506900  1
  O  O77  1  0.44716800  0.59352300  0.64502400  1
  O  O78  1  0.02103600  0.37594800  0.00128200  1
  O  O79  1  0.52103000  0.87598400  0.00129200  1
  O  O80  1  0.87464500  0.72837200  0.99873700  1
  O  O81  1  0.37465300  0.22834300  0.99871800  1
  O  O82  1  0.05277700  0.69784600  0.14633500  1
  O  O83  1  0.55283200  0.19785700  0.14635500  1
  O  O84  1  0.97896400  0.98024600  0.35491100  1
  O  O85  1  0.47897000  0.48026200  0.35495400  1
  O  O86  1  0.02035800  0.87406400  0.99871400  1
  O  O87  1  0.52036100  0.37404500  0.99871400  1
  O  O88  1  0.19848500  0.84355000  0.14633500  1
  O  O89  1  0.69842200  0.34350500  0.14625000  1
  O  O90  1  0.12468500  0.12591000  0.35490100  1
  O  O91  1  0.62467900  0.62597800  0.35496800  1
  O  O92  1  0.77037500  0.77165700  0.14630900  1
  O  O93  1  0.27036500  0.27162800  0.14627300  1
  O  O94  1  0.94849800  0.80214300  0.35497600  1
  O  O95  1  0.44848900  0.30215400  0.35493100  1
  O  O96  1  0.87469200  0.51973800  0.99870800  1
  O  O97  1  0.37466500  0.01975400  0.99871800  1
  O  O98  1  0.12465000  0.12593600  0.14629400  1
  O  O99  1  0.62466900  0.62595500  0.14631500  1
  O  O100  1  0.30278500  0.15645000  0.35493500  1
  O  O101  1  0.80274500  0.65649500  0.35491700  1
  O  O102  1  0.22899100  0.87409000  0.99877500  1
  O  O103  1  0.72899000  0.37402200  0.99870100  1
  O  O104  1  0.37533100  0.52164700  0.00128600  1
  O  O105  1  0.87535000  0.02164400  0.00128600  1
  O  O106  1  0.19725500  0.55217200  0.85375000  1
  O  O107  1  0.69721500  0.05215000  0.85366500  1
  O  O108  1  0.27101000  0.26971100  0.64503200  1
  O  O109  1  0.77100900  0.76978400  0.64509900  1
  O  O110  1  0.22962500  0.37593400  0.00128200  1
  O  O111  1  0.72963500  0.87590800  0.00126300  1
  O  O112  1  0.05150200  0.40647700  0.85364500  1
  O  O113  1  0.55151100  0.90644200  0.85366500  1
  O  O114  1  0.12530800  0.12401600  0.64504600  1
  O  O115  1  0.62533500  0.62405200  0.64508900  1
  O  O116  1  0.00000000  0.50000000  0.50000000  1
