# generated using pymatgen
data_BaSr4Cl10
_symmetry_space_group_name_H-M   'P 1'
_cell_length_a   18.18596121
_cell_length_b   18.18596121
_cell_length_c   18.18596121
_cell_angle_alpha   164.09801406
_cell_angle_beta   164.09801406
_cell_angle_gamma   22.56218844
_symmetry_Int_Tables_number   1
_chemical_formula_structural   BaSr4Cl10
_chemical_formula_sum   'Ba1 Sr4 Cl10'
_cell_volume   451.44375821
_cell_formula_units_Z   1
loop_
 _symmetry_equiv_pos_site_id
 _symmetry_equiv_pos_as_xyz
  1  'x, y, z'
loop_
 _atom_site_type_symbol
 _atom_site_label
 _atom_site_symmetry_multiplicity
 _atom_site_fract_x
 _atom_site_fract_y
 _atom_site_fract_z
 _atom_site_occupancy
  Ba  Ba0  1  0.00000000  0.00000000  0.00000000  1
  Sr  Sr1  1  0.39805400  0.39805400  0.00000000  1
  Sr  Sr2  1  0.79964200  0.79964200  0.00000000  1
  Sr  Sr3  1  0.20035800  0.20035800  0.00000000  1
  Sr  Sr4  1  0.60194600  0.60194600  0.00000000  1
  Cl  Cl5  1  0.55323700  0.05323700  0.50000000  1
  Cl  Cl6  1  0.75000000  0.25000000  0.50000000  1
  Cl  Cl7  1  0.15105100  0.65105100  0.50000000  1
  Cl  Cl8  1  0.94676300  0.44676300  0.50000000  1
  Cl  Cl9  1  0.34894900  0.84894900  0.50000000  1
  Cl  Cl10  1  0.44676300  0.94676300  0.50000000  1
  Cl  Cl11  1  0.65105100  0.15105100  0.50000000  1
  Cl  Cl12  1  0.05323700  0.55323700  0.50000000  1
  Cl  Cl13  1  0.84894900  0.34894900  0.50000000  1
  Cl  Cl14  1  0.25000000  0.75000000  0.50000000  1
