# generated using pymatgen
data_Ca3Mn4BiO12
_symmetry_space_group_name_H-M   'P 1'
_cell_length_a   7.66142300
_cell_length_b   5.41155300
_cell_length_c   5.49067003
_cell_angle_alpha   89.76794325
_cell_angle_beta   90.00000000
_cell_angle_gamma   90.00000000
_symmetry_Int_Tables_number   1
_chemical_formula_structural   Ca3Mn4BiO12
_chemical_formula_sum   'Ca3 Mn4 Bi1 O12'
_cell_volume   227.64239207
_cell_formula_units_Z   1
loop_
 _symmetry_equiv_pos_site_id
 _symmetry_equiv_pos_as_xyz
  1  'x, y, z'
loop_
 _atom_site_type_symbol
 _atom_site_label
 _atom_site_symmetry_multiplicity
 _atom_site_fract_x
 _atom_site_fract_y
 _atom_site_fract_z
 _atom_site_occupancy
  Ca  Ca0  1  0.00000000  0.00720700  0.95599200  1
  Ca  Ca1  1  0.50000000  0.50657100  0.54388000  1
  Ca  Ca2  1  0.50000000  0.99399900  0.04216000  1
  Mn  Mn3  1  0.25360900  0.99900700  0.50217500  1
  Mn  Mn4  1  0.74567000  0.50078600  0.99674000  1
  Mn  Mn5  1  0.74639100  0.99900700  0.50217500  1
  Mn  Mn6  1  0.25433000  0.50078600  0.99674000  1
  Bi  Bi7  1  0.00000000  0.49157200  0.44715300  1
  O  O8  1  0.20716900  0.20969900  0.21109200  1
  O  O9  1  0.78962300  0.29473800  0.70680300  1
  O  O10  1  0.71044200  0.79634400  0.79467400  1
  O  O11  1  0.28650000  0.70242200  0.29555100  1
  O  O12  1  0.28955800  0.79634400  0.79467400  1
  O  O13  1  0.71350000  0.70242200  0.29555100  1
  O  O14  1  0.79283100  0.20969900  0.21109200  1
  O  O15  1  0.21037700  0.29473800  0.70680300  1
  O  O16  1  0.00000000  0.57546800  0.02189600  1
  O  O17  1  0.00000000  0.92125900  0.51879400  1
  O  O18  1  0.50000000  0.42093200  0.97936500  1
  O  O19  1  0.50000000  0.07699900  0.47668900  1
