# generated using pymatgen
data_Ca3LaMn4O12
_symmetry_space_group_name_H-M   'P 1'
_cell_length_a   5.45580925
_cell_length_b   5.42008708
_cell_length_c   7.65439501
_cell_angle_alpha   90.00268038
_cell_angle_beta   90.00377517
_cell_angle_gamma   90.12359629
_symmetry_Int_Tables_number   1
_chemical_formula_structural   Ca3LaMn4O12
_chemical_formula_sum   'Ca3 La1 Mn4 O12'
_cell_volume   226.34729065
_cell_formula_units_Z   1
loop_
 _symmetry_equiv_pos_site_id
 _symmetry_equiv_pos_as_xyz
  1  'x, y, z'
loop_
 _atom_site_type_symbol
 _atom_site_label
 _atom_site_symmetry_multiplicity
 _atom_site_fract_x
 _atom_site_fract_y
 _atom_site_fract_z
 _atom_site_occupancy
  Ca  Ca0  1  0.46370800  0.49049700  0.74999200  1
  Ca  Ca1  1  0.95847100  0.00898300  0.74998100  1
  Ca  Ca2  1  0.53904300  0.50877500  0.25000900  1
  La  La3  1  0.02883900  0.99544900  0.24998800  1
  Mn  Mn4  1  0.49969200  0.99982400  0.99579500  1
  Mn  Mn5  1  0.00084500  0.50014900  0.50481300  1
  Mn  Mn6  1  0.49984400  0.99997600  0.50438400  1
  Mn  Mn7  1  0.00081700  0.50011500  0.99510500  1
  O  O8  1  0.21126400  0.20959600  0.96164300  1
  O  O9  1  0.71623200  0.28426300  0.54144600  1
  O  O10  1  0.78242500  0.78251700  0.46530200  1
  O  O11  1  0.28415800  0.71590100  0.04348400  1
  O  O12  1  0.78239100  0.78245300  0.03470000  1
  O  O13  1  0.28419700  0.71585000  0.45648600  1
  O  O14  1  0.21126800  0.20959600  0.53835300  1
  O  O15  1  0.71625400  0.28419000  0.95855200  1
  O  O16  1  0.02619800  0.57936900  0.75003900  1
  O  O17  1  0.51732100  0.91941700  0.75001300  1
  O  O18  1  0.98292300  0.43731000  0.24995700  1
  O  O19  1  0.49411200  0.07577400  0.24995700  1
