# generated using pymatgen
data_Ca2HoMn4BiO12
_symmetry_space_group_name_H-M   'P 1'
_cell_length_a   6.24844762
_cell_length_b   5.73449459
_cell_length_c   7.32141800
_cell_angle_alpha   90.00000000
_cell_angle_beta   90.00000000
_cell_angle_gamma   90.03641811
_symmetry_Int_Tables_number   1
_chemical_formula_structural   Ca2HoMn4BiO12
_chemical_formula_sum   'Ca2 Ho1 Mn4 Bi1 O12'
_cell_volume   262.33872071
_cell_formula_units_Z   1
loop_
 _symmetry_equiv_pos_site_id
 _symmetry_equiv_pos_as_xyz
  1  'x, y, z'
loop_
 _atom_site_type_symbol
 _atom_site_label
 _atom_site_symmetry_multiplicity
 _atom_site_fract_x
 _atom_site_fract_y
 _atom_site_fract_z
 _atom_site_occupancy
  Ca  Ca0  1  0.04028200  0.94631100  0.25000000  1
  Ca  Ca1  1  0.57416900  0.57171400  0.75000000  1
  Ho  Ho2  1  0.93935000  0.02604000  0.75000000  1
  Mn  Mn3  1  0.00878000  0.47925400  0.99099800  1
  Mn  Mn4  1  0.46701200  0.03148300  0.50142500  1
  Mn  Mn5  1  0.00878000  0.47925400  0.50900200  1
  Mn  Mn6  1  0.46701200  0.03148300  0.99857500  1
  Bi  Bi7  1  0.44744900  0.47366500  0.25000000  1
  O  O8  1  0.39538200  0.07858200  0.25000000  1
  O  O9  1  0.09503300  0.49513500  0.25000000  1
  O  O10  1  0.56720700  0.99427900  0.75000000  1
  O  O11  1  0.90554300  0.41902900  0.75000000  1
  O  O12  1  0.36964700  0.70555900  0.01492400  1
  O  O13  1  0.15549500  0.18300600  0.53203100  1
  O  O14  1  0.63876000  0.31853800  0.47063600  1
  O  O15  1  0.87809700  0.77978200  0.98873900  1
  O  O16  1  0.63876000  0.31853800  0.02936400  1
  O  O17  1  0.87809700  0.77978200  0.51126100  1
  O  O18  1  0.36964700  0.70555900  0.48507600  1
  O  O19  1  0.15549500  0.18300600  0.96796900  1
