# generated using pymatgen
data_Ca2HoMn3O9
_symmetry_space_group_name_H-M   'P 1'
_cell_length_a   7.62902500
_cell_length_b   9.26304130
_cell_length_c   10.78039255
_cell_angle_alpha   106.56783968
_cell_angle_beta   88.98203736
_cell_angle_gamma   113.66344734
_symmetry_Int_Tables_number   1
_chemical_formula_structural   Ca2HoMn3O9
_chemical_formula_sum   'Ca8 Ho4 Mn12 O36'
_cell_volume   664.73519994
_cell_formula_units_Z   4
loop_
 _symmetry_equiv_pos_site_id
 _symmetry_equiv_pos_as_xyz
  1  'x, y, z'
loop_
 _atom_site_type_symbol
 _atom_site_label
 _atom_site_symmetry_multiplicity
 _atom_site_fract_x
 _atom_site_fract_y
 _atom_site_fract_z
 _atom_site_occupancy
  Ca  Ca0  1  0.55386700  0.14862500  0.39712900  1
  Ca  Ca1  1  0.22170600  0.47969200  0.72969400  1
  Ca  Ca2  1  0.88583400  0.81226100  0.06352800  1
  Ca  Ca3  1  0.11416600  0.18773900  0.93647200  1
  Ca  Ca4  1  0.77829400  0.52030800  0.27030600  1
  Ca  Ca5  1  0.44613300  0.85137500  0.60287100  1
  Ca  Ca6  1  0.71343100  0.48690100  0.73617200  1
  Ca  Ca7  1  0.28656900  0.51309900  0.26382800  1
  Ho  Ho8  1  0.37249000  0.81756600  0.06864900  1
  Ho  Ho9  1  0.03939800  0.15285100  0.40255500  1
  Ho  Ho10  1  0.96060200  0.84714900  0.59744500  1
  Ho  Ho11  1  0.62751000  0.18243400  0.93135100  1
  Mn  Mn12  1  0.00000000  0.50000000  0.00000000  1
  Mn  Mn13  1  0.66401200  0.83076400  0.33254400  1
  Mn  Mn14  1  0.33598800  0.16923600  0.66745600  1
  Mn  Mn15  1  0.50000000  0.50000000  0.50000000  1
  Mn  Mn16  1  0.16616500  0.83425900  0.83352100  1
  Mn  Mn17  1  0.83383500  0.16574100  0.16647900  1
  Mn  Mn18  1  0.50000000  0.50000000  0.00000000  1
  Mn  Mn19  1  0.16731700  0.83333700  0.33430100  1
  Mn  Mn20  1  0.83268300  0.16666300  0.66569900  1
  Mn  Mn21  1  0.66685900  0.83259700  0.83192100  1
  Mn  Mn22  1  0.33314100  0.16740300  0.16807900  1
  Mn  Mn23  1  0.00000000  0.50000000  0.50000000  1
  O  O24  1  0.74868500  0.49542100  0.95501500  1
  O  O25  1  0.41957100  0.83809900  0.28454600  1
  O  O26  1  0.08143900  0.16017900  0.61611900  1
  O  O27  1  0.44845800  0.89944000  0.85346700  1
  O  O28  1  0.11217500  0.22481900  0.18359600  1
  O  O29  1  0.78179000  0.56606400  0.51471400  1
  O  O30  1  0.58042900  0.16190100  0.71545400  1
  O  O31  1  0.25131500  0.50457900  0.04498500  1
  O  O32  1  0.91856100  0.83982100  0.38388100  1
  O  O33  1  0.88782500  0.77518100  0.81640400  1
  O  O34  1  0.55154200  0.10056000  0.14653300  1
  O  O35  1  0.21821000  0.43393600  0.48528600  1
  O  O36  1  0.80187100  0.03260600  0.98196300  1
  O  O37  1  0.47639300  0.35903300  0.31904000  1
  O  O38  1  0.13484600  0.69945000  0.65054100  1
  O  O39  1  0.38442400  0.36016800  0.82037500  1
  O  O40  1  0.06575800  0.70129300  0.15126400  1
  O  O41  1  0.72966300  0.03337400  0.48346500  1
  O  O42  1  0.52360700  0.64096700  0.68096000  1
  O  O43  1  0.19812900  0.96739400  0.01803700  1
  O  O44  1  0.86515400  0.30055000  0.34945900  1
  O  O45  1  0.93424200  0.29870700  0.84873600  1
  O  O46  1  0.61557600  0.63983200  0.17962500  1
  O  O47  1  0.27033700  0.96662600  0.51653500  1
  O  O48  1  0.43517700  0.29349500  0.04495700  1
  O  O49  1  0.09715800  0.63245300  0.38168200  1
  O  O50  1  0.76999300  0.96127400  0.71053500  1
  O  O51  1  0.90284200  0.36754700  0.61831800  1
  O  O52  1  0.56482300  0.70650500  0.95504300  1
  O  O53  1  0.23000700  0.03872600  0.28946500  1
  O  O54  1  0.46205500  0.31362000  0.56427200  1
  O  O55  1  0.13348100  0.65022200  0.89893600  1
  O  O56  1  0.80014700  0.98243900  0.23276200  1
  O  O57  1  0.86651900  0.34977800  0.10106400  1
  O  O58  1  0.53794500  0.68638000  0.43572800  1
  O  O59  1  0.19985300  0.01756100  0.76723800  1
