# generated using pymatgen
data_Ca2Dy3Sb3O14
_symmetry_space_group_name_H-M   'P 1'
_cell_length_a   7.48616469
_cell_length_b   7.48616469
_cell_length_c   10.49413412
_cell_angle_alpha   88.76385510
_cell_angle_beta   88.76385510
_cell_angle_gamma   90.36135191
_symmetry_Int_Tables_number   1
_chemical_formula_structural   Ca2Dy3Sb3O14
_chemical_formula_sum   'Ca4 Dy6 Sb6 O28'
_cell_volume   587.83200608
_cell_formula_units_Z   2
loop_
 _symmetry_equiv_pos_site_id
 _symmetry_equiv_pos_as_xyz
  1  'x, y, z'
loop_
 _atom_site_type_symbol
 _atom_site_label
 _atom_site_symmetry_multiplicity
 _atom_site_fract_x
 _atom_site_fract_y
 _atom_site_fract_z
 _atom_site_occupancy
  Ca  Ca0  1  0.50000000  0.00000000  0.00000000  1
  Ca  Ca1  1  0.00000000  0.50000000  0.50000000  1
  Ca  Ca2  1  0.76134100  0.23865900  0.75000000  1
  Ca  Ca3  1  0.23865900  0.76134100  0.25000000  1
  Dy  Dy4  1  0.22406700  0.77593300  0.75000000  1
  Dy  Dy5  1  0.28396300  0.26120600  0.24129500  1
  Dy  Dy6  1  0.73879400  0.71603700  0.25870500  1
  Dy  Dy7  1  0.71603700  0.73879400  0.75870500  1
  Dy  Dy8  1  0.26120600  0.28396300  0.74129500  1
  Dy  Dy9  1  0.77593300  0.22406700  0.25000000  1
  Sb  Sb10  1  0.50000000  0.00000000  0.50000000  1
  Sb  Sb11  1  0.00000000  0.50000000  0.00000000  1
  Sb  Sb12  1  0.50000000  0.50000000  0.50000000  1
  Sb  Sb13  1  0.00000000  0.00000000  0.00000000  1
  Sb  Sb14  1  0.00000000  0.00000000  0.50000000  1
  Sb  Sb15  1  0.50000000  0.50000000  0.00000000  1
  O  O16  1  0.56674000  0.75501300  0.44202000  1
  O  O17  1  0.43326000  0.24498700  0.55798000  1
  O  O18  1  0.08606000  0.74974800  0.98412700  1
  O  O19  1  0.91394000  0.25025200  0.01587300  1
  O  O20  1  0.25025200  0.91394000  0.51587300  1
  O  O21  1  0.74974800  0.08606000  0.48412700  1
  O  O22  1  0.24498700  0.43326000  0.05798000  1
  O  O23  1  0.75501300  0.56674000  0.94202000  1
  O  O24  1  0.51170400  0.93271200  0.68491100  1
  O  O25  1  0.93271200  0.51170400  0.18491100  1
  O  O26  1  0.48829600  0.06728800  0.31508900  1
  O  O27  1  0.06728800  0.48829600  0.81508900  1
  O  O28  1  0.69633900  0.50071100  0.62945100  1
  O  O29  1  0.30631800  0.55134000  0.62548800  1
  O  O30  1  0.20394900  0.02561800  0.12096000  1
  O  O31  1  0.81470100  0.95896300  0.14061000  1
  O  O32  1  0.95896300  0.81470100  0.64061000  1
  O  O33  1  0.02561800  0.20394900  0.62096000  1
  O  O34  1  0.55134000  0.30631800  0.12548800  1
  O  O35  1  0.50071100  0.69633900  0.12945100  1
  O  O36  1  0.30366100  0.49928900  0.37054900  1
  O  O37  1  0.69368200  0.44866000  0.37451200  1
  O  O38  1  0.79605100  0.97438200  0.87904000  1
  O  O39  1  0.18529900  0.04103700  0.85939000  1
  O  O40  1  0.04103700  0.18529900  0.35939000  1
  O  O41  1  0.97438200  0.79605100  0.37904000  1
  O  O42  1  0.44866000  0.69368200  0.87451200  1
  O  O43  1  0.49928900  0.30366100  0.87054900  1
