# generated using pymatgen
data_BaSrDy4O8
_symmetry_space_group_name_H-M   'P 1'
_cell_length_a   3.46644600
_cell_length_b   10.32184400
_cell_length_c   12.09717900
_cell_angle_alpha   90.00000000
_cell_angle_beta   90.00000000
_cell_angle_gamma   90.00000000
_symmetry_Int_Tables_number   1
_chemical_formula_structural   BaSrDy4O8
_chemical_formula_sum   'Ba2 Sr2 Dy8 O16'
_cell_volume   432.83845394
_cell_formula_units_Z   2
loop_
 _symmetry_equiv_pos_site_id
 _symmetry_equiv_pos_as_xyz
  1  'x, y, z'
loop_
 _atom_site_type_symbol
 _atom_site_label
 _atom_site_symmetry_multiplicity
 _atom_site_fract_x
 _atom_site_fract_y
 _atom_site_fract_z
 _atom_site_occupancy
  Ba  Ba0  1  0.75000000  0.74842800  0.14875400  1
  Ba  Ba1  1  0.75000000  0.24842800  0.35124600  1
  Sr  Sr2  1  0.25000000  0.25423800  0.85308400  1
  Sr  Sr3  1  0.25000000  0.75423800  0.64691600  1
  Dy  Dy4  1  0.75000000  0.07474000  0.61339400  1
  Dy  Dy5  1  0.75000000  0.57474000  0.88660600  1
  Dy  Dy6  1  0.25000000  0.92298600  0.39230800  1
  Dy  Dy7  1  0.25000000  0.42298600  0.10769200  1
  Dy  Dy8  1  0.75000000  0.07901800  0.10680300  1
  Dy  Dy9  1  0.75000000  0.57901800  0.39319700  1
  Dy  Dy10  1  0.25000000  0.92458100  0.88527800  1
  Dy  Dy11  1  0.25000000  0.42458100  0.61472200  1
  O  O12  1  0.75000000  0.28782100  0.66933200  1
  O  O13  1  0.75000000  0.78782100  0.83066800  1
  O  O14  1  0.25000000  0.71201000  0.33862700  1
  O  O15  1  0.25000000  0.21201000  0.16137300  1
  O  O16  1  0.75000000  0.37554700  0.97819300  1
  O  O17  1  0.75000000  0.87554700  0.52180700  1
  O  O18  1  0.25000000  0.61706400  0.01422400  1
  O  O19  1  0.25000000  0.11706400  0.48577600  1
  O  O20  1  0.75000000  0.98487000  0.28388100  1
  O  O21  1  0.75000000  0.48487000  0.21611900  1
  O  O22  1  0.25000000  0.00879700  0.71526100  1
  O  O23  1  0.25000000  0.50879700  0.78473900  1
  O  O24  1  0.75000000  0.07695700  0.91924900  1
  O  O25  1  0.75000000  0.57695700  0.58075100  1
  O  O26  1  0.25000000  0.93294300  0.07147300  1
  O  O27  1  0.25000000  0.43294300  0.42852700  1
