# generated using pymatgen
data_K6Mo7H18O35
_symmetry_space_group_name_H-M   'P 1'
_cell_length_a   10.74587806
_cell_length_b   10.74587806
_cell_length_c   20.30156600
_cell_angle_alpha   90.00000000
_cell_angle_beta   90.00000000
_cell_angle_gamma   132.21762458
_symmetry_Int_Tables_number   1
_chemical_formula_structural   K6Mo7H18O35
_chemical_formula_sum   'K12 Mo14 H36 O70'
_cell_volume   1736.18441037
_cell_formula_units_Z   2
loop_
 _symmetry_equiv_pos_site_id
 _symmetry_equiv_pos_as_xyz
  1  'x, y, z'
loop_
 _atom_site_type_symbol
 _atom_site_label
 _atom_site_symmetry_multiplicity
 _atom_site_fract_x
 _atom_site_fract_y
 _atom_site_fract_z
 _atom_site_occupancy
  K  K0  1  0.57514300  0.57514300  0.00000000  1
  K  K1  1  0.57514300  0.57514300  0.50000000  1
  K  K2  1  0.90274800  0.47985000  0.04662700  1
  K  K3  1  0.47985000  0.90274800  0.95337300  1
  K  K4  1  0.90274800  0.47985000  0.45337300  1
  K  K5  1  0.47985000  0.90274800  0.54662700  1
  K  K6  1  0.09039900  0.24635900  0.40442900  1
  K  K7  1  0.24635900  0.09039900  0.59557100  1
  K  K8  1  0.09039900  0.24635900  0.09557100  1
  K  K9  1  0.24635900  0.09039900  0.90442900  1
  K  K10  1  0.77004700  0.03419400  0.25000000  1
  K  K11  1  0.03419400  0.77004700  0.75000000  1
  Mo  Mo12  1  0.38228300  0.09488500  0.25000000  1
  Mo  Mo13  1  0.09488500  0.38228300  0.75000000  1
  Mo  Mo14  1  0.33607300  0.04088000  0.08465200  1
  Mo  Mo15  1  0.04088000  0.33607300  0.91534800  1
  Mo  Mo16  1  0.33607300  0.04088000  0.41534800  1
  Mo  Mo17  1  0.04088000  0.33607300  0.58465200  1
  Mo  Mo18  1  0.33947100  0.78271500  0.16687900  1
  Mo  Mo19  1  0.78271500  0.33947100  0.83312100  1
  Mo  Mo20  1  0.33947100  0.78271500  0.33312100  1
  Mo  Mo21  1  0.78271500  0.33947100  0.66687900  1
  Mo  Mo22  1  0.99280500  0.86017000  0.16764600  1
  Mo  Mo23  1  0.86017000  0.99280500  0.83235400  1
  Mo  Mo24  1  0.99280500  0.86017000  0.33235400  1
  Mo  Mo25  1  0.86017000  0.99280500  0.66764600  1
  H  H26  1  0.86022600  0.50981200  0.25000000  1
  H  H27  1  0.50981200  0.86022600  0.75000000  1
  H  H28  1  0.16179600  0.21397800  0.25000000  1
  H  H29  1  0.21397800  0.16179600  0.75000000  1
  H  H30  1  0.69044500  0.15672600  0.36881400  1
  H  H31  1  0.15672600  0.69044500  0.63118600  1
  H  H32  1  0.69044500  0.15672600  0.13118600  1
  H  H33  1  0.15672600  0.69044500  0.86881400  1
  H  H34  1  0.59943500  0.46291400  0.85189600  1
  H  H35  1  0.46291400  0.59943500  0.14810400  1
  H  H36  1  0.59943500  0.46291400  0.64810400  1
  H  H37  1  0.46291400  0.59943500  0.35189600  1
  H  H38  1  0.00943100  0.51710200  0.25000000  1
  H  H39  1  0.51710200  0.00943100  0.75000000  1
  H  H40  1  0.46923400  0.48564000  0.84735300  1
  H  H41  1  0.48564000  0.46923400  0.15264700  1
  H  H42  1  0.46923400  0.48564000  0.65264700  1
  H  H43  1  0.48564000  0.46923400  0.34735300  1
  H  H44  1  0.22749000  0.39626600  0.25000000  1
  H  H45  1  0.39626600  0.22749000  0.75000000  1
  H  H46  1  0.82761600  0.31042800  0.32247200  1
  H  H47  1  0.31042800  0.82761600  0.67752800  1
  H  H48  1  0.82761600  0.31042800  0.17752800  1
  H  H49  1  0.31042800  0.82761600  0.82247200  1
  H  H50  1  0.85271400  0.63186000  0.90522600  1
  H  H51  1  0.63186000  0.85271400  0.09477400  1
  H  H52  1  0.85271400  0.63186000  0.59477400  1
  H  H53  1  0.63186000  0.85271400  0.40522600  1
  H  H54  1  0.00195500  0.72456400  0.95487000  1
  H  H55  1  0.72456400  0.00195500  0.04513000  1
  H  H56  1  0.00195500  0.72456400  0.54513000  1
  H  H57  1  0.72456400  0.00195500  0.45487000  1
  H  H58  1  0.85955200  0.93563300  0.00913100  1
  H  H59  1  0.93563300  0.85955200  0.99086900  1
  H  H60  1  0.85955200  0.93563300  0.49086900  1
  H  H61  1  0.93563300  0.85955200  0.50913100  1
  O  O62  1  0.22173200  0.89373300  0.02112300  1
  O  O63  1  0.89373300  0.22173200  0.97887700  1
  O  O64  1  0.22173200  0.89373300  0.47887700  1
  O  O65  1  0.89373300  0.22173200  0.52112300  1
  O  O66  1  0.81269700  0.24088700  0.35963600  1
  O  O67  1  0.24088700  0.81269700  0.64036400  1
  O  O68  1  0.81269700  0.24088700  0.14036400  1
  O  O69  1  0.24088700  0.81269700  0.85963600  1
  O  O70  1  0.43198200  0.24964500  0.03532500  1
  O  O71  1  0.24964500  0.43198200  0.96467500  1
  O  O72  1  0.43198200  0.24964500  0.46467500  1
  O  O73  1  0.24964500  0.43198200  0.53532500  1
  O  O74  1  0.22184100  0.88768300  0.16731700  1
  O  O75  1  0.88768300  0.22184100  0.83268300  1
  O  O76  1  0.22184100  0.88768300  0.33268300  1
  O  O77  1  0.88768300  0.22184100  0.66731700  1
  O  O78  1  0.96723300  0.96723300  0.00000000  1
  O  O79  1  0.96723300  0.96723300  0.50000000  1
  O  O80  1  0.92572100  0.73206700  0.25000000  1
  O  O81  1  0.73206700  0.92572100  0.75000000  1
  O  O82  1  0.49728900  0.43041900  0.87267600  1
  O  O83  1  0.43041900  0.49728900  0.12732400  1
  O  O84  1  0.49728900  0.43041900  0.62732400  1
  O  O85  1  0.43041900  0.49728900  0.37267600  1
  O  O86  1  0.88350800  0.43528500  0.25000000  1
  O  O87  1  0.43528500  0.88350800  0.75000000  1
  O  O88  1  0.50195100  0.77723300  0.32879200  1
  O  O89  1  0.77723300  0.50195100  0.67120800  1
  O  O90  1  0.50195100  0.77723300  0.17120800  1
  O  O91  1  0.77723300  0.50195100  0.82879200  1
  O  O92  1  0.47092000  0.97777900  0.10755700  1
  O  O93  1  0.97777900  0.47092000  0.89244300  1
  O  O94  1  0.47092000  0.97777900  0.39244300  1
  O  O95  1  0.97777900  0.47092000  0.60755700  1
  O  O96  1  0.12530100  0.27757200  0.25000000  1
  O  O97  1  0.27757200  0.12530100  0.75000000  1
  O  O98  1  0.88173400  0.69165300  0.11230200  1
  O  O99  1  0.69165300  0.88173400  0.88769800  1
  O  O100  1  0.88173400  0.69165300  0.38769800  1
  O  O101  1  0.69165300  0.88173400  0.61230200  1
  O  O102  1  0.54841100  0.22225500  0.03784900  1
  O  O103  1  0.22225500  0.54841100  0.96215100  1
  O  O104  1  0.54841100  0.22225500  0.46215100  1
  O  O105  1  0.22225500  0.54841100  0.53784900  1
  O  O106  1  0.46220000  0.97992700  0.25000000  1
  O  O107  1  0.97992700  0.46220000  0.75000000  1
  O  O108  1  0.17020900  0.05300600  0.11248200  1
  O  O109  1  0.05300600  0.17020900  0.88751800  1
  O  O110  1  0.17020900  0.05300600  0.38751800  1
  O  O111  1  0.05300600  0.17020900  0.61248200  1
  O  O112  1  0.21984200  0.66503200  0.25000000  1
  O  O113  1  0.66503200  0.21984200  0.75000000  1
  O  O114  1  0.19052400  0.61701700  0.11464100  1
  O  O115  1  0.61701700  0.19052400  0.88535900  1
  O  O116  1  0.19052400  0.61701700  0.38535900  1
  O  O117  1  0.61701700  0.19052400  0.61464100  1
  O  O118  1  0.17693800  0.04924200  0.25000000  1
  O  O119  1  0.04924200  0.17693800  0.75000000  1
  O  O120  1  0.88387000  0.66903600  0.95164700  1
  O  O121  1  0.66903600  0.88387000  0.04835300  1
  O  O122  1  0.88387000  0.66903600  0.54835300  1
  O  O123  1  0.66903600  0.88387000  0.45164700  1
  O  O124  1  0.48380500  0.22559800  0.17933500  1
  O  O125  1  0.22559800  0.48380500  0.82066500  1
  O  O126  1  0.48380500  0.22559800  0.32066500  1
  O  O127  1  0.22559800  0.48380500  0.67933500  1
  O  O128  1  0.87854500  0.92255400  0.17219800  1
  O  O129  1  0.92255400  0.87854500  0.82780200  1
  O  O130  1  0.87854500  0.92255400  0.32780200  1
  O  O131  1  0.92255400  0.87854500  0.67219800  1
