# generated using pymatgen
data_BaSr3(SnO3)4
_symmetry_space_group_name_H-M   'P 1'
_cell_length_a   8.37362900
_cell_length_b   5.79494100
_cell_length_c   5.80979860
_cell_angle_alpha   89.85896451
_cell_angle_beta   90.00000000
_cell_angle_gamma   90.00000000
_symmetry_Int_Tables_number   1
_chemical_formula_structural   BaSr3(SnO3)4
_chemical_formula_sum   'Ba1 Sr3 Sn4 O12'
_cell_volume   281.91779882
_cell_formula_units_Z   1
loop_
 _symmetry_equiv_pos_site_id
 _symmetry_equiv_pos_as_xyz
  1  'x, y, z'
loop_
 _atom_site_type_symbol
 _atom_site_label
 _atom_site_symmetry_multiplicity
 _atom_site_fract_x
 _atom_site_fract_y
 _atom_site_fract_z
 _atom_site_occupancy
  Ba  Ba0  1  0.50000000  0.49957500  0.00395200  1
  Sr  Sr1  1  0.50000000  0.00107800  0.50605000  1
  Sr  Sr2  1  0.00000000  0.49642600  0.99572500  1
  Sr  Sr3  1  0.00000000  0.99730500  0.49175800  1
  Sn  Sn4  1  0.24817600  0.50023800  0.50032600  1
  Sn  Sn5  1  0.75195600  0.99985200  0.00049300  1
  Sn  Sn6  1  0.75182400  0.50023800  0.50032600  1
  Sn  Sn7  1  0.24804400  0.99985200  0.00049300  1
  O  O8  1  0.24545800  0.79641800  0.70313100  1
  O  O9  1  0.76575200  0.70800500  0.20777000  1
  O  O10  1  0.74286400  0.20308700  0.29598900  1
  O  O11  1  0.24618200  0.29287800  0.79224000  1
  O  O12  1  0.25713600  0.20308700  0.29598900  1
  O  O13  1  0.75381800  0.29287800  0.79224000  1
  O  O14  1  0.75454200  0.79641800  0.70313100  1
  O  O15  1  0.23424800  0.70800500  0.20777000  1
  O  O16  1  0.50000000  0.51198200  0.49984100  1
  O  O17  1  0.50000000  0.99097700  0.99718700  1
  O  O18  1  0.00000000  0.48731700  0.50136900  1
  O  O19  1  0.00000000  0.01438400  0.00422100  1
