# generated using pymatgen
data_Ca2V2PbO8
_symmetry_space_group_name_H-M   'P 1'
_cell_length_a   7.25822083
_cell_length_b   7.25822083
_cell_length_c   7.25822039
_cell_angle_alpha   46.49462063
_cell_angle_beta   46.49462063
_cell_angle_gamma   46.49462031
_symmetry_Int_Tables_number   1
_chemical_formula_structural   Ca2V2PbO8
_chemical_formula_sum   'Ca2 V2 Pb1 O8'
_cell_volume   183.67785937
_cell_formula_units_Z   1
loop_
 _symmetry_equiv_pos_site_id
 _symmetry_equiv_pos_as_xyz
  1  'x, y, z'
loop_
 _atom_site_type_symbol
 _atom_site_label
 _atom_site_symmetry_multiplicity
 _atom_site_fract_x
 _atom_site_fract_y
 _atom_site_fract_z
 _atom_site_occupancy
  Ca  Ca0  1  0.19479500  0.19479500  0.19479500  1
  Ca  Ca1  1  0.99983000  0.99983000  0.99983000  1
  V  V2  1  0.59624900  0.59624900  0.59624900  1
  V  V3  1  0.40203800  0.40203800  0.40203800  1
  Pb  Pb4  1  0.80470400  0.80470400  0.80470400  1
  O  O5  1  0.26469200  0.76706700  0.26469200  1
  O  O6  1  0.26469200  0.26469200  0.76706700  1
  O  O7  1  0.76706700  0.26469200  0.26469200  1
  O  O8  1  0.73840800  0.23199700  0.73840800  1
  O  O9  1  0.73840800  0.73840800  0.23199700  1
  O  O10  1  0.23199700  0.73840800  0.73840800  1
  O  O11  1  0.68376100  0.68376100  0.68376100  1
  O  O12  1  0.31336100  0.31336100  0.31336100  1
