# generated using pymatgen
data_Ce2HfCo16
_symmetry_space_group_name_H-M   'P 1'
_cell_length_a   8.32743949
_cell_length_b   8.32743949
_cell_length_c   8.24003100
_cell_angle_alpha   90.00000000
_cell_angle_beta   90.00000000
_cell_angle_gamma   119.99999595
_symmetry_Int_Tables_number   1
_chemical_formula_structural   Ce2HfCo16
_chemical_formula_sum   'Ce4 Hf2 Co32'
_cell_volume   494.86013162
_cell_formula_units_Z   2
loop_
 _symmetry_equiv_pos_site_id
 _symmetry_equiv_pos_as_xyz
  1  'x, y, z'
loop_
 _atom_site_type_symbol
 _atom_site_label
 _atom_site_symmetry_multiplicity
 _atom_site_fract_x
 _atom_site_fract_y
 _atom_site_fract_z
 _atom_site_occupancy
  Ce  Ce0  1  0.66666700  0.33333300  0.73428200  1
  Ce  Ce1  1  0.33333300  0.66666700  0.26571800  1
  Ce  Ce2  1  0.00000000  0.00000000  0.24884500  1
  Ce  Ce3  1  0.00000000  0.00000000  0.75115500  1
  Hf  Hf4  1  0.33333300  0.66666700  0.88060000  1
  Hf  Hf5  1  0.66666700  0.33333300  0.11940000  1
  Co  Co6  1  0.96721800  0.32717000  0.25109900  1
  Co  Co7  1  0.67283000  0.64004900  0.25109900  1
  Co  Co8  1  0.35995100  0.03278200  0.25109900  1
  Co  Co9  1  0.96721800  0.64004900  0.25109900  1
  Co  Co10  1  0.67283000  0.03278200  0.25109900  1
  Co  Co11  1  0.35995100  0.32717000  0.25109900  1
  Co  Co12  1  0.03278200  0.67283000  0.74890100  1
  Co  Co13  1  0.32717000  0.35995100  0.74890100  1
  Co  Co14  1  0.64004900  0.96721800  0.74890100  1
  Co  Co15  1  0.03278200  0.35995100  0.74890100  1
  Co  Co16  1  0.32717000  0.96721800  0.74890100  1
  Co  Co17  1  0.64004900  0.67283000  0.74890100  1
  Co  Co18  1  0.33328900  0.16664400  0.51177800  1
  Co  Co19  1  0.83335600  0.16664400  0.51177800  1
  Co  Co20  1  0.83335600  0.66671100  0.51177800  1
  Co  Co21  1  0.66671100  0.83335600  0.48822200  1
  Co  Co22  1  0.16664400  0.83335600  0.48822200  1
  Co  Co23  1  0.16664400  0.33328900  0.48822200  1
  Co  Co24  1  0.67188900  0.83594400  0.02177400  1
  Co  Co25  1  0.16405600  0.83594400  0.02177400  1
  Co  Co26  1  0.16405600  0.32811100  0.02177400  1
  Co  Co27  1  0.32811100  0.16405600  0.97822600  1
  Co  Co28  1  0.83594400  0.16405600  0.97822600  1
  Co  Co29  1  0.83594400  0.67188900  0.97822600  1
  Co  Co30  1  0.00000000  0.50000000  0.50000000  1
  Co  Co31  1  0.50000000  0.50000000  0.50000000  1
  Co  Co32  1  0.50000000  0.00000000  0.50000000  1
  Co  Co33  1  0.00000000  0.50000000  0.00000000  1
  Co  Co34  1  0.50000000  0.50000000  0.00000000  1
  Co  Co35  1  0.50000000  0.00000000  0.00000000  1
  Co  Co36  1  0.66666700  0.33333300  0.41149900  1
  Co  Co37  1  0.33333300  0.66666700  0.58850100  1
