# generated using pymatgen
data_Bi13Pt3I7
_symmetry_space_group_name_H-M   'P 1'
_cell_length_a   9.34172826
_cell_length_b   9.34164440
_cell_length_c   21.79007498
_cell_angle_alpha   89.30272728
_cell_angle_beta   83.87192560
_cell_angle_gamma   59.93534873
_symmetry_Int_Tables_number   1
_chemical_formula_structural   Bi13Pt3I7
_chemical_formula_sum   'Bi26 Pt6 I14'
_cell_volume   1634.43183309
_cell_formula_units_Z   2
loop_
 _symmetry_equiv_pos_site_id
 _symmetry_equiv_pos_as_xyz
  1  'x, y, z'
loop_
 _atom_site_type_symbol
 _atom_site_label
 _atom_site_symmetry_multiplicity
 _atom_site_fract_x
 _atom_site_fract_y
 _atom_site_fract_z
 _atom_site_occupancy
  Bi  Bi0  1  0.26584385  0.49400360  0.62395460  1
  Bi  Bi1  1  0.73415615  0.50599640  0.37604540  1
  Bi  Bi2  1  0.92546951  0.49007594  0.62795416  1
  Bi  Bi3  1  0.07453049  0.50992406  0.37204584  1
  Bi  Bi4  1  0.48638186  0.71223561  0.62454600  1
  Bi  Bi5  1  0.51361814  0.28776439  0.37545400  1
  Bi  Bi6  1  0.09602294  0.07429586  0.78157842  1
  Bi  Bi7  1  0.90397706  0.92570414  0.21842158  1
  Bi  Bi8  1  0.48828652  0.05389505  0.62773783  1
  Bi  Bi9  1  0.51171348  0.94610495  0.37226217  1
  Bi  Bi10  1  0.21936490  0.51193636  0.78202344  1
  Bi  Bi11  1  0.78063510  0.48806364  0.21797656  1
  Bi  Bi12  1  0.92968440  0.83034473  0.62352953  1
  Bi  Bi13  1  0.07031560  0.16965527  0.37647047  1
  Bi  Bi14  1  0.43557818  0.07471807  0.78417745  1
  Bi  Bi15  1  0.56442182  0.92528193  0.21582255  1
  Bi  Bi16  1  0.14935718  0.05069000  0.62484336  1
  Bi  Bi17  1  0.85064282  0.94931000  0.37515664  1
  Bi  Bi18  1  0.87825332  0.85549931  0.77988858  1
  Bi  Bi19  1  0.12174668  0.14450069  0.22011142  1
  Bi  Bi20  1  0.43913852  0.73200855  0.78001255  1
  Bi  Bi21  1  0.56086148  0.26799145  0.21998745  1
  Bi  Bi22  1  0.88070402  0.51230820  0.78379768  1
  Bi  Bi23  1  0.11929598  0.48769180  0.21620232  1
  Bi  Bi24  1  0.73930939  0.02446685  0.99633502  1
  Bi  Bi25  1  0.26069061  0.97553315  0.00366498  1
  Pt  Pt26  1  0.18266575  0.78200173  0.70356183  1
  Pt  Pt27  1  0.81733425  0.21799827  0.29643817  1
  Pt  Pt28  1  0.68298483  0.78250308  0.70472286  1
  Pt  Pt29  1  0.31701517  0.21749692  0.29527714  1
  Pt  Pt30  1  0.18298794  0.28272367  0.70523893  1
  Pt  Pt31  1  0.81701206  0.71727633  0.29476107  1
  I  I32  1  0.74977299  0.74887819  0.50071009  1
  I  I33  1  0.25022701  0.25112181  0.49928991  1
  I  I34  1  0.74664730  0.24965970  0.50971927  1
  I  I35  1  0.25335270  0.75034030  0.49028073  1
  I  I36  1  0.12529782  0.28646513  0.91904687  1
  I  I37  1  0.87470218  0.71353487  0.08095313  1
  I  I38  1  0.68053601  0.28553876  0.71118569  1
  I  I39  1  0.31946399  0.71446124  0.28881431  1
  I  I40  1  0.10964485  0.81769345  0.92497091  1
  I  I41  1  0.89035515  0.18230655  0.07502909  1
  I  I42  1  0.60663836  0.81930664  0.92518065  1
  I  I43  1  0.39336164  0.18069336  0.07481935  1
  I  I44  1  0.61499193  0.30265940  0.91222323  1
  I  I45  1  0.38500807  0.69734060  0.08777677  1
