# generated using pymatgen
data_Ca4Al5CrSi6(HO13)2
_symmetry_space_group_name_H-M   'P 1'
_cell_length_a   5.68171700
_cell_length_b   8.94777470
_cell_length_c   10.25893201
_cell_angle_alpha   115.24299694
_cell_angle_beta   90.00714317
_cell_angle_gamma   90.07514980
_symmetry_Int_Tables_number   1
_chemical_formula_structural   Ca4Al5CrSi6(HO13)2
_chemical_formula_sum   'Ca4 Al5 Cr1 Si6 H2 O26'
_cell_volume   471.74614204
_cell_formula_units_Z   1
loop_
 _symmetry_equiv_pos_site_id
 _symmetry_equiv_pos_as_xyz
  1  'x, y, z'
loop_
 _atom_site_type_symbol
 _atom_site_label
 _atom_site_symmetry_multiplicity
 _atom_site_fract_x
 _atom_site_fract_y
 _atom_site_fract_z
 _atom_site_occupancy
  Ca  Ca0  1  0.24952100  0.24034500  0.84548000  1
  Ca  Ca1  1  0.75047900  0.75965500  0.15452000  1
  Ca  Ca2  1  0.24976500  0.39111800  0.57733400  1
  Ca  Ca3  1  0.75023500  0.60888200  0.42266600  1
  Al  Al4  1  0.50000000  0.00000000  0.50000000  1
  Al  Al5  1  0.00000000  0.00000000  0.50000000  1
  Al  Al6  1  0.00000000  0.00000000  0.00000000  1
  Al  Al7  1  0.75123500  0.70885700  0.77406200  1
  Al  Al8  1  0.24876500  0.29114300  0.22593800  1
  Cr  Cr9  1  0.50000000  0.00000000  0.00000000  1
  Si  Si10  1  0.75029000  0.32010100  0.72572300  1
  Si  Si11  1  0.24971000  0.67989900  0.27427700  1
  Si  Si12  1  0.24914800  0.65890500  0.95055300  1
  Si  Si13  1  0.75085200  0.34109500  0.04944700  1
  Si  Si14  1  0.24877300  0.81534900  0.68306100  1
  Si  Si15  1  0.75122700  0.18465100  0.31693900  1
  H  H16  1  0.75105000  0.94156400  0.67501300  1
  H  H17  1  0.24895000  0.05843600  0.32498700  1
  O  O18  1  0.75001500  0.91900800  0.57208800  1
  O  O19  1  0.24998500  0.08099200  0.42791200  1
  O  O20  1  0.24779600  0.48079100  0.81960100  1
  O  O21  1  0.75220400  0.51920900  0.18039900  1
  O  O22  1  0.51398400  0.20882700  0.65714300  1
  O  O23  1  0.01409700  0.79124000  0.34306100  1
  O  O24  1  0.48601600  0.79117300  0.34285700  1
  O  O25  1  0.98590300  0.20876000  0.65693900  1
  O  O26  1  0.24215200  0.96120100  0.85435500  1
  O  O27  1  0.75784800  0.03879900  0.14564500  1
  O  O28  1  0.48657200  0.69981100  0.65077200  1
  O  O29  1  0.98633700  0.30346000  0.35197100  1
  O  O30  1  0.51342800  0.30018900  0.34922800  1
  O  O31  1  0.01366300  0.69654000  0.64802900  1
  O  O32  1  0.50096800  0.75629000  0.95158300  1
  O  O33  1  0.99473500  0.23565000  0.04457700  1
  O  O34  1  0.49903200  0.24371000  0.04841700  1
  O  O35  1  0.00526500  0.76435000  0.95542300  1
  O  O36  1  0.25013900  0.93463600  0.59530700  1
  O  O37  1  0.74986100  0.06536400  0.40469300  1
  O  O38  1  0.75032300  0.36547500  0.89902600  1
  O  O39  1  0.24967700  0.63452500  0.10097400  1
  O  O40  1  0.75002500  0.48702300  0.70184500  1
  O  O41  1  0.24997500  0.51297700  0.29815500  1
  O  O42  1  0.76226800  0.93852800  0.86158700  1
  O  O43  1  0.23773200  0.06147200  0.13841300  1
