# generated using pymatgen
data_Ca10Nb5InO24
_symmetry_space_group_name_H-M   'P 1'
_cell_length_a   8.08881189
_cell_length_b   8.05298508
_cell_length_c   9.86108237
_cell_angle_alpha   66.70068795
_cell_angle_beta   66.85098469
_cell_angle_gamma   92.30677767
_symmetry_Int_Tables_number   1
_chemical_formula_structural   Ca10Nb5InO24
_chemical_formula_sum   'Ca10 Nb5 In1 O24'
_cell_volume   527.68638128
_cell_formula_units_Z   1
loop_
 _symmetry_equiv_pos_site_id
 _symmetry_equiv_pos_as_xyz
  1  'x, y, z'
loop_
 _atom_site_type_symbol
 _atom_site_label
 _atom_site_symmetry_multiplicity
 _atom_site_fract_x
 _atom_site_fract_y
 _atom_site_fract_z
 _atom_site_occupancy
  Ca  Ca0  1  0.74972300  0.25211500  0.50166200  1
  Ca  Ca1  1  0.00119900  0.99861100  0.00088700  1
  Ca  Ca2  1  0.59787300  0.15340000  0.26063000  1
  Ca  Ca3  1  0.11359500  0.66319100  0.24265300  1
  Ca  Ca4  1  0.41714900  0.36173700  0.74744800  1
  Ca  Ca5  1  0.91240100  0.85565100  0.74196800  1
  Ca  Ca6  1  0.89199900  0.34167800  0.75917700  1
  Ca  Ca7  1  0.39774500  0.84264400  0.73915300  1
  Ca  Ca8  1  0.08683400  0.14374800  0.26165100  1
  Ca  Ca9  1  0.58123400  0.64209900  0.25024800  1
  Nb  Nb10  1  0.49929200  0.00487500  0.99822500  1
  Nb  Nb11  1  0.98493600  0.50289800  0.00449700  1
  Nb  Nb12  1  0.25023500  0.25382900  0.50826500  1
  Nb  Nb13  1  0.75142700  0.74482400  0.49170500  1
  Nb  Nb14  1  0.48981900  0.50233700  0.99865900  1
  In  In15  1  0.25067700  0.75009200  0.49831200  1
  O  O16  1  0.46150700  0.90847300  0.23948500  1
  O  O17  1  0.96640900  0.42396200  0.22540100  1
  O  O18  1  0.17353300  0.22094800  0.72818800  1
  O  O19  1  0.64974700  0.68704000  0.76444100  1
  O  O20  1  0.05462000  0.58462800  0.75853100  1
  O  O21  1  0.52168600  0.08049300  0.77623400  1
  O  O22  1  0.35100400  0.31943200  0.23528400  1
  O  O23  1  0.83035700  0.77076700  0.27262200  1
  O  O24  1  0.47734100  0.66761600  0.56197100  1
  O  O25  1  0.99994500  0.16793800  0.54040100  1
  O  O26  1  0.42831000  0.71651700  0.05352400  1
  O  O27  1  0.91747600  0.24104400  0.05335500  1
  O  O28  1  0.01007800  0.82549700  0.45758500  1
  O  O29  1  0.51973700  0.33357600  0.42788100  1
  O  O30  1  0.08793900  0.76571700  0.93352100  1
  O  O31  1  0.57106100  0.27776800  0.95240500  1
  O  O32  1  0.28704600  0.99253400  0.54380300  1
  O  O33  1  0.75830600  0.47851200  0.58544700  1
  O  O34  1  0.23247700  0.00728800  0.08245400  1
  O  O35  1  0.72792500  0.53008900  0.04707700  1
  O  O36  1  0.23067200  0.52311800  0.43059800  1
  O  O37  1  0.72118900  0.00198300  0.44777200  1
  O  O38  1  0.28500400  0.47597300  0.94692000  1
  O  O39  1  0.76049100  0.98536000  0.92996100  1
