# generated using pymatgen
data_Bi2NO6
_symmetry_space_group_name_H-M   'P 1'
_cell_length_a   4.54722343
_cell_length_b   4.54722343
_cell_length_c   20.18986000
_cell_angle_alpha   90.00000000
_cell_angle_beta   90.00000000
_cell_angle_gamma   95.53417944
_symmetry_Int_Tables_number   1
_chemical_formula_structural   Bi2NO6
_chemical_formula_sum   'Bi4 N2 O12'
_cell_volume   415.52470428
_cell_formula_units_Z   2
loop_
 _symmetry_equiv_pos_site_id
 _symmetry_equiv_pos_as_xyz
  1  'x, y, z'
loop_
 _atom_site_type_symbol
 _atom_site_label
 _atom_site_symmetry_multiplicity
 _atom_site_fract_x
 _atom_site_fract_y
 _atom_site_fract_z
 _atom_site_occupancy
  Bi  Bi0  1  0.67942700  0.32057300  0.09912000  1
  Bi  Bi1  1  0.32057300  0.67942700  0.59912000  1
  Bi  Bi2  1  0.04963500  0.95036500  0.19651300  1
  Bi  Bi3  1  0.95036500  0.04963400  0.69651300  1
  N  N4  1  0.57667600  0.42332400  0.37926300  1
  N  N5  1  0.42332400  0.57667600  0.87926300  1
  O  O6  1  0.99541700  0.00458300  0.09049700  1
  O  O7  1  0.00458300  0.99541700  0.59049700  1
  O  O8  1  0.56101600  0.43898400  0.32247900  1
  O  O9  1  0.43898400  0.56101600  0.82247900  1
  O  O10  1  0.52394200  0.01344100  0.17466500  1
  O  O11  1  0.98655900  0.47605800  0.17466500  1
  O  O12  1  0.47605800  0.98655900  0.67466500  1
  O  O13  1  0.01344100  0.52394200  0.67466500  1
  O  O14  1  0.42509100  0.78481800  0.43461500  1
  O  O15  1  0.21518200  0.57490900  0.43461500  1
  O  O16  1  0.57490900  0.21518200  0.93461500  1
  O  O17  1  0.78481800  0.42509100  0.93461500  1
