# generated using pymatgen
data_BaSr(PbO3)2
_symmetry_space_group_name_H-M   'P 1'
_cell_length_a   6.07328400
_cell_length_b   6.13875600
_cell_length_c   8.61221900
_cell_angle_alpha   90.00000000
_cell_angle_beta   90.00000000
_cell_angle_gamma   90.00000000
_symmetry_Int_Tables_number   1
_chemical_formula_structural   BaSr(PbO3)2
_chemical_formula_sum   'Ba2 Sr2 Pb4 O12'
_cell_volume   321.08426767
_cell_formula_units_Z   2
loop_
 _symmetry_equiv_pos_site_id
 _symmetry_equiv_pos_as_xyz
  1  'x, y, z'
loop_
 _atom_site_type_symbol
 _atom_site_label
 _atom_site_symmetry_multiplicity
 _atom_site_fract_x
 _atom_site_fract_y
 _atom_site_fract_z
 _atom_site_occupancy
  Ba  Ba0  1  0.26001200  0.96538900  0.00000000  1
  Ba  Ba1  1  0.73998800  0.46538900  0.00000000  1
  Sr  Sr2  1  0.24252100  0.04292900  0.50000000  1
  Sr  Sr3  1  0.75747900  0.54292900  0.50000000  1
  Pb  Pb4  1  0.25039500  0.49979200  0.74402800  1
  Pb  Pb5  1  0.74960500  0.99979200  0.25597200  1
  Pb  Pb6  1  0.25039500  0.49979200  0.25597200  1
  Pb  Pb7  1  0.74960500  0.99979200  0.74402800  1
  O  O8  1  0.04125000  0.78725500  0.69494900  1
  O  O9  1  0.95875000  0.28725500  0.30505100  1
  O  O10  1  0.45756500  0.20688700  0.21569700  1
  O  O11  1  0.54243500  0.70688700  0.78430300  1
  O  O12  1  0.45756500  0.20688700  0.78430300  1
  O  O13  1  0.54243500  0.70688700  0.21569700  1
  O  O14  1  0.04125000  0.78725500  0.30505100  1
  O  O15  1  0.95875000  0.28725500  0.69494900  1
  O  O16  1  0.17948600  0.51127300  0.00000000  1
  O  O17  1  0.82051400  0.01127300  0.00000000  1
  O  O18  1  0.34612500  0.45614000  0.50000000  1
  O  O19  1  0.65387500  0.95614000  0.50000000  1
