# generated using pymatgen
data_CsZr18(PI14)3
_symmetry_space_group_name_H-M   'P 1'
_cell_length_a   10.95911060
_cell_length_b   10.95911060
_cell_length_c   39.51809328
_cell_angle_alpha   89.96348133
_cell_angle_beta   89.96348133
_cell_angle_gamma   95.63636712
_symmetry_Int_Tables_number   1
_chemical_formula_structural   CsZr18(PI14)3
_chemical_formula_sum   'Cs2 Zr36 P6 I84'
_cell_volume   4723.25739877
_cell_formula_units_Z   2
loop_
 _symmetry_equiv_pos_site_id
 _symmetry_equiv_pos_as_xyz
  1  'x, y, z'
loop_
 _atom_site_type_symbol
 _atom_site_label
 _atom_site_symmetry_multiplicity
 _atom_site_fract_x
 _atom_site_fract_y
 _atom_site_fract_z
 _atom_site_occupancy
  Cs  Cs0  1  0.49998653  0.49998653  0.16676821  1
  Cs  Cs1  1  0.50001347  0.50001347  0.49989879  1
  Zr  Zr2  1  0.13796490  0.13796490  0.13191855  1
  Zr  Zr3  1  0.13804217  0.13804217  0.46523843  1
  Zr  Zr4  1  0.13860250  0.13860250  0.79897324  1
  Zr  Zr5  1  0.86195783  0.86195783  0.20142757  1
  Zr  Zr6  1  0.86203510  0.86203510  0.53474845  1
  Zr  Zr7  1  0.86139750  0.86139750  0.86769376  1
  Zr  Zr8  1  0.36172080  0.36172080  0.29916604  1
  Zr  Zr9  1  0.36148168  0.36148168  0.63256626  1
  Zr  Zr10  1  0.36134602  0.36134602  0.96551352  1
  Zr  Zr11  1  0.63851832  0.63851832  0.03410074  1
  Zr  Zr12  1  0.63827920  0.63827920  0.36750096  1
  Zr  Zr13  1  0.63865398  0.63865398  0.70115248  1
  Zr  Zr14  1  0.04218983  0.82444112  0.12854915  1
  Zr  Zr15  1  0.04242515  0.82447262  0.46187604  1
  Zr  Zr16  1  0.04360144  0.82325027  0.79561725  1
  Zr  Zr17  1  0.17552738  0.95757485  0.20479096  1
  Zr  Zr18  1  0.17555888  0.95781017  0.53811785  1
  Zr  Zr19  1  0.17674973  0.95639856  0.87104875  1
  Zr  Zr20  1  0.67710117  0.45551117  0.29623476  1
  Zr  Zr21  1  0.67729934  0.45592075  0.62951427  1
  Zr  Zr22  1  0.67700806  0.45603766  0.96217614  1
  Zr  Zr23  1  0.54407925  0.32270066  0.03715273  1
  Zr  Zr24  1  0.54448883  0.32289883  0.37043124  1
  Zr  Zr25  1  0.54396234  0.32299194  0.70449086  1
  Zr  Zr26  1  0.95757485  0.17552738  0.20479096  1
  Zr  Zr27  1  0.95781017  0.17555888  0.53811785  1
  Zr  Zr28  1  0.95639856  0.17674973  0.87104875  1
  Zr  Zr29  1  0.82444112  0.04218983  0.12854915  1
  Zr  Zr30  1  0.82447262  0.04242515  0.46187604  1
  Zr  Zr31  1  0.82325027  0.04360144  0.79561725  1
  Zr  Zr32  1  0.32270066  0.54407925  0.03715273  1
  Zr  Zr33  1  0.32289883  0.54448883  0.37043124  1
  Zr  Zr34  1  0.32299194  0.54396234  0.70449086  1
  Zr  Zr35  1  0.45551117  0.67710117  0.29623476  1
  Zr  Zr36  1  0.45592075  0.67729934  0.62951427  1
  Zr  Zr37  1  0.45603766  0.67700806  0.96217614  1
  P  P38  1  0.50001147  0.50001147  0.99970347  1
  P  P39  1  0.50000000  0.50000000  0.33333300  1
  P  P40  1  0.49998853  0.49998853  0.66696353  1
  P  P41  1  0.00017170  0.00017170  0.16685469  1
  P  P42  1  -0.00017170  -0.00017170  0.49981231  1
  P  P43  1  0.00000000  -0.00000000  0.83333300  1
  I  I44  1  0.90080695  0.40077048  0.25003120  1
  I  I45  1  0.90087253  0.40093872  0.58337369  1
  I  I46  1  0.90113139  0.40123865  0.91666854  1
  I  I47  1  0.59906128  0.09912747  0.08329231  1
  I  I48  1  0.59922952  0.09919305  0.41663580  1
  I  I49  1  0.59876135  0.09886861  0.74999846  1
  I  I50  1  0.09912747  0.59906128  0.08329231  1
  I  I51  1  0.09919305  0.59922952  0.41663580  1
  I  I52  1  0.09886861  0.59876135  0.74999846  1
  I  I53  1  0.40077048  0.90080695  0.25003120  1
  I  I54  1  0.40093872  0.90087253  0.58337369  1
  I  I55  1  0.40123865  0.90113139  0.91666854  1
  I  I56  1  0.28657529  0.53605557  0.25020834  1
  I  I57  1  0.28680084  0.53601932  0.58353530  1
  I  I58  1  0.28813467  0.53597009  0.91681710  1
  I  I59  1  0.46398068  0.71319916  0.08313170  1
  I  I60  1  0.46394443  0.71342471  0.41645866  1
  I  I61  1  0.46402991  0.71186533  0.74984890  1
  I  I62  1  0.96412711  0.21232602  0.08328295  1
  I  I63  1  0.96410689  0.21233048  0.41662703  1
  I  I64  1  0.96420754  0.21168978  0.75013686  1
  I  I65  1  0.78766952  0.03589311  0.25003897  1
  I  I66  1  0.78767398  0.03587289  0.58338405  1
  I  I67  1  0.78831022  0.03579246  0.91653014  1
  I  I68  1  0.71319916  0.46398068  0.08313170  1
  I  I69  1  0.71342471  0.46394443  0.41645866  1
  I  I70  1  0.71186533  0.46402991  0.74984890  1
  I  I71  1  0.53605557  0.28657529  0.25020834  1
  I  I72  1  0.53601932  0.28680084  0.58353530  1
  I  I73  1  0.53597009  0.28813467  0.91681710  1
  I  I74  1  0.03589311  0.78766952  0.25003897  1
  I  I75  1  0.03587289  0.78767398  0.58338405  1
  I  I76  1  0.03579246  0.78831022  0.91653014  1
  I  I77  1  0.21232602  0.96412711  0.08328295  1
  I  I78  1  0.21233048  0.96410689  0.41662703  1
  I  I79  1  0.21168978  0.96420754  0.75013686  1
  I  I80  1  0.24903225  0.75096454  0.16663715  1
  I  I81  1  0.24903546  0.75096775  0.50002985  1
  I  I82  1  0.25001033  0.74998967  0.83333300  1
  I  I83  1  0.75092614  0.24997476  0.00000305  1
  I  I84  1  0.75109035  0.24890965  0.33333300  1
  I  I85  1  0.75002524  0.24907386  0.66666395  1
  I  I86  1  0.75096454  0.24903225  0.16663715  1
  I  I87  1  0.75096775  0.24903546  0.50002985  1
  I  I88  1  0.74998967  0.25001033  0.83333300  1
  I  I89  1  0.24890965  0.75109035  0.33333300  1
  I  I90  1  0.24907386  0.75002524  0.66666395  1
  I  I91  1  0.24997476  0.75092614  0.00000305  1
  I  I92  1  0.11602133  0.36455065  0.16880090  1
  I  I93  1  0.11603147  0.36459218  0.50214668  1
  I  I94  1  0.11649407  0.36412943  0.83587770  1
  I  I95  1  0.63540782  0.88396853  0.16451932  1
  I  I96  1  0.63544935  0.88397867  0.49786610  1
  I  I97  1  0.63587057  0.88350593  0.83078930  1
  I  I98  1  0.13566678  0.38300237  0.00254014  1
  I  I99  1  0.13530414  0.38316198  0.33575638  1
  I  I100  1  0.13568511  0.38371930  0.66911740  1
  I  I101  1  0.61683802  0.86469586  0.33091062  1
  I  I102  1  0.61699763  0.86433322  0.66412586  1
  I  I103  1  0.61628070  0.86431489  0.99754960  1
  I  I104  1  0.88396853  0.63540782  0.16451932  1
  I  I105  1  0.88397867  0.63544935  0.49786610  1
  I  I106  1  0.88350593  0.63587057  0.83078930  1
  I  I107  1  0.36455065  0.11602133  0.16880090  1
  I  I108  1  0.36459218  0.11603147  0.50214668  1
  I  I109  1  0.36412943  0.11649407  0.83587770  1
  I  I110  1  0.86469586  0.61683802  0.33091062  1
  I  I111  1  0.86433322  0.61699763  0.66412586  1
  I  I112  1  0.86431489  0.61628070  0.99754960  1
  I  I113  1  0.38300237  0.13566678  0.00254014  1
  I  I114  1  0.38316198  0.13530414  0.33575638  1
  I  I115  1  0.38371930  0.13568511  0.66911740  1
  I  I116  1  0.34269625  0.34269625  0.08727597  1
  I  I117  1  0.34286569  0.34286569  0.42050051  1
  I  I118  1  0.34590845  0.34590845  0.75469589  1
  I  I119  1  0.65713431  0.65713431  0.24616549  1
  I  I120  1  0.65730375  0.65730375  0.57939103  1
  I  I121  1  0.65409155  0.65409155  0.91197111  1
  I  I122  1  0.15345787  0.15345787  0.25496290  1
  I  I123  1  0.15336756  0.15336756  0.58837242  1
  I  I124  1  0.15396863  0.15396863  0.92142344  1
  I  I125  1  0.84663244  0.84663244  0.07829458  1
  I  I126  1  0.84654213  0.84654213  0.41170410  1
  I  I127  1  0.84603137  0.84603137  0.74524256  1
