# generated using pymatgen
data_BaLaFeO4
_symmetry_space_group_name_H-M   'P 1'
_cell_length_a   7.09055692
_cell_length_b   7.09055692
_cell_length_c   7.09055692
_cell_angle_alpha   147.16541532
_cell_angle_beta   147.16541532
_cell_angle_gamma   47.11892013
_symmetry_Int_Tables_number   1
_chemical_formula_structural   BaLaFeO4
_chemical_formula_sum   'Ba1 La1 Fe1 O4'
_cell_volume   104.40999603
_cell_formula_units_Z   1
loop_
 _symmetry_equiv_pos_site_id
 _symmetry_equiv_pos_as_xyz
  1  'x, y, z'
loop_
 _atom_site_type_symbol
 _atom_site_label
 _atom_site_symmetry_multiplicity
 _atom_site_fract_x
 _atom_site_fract_y
 _atom_site_fract_z
 _atom_site_occupancy
  Ba  Ba0  1  0.64521000  0.64521000  0.00000000  1
  La  La1  1  0.36150200  0.36150200  0.00000000  1
  Fe  Fe2  1  0.99875200  0.99875200  0.00000000  1
  O  O3  1  0.84055600  0.84055600  0.00000000  1
  O  O4  1  0.17553500  0.17553500  0.00000000  1
  O  O5  1  0.48922200  0.98922200  0.50000000  1
  O  O6  1  0.98922200  0.48922200  0.50000000  1
