# generated using pymatgen
data_BaNa(FeAs)4
_symmetry_space_group_name_H-M   'P 1'
_cell_length_a   6.96934908
_cell_length_b   6.96934908
_cell_length_c   5.46282100
_cell_angle_alpha   90.00000000
_cell_angle_beta   90.00000000
_cell_angle_gamma   133.88879631
_symmetry_Int_Tables_number   1
_chemical_formula_structural   BaNa(FeAs)4
_chemical_formula_sum   'Ba1 Na1 Fe4 As4'
_cell_volume   191.22642478
_cell_formula_units_Z   1
loop_
 _symmetry_equiv_pos_site_id
 _symmetry_equiv_pos_as_xyz
  1  'x, y, z'
loop_
 _atom_site_type_symbol
 _atom_site_label
 _atom_site_symmetry_multiplicity
 _atom_site_fract_x
 _atom_site_fract_y
 _atom_site_fract_z
 _atom_site_occupancy
  Ba  Ba0  1  0.50000000  0.50000000  0.50000000  1
  Na  Na1  1  0.00000000  0.00000000  0.00000000  1
  Fe  Fe2  1  0.50000000  0.00000000  0.75044400  1
  Fe  Fe3  1  0.00000000  0.50000000  0.24955600  1
  Fe  Fe4  1  0.00000000  0.50000000  0.75044400  1
  Fe  Fe5  1  0.50000000  0.00000000  0.24955600  1
  As  As6  1  0.35023800  0.64976200  0.00000000  1
  As  As7  1  0.85020900  0.14979100  0.50000000  1
  As  As8  1  0.14979100  0.85020900  0.50000000  1
  As  As9  1  0.64976200  0.35023800  0.00000000  1
