# generated using pymatgen
data_Ca10Si3S3(O12F)2
_symmetry_space_group_name_H-M   'P 1'
_cell_length_a   9.54860208
_cell_length_b   9.54860208
_cell_length_c   6.98827200
_cell_angle_alpha   90.00000000
_cell_angle_beta   90.00000000
_cell_angle_gamma   120.00000058
_symmetry_Int_Tables_number   1
_chemical_formula_structural   Ca10Si3S3(O12F)2
_chemical_formula_sum   'Ca10 Si3 S3 O24 F2'
_cell_volume   551.79787107
_cell_formula_units_Z   1
loop_
 _symmetry_equiv_pos_site_id
 _symmetry_equiv_pos_as_xyz
  1  'x, y, z'
loop_
 _atom_site_type_symbol
 _atom_site_label
 _atom_site_symmetry_multiplicity
 _atom_site_fract_x
 _atom_site_fract_y
 _atom_site_fract_z
 _atom_site_occupancy
  Ca  Ca0  1  0.75023400  0.99174800  0.00000000  1
  Ca  Ca1  1  0.24151400  0.24976600  0.00000000  1
  Ca  Ca2  1  0.00825200  0.75848600  0.00000000  1
  Ca  Ca3  1  0.23664900  0.98755900  0.50000000  1
  Ca  Ca4  1  0.75091000  0.76335100  0.50000000  1
  Ca  Ca5  1  0.01244100  0.24909000  0.50000000  1
  Ca  Ca6  1  0.66666700  0.33333300  0.22334400  1
  Ca  Ca7  1  0.33333300  0.66666700  0.77405300  1
  Ca  Ca8  1  0.33333300  0.66666700  0.22594700  1
  Ca  Ca9  1  0.66666700  0.33333300  0.77665600  1
  Si  Si10  1  0.60951300  0.63566900  0.00000000  1
  Si  Si11  1  0.02615600  0.39048700  0.00000000  1
  Si  Si12  1  0.36433100  0.97384400  0.00000000  1
  S  S13  1  0.40570000  0.37342800  0.50000000  1
  S  S14  1  0.96772800  0.59430000  0.50000000  1
  S  S15  1  0.62657200  0.03227200  0.50000000  1
  O  O16  1  0.66456200  0.75258300  0.19189600  1
  O  O17  1  0.08802100  0.33543800  0.19189600  1
  O  O18  1  0.24741700  0.91197900  0.19189600  1
  O  O19  1  0.34824400  0.26629100  0.67060600  1
  O  O20  1  0.91804700  0.65175600  0.67060600  1
  O  O21  1  0.73370900  0.08195300  0.67060600  1
  O  O22  1  0.34824400  0.26629100  0.32939400  1
  O  O23  1  0.91804700  0.65175600  0.32939400  1
  O  O24  1  0.73370900  0.08195300  0.32939400  1
  O  O25  1  0.66456200  0.75258300  0.80810400  1
  O  O26  1  0.08802100  0.33543800  0.80810400  1
  O  O27  1  0.24741700  0.91197900  0.80810400  1
  O  O28  1  0.40994700  0.53081800  0.00000000  1
  O  O29  1  0.12087100  0.59005300  0.00000000  1
  O  O30  1  0.46918200  0.87912900  0.00000000  1
  O  O31  1  0.58706200  0.46338100  0.50000000  1
  O  O32  1  0.87631800  0.41293800  0.50000000  1
  O  O33  1  0.53661900  0.12368200  0.50000000  1
  O  O34  1  0.69516500  0.52312900  0.00000000  1
  O  O35  1  0.82796400  0.30483500  0.00000000  1
  O  O36  1  0.47687100  0.17203600  0.00000000  1
  O  O37  1  0.34491500  0.48986600  0.50000000  1
  O  O38  1  0.14495100  0.65508500  0.50000000  1
  O  O39  1  0.51013400  0.85504900  0.50000000  1
  F  F40  1  0.00000000  0.00000000  0.00000000  1
  F  F41  1  0.00000000  0.00000000  0.50000000  1
