# generated using pymatgen
data_CaZr2PbO6
_symmetry_space_group_name_H-M   'P 1'
_cell_length_a   8.27888800
_cell_length_b   8.28157292
_cell_length_c   8.29104218
_cell_angle_alpha   89.83605824
_cell_angle_beta   89.67927213
_cell_angle_gamma   89.71158870
_symmetry_Int_Tables_number   1
_chemical_formula_structural   CaZr2PbO6
_chemical_formula_sum   'Ca4 Zr8 Pb4 O24'
_cell_volume   568.43382416
_cell_formula_units_Z   4
loop_
 _symmetry_equiv_pos_site_id
 _symmetry_equiv_pos_as_xyz
  1  'x, y, z'
loop_
 _atom_site_type_symbol
 _atom_site_label
 _atom_site_symmetry_multiplicity
 _atom_site_fract_x
 _atom_site_fract_y
 _atom_site_fract_z
 _atom_site_occupancy
  Ca  Ca0  1  0.51468000  0.50963200  0.99905200  1
  Ca  Ca1  1  0.49845100  0.01396800  0.01405500  1
  Ca  Ca2  1  0.01721800  0.01229800  0.50039500  1
  Ca  Ca3  1  0.01101800  0.50020300  0.01370300  1
  Zr  Zr4  1  0.74786600  0.74970000  0.75233300  1
  Zr  Zr5  1  0.24845400  0.24936600  0.24544600  1
  Zr  Zr6  1  0.74600700  0.24231400  0.24910900  1
  Zr  Zr7  1  0.24007200  0.25089700  0.74672600  1
  Zr  Zr8  1  0.25324800  0.74310500  0.23848500  1
  Zr  Zr9  1  0.74022600  0.24158700  0.75417300  1
  Zr  Zr10  1  0.24264900  0.74945200  0.74252000  1
  Zr  Zr11  1  0.75084800  0.74101200  0.23906900  1
  Pb  Pb12  1  0.51579100  0.51418800  0.51747500  1
  Pb  Pb13  1  0.01724900  0.01206800  0.01388600  1
  Pb  Pb14  1  0.50853100  0.99704000  0.50459300  1
  Pb  Pb15  1  0.99561600  0.50901100  0.51030800  1
  O  O16  1  0.27228200  0.18733500  0.99200800  1
  O  O17  1  0.19073200  0.99095100  0.27134900  1
  O  O18  1  0.99270100  0.27500100  0.18940200  1
  O  O19  1  0.70080800  0.76340000  0.49118300  1
  O  O20  1  0.76449100  0.49132100  0.70028800  1
  O  O21  1  0.49058500  0.69219700  0.77232200  1
  O  O22  1  0.78015600  0.67439100  0.98816700  1
  O  O23  1  0.67949700  0.98931500  0.79023700  1
  O  O24  1  0.98745900  0.78555100  0.68294900  1
  O  O25  1  0.19054300  0.26599300  0.49061100  1
  O  O26  1  0.28114300  0.48955800  0.17608500  1
  O  O27  1  0.49122100  0.18542700  0.26559800  1
  O  O28  1  0.70907200  0.48720300  0.27915200  1
  O  O29  1  0.48472300  0.29119900  0.72444800  1
  O  O30  1  0.28260100  0.71432600  0.48558900  1
  O  O31  1  0.98483200  0.22169500  0.78940200  1
  O  O32  1  0.21978400  0.78767200  0.98572000  1
  O  O33  1  0.78401500  0.98694300  0.21643900  1
  O  O34  1  0.18125400  0.50011600  0.77785100  1
  O  O35  1  0.50097700  0.77332500  0.17825800  1
  O  O36  1  0.77511400  0.18460900  0.50034300  1
  O  O37  1  0.00069200  0.68927700  0.25119000  1
  O  O38  1  0.68515500  0.27253100  0.00015000  1
  O  O39  1  0.25623600  0.99882200  0.69393000  1
