# generated using pymatgen
data_Ca3Mg9Al8(SiO4)12
_symmetry_space_group_name_H-M   'P 1'
_cell_length_a   10.11277693
_cell_length_b   10.11277693
_cell_length_c   11.60312097
_cell_angle_alpha   54.98126241
_cell_angle_beta   54.98126241
_cell_angle_gamma   70.51678250
_symmetry_Int_Tables_number   1
_chemical_formula_structural   Ca3Mg9Al8(SiO4)12
_chemical_formula_sum   'Ca3 Mg9 Al8 Si12 O48'
_cell_volume   795.86076384
_cell_formula_units_Z   1
loop_
 _symmetry_equiv_pos_site_id
 _symmetry_equiv_pos_as_xyz
  1  'x, y, z'
loop_
 _atom_site_type_symbol
 _atom_site_label
 _atom_site_symmetry_multiplicity
 _atom_site_fract_x
 _atom_site_fract_y
 _atom_site_fract_z
 _atom_site_occupancy
  Ca  Ca0  1  0.12401100  0.62559200  0.37611800  1
  Ca  Ca1  1  0.37440800  0.87598900  0.62388200  1
  Ca  Ca2  1  0.37539100  0.62460900  0.00000000  1
  Mg  Mg3  1  0.12440400  0.87559600  0.50000000  1
  Mg  Mg4  1  0.75210800  0.75055100  0.62396300  1
  Mg  Mg5  1  0.24944900  0.24789200  0.37603700  1
  Mg  Mg6  1  0.87504200  0.37448300  0.12503300  1
  Mg  Mg7  1  0.62551700  0.12495800  0.87496700  1
  Mg  Mg8  1  0.62550300  0.37449700  0.50000000  1
  Mg  Mg9  1  0.87445100  0.12554900  0.00000000  1
  Mg  Mg10  1  0.24948600  0.25010000  0.87544700  1
  Mg  Mg11  1  0.74990000  0.75051400  0.12455300  1
  Al  Al12  1  0.99518500  0.49733600  0.25253200  1
  Al  Al13  1  0.99785600  0.49772300  0.75336700  1
  Al  Al14  1  0.50266400  0.00481500  0.74746800  1
  Al  Al15  1  0.50227700  0.00214400  0.24663300  1
  Al  Al16  1  0.50500800  0.49888000  0.24910200  1
  Al  Al17  1  0.50112000  0.49499200  0.75089800  1
  Al  Al18  1  0.99987000  0.00399700  0.24865700  1
  Al  Al19  1  0.99600300  0.00013000  0.75134300  1
  Si  Si20  1  0.37924300  0.87972800  0.12179200  1
  Si  Si21  1  0.12027200  0.62075700  0.87820800  1
  Si  Si22  1  0.62951000  0.37049000  0.00000000  1
  Si  Si23  1  0.87474500  0.12525500  0.50000000  1
  Si  Si24  1  0.74985700  0.74969300  0.37537600  1
  Si  Si25  1  0.25030700  0.25014300  0.62462400  1
  Si  Si26  1  0.62948300  0.12964700  0.37058200  1
  Si  Si27  1  0.87035300  0.37051700  0.62941800  1
  Si  Si28  1  0.37507500  0.62492500  0.50000000  1
  Si  Si29  1  0.12064900  0.87935100  0.00000000  1
  Si  Si30  1  0.24914600  0.24869200  0.12613500  1
  Si  Si31  1  0.75130800  0.75085400  0.87386500  1
  O  O32  1  0.07891800  0.47977100  0.87352400  1
  O  O33  1  0.98080800  0.57949700  0.06632400  1
  O  O34  1  0.52022900  0.92108200  0.12647600  1
  O  O35  1  0.42050300  0.01919200  0.93367600  1
  O  O36  1  0.87746300  0.31234700  0.35432300  1
  O  O37  1  0.68765300  0.12253700  0.64567700  1
  O  O38  1  0.62396700  0.18423200  0.04496000  1
  O  O39  1  0.81576800  0.37603300  0.95504000  1
  O  O40  1  0.39591900  0.20407100  0.66757700  1
  O  O41  1  0.10567800  0.29818900  0.76528100  1
  O  O42  1  0.70181100  0.89432200  0.23471900  1
  O  O43  1  0.79592900  0.60408100  0.33242300  1
  O  O44  1  0.90938700  0.50817300  0.64017100  1
  O  O45  1  0.00828500  0.40830700  0.44239100  1
  O  O46  1  0.49182700  0.09061300  0.35982900  1
  O  O47  1  0.59169300  0.99171500  0.55760900  1
  O  O48  1  0.10827600  0.69139100  0.14654700  1
  O  O49  1  0.30860900  0.89172400  0.85345300  1
  O  O50  1  0.37945600  0.81487900  0.44755000  1
  O  O51  1  0.18512100  0.62054400  0.55245000  1
  O  O52  1  0.60922600  0.80273500  0.82486200  1
  O  O53  1  0.89461500  0.70069400  0.73367800  1
  O  O54  1  0.29930600  0.10538500  0.26632200  1
  O  O55  1  0.19726500  0.39077400  0.17513800  1
  O  O56  1  0.58970100  0.50787000  0.85179300  1
  O  O57  1  0.49213000  0.41029900  0.14820700  1
  O  O58  1  0.01588900  0.07931600  0.54868500  1
  O  O59  1  0.92068400  0.98411100  0.45131500  1
  O  O60  1  0.39104300  0.69211900  0.16222900  1
  O  O61  1  0.19228800  0.89158900  0.25880400  1
  O  O62  1  0.10841100  0.80771200  0.74119600  1
  O  O63  1  0.30788100  0.60895700  0.83777100  1
  O  O64  1  0.89105900  0.80281500  0.37196300  1
  O  O65  1  0.60769100  0.69718500  0.56587200  1
  O  O66  1  0.19718500  0.10894100  0.62803700  1
  O  O67  1  0.30281500  0.39230900  0.43412800  1
  O  O68  1  0.41923500  0.48363600  0.64486700  1
  O  O69  1  0.51636400  0.58076500  0.35513200  1
  O  O70  1  0.98121300  0.92134500  0.95129300  1
  O  O71  1  0.07865500  0.01878700  0.04870700  1
  O  O72  1  0.62435200  0.31613700  0.33130200  1
  O  O73  1  0.81621300  0.12363900  0.23045700  1
  O  O74  1  0.87636100  0.18378700  0.76954300  1
  O  O75  1  0.68386300  0.37564800  0.66869800  1
  O  O76  1  0.10413600  0.20456200  0.12805200  1
  O  O77  1  0.39507100  0.29499200  0.93799100  1
  O  O78  1  0.79543800  0.89586400  0.87194800  1
  O  O79  1  0.70500800  0.60492900  0.06200900  1
