# generated using pymatgen
data_BaZr5Pb4O15
_symmetry_space_group_name_H-M   'P 1'
_cell_length_a   4.25037979
_cell_length_b   4.25037979
_cell_length_c   21.22038931
_cell_angle_alpha   89.46271555
_cell_angle_beta   89.46271555
_cell_angle_gamma   89.26172946
_symmetry_Int_Tables_number   1
_chemical_formula_structural   BaZr5Pb4O15
_chemical_formula_sum   'Ba1 Zr5 Pb4 O15'
_cell_volume   383.29668536
_cell_formula_units_Z   1
loop_
 _symmetry_equiv_pos_site_id
 _symmetry_equiv_pos_as_xyz
  1  'x, y, z'
loop_
 _atom_site_type_symbol
 _atom_site_label
 _atom_site_symmetry_multiplicity
 _atom_site_fract_x
 _atom_site_fract_y
 _atom_site_fract_z
 _atom_site_occupancy
  Ba  Ba0  1  0.47871700  0.47871700  0.08979000  1
  Zr  Zr1  1  0.98268700  0.98268700  0.99393300  1
  Zr  Zr2  1  0.97595500  0.97595500  0.79549100  1
  Zr  Zr3  1  0.97561600  0.97561600  0.59616100  1
  Zr  Zr4  1  0.97480700  0.97480700  0.39670900  1
  Zr  Zr5  1  0.97817100  0.97817100  0.19599100  1
  Pb  Pb6  1  0.42279300  0.42279300  0.88525700  1
  Pb  Pb7  1  0.41966400  0.41966400  0.68601300  1
  Pb  Pb8  1  0.41895000  0.41895000  0.48670300  1
  Pb  Pb9  1  0.41564300  0.41564300  0.28808000  1
  O  O10  1  0.02091800  0.02091800  0.89706000  1
  O  O11  1  0.02234600  0.02234600  0.69808900  1
  O  O12  1  0.02227500  0.02227500  0.49883100  1
  O  O13  1  0.02125100  0.02125100  0.29979400  1
  O  O14  1  0.99171500  0.99171500  0.10006800  1
  O  O15  1  0.02218500  0.49600800  0.80240700  1
  O  O16  1  0.02263500  0.49603400  0.60288000  1
  O  O17  1  0.02326300  0.49529500  0.40321300  1
  O  O18  1  0.01651400  0.49256600  0.20249800  1
  O  O19  1  0.99834200  0.49265000  0.00271800  1
  O  O20  1  0.49600800  0.02218500  0.80240700  1
  O  O21  1  0.49603400  0.02263500  0.60288000  1
  O  O22  1  0.49529500  0.02326300  0.40321300  1
  O  O23  1  0.49256600  0.01651400  0.20249800  1
  O  O24  1  0.49265000  0.99834200  0.00271800  1
