# generated using pymatgen
data_Ca2Ti5(Bi2O9)2
_symmetry_space_group_name_H-M   'P 1'
_cell_length_a   24.59312691
_cell_length_b   24.59312691
_cell_length_c   5.47219100
_cell_angle_alpha   90.00000000
_cell_angle_beta   90.00000000
_cell_angle_gamma   167.12088234
_symmetry_Int_Tables_number   1
_chemical_formula_structural   Ca2Ti5(Bi2O9)2
_chemical_formula_sum   'Ca4 Ti10 Bi8 O36'
_cell_volume   737.71523595
_cell_formula_units_Z   2
loop_
 _symmetry_equiv_pos_site_id
 _symmetry_equiv_pos_as_xyz
  1  'x, y, z'
loop_
 _atom_site_type_symbol
 _atom_site_label
 _atom_site_symmetry_multiplicity
 _atom_site_fract_x
 _atom_site_fract_y
 _atom_site_fract_z
 _atom_site_occupancy
  Ca  Ca0  1  0.53215800  0.45282300  0.49095800  1
  Ca  Ca1  1  0.45282300  0.53215800  0.50904200  1
  Ca  Ca2  1  0.03215800  0.95282300  0.00904200  1
  Ca  Ca3  1  0.95282300  0.03215800  0.99095800  1
  Ti  Ti4  1  0.84345800  0.17772800  0.49753500  1
  Ti  Ti5  1  0.17772800  0.84345800  0.50246500  1
  Ti  Ti6  1  0.34345800  0.67772800  0.00246500  1
  Ti  Ti7  1  0.67772800  0.34345800  0.99753500  1
  Ti  Ti8  1  0.00765600  0.00765600  0.50000000  1
  Ti  Ti9  1  0.50765600  0.50765600  0.00000000  1
  Ti  Ti10  1  0.93762000  0.09311000  0.49420500  1
  Ti  Ti11  1  0.09311000  0.93762000  0.50579500  1
  Ti  Ti12  1  0.43762000  0.59311000  0.00579500  1
  Ti  Ti13  1  0.59311000  0.43762000  0.99420500  1
  Bi  Bi14  1  0.72348500  0.27571300  0.52856600  1
  Bi  Bi15  1  0.27571300  0.72348500  0.47143400  1
  Bi  Bi16  1  0.22348500  0.77571300  0.97143400  1
  Bi  Bi17  1  0.77571300  0.22348500  0.02856600  1
  Bi  Bi18  1  0.59121000  0.34142500  0.49145200  1
  Bi  Bi19  1  0.34142500  0.59121000  0.50854800  1
  Bi  Bi20  1  0.09121000  0.84142500  0.00854800  1
  Bi  Bi21  1  0.84142500  0.09121000  0.99145200  1
  O  O22  1  0.02105800  0.09919300  0.41744900  1
  O  O23  1  0.09919300  0.02105800  0.58255100  1
  O  O24  1  0.52105800  0.59919300  0.08255100  1
  O  O25  1  0.59919300  0.52105800  0.91744900  1
  O  O26  1  0.28740900  0.27334600  0.24382800  1
  O  O27  1  0.27334600  0.28740900  0.75617200  1
  O  O28  1  0.78740900  0.77334600  0.25617200  1
  O  O29  1  0.77334600  0.78740900  0.74382800  1
  O  O30  1  0.33320100  0.19042900  0.20648500  1
  O  O31  1  0.19042900  0.33320100  0.79351500  1
  O  O32  1  0.83320100  0.69042900  0.29351500  1
  O  O33  1  0.69042900  0.83320100  0.70648500  1
  O  O34  1  0.27000400  0.43761200  0.30389100  1
  O  O35  1  0.43761200  0.27000400  0.69610900  1
  O  O36  1  0.77000400  0.93761200  0.19610900  1
  O  O37  1  0.93761200  0.77000400  0.80389100  1
  O  O38  1  0.81798900  0.22362100  0.43531100  1
  O  O39  1  0.22362100  0.81798900  0.56468900  1
  O  O40  1  0.31798900  0.72362100  0.06468900  1
  O  O41  1  0.72362100  0.31798900  0.93531100  1
  O  O42  1  0.11941100  0.42916900  0.24794400  1
  O  O43  1  0.42916900  0.11941100  0.75205600  1
  O  O44  1  0.61941100  0.92916900  0.25205600  1
  O  O45  1  0.92916900  0.61941100  0.74794400  1
  O  O46  1  0.50643400  0.00780400  0.25209000  1
  O  O47  1  0.00780400  0.50643400  0.74791000  1
  O  O48  1  0.00643400  0.50780400  0.24791000  1
  O  O49  1  0.50780400  0.00643400  0.75209000  1
  O  O50  1  0.94465000  0.17963800  0.56530700  1
  O  O51  1  0.17963800  0.94465000  0.43469300  1
  O  O52  1  0.44465000  0.67963800  0.93469300  1
  O  O53  1  0.67963800  0.44465000  0.06530700  1
  O  O54  1  0.44847900  0.12216800  0.26008900  1
  O  O55  1  0.12216800  0.44847900  0.73991100  1
  O  O56  1  0.94847900  0.62216800  0.23991100  1
  O  O57  1  0.62216800  0.94847900  0.76008900  1
