# generated using pymatgen
data_BaBiClO2
_symmetry_space_group_name_H-M   'P 1'
_cell_length_a   7.48727852
_cell_length_b   7.48727852
_cell_length_c   7.48727852
_cell_angle_alpha   148.24689444
_cell_angle_beta   148.24689444
_cell_angle_gamma   45.52103162
_symmetry_Int_Tables_number   1
_chemical_formula_structural   BaBiClO2
_chemical_formula_sum   'Ba1 Bi1 Cl1 O2'
_cell_volume   115.86363201
_cell_formula_units_Z   1
loop_
 _symmetry_equiv_pos_site_id
 _symmetry_equiv_pos_as_xyz
  1  'x, y, z'
loop_
 _atom_site_type_symbol
 _atom_site_label
 _atom_site_symmetry_multiplicity
 _atom_site_fract_x
 _atom_site_fract_y
 _atom_site_fract_z
 _atom_site_occupancy
  Ba  Ba0  1  0.86234600  0.86234600  0.00000000  1
  Bi  Bi1  1  0.17299400  0.17299400  0.00000000  1
  Cl  Cl2  1  0.48116700  0.48116700  0.00000000  1
  O  O3  1  0.74174600  0.24174600  0.50000000  1
  O  O4  1  0.24174600  0.74174600  0.50000000  1
