# generated using pymatgen
data_BaGa2SiSe6
_symmetry_space_group_name_H-M   'P 1'
_cell_length_a   6.53101900
_cell_length_b   6.65539777
_cell_length_c   6.74245431
_cell_angle_alpha   99.86621051
_cell_angle_beta   102.60490376
_cell_angle_gamma   98.49434709
_symmetry_Int_Tables_number   1
_chemical_formula_structural   BaGa2SiSe6
_chemical_formula_sum   'Ba1 Ga2 Si1 Se6'
_cell_volume   276.50622933
_cell_formula_units_Z   1
loop_
 _symmetry_equiv_pos_site_id
 _symmetry_equiv_pos_as_xyz
  1  'x, y, z'
loop_
 _atom_site_type_symbol
 _atom_site_label
 _atom_site_symmetry_multiplicity
 _atom_site_fract_x
 _atom_site_fract_y
 _atom_site_fract_z
 _atom_site_occupancy
  Ba  Ba0  1  0.97943200  0.97474900  0.96897400  1
  Ga  Ga1  1  0.53140200  0.37586600  0.79761100  1
  Ga  Ga2  1  0.79939300  0.52207500  0.38846400  1
  Si  Si3  1  0.37886900  0.80424000  0.52826100  1
  Se  Se4  1  0.69955900  0.86579000  0.44004700  1
  Se  Se5  1  0.42695200  0.71933400  0.84876800  1
  Se  Se6  1  0.88017800  0.44062700  0.72973800  1
  Se  Se7  1  0.12489100  0.58150300  0.25738400  1
  Se  Se8  1  0.24019500  0.10438500  0.55854500  1
  Se  Se9  1  0.57144000  0.24384100  0.11451800  1
