# generated using pymatgen
data_BaCu6Te6S
_symmetry_space_group_name_H-M   'P 1'
_cell_length_a   6.95832900
_cell_length_b   6.93140200
_cell_length_c   7.02313744
_cell_angle_alpha   89.23963033
_cell_angle_beta   90.00000000
_cell_angle_gamma   90.00000000
_symmetry_Int_Tables_number   1
_chemical_formula_structural   BaCu6Te6S
_chemical_formula_sum   'Ba1 Cu6 Te6 S1'
_cell_volume   338.70294217
_cell_formula_units_Z   1
loop_
 _symmetry_equiv_pos_site_id
 _symmetry_equiv_pos_as_xyz
  1  'x, y, z'
loop_
 _atom_site_type_symbol
 _atom_site_label
 _atom_site_symmetry_multiplicity
 _atom_site_fract_x
 _atom_site_fract_y
 _atom_site_fract_z
 _atom_site_occupancy
  Ba  Ba0  1  0.49865400  0.50000000  0.50000000  1
  Cu  Cu1  1  0.19375600  0.18969200  0.19515400  1
  Cu  Cu2  1  0.19375600  0.81030800  0.80484600  1
  Cu  Cu3  1  0.81121000  0.18964000  0.81148100  1
  Cu  Cu4  1  0.81121000  0.81036000  0.18851900  1
  Cu  Cu5  1  0.80542500  0.79675400  0.80549500  1
  Cu  Cu6  1  0.80542500  0.20324600  0.19450500  1
  Te  Te7  1  0.29464300  0.00000000  0.50000000  1
  Te  Te8  1  0.70068800  0.00000000  0.50000000  1
  Te  Te9  1  0.49552900  0.29487700  0.99926400  1
  Te  Te10  1  0.49552900  0.70512300  0.00073600  1
  Te  Te11  1  0.99964800  0.49460000  0.70294600  1
  Te  Te12  1  0.99964800  0.50540000  0.29705400  1
  S  S13  1  0.00584000  0.00000000  0.00000000  1
