# generated using pymatgen
data_BaCaDy2F10
_symmetry_space_group_name_H-M   'P 1'
_cell_length_a   5.21495534
_cell_length_b   5.21495534
_cell_length_c   7.07275561
_cell_angle_alpha   88.11159839
_cell_angle_beta   88.11159839
_cell_angle_gamma   95.97986908
_symmetry_Int_Tables_number   1
_chemical_formula_structural   BaCaDy2F10
_chemical_formula_sum   'Ba1 Ca1 Dy2 F10'
_cell_volume   191.07027091
_cell_formula_units_Z   1
loop_
 _symmetry_equiv_pos_site_id
 _symmetry_equiv_pos_as_xyz
  1  'x, y, z'
loop_
 _atom_site_type_symbol
 _atom_site_label
 _atom_site_symmetry_multiplicity
 _atom_site_fract_x
 _atom_site_fract_y
 _atom_site_fract_z
 _atom_site_occupancy
  Ba  Ba0  1  0.00000000  0.00000000  0.00000000  1
  Ca  Ca1  1  0.50000000  0.50000000  0.00000000  1
  Dy  Dy2  1  0.00000000  0.50000000  0.50000000  1
  Dy  Dy3  1  0.50000000  0.00000000  0.50000000  1
  F  F4  1  0.50000000  0.50000000  0.50000000  1
  F  F5  1  0.00000000  0.00000000  0.50000000  1
  F  F6  1  0.50000000  0.00000000  0.00000000  1
  F  F7  1  0.00000000  0.50000000  0.00000000  1
  F  F8  1  0.73143600  0.73143600  0.73947000  1
  F  F9  1  0.25864900  0.75671700  0.29007300  1
  F  F10  1  0.75671700  0.25864900  0.29007300  1
  F  F11  1  0.26856400  0.26856400  0.26053000  1
  F  F12  1  0.74135100  0.24328300  0.70992700  1
  F  F13  1  0.24328300  0.74135100  0.70992700  1
