# generated using pymatgen
data_Ba4Zr3TiO12
_symmetry_space_group_name_H-M   'P 1'
_cell_length_a   4.21571500
_cell_length_b   4.21571500
_cell_length_c   16.78091300
_cell_angle_alpha   90.00000000
_cell_angle_beta   90.00000000
_cell_angle_gamma   90.00000000
_symmetry_Int_Tables_number   1
_chemical_formula_structural   Ba4Zr3TiO12
_chemical_formula_sum   'Ba4 Zr3 Ti1 O12'
_cell_volume   298.23463076
_cell_formula_units_Z   1
loop_
 _symmetry_equiv_pos_site_id
 _symmetry_equiv_pos_as_xyz
  1  'x, y, z'
loop_
 _atom_site_type_symbol
 _atom_site_label
 _atom_site_symmetry_multiplicity
 _atom_site_fract_x
 _atom_site_fract_y
 _atom_site_fract_z
 _atom_site_occupancy
  Ba  Ba0  1  0.00000000  0.00000000  0.88379800  1
  Ba  Ba1  1  0.00000000  0.00000000  0.11620200  1
  Ba  Ba2  1  0.00000000  0.00000000  0.37290100  1
  Ba  Ba3  1  0.00000000  0.00000000  0.62709900  1
  Zr  Zr4  1  0.50000000  0.50000000  0.24636900  1
  Zr  Zr5  1  0.50000000  0.50000000  0.50000000  1
  Zr  Zr6  1  0.50000000  0.50000000  0.75363100  1
  Ti  Ti7  1  0.50000000  0.50000000  0.00000000  1
  O  O8  1  0.00000000  0.50000000  0.00000000  1
  O  O9  1  0.00000000  0.50000000  0.24701600  1
  O  O10  1  0.00000000  0.50000000  0.50000000  1
  O  O11  1  0.00000000  0.50000000  0.75298400  1
  O  O12  1  0.50000000  0.50000000  0.88367000  1
  O  O13  1  0.50000000  0.50000000  0.11633000  1
  O  O14  1  0.50000000  0.50000000  0.37293200  1
  O  O15  1  0.50000000  0.50000000  0.62706800  1
  O  O16  1  0.50000000  0.00000000  0.00000000  1
  O  O17  1  0.50000000  0.00000000  0.24701600  1
  O  O18  1  0.50000000  0.00000000  0.50000000  1
  O  O19  1  0.50000000  0.00000000  0.75298400  1
