# generated using pymatgen
data_Ba3Sr(ClF)4
_symmetry_space_group_name_H-M   'P 1'
_cell_length_a   4.38844600
_cell_length_b   4.38844600
_cell_length_c   14.57332800
_cell_angle_alpha   90.00000000
_cell_angle_beta   90.00000000
_cell_angle_gamma   90.00000000
_symmetry_Int_Tables_number   1
_chemical_formula_structural   Ba3Sr(ClF)4
_chemical_formula_sum   'Ba3 Sr1 Cl4 F4'
_cell_volume   280.65982951
_cell_formula_units_Z   1
loop_
 _symmetry_equiv_pos_site_id
 _symmetry_equiv_pos_as_xyz
  1  'x, y, z'
loop_
 _atom_site_type_symbol
 _atom_site_label
 _atom_site_symmetry_multiplicity
 _atom_site_fract_x
 _atom_site_fract_y
 _atom_site_fract_z
 _atom_site_occupancy
  Ba  Ba0  1  0.50000000  0.50000000  0.89644700  1
  Ba  Ba1  1  0.00000000  0.00000000  0.10792100  1
  Ba  Ba2  1  0.00000000  0.00000000  0.59804400  1
  Sr  Sr3  1  0.50000000  0.50000000  0.40077600  1
  Cl  Cl4  1  0.50000000  0.50000000  0.18618800  1
  Cl  Cl5  1  0.50000000  0.50000000  0.67235800  1
  Cl  Cl6  1  0.00000000  0.00000000  0.32864000  1
  Cl  Cl7  1  0.00000000  0.00000000  0.82023700  1
  F  F8  1  0.50000000  0.00000000  0.00177400  1
  F  F9  1  0.50000000  0.00000000  0.49292000  1
  F  F10  1  0.00000000  0.50000000  0.00177400  1
  F  F11  1  0.00000000  0.50000000  0.49292000  1
