# generated using pymatgen
data_Ba3SrCa2(MoO6)2
_symmetry_space_group_name_H-M   'P 1'
_cell_length_a   5.98469000
_cell_length_b   5.98469000
_cell_length_c   8.46328900
_cell_angle_alpha   90.00000000
_cell_angle_beta   90.00000000
_cell_angle_gamma   90.00000000
_symmetry_Int_Tables_number   1
_chemical_formula_structural   Ba3SrCa2(MoO6)2
_chemical_formula_sum   'Ba3 Sr1 Ca2 Mo2 O12'
_cell_volume   303.12551231
_cell_formula_units_Z   1
loop_
 _symmetry_equiv_pos_site_id
 _symmetry_equiv_pos_as_xyz
  1  'x, y, z'
loop_
 _atom_site_type_symbol
 _atom_site_label
 _atom_site_symmetry_multiplicity
 _atom_site_fract_x
 _atom_site_fract_y
 _atom_site_fract_z
 _atom_site_occupancy
  Ba  Ba0  1  0.00000000  0.00000000  0.00000000  1
  Ba  Ba1  1  0.50000000  0.50000000  0.00000000  1
  Ba  Ba2  1  0.00000000  0.00000000  0.50000000  1
  Sr  Sr3  1  0.50000000  0.50000000  0.50000000  1
  Ca  Ca4  1  0.50000000  0.00000000  0.25052000  1
  Ca  Ca5  1  0.00000000  0.50000000  0.74948000  1
  Mo  Mo6  1  0.50000000  0.00000000  0.74907400  1
  Mo  Mo7  1  0.00000000  0.50000000  0.25092600  1
  O  O8  1  0.50000000  0.00000000  0.51929200  1
  O  O9  1  0.00000000  0.50000000  0.02052100  1
  O  O10  1  0.76895500  0.72916300  0.25121400  1
  O  O11  1  0.27083700  0.23104500  0.74878600  1
  O  O12  1  0.23104500  0.72916300  0.25121400  1
  O  O13  1  0.72916300  0.23104500  0.74878600  1
  O  O14  1  0.50000000  0.00000000  0.97947900  1
  O  O15  1  0.00000000  0.50000000  0.48070800  1
  O  O16  1  0.23104500  0.27083700  0.25121400  1
  O  O17  1  0.72916300  0.76895500  0.74878600  1
  O  O18  1  0.76895500  0.27083700  0.25121400  1
  O  O19  1  0.27083700  0.76895500  0.74878600  1
