# generated using pymatgen
data_Ba4Ta2TiZnO12
_symmetry_space_group_name_H-M   'P 1'
_cell_length_a   5.81220100
_cell_length_b   5.81220100
_cell_length_c   8.22903200
_cell_angle_alpha   90.00000000
_cell_angle_beta   90.00000000
_cell_angle_gamma   90.00000000
_symmetry_Int_Tables_number   1
_chemical_formula_structural   Ba4Ta2TiZnO12
_chemical_formula_sum   'Ba4 Ta2 Ti1 Zn1 O12'
_cell_volume   277.99052956
_cell_formula_units_Z   1
loop_
 _symmetry_equiv_pos_site_id
 _symmetry_equiv_pos_as_xyz
  1  'x, y, z'
loop_
 _atom_site_type_symbol
 _atom_site_label
 _atom_site_symmetry_multiplicity
 _atom_site_fract_x
 _atom_site_fract_y
 _atom_site_fract_z
 _atom_site_occupancy
  Ba  Ba0  1  0.50000000  0.00000000  0.74304000  1
  Ba  Ba1  1  0.00000000  0.50000000  0.74304000  1
  Ba  Ba2  1  0.50000000  0.00000000  0.25696000  1
  Ba  Ba3  1  0.00000000  0.50000000  0.25696000  1
  Ta  Ta4  1  0.50000000  0.50000000  0.50000000  1
  Ta  Ta5  1  0.00000000  0.00000000  0.00000000  1
  Ti  Ti6  1  0.50000000  0.50000000  0.00000000  1
  Zn  Zn7  1  0.00000000  0.00000000  0.50000000  1
  O  O8  1  0.25961000  0.25961000  0.50000000  1
  O  O9  1  0.74039000  0.74039000  0.50000000  1
  O  O10  1  0.25196200  0.25196200  0.00000000  1
  O  O11  1  0.74803800  0.74803800  0.00000000  1
  O  O12  1  0.00000000  0.00000000  0.76280000  1
  O  O13  1  0.50000000  0.50000000  0.75625400  1
  O  O14  1  0.00000000  0.00000000  0.23720000  1
  O  O15  1  0.50000000  0.50000000  0.24374600  1
  O  O16  1  0.25961000  0.74039000  0.50000000  1
  O  O17  1  0.74039000  0.25961000  0.50000000  1
  O  O18  1  0.25196200  0.74803800  0.00000000  1
  O  O19  1  0.74803800  0.25196200  0.00000000  1
