# generated using pymatgen
data_BaMgV2CuO8
_symmetry_space_group_name_H-M   'P 1'
_cell_length_a   9.92259278
_cell_length_b   9.92259278
_cell_length_c   9.92259278
_cell_angle_alpha   129.85768858
_cell_angle_beta   100.90165234
_cell_angle_gamma   99.78743026
_symmetry_Int_Tables_number   1
_chemical_formula_structural   BaMgV2CuO8
_chemical_formula_sum   'Ba4 Mg4 V8 Cu4 O32'
_cell_volume   679.24525489
_cell_formula_units_Z   4
loop_
 _symmetry_equiv_pos_site_id
 _symmetry_equiv_pos_as_xyz
  1  'x, y, z'
loop_
 _atom_site_type_symbol
 _atom_site_label
 _atom_site_symmetry_multiplicity
 _atom_site_fract_x
 _atom_site_fract_y
 _atom_site_fract_z
 _atom_site_occupancy
  Ba  Ba0  1  0.87413500  0.12604300  0.49989600  1
  Ba  Ba1  1  0.87385300  0.62576200  0.99989600  1
  Ba  Ba2  1  0.37413500  0.37423800  0.24809100  1
  Ba  Ba3  1  0.37385300  0.87395700  0.74809100  1
  Mg  Mg4  1  0.21263500  0.04460000  0.42147100  1
  Mg  Mg5  1  0.87687100  0.20883600  0.92147100  1
  Mg  Mg6  1  0.71263500  0.79116400  0.66803500  1
  Mg  Mg7  1  0.37687100  0.95540000  0.16803500  1
  V  V8  1  0.04476100  0.00000000  0.04476100  1
  V  V9  1  0.54476100  0.00000000  0.54476100  1
  V  V10  1  0.70379800  0.50000000  0.20379800  1
  V  V11  1  0.20379800  0.50000000  0.70379800  1
  V  V12  1  0.54366000  0.42165600  0.62621400  1
  V  V13  1  0.04366000  0.91744700  0.62200400  1
  V  V14  1  0.20455800  0.57834400  0.12200400  1
  V  V15  1  0.70455800  0.08255300  0.12621400  1
  Cu  Cu16  1  0.54191100  0.70808900  0.08244400  1
  Cu  Cu17  1  0.87435600  0.54053300  0.58244400  1
  Cu  Cu18  1  0.04191100  0.45946700  0.33382300  1
  Cu  Cu19  1  0.37435600  0.29191100  0.83382300  1
  O  O20  1  0.89461700  0.78875600  0.82699200  1
  O  O21  1  0.53823600  0.93237500  0.32699200  1
  O  O22  1  0.39461700  0.06762500  0.60586100  1
  O  O23  1  0.03823600  0.21124400  0.10586100  1
  O  O24  1  0.85571200  0.44041600  0.14999800  1
  O  O25  1  0.20958100  0.29428600  0.64999800  1
  O  O26  1  0.35571200  0.70571400  0.91529600  1
  O  O27  1  0.70958100  0.55958400  0.41529600  1
  O  O28  1  0.54162200  0.48504400  0.83917200  1
  O  O29  1  0.89346200  0.97348800  0.68650600  1
  O  O30  1  0.04162200  0.70245000  0.55657800  1
  O  O31  1  0.39346200  0.20695600  0.41997400  1
  O  O32  1  0.21301900  0.79304400  0.18650600  1
  O  O33  1  0.85412800  0.29755000  0.33917200  1
  O  O34  1  0.71301900  0.02651200  0.91997400  1
  O  O35  1  0.35412800  0.51495600  0.05657800  1
  O  O36  1  0.04014100  0.00875300  0.22292400  1
  O  O37  1  0.71417100  0.18278300  0.72292400  1
  O  O38  1  0.54014100  0.81721700  0.53138800  1
  O  O39  1  0.21417100  0.99124700  0.03138800  1
  O  O40  1  0.71085100  0.68750100  0.22128900  1
  O  O41  1  0.03378800  0.51043800  0.72128900  1
  O  O42  1  0.21085100  0.48956200  0.52334900  1
  O  O43  1  0.53378800  0.31249900  0.02334900  1
  O  O44  1  0.71207600  0.40195600  0.61660200  1
  O  O45  1  0.04017400  0.90700000  0.44023900  1
  O  O46  1  0.21207600  0.09547400  0.81012100  1
  O  O47  1  0.54017400  0.59993500  0.63317400  1
  O  O48  1  0.03323900  0.40006500  0.94023900  1
  O  O49  1  0.71464700  0.90452600  0.11660200  1
  O  O50  1  0.53323900  0.09300000  0.13317400  1
  O  O51  1  0.21464700  0.59804400  0.31012100  1
