# generated using pymatgen
data_Ba3SrMg2(Si2O7)2
_symmetry_space_group_name_H-M   'P 1'
_cell_length_a   8.26320210
_cell_length_b   8.26320210
_cell_length_c   5.41676652
_cell_angle_alpha   89.65588287
_cell_angle_beta   89.65588287
_cell_angle_gamma   90.90256771
_symmetry_Int_Tables_number   1
_chemical_formula_structural   Ba3SrMg2(Si2O7)2
_chemical_formula_sum   'Ba3 Sr1 Mg2 Si4 O14'
_cell_volume   369.80013225
_cell_formula_units_Z   1
loop_
 _symmetry_equiv_pos_site_id
 _symmetry_equiv_pos_as_xyz
  1  'x, y, z'
loop_
 _atom_site_type_symbol
 _atom_site_label
 _atom_site_symmetry_multiplicity
 _atom_site_fract_x
 _atom_site_fract_y
 _atom_site_fract_z
 _atom_site_occupancy
  Ba  Ba0  1  0.16648600  0.83434600  0.49010200  1
  Ba  Ba1  1  0.66260300  0.66260300  0.51176700  1
  Ba  Ba2  1  0.83434600  0.16648600  0.49010200  1
  Sr  Sr3  1  0.33164800  0.33164800  0.50901400  1
  Mg  Mg4  1  0.49922700  0.00233000  0.99708100  1
  Mg  Mg5  1  0.00233000  0.49922700  0.99708100  1
  Si  Si6  1  0.14377100  0.14377100  0.94974200  1
  Si  Si7  1  0.36124900  0.63101200  0.04833900  1
  Si  Si8  1  0.86406600  0.86406600  0.95541300  1
  Si  Si9  1  0.63101200  0.36124900  0.04833900  1
  O  O10  1  0.49481000  0.49481000  0.15454500  1
  O  O11  1  0.00373400  0.00373400  0.86266300  1
  O  O12  1  0.15070300  0.15070300  0.25000300  1
  O  O13  1  0.35880300  0.62942100  0.74800200  1
  O  O14  1  0.86050200  0.86050200  0.25483100  1
  O  O15  1  0.62942100  0.35880300  0.74800200  1
  O  O16  1  0.31103000  0.08619500  0.80999400  1
  O  O17  1  0.19262000  0.57232800  0.18793100  1
  O  O18  1  0.69542000  0.92285600  0.82238500  1
  O  O19  1  0.80371300  0.42164800  0.17217500  1
  O  O20  1  0.57232800  0.19262000  0.18793100  1
  O  O21  1  0.92285600  0.69542000  0.82238500  1
  O  O22  1  0.42164800  0.80371300  0.17217500  1
  O  O23  1  0.08619500  0.31103000  0.80999400  1
