# generated using pymatgen
data_Ho6Ge11
_symmetry_space_group_name_H-M   'P 1'
_cell_length_a   4.00350013
_cell_length_b   4.05583771
_cell_length_c   47.40612519
_cell_angle_alpha   105.62665196
_cell_angle_beta   90.31574431
_cell_angle_gamma   89.96863880
_symmetry_Int_Tables_number   1
_chemical_formula_structural   Ho6Ge11
_chemical_formula_sum   'Ho12 Ge22'
_cell_volume   741.29524461
_cell_formula_units_Z   2
loop_
 _symmetry_equiv_pos_site_id
 _symmetry_equiv_pos_as_xyz
  1  'x, y, z'
loop_
 _atom_site_type_symbol
 _atom_site_label
 _atom_site_symmetry_multiplicity
 _atom_site_fract_x
 _atom_site_fract_y
 _atom_site_fract_z
 _atom_site_occupancy
  Ho  Ho0  1  0.23620500  0.10590400  0.04708600  1
  Ho  Ho1  1  0.23345500  0.95804500  0.38369800  1
  Ho  Ho2  1  0.23673600  0.10985300  0.71639700  1
  Ho  Ho3  1  0.73265800  0.04297200  0.28299200  1
  Ho  Ho4  1  0.73111800  0.93014100  0.63840100  1
  Ho  Ho5  1  0.73225100  0.92358500  0.97010200  1
  Ho  Ho6  1  0.24449300  0.79162300  0.11898000  1
  Ho  Ho7  1  0.24629000  0.71401700  0.45687800  1
  Ho  Ho8  1  0.24801500  0.79093100  0.78990700  1
  Ho  Ho9  1  0.74043700  0.27357700  0.20900300  1
  Ho  Ho10  1  0.74518400  0.24138400  0.55307100  1
  Ho  Ho11  1  0.74742300  0.23379500  0.88047900  1
  Ge  Ge12  1  0.23497800  0.49160800  0.26970000  1
  Ge  Ge13  1  0.22960400  0.39381000  0.61041500  1
  Ge  Ge14  1  0.23151900  0.38514400  0.94207800  1
  Ge  Ge15  1  0.73485100  0.57522200  0.03724300  1
  Ge  Ge16  1  0.73596400  0.50971000  0.39690000  1
  Ge  Ge17  1  0.73442900  0.57324100  0.70441300  1
  Ge  Ge18  1  0.23904600  0.85368800  0.23221500  1
  Ge  Ge19  1  0.24609800  0.79472500  0.57552800  1
  Ge  Ge20  1  0.24627300  0.78608300  0.90649600  1
  Ge  Ge21  1  0.74108700  0.22839300  0.09393200  1
  Ge  Ge22  1  0.74434000  0.14545700  0.43475000  1
  Ge  Ge23  1  0.74336400  0.22144300  0.76426000  1
  Ge  Ge24  1  0.24705500  0.65742800  0.17670400  1
  Ge  Ge25  1  0.25495800  0.65057600  0.51830500  1
  Ge  Ge26  1  0.25238600  0.65390400  0.84869500  1
  Ge  Ge27  1  0.74594800  0.33359900  0.14774000  1
  Ge  Ge28  1  0.75310400  0.30694300  0.49082900  1
  Ge  Ge29  1  0.75076700  0.33989500  0.81905300  1
  Ge  Ge30  1  0.23156000  0.47602400  0.99808600  1
  Ge  Ge31  1  0.21031700  0.27392300  0.33364800  1
  Ge  Ge32  1  0.23061900  0.48165200  0.66637200  1
  Ge  Ge33  1  0.70346700  0.73070400  0.33298000  1
