# generated using pymatgen
data_Al4SiPd
_symmetry_space_group_name_H-M   'P 1'
_cell_length_a   7.31612489
_cell_length_b   7.31612489
_cell_length_c   7.31612407
_cell_angle_alpha   33.72825018
_cell_angle_beta   33.72825018
_cell_angle_gamma   33.72824880
_symmetry_Int_Tables_number   1
_chemical_formula_structural   Al4SiPd
_chemical_formula_sum   'Al4 Si1 Pd1'
_cell_volume   107.57041456
_cell_formula_units_Z   1
loop_
 _symmetry_equiv_pos_site_id
 _symmetry_equiv_pos_as_xyz
  1  'x, y, z'
loop_
 _atom_site_type_symbol
 _atom_site_label
 _atom_site_symmetry_multiplicity
 _atom_site_fract_x
 _atom_site_fract_y
 _atom_site_fract_z
 _atom_site_occupancy
  Al  Al0  1  0.62962400  0.62962400  0.62962400  1
  Al  Al1  1  0.12016700  0.12016700  0.12016700  1
  Al  Al2  1  0.87983300  0.87983300  0.87983300  1
  Al  Al3  1  0.37037600  0.37037600  0.37037600  1
  Si  Si4  1  0.50000000  0.50000000  0.50000000  1
  Pd  Pd5  1  0.00000000  0.00000000  0.00000000  1
