# generated using pymatgen
data_Ba3MgTiWO9
_symmetry_space_group_name_H-M   'P 1'
_cell_length_a   5.87090399
_cell_length_b   5.87090399
_cell_length_c   14.41616100
_cell_angle_alpha   90.00000000
_cell_angle_beta   90.00000000
_cell_angle_gamma   119.99999993
_symmetry_Int_Tables_number   1
_chemical_formula_structural   Ba3MgTiWO9
_chemical_formula_sum   'Ba6 Mg2 Ti2 W2 O18'
_cell_volume   430.31869361
_cell_formula_units_Z   2
loop_
 _symmetry_equiv_pos_site_id
 _symmetry_equiv_pos_as_xyz
  1  'x, y, z'
loop_
 _atom_site_type_symbol
 _atom_site_label
 _atom_site_symmetry_multiplicity
 _atom_site_fract_x
 _atom_site_fract_y
 _atom_site_fract_z
 _atom_site_occupancy
  Ba  Ba0  1  0.66666700  0.33333300  0.59324500  1
  Ba  Ba1  1  0.33333300  0.66666700  0.40235800  1
  Ba  Ba2  1  0.33333300  0.66666700  0.09324500  1
  Ba  Ba3  1  0.66666700  0.33333300  0.90235800  1
  Ba  Ba4  1  0.00000000  0.00000000  0.75394900  1
  Ba  Ba5  1  0.00000000  0.00000000  0.25394900  1
  Mg  Mg6  1  0.00000000  0.00000000  0.49763800  1
  Mg  Mg7  1  0.00000000  0.00000000  0.99763800  1
  Ti  Ti8  1  0.66666700  0.33333300  0.35785500  1
  Ti  Ti9  1  0.33333300  0.66666700  0.85785500  1
  W  W10  1  0.33333300  0.66666700  0.65676400  1
  W  W11  1  0.66666700  0.33333300  0.15676400  1
  O  O12  1  0.48340100  0.96680100  0.74566400  1
  O  O13  1  0.48340100  0.51659900  0.74566400  1
  O  O14  1  0.03319900  0.51659900  0.74566400  1
  O  O15  1  0.51659900  0.03319900  0.24566400  1
  O  O16  1  0.51659900  0.48340100  0.24566400  1
  O  O17  1  0.96680100  0.48340100  0.24566400  1
  O  O18  1  0.17277100  0.34554200  0.58551300  1
  O  O19  1  0.17277100  0.82722900  0.58551300  1
  O  O20  1  0.65445800  0.82722900  0.58551300  1
  O  O21  1  0.82872100  0.65744300  0.41488600  1
  O  O22  1  0.82872100  0.17127900  0.41488600  1
  O  O23  1  0.34255700  0.17127900  0.41488600  1
  O  O24  1  0.82722900  0.65445800  0.08551300  1
  O  O25  1  0.82722900  0.17277100  0.08551300  1
  O  O26  1  0.34554200  0.17277100  0.08551300  1
  O  O27  1  0.17127900  0.34255700  0.91488600  1
  O  O28  1  0.17127900  0.82872100  0.91488600  1
  O  O29  1  0.65744300  0.82872100  0.91488600  1
