# generated using pymatgen
data_Ba4Ge2Te5Se3
_symmetry_space_group_name_H-M   'P 1'
_cell_length_a   7.42259100
_cell_length_b   7.63570122
_cell_length_c   9.54909731
_cell_angle_alpha   108.31597510
_cell_angle_beta   90.02585454
_cell_angle_gamma   90.09820057
_symmetry_Int_Tables_number   1
_chemical_formula_structural   Ba4Ge2Te5Se3
_chemical_formula_sum   'Ba4 Ge2 Te5 Se3'
_cell_volume   513.79126724
_cell_formula_units_Z   1
loop_
 _symmetry_equiv_pos_site_id
 _symmetry_equiv_pos_as_xyz
  1  'x, y, z'
loop_
 _atom_site_type_symbol
 _atom_site_label
 _atom_site_symmetry_multiplicity
 _atom_site_fract_x
 _atom_site_fract_y
 _atom_site_fract_z
 _atom_site_occupancy
  Ba  Ba0  1  0.74300400  0.23689900  0.05428000  1
  Ba  Ba1  1  0.25683000  0.76484000  0.93619900  1
  Ba  Ba2  1  0.74333600  0.22296200  0.55865700  1
  Ba  Ba3  1  0.25496500  0.77805100  0.44999600  1
  Ge  Ge4  1  0.75072000  0.78802600  0.70063200  1
  Ge  Ge5  1  0.25710900  0.21769600  0.30038600  1
  Te  Te6  1  0.74965700  0.60276500  0.88880100  1
  Te  Te7  1  0.25221800  0.40059800  0.11130900  1
  Te  Te8  1  0.74871600  0.61459500  0.41855900  1
  Te  Te9  1  0.25202500  0.38520300  0.58393100  1
  Te  Te10  1  0.98629200  0.98953800  0.24023400  1
  Se  Se11  1  0.49815000  0.99473000  0.75612800  1
  Se  Se12  1  0.00212100  0.99548700  0.75639200  1
  Se  Se13  1  0.50485500  0.00861100  0.24449600  1
