# generated using pymatgen
data_BaCa2Y6O12
_symmetry_space_group_name_H-M   'P 1'
_cell_length_a   3.40999700
_cell_length_b   10.32268869
_cell_length_c   10.32267527
_cell_angle_alpha   120.00007037
_cell_angle_beta   90.00000000
_cell_angle_gamma   90.00000000
_symmetry_Int_Tables_number   1
_chemical_formula_structural   BaCa2Y6O12
_chemical_formula_sum   'Ba1 Ca2 Y6 O12'
_cell_volume   314.68019917
_cell_formula_units_Z   1
loop_
 _symmetry_equiv_pos_site_id
 _symmetry_equiv_pos_as_xyz
  1  'x, y, z'
loop_
 _atom_site_type_symbol
 _atom_site_label
 _atom_site_symmetry_multiplicity
 _atom_site_fract_x
 _atom_site_fract_y
 _atom_site_fract_z
 _atom_site_occupancy
  Ba  Ba0  1  0.75000000  0.00000600  0.00000300  1
  Ca  Ca1  1  0.75000000  0.66667200  0.33333600  1
  Ca  Ca2  1  0.25000000  0.33333100  0.66666500  1
  Y  Y3  1  0.75000000  0.34953100  0.00123300  1
  Y  Y4  1  0.75000000  0.99877100  0.34829700  1
  Y  Y5  1  0.75000000  0.65170000  0.65047100  1
  Y  Y6  1  0.25000000  0.65317200  0.99898300  1
  Y  Y7  1  0.25000000  0.00101500  0.65418900  1
  Y  Y8  1  0.25000000  0.34581400  0.34682800  1
  O  O9  1  0.75000000  0.88950500  0.69637100  1
  O  O10  1  0.75000000  0.30363500  0.19313800  1
  O  O11  1  0.75000000  0.80686800  0.11049600  1
  O  O12  1  0.25000000  0.09912800  0.28118800  1
  O  O13  1  0.25000000  0.71879700  0.81793100  1
  O  O14  1  0.25000000  0.18206000  0.90087300  1
  O  O15  1  0.75000000  0.13628000  0.60777600  1
  O  O16  1  0.75000000  0.39222100  0.52850400  1
  O  O17  1  0.75000000  0.47149500  0.86372300  1
  O  O18  1  0.25000000  0.86746600  0.39510800  1
  O  O19  1  0.25000000  0.60489300  0.47235900  1
  O  O20  1  0.25000000  0.52764200  0.13253100  1
