# generated using pymatgen
data_BaCaLu2F10
_symmetry_space_group_name_H-M   'P 1'
_cell_length_a   8.18654527
_cell_length_b   8.18654527
_cell_length_c   8.18654527
_cell_angle_alpha   120.82874100
_cell_angle_beta   120.82874100
_cell_angle_gamma   88.57047368
_symmetry_Int_Tables_number   1
_chemical_formula_structural   BaCaLu2F10
_chemical_formula_sum   'Ba2 Ca2 Lu4 F20'
_cell_volume   382.97096575
_cell_formula_units_Z   2
loop_
 _symmetry_equiv_pos_site_id
 _symmetry_equiv_pos_as_xyz
  1  'x, y, z'
loop_
 _atom_site_type_symbol
 _atom_site_label
 _atom_site_symmetry_multiplicity
 _atom_site_fract_x
 _atom_site_fract_y
 _atom_site_fract_z
 _atom_site_occupancy
  Ba  Ba0  1  0.25000000  0.75000000  0.50000000  1
  Ba  Ba1  1  0.75000000  0.25000000  0.50000000  1
  Ca  Ca2  1  0.75584100  0.75584100  0.00000000  1
  Ca  Ca3  1  0.24415900  0.24415900  0.00000000  1
  Lu  Lu4  1  0.23825300  0.76174700  0.00000000  1
  Lu  Lu5  1  0.23825300  0.23825300  0.47650700  1
  Lu  Lu6  1  0.76174700  0.23825300  0.00000000  1
  Lu  Lu7  1  0.76174700  0.76174700  0.52349300  1
  F  F8  1  0.16771800  0.50000000  0.66771800  1
  F  F9  1  0.48661600  0.48661600  0.65086900  1
  F  F10  1  0.48661600  0.83574700  0.00000000  1
  F  F11  1  0.50000000  0.16771800  0.66771800  1
  F  F12  1  0.16425300  0.16425300  0.65086900  1
  F  F13  1  0.51338400  0.16425300  0.00000000  1
  F  F14  1  0.50000000  0.83228200  0.33228200  1
  F  F15  1  0.51338400  0.51338400  0.34913100  1
  F  F16  1  0.16425300  0.51338400  0.00000000  1
  F  F17  1  0.83228200  0.50000000  0.33228200  1
  F  F18  1  0.83574700  0.83574700  0.34913100  1
  F  F19  1  0.83574700  0.48661600  0.00000000  1
  F  F20  1  0.12393600  0.89175400  0.23218200  1
  F  F21  1  0.10824600  0.34042900  0.23218200  1
  F  F22  1  0.10824600  0.87606400  0.76781800  1
  F  F23  1  0.65957100  0.89175400  0.76781800  1
  F  F24  1  0.87606400  0.10824600  0.76781800  1
  F  F25  1  0.89175400  0.65957100  0.76781800  1
  F  F26  1  0.89175400  0.12393600  0.23218200  1
  F  F27  1  0.34042900  0.10824600  0.23218200  1
