# generated using pymatgen
data_Ba3P4O13
_symmetry_space_group_name_H-M   'P 1'
_cell_length_a   5.77714800
_cell_length_b   7.36389390
_cell_length_c   8.20382378
_cell_angle_alpha   82.56684399
_cell_angle_beta   75.75957075
_cell_angle_gamma   70.30241909
_symmetry_Int_Tables_number   1
_chemical_formula_structural   Ba3P4O13
_chemical_formula_sum   'Ba3 P4 O13'
_cell_volume   318.07739891
_cell_formula_units_Z   1
loop_
 _symmetry_equiv_pos_site_id
 _symmetry_equiv_pos_as_xyz
  1  'x, y, z'
loop_
 _atom_site_type_symbol
 _atom_site_label
 _atom_site_symmetry_multiplicity
 _atom_site_fract_x
 _atom_site_fract_y
 _atom_site_fract_z
 _atom_site_occupancy
  Ba  Ba0  1  0.35502300  0.41004000  0.77273900  1
  Ba  Ba1  1  0.65097100  0.58128700  0.22688500  1
  Ba  Ba2  1  0.99915400  0.00208400  0.99837100  1
  P  P3  1  0.00715000  0.78480400  0.47028600  1
  P  P4  1  0.00144500  0.19856100  0.53350400  1
  P  P5  1  0.66687000  0.80627100  0.80889000  1
  P  P6  1  0.33182100  0.19195100  0.19204100  1
  O  O7  1  0.89201500  0.70157300  0.89257300  1
  O  O8  1  0.10839200  0.29855600  0.10655300  1
  O  O9  1  0.58645100  0.02450800  0.81621900  1
  O  O10  1  0.41285000  0.97388000  0.18355800  1
  O  O11  1  0.76563500  0.75956500  0.60570900  1
  O  O12  1  0.23104500  0.23668000  0.39480900  1
  O  O13  1  0.45368000  0.71758900  0.87034100  1
  O  O14  1  0.54302300  0.28276900  0.13107500  1
  O  O15  1  0.24238400  0.62291600  0.49278400  1
  O  O16  1  0.04755300  0.97271000  0.52228400  1
  O  O17  1  0.75180100  0.31858500  0.49270900  1
  O  O18  1  0.94278200  0.80666700  0.30025400  1
  O  O19  1  0.04045500  0.22470400  0.70311700  1
