# generated using pymatgen
data_Ba4NbCo2MoO12
_symmetry_space_group_name_H-M   'P 1'
_cell_length_a   5.82179000
_cell_length_b   5.82179000
_cell_length_c   8.11837100
_cell_angle_alpha   90.00000000
_cell_angle_beta   90.00000000
_cell_angle_gamma   90.00000000
_symmetry_Int_Tables_number   1
_chemical_formula_structural   Ba4NbCo2MoO12
_chemical_formula_sum   'Ba4 Nb1 Co2 Mo1 O12'
_cell_volume   275.15788700
_cell_formula_units_Z   1
loop_
 _symmetry_equiv_pos_site_id
 _symmetry_equiv_pos_as_xyz
  1  'x, y, z'
loop_
 _atom_site_type_symbol
 _atom_site_label
 _atom_site_symmetry_multiplicity
 _atom_site_fract_x
 _atom_site_fract_y
 _atom_site_fract_z
 _atom_site_occupancy
  Ba  Ba0  1  0.50000000  0.00000000  0.74856100  1
  Ba  Ba1  1  0.00000000  0.50000000  0.25143900  1
  Ba  Ba2  1  0.50000000  0.00000000  0.25143900  1
  Ba  Ba3  1  0.00000000  0.50000000  0.74856100  1
  Nb  Nb4  1  0.00000000  0.00000000  0.50000000  1
  Co  Co5  1  0.00000000  0.00000000  0.00000000  1
  Co  Co6  1  0.50000000  0.50000000  0.50000000  1
  Mo  Mo7  1  0.50000000  0.50000000  0.00000000  1
  O  O8  1  0.00000000  0.00000000  0.75887500  1
  O  O9  1  0.50000000  0.50000000  0.23644400  1
  O  O10  1  0.75660400  0.75660400  0.50000000  1
  O  O11  1  0.25987600  0.25987600  0.00000000  1
  O  O12  1  0.75660400  0.24339600  0.50000000  1
  O  O13  1  0.25987600  0.74012400  0.00000000  1
  O  O14  1  0.00000000  0.00000000  0.24112500  1
  O  O15  1  0.50000000  0.50000000  0.76355600  1
  O  O16  1  0.24339600  0.24339600  0.50000000  1
  O  O17  1  0.74012400  0.74012400  0.00000000  1
  O  O18  1  0.24339600  0.75660400  0.50000000  1
  O  O19  1  0.74012400  0.25987600  0.00000000  1
