# generated using pymatgen
data_Ba4CaZr5O15
_symmetry_space_group_name_H-M   'P 1'
_cell_length_a   4.23833400
_cell_length_b   4.23833400
_cell_length_c   21.19796100
_cell_angle_alpha   90.00000000
_cell_angle_beta   90.00000000
_cell_angle_gamma   90.00000000
_symmetry_Int_Tables_number   1
_chemical_formula_structural   Ba4CaZr5O15
_chemical_formula_sum   'Ba4 Ca1 Zr5 O15'
_cell_volume   380.78904450
_cell_formula_units_Z   1
loop_
 _symmetry_equiv_pos_site_id
 _symmetry_equiv_pos_as_xyz
  1  'x, y, z'
loop_
 _atom_site_type_symbol
 _atom_site_label
 _atom_site_symmetry_multiplicity
 _atom_site_fract_x
 _atom_site_fract_y
 _atom_site_fract_z
 _atom_site_occupancy
  Ba  Ba0  1  0.50000000  0.50000000  0.80122000  1
  Ba  Ba1  1  0.50000000  0.50000000  0.60003900  1
  Ba  Ba2  1  0.50000000  0.50000000  0.39996100  1
  Ba  Ba3  1  0.50000000  0.50000000  0.19878000  1
  Ca  Ca4  1  0.50000000  0.50000000  0.00000000  1
  Zr  Zr5  1  0.00000000  0.00000000  0.09736300  1
  Zr  Zr6  1  0.00000000  0.00000000  0.90263700  1
  Zr  Zr7  1  0.00000000  0.00000000  0.70056800  1
  Zr  Zr8  1  0.00000000  0.00000000  0.50000000  1
  Zr  Zr9  1  0.00000000  0.00000000  0.29943200  1
  O  O10  1  0.00000000  0.00000000  0.00000000  1
  O  O11  1  0.00000000  0.00000000  0.80112200  1
  O  O12  1  0.00000000  0.00000000  0.60027100  1
  O  O13  1  0.00000000  0.00000000  0.39972900  1
  O  O14  1  0.00000000  0.00000000  0.19887800  1
  O  O15  1  0.50000000  0.00000000  0.90445500  1
  O  O16  1  0.50000000  0.00000000  0.70029000  1
  O  O17  1  0.50000000  0.00000000  0.50000000  1
  O  O18  1  0.50000000  0.00000000  0.29971000  1
  O  O19  1  0.50000000  0.00000000  0.09554500  1
  O  O20  1  0.00000000  0.50000000  0.09554500  1
  O  O21  1  0.00000000  0.50000000  0.90445500  1
  O  O22  1  0.00000000  0.50000000  0.70029000  1
  O  O23  1  0.00000000  0.50000000  0.50000000  1
  O  O24  1  0.00000000  0.50000000  0.29971000  1
