# generated using pymatgen
data_Ba3Sm2WO9
_symmetry_space_group_name_H-M   'P 1'
_cell_length_a   10.75011940
_cell_length_b   10.75011940
_cell_length_c   10.75011940
_cell_angle_alpha   146.46845423
_cell_angle_beta   131.65245049
_cell_angle_gamma   60.11952420
_symmetry_Int_Tables_number   1
_chemical_formula_structural   Ba3Sm2WO9
_chemical_formula_sum   'Ba6 Sm4 W2 O18'
_cell_volume   508.05855978
_cell_formula_units_Z   2
loop_
 _symmetry_equiv_pos_site_id
 _symmetry_equiv_pos_as_xyz
  1  'x, y, z'
loop_
 _atom_site_type_symbol
 _atom_site_label
 _atom_site_symmetry_multiplicity
 _atom_site_fract_x
 _atom_site_fract_y
 _atom_site_fract_z
 _atom_site_occupancy
  Ba  Ba0  1  0.57904900  0.83952000  0.73952900  1
  Ba  Ba1  1  0.26537000  0.50000000  0.76537000  1
  Ba  Ba2  1  0.90000900  0.16048000  0.73952900  1
  Ba  Ba3  1  0.09999100  0.83952000  0.26047100  1
  Ba  Ba4  1  0.73463000  0.50000000  0.23463000  1
  Ba  Ba5  1  0.42095100  0.16048000  0.26047100  1
  Sm  Sm6  1  0.32638600  0.32638600  0.00000000  1
  Sm  Sm7  1  0.00000000  0.00000000  0.00000000  1
  Sm  Sm8  1  0.67361400  0.67361400  0.00000000  1
  Sm  Sm9  1  0.50000000  0.00000000  0.50000000  1
  W  W10  1  0.16508400  0.66508400  0.50000000  1
  W  W11  1  0.83491600  0.33491600  0.50000000  1
  O  O12  1  0.60565400  0.33068100  0.27497300  1
  O  O13  1  0.24713700  0.00000000  0.24713700  1
  O  O14  1  0.94429300  0.66931900  0.27497300  1
  O  O15  1  0.90952700  0.63467200  0.72514500  1
  O  O16  1  0.59026600  0.34088900  0.75062400  1
  O  O17  1  0.23877300  0.96421300  0.72544000  1
  O  O18  1  0.76122700  0.48666700  0.72544000  1
  O  O19  1  0.40973400  0.16035800  0.75062400  1
  O  O20  1  0.09047300  0.81561800  0.72514500  1
  O  O21  1  0.05570700  0.33068100  0.72502700  1
  O  O22  1  0.75286300  0.00000000  0.75286300  1
  O  O23  1  0.39434600  0.66931900  0.72502700  1
  O  O24  1  0.76122700  0.03578700  0.27456000  1
  O  O25  1  0.40973400  0.65911100  0.24937600  1
  O  O26  1  0.09047300  0.36532800  0.27485500  1
  O  O27  1  0.90952700  0.18438200  0.27485500  1
  O  O28  1  0.59026600  0.83964200  0.24937600  1
  O  O29  1  0.23877300  0.51333300  0.27456000  1
