# generated using pymatgen
data_Ba4Mn2Ag2As4O17
_symmetry_space_group_name_H-M   'P 1'
_cell_length_a   5.99322900
_cell_length_b   8.88732296
_cell_length_c   9.62910461
_cell_angle_alpha   64.76600426
_cell_angle_beta   89.66569999
_cell_angle_gamma   89.74077527
_symmetry_Int_Tables_number   1
_chemical_formula_structural   Ba4Mn2Ag2As4O17
_chemical_formula_sum   'Ba4 Mn2 Ag2 As4 O17'
_cell_volume   463.93108502
_cell_formula_units_Z   1
loop_
 _symmetry_equiv_pos_site_id
 _symmetry_equiv_pos_as_xyz
  1  'x, y, z'
loop_
 _atom_site_type_symbol
 _atom_site_label
 _atom_site_symmetry_multiplicity
 _atom_site_fract_x
 _atom_site_fract_y
 _atom_site_fract_z
 _atom_site_occupancy
  Ba  Ba0  1  0.23955100  0.22048800  0.89386400  1
  Ba  Ba1  1  0.76751200  0.78332100  0.09635000  1
  Ba  Ba2  1  0.24806600  0.76390800  0.76633400  1
  Ba  Ba3  1  0.76422700  0.24461400  0.23100400  1
  Mn  Mn4  1  0.49502100  0.50135900  0.49929600  1
  Mn  Mn5  1  0.99880000  0.50311100  0.49855000  1
  Ag  Ag6  1  0.25344200  0.16592900  0.49857400  1
  Ag  Ag7  1  0.74887700  0.83408400  0.49652300  1
  As  As8  1  0.25282000  0.50774200  0.17932400  1
  As  As9  1  0.74663800  0.48951800  0.82253000  1
  As  As10  1  0.27941000  0.90503800  0.29476700  1
  As  As11  1  0.75939800  0.09697600  0.69312200  1
  O  O12  1  0.49238700  0.46277200  0.29194800  1
  O  O13  1  0.98959300  0.53316700  0.71247800  1
  O  O14  1  0.50732900  0.53545800  0.70951700  1
  O  O15  1  0.00835500  0.46355100  0.28886000  1
  O  O16  1  0.25333900  0.38406900  0.08297500  1
  O  O17  1  0.74849800  0.61289800  0.91929400  1
  O  O18  1  0.24652800  0.35645500  0.58144500  1
  O  O19  1  0.74471200  0.64339800  0.41460700  1
  O  O20  1  0.24991800  0.71646600  0.06014000  1
  O  O21  1  0.74414900  0.28101100  0.94367100  1
  O  O22  1  0.24232400  0.68035800  0.40525900  1
  O  O23  1  0.75244400  0.31539800  0.60315200  1
  O  O24  1  0.79973100  0.04903800  0.53798900  1
  O  O25  1  0.30212700  0.95237100  0.45757800  1
  O  O26  1  0.98150600  0.01748400  0.81542100  1
  O  O27  1  0.52228200  0.01558200  0.79816100  1
  O  O28  1  0.01711700  0.98143400  0.21066800  1
