# generated using pymatgen
data_Ba4Ga5AgSe12
_symmetry_space_group_name_H-M   'P 1'
_cell_length_a   13.94887900
_cell_length_b   13.94887900
_cell_length_c   6.62830500
_cell_angle_alpha   90.00000000
_cell_angle_beta   90.00000000
_cell_angle_gamma   90.00000000
_symmetry_Int_Tables_number   1
_chemical_formula_structural   Ba4Ga5AgSe12
_chemical_formula_sum   'Ba8 Ga10 Ag2 Se24'
_cell_volume   1289.67742589
_cell_formula_units_Z   2
loop_
 _symmetry_equiv_pos_site_id
 _symmetry_equiv_pos_as_xyz
  1  'x, y, z'
loop_
 _atom_site_type_symbol
 _atom_site_label
 _atom_site_symmetry_multiplicity
 _atom_site_fract_x
 _atom_site_fract_y
 _atom_site_fract_z
 _atom_site_occupancy
  Ba  Ba0  1  0.52572400  0.21268000  0.95586200  1
  Ba  Ba1  1  0.02569500  0.28737400  0.53940300  1
  Ba  Ba2  1  0.47427600  0.78732000  0.95586200  1
  Ba  Ba3  1  0.97430500  0.71262600  0.53940300  1
  Ba  Ba4  1  0.78732000  0.52572400  0.04413800  1
  Ba  Ba5  1  0.71262600  0.02569500  0.46059700  1
  Ba  Ba6  1  0.21268000  0.47427600  0.04413800  1
  Ba  Ba7  1  0.28737400  0.97430500  0.46059700  1
  Ga  Ga8  1  0.74284900  0.36196800  0.55350600  1
  Ga  Ga9  1  0.24293900  0.13814300  0.94901000  1
  Ga  Ga10  1  0.25715100  0.63803200  0.55350600  1
  Ga  Ga11  1  0.75706100  0.86185700  0.94901000  1
  Ga  Ga12  1  0.63803200  0.74284900  0.44649400  1
  Ga  Ga13  1  0.86185700  0.24293900  0.05099000  1
  Ga  Ga14  1  0.36196800  0.25715100  0.44649400  1
  Ga  Ga15  1  0.13814300  0.75706100  0.05099000  1
  Ga  Ga16  1  0.50000000  0.50000000  0.50000000  1
  Ga  Ga17  1  0.00000000  0.00000000  0.00000000  1
  Ag  Ag18  1  0.00000000  0.50000000  0.79057700  1
  Ag  Ag19  1  0.50000000  0.00000000  0.20942300  1
  Se  Se20  1  0.80685000  0.21460600  0.70723600  1
  Se  Se21  1  0.30722900  0.28527100  0.79213400  1
  Se  Se22  1  0.19315000  0.78539400  0.70723600  1
  Se  Se23  1  0.69277100  0.71472900  0.79213400  1
  Se  Se24  1  0.78539400  0.80685000  0.29276400  1
  Se  Se25  1  0.71472900  0.30722900  0.20786600  1
  Se  Se26  1  0.21460600  0.19315000  0.29276400  1
  Se  Se27  1  0.28527100  0.69277100  0.20786600  1
  Se  Se28  1  0.85311700  0.49591800  0.53633400  1
  Se  Se29  1  0.35223800  0.00327600  0.95803600  1
  Se  Se30  1  0.14688300  0.50408200  0.53633400  1
  Se  Se31  1  0.64776200  0.99672400  0.95803600  1
  Se  Se32  1  0.50408200  0.85311700  0.46366600  1
  Se  Se33  1  0.99672400  0.35223800  0.04196400  1
  Se  Se34  1  0.49591800  0.14688300  0.46366600  1
  Se  Se35  1  0.00327600  0.64776200  0.04196400  1
  Se  Se36  1  0.60378000  0.41621200  0.74025700  1
  Se  Se37  1  0.10453500  0.08349600  0.75994900  1
  Se  Se38  1  0.39622000  0.58378800  0.74025700  1
  Se  Se39  1  0.89546500  0.91650400  0.75994900  1
  Se  Se40  1  0.58378800  0.60378000  0.25974300  1
  Se  Se41  1  0.91650400  0.10453500  0.24005100  1
  Se  Se42  1  0.41621200  0.39622000  0.25974300  1
  Se  Se43  1  0.08349600  0.89546500  0.24005100  1
