# generated using pymatgen
data_Ba2Y2Zn8O13
_symmetry_space_group_name_H-M   'P 1'
_cell_length_a   6.45799843
_cell_length_b   6.45799843
_cell_length_c   10.38435395
_cell_angle_alpha   89.70626380
_cell_angle_beta   90.29373620
_cell_angle_gamma   119.84055521
_symmetry_Int_Tables_number   1
_chemical_formula_structural   Ba2Y2Zn8O13
_chemical_formula_sum   'Ba2 Y2 Zn8 O13'
_cell_volume   375.65908120
_cell_formula_units_Z   1
loop_
 _symmetry_equiv_pos_site_id
 _symmetry_equiv_pos_as_xyz
  1  'x, y, z'
loop_
 _atom_site_type_symbol
 _atom_site_label
 _atom_site_symmetry_multiplicity
 _atom_site_fract_x
 _atom_site_fract_y
 _atom_site_fract_z
 _atom_site_occupancy
  Ba  Ba0  1  0.15634100  0.84365900  0.94429400  1
  Ba  Ba1  1  0.86855000  0.13145000  0.43663700  1
  Y  Y2  1  0.17063200  0.82936800  0.31180000  1
  Y  Y3  1  0.85426700  0.14573300  0.80116200  1
  Zn  Zn4  1  0.15396200  0.32933200  0.12668500  1
  Zn  Zn5  1  0.67066800  0.84603800  0.12668500  1
  Zn  Zn6  1  0.84080100  0.65595000  0.62396400  1
  Zn  Zn7  1  0.34405000  0.15919900  0.62396400  1
  Zn  Zn8  1  0.46981600  0.53018400  0.86797200  1
  Zn  Zn9  1  0.50151700  0.49848300  0.38527500  1
  Zn  Zn10  1  0.66161500  0.33838500  0.16194300  1
  Zn  Zn11  1  0.32261400  0.67738600  0.63139200  1
  O  O12  1  0.49062700  0.50937300  0.18851300  1
  O  O13  1  0.49940800  0.50059200  0.68447700  1
  O  O14  1  0.99920400  0.52759700  0.15371700  1
  O  O15  1  0.47240300  0.00079600  0.15371700  1
  O  O16  1  0.00288800  0.51552900  0.72211600  1
  O  O17  1  0.48447100  0.99711200  0.72211600  1
  O  O18  1  0.17859700  0.28689400  0.93794200  1
  O  O19  1  0.71310600  0.82140300  0.93794200  1
  O  O20  1  0.84074200  0.66187900  0.43460000  1
  O  O21  1  0.33812100  0.15925800  0.43460000  1
  O  O22  1  0.33296700  0.66703300  0.44242100  1
  O  O23  1  0.98256400  0.01743600  0.21245900  1
  O  O24  1  0.99326800  0.00673200  0.66470700  1
