# generated using pymatgen
data_Ba3La2Ti2Nb2O15
_symmetry_space_group_name_H-M   'P 1'
_cell_length_a   5.72454801
_cell_length_b   5.72454801
_cell_length_c   11.75964000
_cell_angle_alpha   90.00000000
_cell_angle_beta   90.00000000
_cell_angle_gamma   120.00000007
_symmetry_Int_Tables_number   1
_chemical_formula_structural   Ba3La2Ti2Nb2O15
_chemical_formula_sum   'Ba3 La2 Ti2 Nb2 O15'
_cell_volume   333.73907785
_cell_formula_units_Z   1
loop_
 _symmetry_equiv_pos_site_id
 _symmetry_equiv_pos_as_xyz
  1  'x, y, z'
loop_
 _atom_site_type_symbol
 _atom_site_label
 _atom_site_symmetry_multiplicity
 _atom_site_fract_x
 _atom_site_fract_y
 _atom_site_fract_z
 _atom_site_occupancy
  Ba  Ba0  1  0.66666700  0.33333300  0.57610500  1
  Ba  Ba1  1  0.33333300  0.66666700  0.42389500  1
  Ba  Ba2  1  0.00000000  0.00000000  0.00000000  1
  La  La3  1  0.66666700  0.33333300  0.21280200  1
  La  La4  1  0.33333300  0.66666700  0.78719800  1
  Ti  Ti5  1  0.66666700  0.33333300  0.90340600  1
  Ti  Ti6  1  0.33333300  0.66666700  0.09659400  1
  Nb  Nb7  1  0.00000000  0.00000000  0.30529900  1
  Nb  Nb8  1  0.00000000  0.00000000  0.69470100  1
  O  O9  1  0.34344200  0.17172100  0.37870900  1
  O  O10  1  0.82827900  0.65655800  0.37870900  1
  O  O11  1  0.82827900  0.17172100  0.37870900  1
  O  O12  1  0.65655800  0.82827900  0.62129100  1
  O  O13  1  0.17172100  0.34344200  0.62129100  1
  O  O14  1  0.17172100  0.82827900  0.62129100  1
  O  O15  1  0.33846200  0.16923100  0.80862800  1
  O  O16  1  0.83076900  0.66153800  0.80862800  1
  O  O17  1  0.83076900  0.16923100  0.80862800  1
  O  O18  1  0.66153800  0.83076900  0.19137200  1
  O  O19  1  0.16923100  0.33846200  0.19137200  1
  O  O20  1  0.16923100  0.83076900  0.19137200  1
  O  O21  1  0.50000000  0.00000000  0.00000000  1
  O  O22  1  0.50000000  0.50000000  0.00000000  1
  O  O23  1  0.00000000  0.50000000  0.00000000  1
