# generated using pymatgen
data_Ba4SnGe2(S4Br)2
_symmetry_space_group_name_H-M   'P 1'
_cell_length_a   9.10716900
_cell_length_b   9.29278000
_cell_length_c   12.10865300
_cell_angle_alpha   90.00000000
_cell_angle_beta   90.00000000
_cell_angle_gamma   90.00000000
_symmetry_Int_Tables_number   1
_chemical_formula_structural   Ba4SnGe2(S4Br)2
_chemical_formula_sum   'Ba8 Sn2 Ge4 S16 Br4'
_cell_volume   1024.76641840
_cell_formula_units_Z   2
loop_
 _symmetry_equiv_pos_site_id
 _symmetry_equiv_pos_as_xyz
  1  'x, y, z'
loop_
 _atom_site_type_symbol
 _atom_site_label
 _atom_site_symmetry_multiplicity
 _atom_site_fract_x
 _atom_site_fract_y
 _atom_site_fract_z
 _atom_site_occupancy
  Ba  Ba0  1  0.88634500  0.74133500  0.08204000  1
  Ba  Ba1  1  0.60222100  0.25545000  0.57267600  1
  Ba  Ba2  1  0.10222100  0.24455000  0.42732400  1
  Ba  Ba3  1  0.38634500  0.75866500  0.91796000  1
  Ba  Ba4  1  0.10222100  0.75545000  0.42732400  1
  Ba  Ba5  1  0.38634500  0.24133500  0.91796000  1
  Ba  Ba6  1  0.88634500  0.25866500  0.08204000  1
  Ba  Ba7  1  0.60222100  0.74455000  0.57267600  1
  Sn  Sn8  1  0.02279500  0.50000000  0.73201300  1
  Sn  Sn9  1  0.52279500  0.00000000  0.26798700  1
  Ge  Ge10  1  0.69391300  0.50000000  0.84978000  1
  Ge  Ge11  1  0.79902800  0.50000000  0.33993000  1
  Ge  Ge12  1  0.29902800  0.00000000  0.66007000  1
  Ge  Ge13  1  0.19391300  0.00000000  0.15022000  1
  S  S14  1  0.82987200  0.69256800  0.80684500  1
  S  S15  1  0.70215500  0.28562200  0.31256400  1
  S  S16  1  0.20215500  0.21437800  0.68743600  1
  S  S17  1  0.32987200  0.80743200  0.19315500  1
  S  S18  1  0.20215500  0.78562200  0.68743600  1
  S  S19  1  0.32987200  0.19256800  0.19315500  1
  S  S20  1  0.82987200  0.30743200  0.80684500  1
  S  S21  1  0.70215500  0.71437800  0.31256400  1
  S  S22  1  0.63072900  0.50000000  0.02703200  1
  S  S23  1  0.86239700  0.50000000  0.52613500  1
  S  S24  1  0.36239700  0.00000000  0.47386500  1
  S  S25  1  0.13072900  0.00000000  0.97296800  1
  S  S26  1  0.98968800  0.00000000  0.24944100  1
  S  S27  1  0.51382100  0.00000000  0.75070700  1
  S  S28  1  0.01382100  0.50000000  0.24929300  1
  S  S29  1  0.48968800  0.50000000  0.75055900  1
  Br  Br30  1  0.14378000  0.50000000  0.97322100  1
  Br  Br31  1  0.35736200  0.50000000  0.46347400  1
  Br  Br32  1  0.85736200  0.00000000  0.53652600  1
  Br  Br33  1  0.64378000  0.00000000  0.02677900  1
