# generated using pymatgen
data_K5Te2Mo6H18NO36
_symmetry_space_group_name_H-M   'P 1'
_cell_length_a   10.91311060
_cell_length_b   10.91311060
_cell_length_c   21.09033077
_cell_angle_alpha   67.86594422
_cell_angle_beta   67.86594422
_cell_angle_gamma   55.78462820
_symmetry_Int_Tables_number   1
_chemical_formula_structural   K5Te2Mo6H18NO36
_chemical_formula_sum   'K10 Te4 Mo12 H36 N2 O72'
_cell_volume   1878.87234417
_cell_formula_units_Z   2
loop_
 _symmetry_equiv_pos_site_id
 _symmetry_equiv_pos_as_xyz
  1  'x, y, z'
loop_
 _atom_site_type_symbol
 _atom_site_label
 _atom_site_symmetry_multiplicity
 _atom_site_fract_x
 _atom_site_fract_y
 _atom_site_fract_z
 _atom_site_occupancy
  K  K0  1  0.37116100  0.90199300  0.87481300  1
  K  K1  1  0.12584900  0.62999500  0.60356100  1
  K  K2  1  0.62999500  0.12584900  0.10356100  1
  K  K3  1  0.90199300  0.37116100  0.37481300  1
  K  K4  1  0.99546900  0.79691200  0.22110900  1
  K  K5  1  0.20592100  0.00812900  0.27792900  1
  K  K6  1  0.00812900  0.20592100  0.77792900  1
  K  K7  1  0.79691200  0.99546900  0.72110900  1
  K  K8  1  0.51628300  0.60665000  0.03737100  1
  K  K9  1  0.60665000  0.51628300  0.53737100  1
  Te  Te10  1  0.50203400  0.99762900  0.99819500  1
  Te  Te11  1  0.99762900  0.50203400  0.49819500  1
  Te  Te12  1  0.99873300  0.49965200  0.00078700  1
  Te  Te13  1  0.49965200  0.99873300  0.50078700  1
  Mo  Mo14  1  0.02743200  0.53173200  0.82914500  1
  Mo  Mo15  1  0.46612300  0.97626500  0.66982400  1
  Mo  Mo16  1  0.97626500  0.46612300  0.16982400  1
  Mo  Mo17  1  0.53173200  0.02743200  0.32914500  1
  Mo  Mo18  1  0.05147600  0.73287900  0.04188500  1
  Mo  Mo19  1  0.26531900  0.95404000  0.45788000  1
  Mo  Mo20  1  0.95404000  0.26531900  0.95788000  1
  Mo  Mo21  1  0.73287900  0.05147600  0.54188500  1
  Mo  Mo22  1  0.06439000  0.77564400  0.87420800  1
  Mo  Mo23  1  0.22287200  0.94123700  0.62567200  1
  Mo  Mo24  1  0.94123700  0.22287200  0.12567200  1
  Mo  Mo25  1  0.77564400  0.06439000  0.37420800  1
  H  H26  1  0.19681600  0.38776000  0.28160300  1
  H  H27  1  0.60542200  0.80726300  0.21883300  1
  H  H28  1  0.80726300  0.60542200  0.71883300  1
  H  H29  1  0.38776000  0.19681600  0.78160300  1
  H  H30  1  0.59199700  0.97769700  0.87518500  1
  H  H31  1  0.00869000  0.42221900  0.62164200  1
  H  H32  1  0.42221900  0.00869000  0.12164200  1
  H  H33  1  0.97769700  0.59199700  0.37518500  1
  H  H34  1  0.70157700  0.55369000  0.87482600  1
  H  H35  1  0.45311200  0.30487700  0.62279100  1
  H  H36  1  0.30487700  0.45311200  0.12279100  1
  H  H37  1  0.55369000  0.70157700  0.37482600  1
  H  H38  1  0.76700000  0.95996900  0.97421800  1
  H  H39  1  0.02866200  0.23881400  0.52355900  1
  H  H40  1  0.23881400  0.02866200  0.02355900  1
  H  H41  1  0.95996900  0.76700000  0.47421800  1
  H  H42  1  0.33288000  0.69775200  0.20366900  1
  H  H43  1  0.33908900  0.59412100  0.33116700  1
  H  H44  1  0.59412100  0.33908900  0.83116700  1
  H  H45  1  0.69775200  0.33288000  0.70366900  1
  H  H46  1  0.27078200  0.83953200  0.14487800  1
  H  H47  1  0.17694000  0.71640500  0.35568100  1
  H  H48  1  0.71640500  0.17694000  0.85568100  1
  H  H49  1  0.83953200  0.27078200  0.64487800  1
  H  H50  1  0.57773500  0.57544000  0.84534100  1
  H  H51  1  0.40497000  0.39795000  0.67659100  1
  H  H52  1  0.39795000  0.40497000  0.17659100  1
  H  H53  1  0.57544000  0.57773500  0.34534100  1
  H  H54  1  0.29462400  0.24857300  0.94398400  1
  H  H55  1  0.74880300  0.70911000  0.55563100  1
  H  H56  1  0.70911000  0.74880300  0.05563100  1
  H  H57  1  0.24857300  0.29462400  0.44398400  1
  H  H58  1  0.20033300  0.44171500  0.33881300  1
  H  H59  1  0.56149500  0.78662300  0.16343300  1
  H  H60  1  0.78662300  0.56149500  0.66343300  1
  H  H61  1  0.44171500  0.20033300  0.83881300  1
  N  N62  1  0.54271300  0.43660400  0.24526100  1
  N  N63  1  0.43660400  0.54271300  0.74526100  1
  O  O64  1  0.59054400  0.60962900  0.87770700  1
  O  O65  1  0.40749400  0.41000700  0.62800000  1
  O  O66  1  0.41000700  0.40749400  0.12800000  1
  O  O67  1  0.60962900  0.59054400  0.37770700  1
  O  O68  1  0.60861300  0.89753900  0.91819500  1
  O  O69  1  0.09120700  0.39527700  0.57978500  1
  O  O70  1  0.39527700  0.09120700  0.07978500  1
  O  O71  1  0.89753900  0.60861300  0.41819500  1
  O  O72  1  0.15361000  0.47948300  0.29865600  1
  O  O73  1  0.51785900  0.84380700  0.20006600  1
  O  O74  1  0.84380700  0.51785900  0.70006600  1
  O  O75  1  0.47948300  0.15361000  0.79865600  1
  O  O76  1  0.22203200  0.79990500  0.84888800  1
  O  O77  1  0.20128600  0.78276900  0.64802700  1
  O  O78  1  0.78276900  0.20128600  0.14802700  1
  O  O79  1  0.79990500  0.22203200  0.34888800  1
  O  O80  1  0.21731900  0.74422500  0.01365400  1
  O  O81  1  0.25690800  0.78666700  0.48736600  1
  O  O82  1  0.78666700  0.25690800  0.98736600  1
  O  O83  1  0.74422500  0.21731900  0.51365400  1
  O  O84  1  0.91527700  0.67802900  0.77010100  1
  O  O85  1  0.32173500  0.08655900  0.73038600  1
  O  O86  1  0.08655900  0.32173500  0.23038600  1
  O  O87  1  0.67802900  0.91527700  0.27010100  1
  O  O88  1  0.11352600  0.36320800  0.93560900  1
  O  O89  1  0.63839500  0.88499400  0.56452700  1
  O  O90  1  0.88499400  0.63839500  0.06452700  1
  O  O91  1  0.36320800  0.11352600  0.43560900  1
  O  O92  1  0.16827200  0.39022200  0.78241500  1
  O  O93  1  0.60978200  0.83691100  0.71518000  1
  O  O94  1  0.83691100  0.60978200  0.21518000  1
  O  O95  1  0.39022200  0.16827200  0.28241500  1
  O  O96  1  0.95763300  0.85689300  0.95986300  1
  O  O97  1  0.14352000  0.04874400  0.53925500  1
  O  O98  1  0.04874400  0.14352000  0.03925500  1
  O  O99  1  0.85689300  0.95763300  0.45986300  1
  O  O100  1  0.14268000  0.57455900  0.96962500  1
  O  O101  1  0.43069600  0.85175300  0.52967500  1
  O  O102  1  0.85175300  0.43069600  0.02967500  1
  O  O103  1  0.57455900  0.14268000  0.46962500  1
  O  O104  1  0.88888600  0.44926300  0.88242000  1
  O  O105  1  0.54764300  0.11621900  0.61554700  1
  O  O106  1  0.11621900  0.54764300  0.11554700  1
  O  O107  1  0.44926300  0.88888600  0.38242000  1
  O  O108  1  0.91620300  0.65636500  0.91975600  1
  O  O109  1  0.34387500  0.08554300  0.57943500  1
  O  O110  1  0.08554300  0.34387500  0.07943500  1
  O  O111  1  0.65636500  0.91620300  0.41975600  1
  O  O112  1  0.92115600  0.86393900  0.09573100  1
  O  O113  1  0.13383300  0.08065300  0.40387700  1
  O  O114  1  0.08065300  0.13383300  0.90387700  1
  O  O115  1  0.86393900  0.92115600  0.59573100  1
  O  O116  1  0.30752500  0.73017600  0.15826200  1
  O  O117  1  0.26533600  0.69950800  0.31654600  1
  O  O118  1  0.69950800  0.26533600  0.81654600  1
  O  O119  1  0.73017600  0.30752500  0.65826200  1
  O  O120  1  0.65984800  0.04496400  0.98312600  1
  O  O121  1  0.94834300  0.34670500  0.51000600  1
  O  O122  1  0.34670500  0.94834300  0.01000600  1
  O  O123  1  0.04496400  0.65984800  0.48312600  1
  O  O124  1  0.14860600  0.61425000  0.82624600  1
  O  O125  1  0.38183600  0.85440300  0.67540000  1
  O  O126  1  0.85440300  0.38183600  0.17540000  1
  O  O127  1  0.61425000  0.14860600  0.32624600  1
  O  O128  1  0.93463500  0.93127700  0.82442300  1
  O  O129  1  0.06378500  0.06915900  0.67578600  1
  O  O130  1  0.06915900  0.06378500  0.17578600  1
  O  O131  1  0.93127700  0.93463500  0.32442300  1
  O  O132  1  0.40901900  0.19483400  0.93576700  1
  O  O133  1  0.79762700  0.59584700  0.55960800  1
  O  O134  1  0.59584700  0.79762700  0.05960800  1
  O  O135  1  0.19483400  0.40901900  0.43576700  1
