# generated using pymatgen
data_Ba2TiMnO6
_symmetry_space_group_name_H-M   'P 1'
_cell_length_a   5.76239755
_cell_length_b   9.98031874
_cell_length_c   9.98318844
_cell_angle_alpha   109.46031932
_cell_angle_beta   90.00012096
_cell_angle_gamma   89.99986984
_symmetry_Int_Tables_number   1
_chemical_formula_structural   Ba2TiMnO6
_chemical_formula_sum   'Ba8 Ti4 Mn4 O24'
_cell_volume   541.33965535
_cell_formula_units_Z   4
loop_
 _symmetry_equiv_pos_site_id
 _symmetry_equiv_pos_as_xyz
  1  'x, y, z'
loop_
 _atom_site_type_symbol
 _atom_site_label
 _atom_site_symmetry_multiplicity
 _atom_site_fract_x
 _atom_site_fract_y
 _atom_site_fract_z
 _atom_site_occupancy
  Ba  Ba0  1  0.49999800  0.21472300  0.14415600  1
  Ba  Ba1  1  0.00000100  0.71472000  0.14415700  1
  Ba  Ba2  1  0.50000000  0.78527500  0.85584400  1
  Ba  Ba3  1  0.00000000  0.28528000  0.85584400  1
  Ba  Ba4  1  0.50000100  0.37078900  0.61236300  1
  Ba  Ba5  1  0.00000000  0.87079000  0.61235400  1
  Ba  Ba6  1  0.49999800  0.62920900  0.38763600  1
  Ba  Ba7  1  0.00000200  0.12920600  0.38764300  1
  Ti  Ti8  1  0.00000000  0.59280800  0.77855500  1
  Ti  Ti9  1  0.50000000  0.09279300  0.77855300  1
  Ti  Ti10  1  0.00000000  0.40719400  0.22144900  1
  Ti  Ti11  1  0.49999900  0.90720400  0.22144500  1
  Mn  Mn12  1  0.50000000  0.00002500  0.49998500  1
  Mn  Mn13  1  0.49999600  0.50001000  0.99999500  1
  Mn  Mn14  1  0.00001000  0.49998500  0.50004500  1
  Mn  Mn15  1  0.00001000  0.00000500  0.99998100  1
  O  O16  1  0.74561200  0.45732000  0.11761300  1
  O  O17  1  0.24562400  0.95731800  0.11761800  1
  O  O18  1  0.25438800  0.45732000  0.11761400  1
  O  O19  1  0.75437400  0.95731900  0.11761700  1
  O  O20  1  0.99999900  0.20297900  0.11766200  1
  O  O21  1  0.49999800  0.70297600  0.11766100  1
  O  O22  1  0.25438600  0.54267900  0.88238500  1
  O  O23  1  0.75437500  0.04268100  0.88238200  1
  O  O24  1  0.74561100  0.54267900  0.88238500  1
  O  O25  1  0.24562500  0.04267900  0.88238100  1
  O  O26  1  0.00000000  0.79701800  0.88233700  1
  O  O27  1  0.49999900  0.29702200  0.88233800  1
  O  O28  1  0.77691400  0.61789200  0.63056500  1
  O  O29  1  0.27691500  0.11789100  0.63056400  1
  O  O30  1  0.22308500  0.61789100  0.63056500  1
  O  O31  1  0.72308400  0.11789100  0.63056300  1
  O  O32  1  0.00000000  0.39486100  0.63055500  1
  O  O33  1  0.50000000  0.89486100  0.63055400  1
  O  O34  1  0.22308500  0.38210500  0.36943400  1
  O  O35  1  0.72308400  0.88210800  0.36943700  1
  O  O36  1  0.77691400  0.38210700  0.36943500  1
  O  O37  1  0.27691600  0.88210900  0.36943700  1
  O  O38  1  0.99999800  0.60513700  0.36944600  1
  O  O39  1  0.49999900  0.10513900  0.36944600  1
