# generated using pymatgen
data_Ba2SrB18
_symmetry_space_group_name_H-M   'P 1'
_cell_length_a   4.25349000
_cell_length_b   4.25349000
_cell_length_c   12.75964500
_cell_angle_alpha   90.00000000
_cell_angle_beta   90.00000000
_cell_angle_gamma   90.00000000
_symmetry_Int_Tables_number   1
_chemical_formula_structural   Ba2SrB18
_chemical_formula_sum   'Ba2 Sr1 B18'
_cell_volume   230.84975810
_cell_formula_units_Z   1
loop_
 _symmetry_equiv_pos_site_id
 _symmetry_equiv_pos_as_xyz
  1  'x, y, z'
loop_
 _atom_site_type_symbol
 _atom_site_label
 _atom_site_symmetry_multiplicity
 _atom_site_fract_x
 _atom_site_fract_y
 _atom_site_fract_z
 _atom_site_occupancy
  Ba  Ba0  1  0.00000000  0.00000000  0.33294500  1
  Ba  Ba1  1  0.00000000  0.00000000  0.66705500  1
  Sr  Sr2  1  0.00000000  0.00000000  0.00000000  1
  B  B3  1  0.20411000  0.50000000  0.16532000  1
  B  B4  1  0.20458100  0.50000000  0.50000000  1
  B  B5  1  0.20411000  0.50000000  0.83468000  1
  B  B6  1  0.50000000  0.50000000  0.26424300  1
  B  B7  1  0.50000000  0.50000000  0.59864300  1
  B  B8  1  0.50000000  0.50000000  0.93278600  1
  B  B9  1  0.50000000  0.20411000  0.16532000  1
  B  B10  1  0.50000000  0.20458100  0.50000000  1
  B  B11  1  0.50000000  0.20411000  0.83468000  1
  B  B12  1  0.50000000  0.50000000  0.06721400  1
  B  B13  1  0.50000000  0.50000000  0.40135700  1
  B  B14  1  0.50000000  0.50000000  0.73575700  1
  B  B15  1  0.50000000  0.79589000  0.16532000  1
  B  B16  1  0.50000000  0.79541900  0.50000000  1
  B  B17  1  0.50000000  0.79589000  0.83468000  1
  B  B18  1  0.79589000  0.50000000  0.16532000  1
  B  B19  1  0.79541900  0.50000000  0.50000000  1
  B  B20  1  0.79589000  0.50000000  0.83468000  1
