# generated using pymatgen
data_Ba4Pr3BiO12
_symmetry_space_group_name_H-M   'P 1'
_cell_length_a   6.34114700
_cell_length_b   6.38888107
_cell_length_c   9.00899979
_cell_angle_alpha   89.90316897
_cell_angle_beta   89.89923467
_cell_angle_gamma   89.99137274
_symmetry_Int_Tables_number   1
_chemical_formula_structural   Ba4Pr3BiO12
_chemical_formula_sum   'Ba4 Pr3 Bi1 O12'
_cell_volume   364.97902393
_cell_formula_units_Z   1
loop_
 _symmetry_equiv_pos_site_id
 _symmetry_equiv_pos_as_xyz
  1  'x, y, z'
loop_
 _atom_site_type_symbol
 _atom_site_label
 _atom_site_symmetry_multiplicity
 _atom_site_fract_x
 _atom_site_fract_y
 _atom_site_fract_z
 _atom_site_occupancy
  Ba  Ba0  1  0.50941900  0.53089300  0.24262200  1
  Ba  Ba1  1  0.99451500  0.03175300  0.24215600  1
  Ba  Ba2  1  0.49058100  0.46910700  0.75737800  1
  Ba  Ba3  1  0.00548500  0.96824700  0.75784400  1
  Pr  Pr4  1  0.50000000  0.00000000  0.00000000  1
  Pr  Pr5  1  0.00000000  0.50000000  0.50000000  1
  Pr  Pr6  1  0.50000000  0.00000000  0.50000000  1
  Bi  Bi7  1  0.00000000  0.50000000  0.00000000  1
  O  O8  1  0.08050600  0.48158900  0.23394800  1
  O  O9  1  0.41940100  0.97216700  0.24767400  1
  O  O10  1  0.91949400  0.51841100  0.76605200  1
  O  O11  1  0.58059900  0.02783300  0.75232600  1
  O  O12  1  0.25907100  0.71504600  0.95646700  1
  O  O13  1  0.19855400  0.20062700  0.54438600  1
  O  O14  1  0.70043900  0.30129900  0.45320200  1
  O  O15  1  0.78750800  0.76133800  0.04021800  1
  O  O16  1  0.74092900  0.28495400  0.04353300  1
  O  O17  1  0.80144600  0.79937300  0.45561400  1
  O  O18  1  0.29956100  0.69870100  0.54679800  1
  O  O19  1  0.21249200  0.23866200  0.95978200  1
