# generated using pymatgen
data_Ba2SrTi3O9
_symmetry_space_group_name_H-M   'P 1'
_cell_length_a   8.91335345
_cell_length_b   8.91335345
_cell_length_c   4.09803600
_cell_angle_alpha   90.00000000
_cell_angle_beta   90.00000000
_cell_angle_gamma   143.08189393
_symmetry_Int_Tables_number   1
_chemical_formula_structural   Ba2SrTi3O9
_chemical_formula_sum   'Ba2 Sr1 Ti3 O9'
_cell_volume   195.56722247
_cell_formula_units_Z   1
loop_
 _symmetry_equiv_pos_site_id
 _symmetry_equiv_pos_as_xyz
  1  'x, y, z'
loop_
 _atom_site_type_symbol
 _atom_site_label
 _atom_site_symmetry_multiplicity
 _atom_site_fract_x
 _atom_site_fract_y
 _atom_site_fract_z
 _atom_site_occupancy
  Ba  Ba0  1  0.66698700  0.33301300  0.00501800  1
  Ba  Ba1  1  0.33301300  0.66698700  0.00501800  1
  Sr  Sr2  1  0.00000000  0.00000000  0.99517500  1
  Ti  Ti3  1  0.16466900  0.83533100  0.48625900  1
  Ti  Ti4  1  0.83533100  0.16466900  0.48625900  1
  Ti  Ti5  1  0.50000000  0.50000000  0.48574000  1
  O  O6  1  0.16260000  0.83740000  0.03552300  1
  O  O7  1  0.83740000  0.16260000  0.03552300  1
  O  O8  1  0.50000000  0.50000000  0.03560500  1
  O  O9  1  0.83471300  0.67123000  0.52703900  1
  O  O10  1  0.50000000  0.00000000  0.52186300  1
  O  O11  1  0.16528700  0.32877000  0.52703900  1
  O  O12  1  0.32877000  0.16528700  0.52703900  1
  O  O13  1  0.00000000  0.50000000  0.52186300  1
  O  O14  1  0.67123000  0.83471300  0.52703900  1
