# generated using pymatgen
data_BaMn3Fe3O11
_symmetry_space_group_name_H-M   'P 1'
_cell_length_a   5.96190460
_cell_length_b   5.96190460
_cell_length_c   13.48834400
_cell_angle_alpha   90.00000000
_cell_angle_beta   90.00000000
_cell_angle_gamma   121.15782090
_symmetry_Int_Tables_number   1
_chemical_formula_structural   BaMn3Fe3O11
_chemical_formula_sum   'Ba2 Mn6 Fe6 O22'
_cell_volume   410.27328763
_cell_formula_units_Z   2
loop_
 _symmetry_equiv_pos_site_id
 _symmetry_equiv_pos_as_xyz
  1  'x, y, z'
loop_
 _atom_site_type_symbol
 _atom_site_label
 _atom_site_symmetry_multiplicity
 _atom_site_fract_x
 _atom_site_fract_y
 _atom_site_fract_z
 _atom_site_occupancy
  Ba  Ba0  1  0.66615900  0.33384100  0.25079800  1
  Ba  Ba1  1  0.33384100  0.66615900  0.75079800  1
  Mn  Mn2  1  0.00116100  0.50123900  0.49939500  1
  Mn  Mn3  1  0.49911500  0.50088500  0.49894800  1
  Mn  Mn4  1  0.49876100  0.99883900  0.49939500  1
  Mn  Mn5  1  0.99883900  0.49876100  0.99939500  1
  Mn  Mn6  1  0.50088500  0.49911500  0.99894800  1
  Mn  Mn7  1  0.50123900  0.00116100  0.99939500  1
  Fe  Fe8  1  0.00229000  0.99771000  0.35554900  1
  Fe  Fe9  1  0.99703100  0.00296900  0.64295400  1
  Fe  Fe10  1  0.99771000  0.00229000  0.85554900  1
  Fe  Fe11  1  0.00296900  0.99703100  0.14295400  1
  Fe  Fe12  1  0.67059400  0.32940600  0.74035200  1
  Fe  Fe13  1  0.32940600  0.67059400  0.24035200  1
  O  O14  1  0.30108100  0.15299600  0.74850700  1
  O  O15  1  0.85362700  0.14637300  0.74938000  1
  O  O16  1  0.84700400  0.69891900  0.74850700  1
  O  O17  1  0.69891900  0.84700400  0.24850700  1
  O  O18  1  0.14637300  0.85362700  0.24938000  1
  O  O19  1  0.15299600  0.30108100  0.24850700  1
  O  O20  1  0.35226300  0.17163600  0.42392600  1
  O  O21  1  0.82373900  0.17626100  0.42200700  1
  O  O22  1  0.82836400  0.64773700  0.42392600  1
  O  O23  1  0.64655500  0.82860800  0.57495400  1
  O  O24  1  0.17658800  0.82341200  0.57740700  1
  O  O25  1  0.17139300  0.35344500  0.57495400  1
  O  O26  1  0.64773700  0.82836400  0.92392600  1
  O  O27  1  0.17626100  0.82373900  0.92200700  1
  O  O28  1  0.17163600  0.35226300  0.92392600  1
  O  O29  1  0.35344500  0.17139300  0.07495400  1
  O  O30  1  0.82341200  0.17658800  0.07740700  1
  O  O31  1  0.82860700  0.64655500  0.07495400  1
  O  O32  1  0.68315900  0.31684100  0.91816300  1
  O  O33  1  0.31887600  0.68112400  0.08238000  1
  O  O34  1  0.31684100  0.68315900  0.41816300  1
  O  O35  1  0.68112400  0.31887600  0.58238000  1
