# generated using pymatgen
data_Al4Zn3Cr2O12
_symmetry_space_group_name_H-M   'P 1'
_cell_length_a   10.13782145
_cell_length_b   10.13782145
_cell_length_c   8.28029800
_cell_angle_alpha   66.50495960
_cell_angle_beta   66.50495960
_cell_angle_gamma   33.32929849
_symmetry_Int_Tables_number   1
_chemical_formula_structural   Al4Zn3Cr2O12
_chemical_formula_sum   'Al8 Zn6 Cr4 O24'
_cell_volume   425.17647306
_cell_formula_units_Z   2
loop_
 _symmetry_equiv_pos_site_id
 _symmetry_equiv_pos_as_xyz
  1  'x, y, z'
loop_
 _atom_site_type_symbol
 _atom_site_label
 _atom_site_symmetry_multiplicity
 _atom_site_fract_x
 _atom_site_fract_y
 _atom_site_fract_z
 _atom_site_occupancy
  Al  Al0  1  0.66697900  0.66697900  0.83337500  1
  Al  Al1  1  0.33302100  0.33302100  0.16662500  1
  Al  Al2  1  0.16665500  0.66477500  0.33258400  1
  Al  Al3  1  0.83334500  0.33522500  0.66741600  1
  Al  Al4  1  0.50000000  0.00000000  0.00000000  1
  Al  Al5  1  0.66477500  0.16665500  0.33258400  1
  Al  Al6  1  0.33522500  0.83334500  0.66741600  1
  Al  Al7  1  0.00000000  0.50000000  0.00000000  1
  Zn  Zn8  1  0.41589800  0.41589800  0.71246000  1
  Zn  Zn9  1  0.08347300  0.08347300  0.04101500  1
  Zn  Zn10  1  0.74931500  0.74931500  0.37639300  1
  Zn  Zn11  1  0.91652700  0.91652700  0.95898500  1
  Zn  Zn12  1  0.58410200  0.58410200  0.28754000  1
  Zn  Zn13  1  0.25068500  0.25068500  0.62360700  1
  Cr  Cr14  1  0.83238800  0.83238800  0.66679700  1
  Cr  Cr15  1  0.50000000  0.50000000  0.00000000  1
  Cr  Cr16  1  0.16761200  0.16761200  0.33320300  1
  Cr  Cr17  1  0.00000000  0.00000000  0.50000000  1
  O  O18  1  0.98912900  0.98912900  0.26652400  1
  O  O19  1  0.65802000  0.65802000  0.60753800  1
  O  O20  1  0.32385900  0.32385900  0.94032800  1
  O  O21  1  0.84412300  0.84412300  0.41287100  1
  O  O22  1  0.51142300  0.51142300  0.74621200  1
  O  O23  1  0.17783000  0.17783000  0.08011400  1
  O  O24  1  0.68344000  0.14912700  0.56363700  1
  O  O25  1  0.36216600  0.81140200  0.89691800  1
  O  O26  1  0.02729700  0.47921800  0.22952900  1
  O  O27  1  0.14912700  0.68344000  0.56363700  1
  O  O28  1  0.81140200  0.36216600  0.89691800  1
  O  O29  1  0.47921800  0.02729700  0.22952900  1
  O  O30  1  0.34198000  0.34198000  0.39246200  1
  O  O31  1  0.01087100  0.01087100  0.73347600  1
  O  O32  1  0.67614100  0.67614100  0.05967200  1
  O  O33  1  0.48857700  0.48857700  0.25378800  1
  O  O34  1  0.15587700  0.15587700  0.58712900  1
  O  O35  1  0.82217000  0.82217000  0.91988600  1
  O  O36  1  0.63783400  0.18859800  0.10308200  1
  O  O37  1  0.31656000  0.85087300  0.43636300  1
  O  O38  1  0.97270300  0.52078200  0.77047100  1
  O  O39  1  0.18859800  0.63783400  0.10308200  1
  O  O40  1  0.85087300  0.31656000  0.43636300  1
  O  O41  1  0.52078200  0.97270300  0.77047100  1
