# generated using pymatgen
data_Ba2SrV2O8
_symmetry_space_group_name_H-M   'P 1'
_cell_length_a   7.81954417
_cell_length_b   7.81954417
_cell_length_c   7.81954461
_cell_angle_alpha   43.91679323
_cell_angle_beta   43.91679323
_cell_angle_gamma   43.91679990
_symmetry_Int_Tables_number   1
_chemical_formula_structural   Ba2SrV2O8
_chemical_formula_sum   'Ba2 Sr1 V2 O8'
_cell_volume   208.89082175
_cell_formula_units_Z   1
loop_
 _symmetry_equiv_pos_site_id
 _symmetry_equiv_pos_as_xyz
  1  'x, y, z'
loop_
 _atom_site_type_symbol
 _atom_site_label
 _atom_site_symmetry_multiplicity
 _atom_site_fract_x
 _atom_site_fract_y
 _atom_site_fract_z
 _atom_site_occupancy
  Ba  Ba0  1  0.20391600  0.20391600  0.20391600  1
  Ba  Ba1  1  0.00023100  0.00023100  0.00023100  1
  Sr  Sr2  1  0.79502000  0.79502000  0.79502000  1
  V  V3  1  0.59274600  0.59274600  0.59274600  1
  V  V4  1  0.40807000  0.40807000  0.40807000  1
  O  O5  1  0.67530700  0.67530700  0.67530700  1
  O  O6  1  0.32661700  0.32661700  0.32661700  1
  O  O7  1  0.23975900  0.72621100  0.72621100  1
  O  O8  1  0.72621100  0.72621100  0.23975900  1
  O  O9  1  0.72621100  0.23975900  0.72621100  1
  O  O10  1  0.76114400  0.27238400  0.27238400  1
  O  O11  1  0.27238400  0.27238400  0.76114400  1
  O  O12  1  0.27238400  0.76114400  0.27238400  1
