# generated using pymatgen
data_Ba2La(CuO2)3
_symmetry_space_group_name_H-M   'P 1'
_cell_length_a   3.95377500
_cell_length_b   3.95377500
_cell_length_c   12.05167100
_cell_angle_alpha   90.00000000
_cell_angle_beta   90.00000000
_cell_angle_gamma   90.00000000
_symmetry_Int_Tables_number   1
_chemical_formula_structural   Ba2La(CuO2)3
_chemical_formula_sum   'Ba2 La1 Cu3 O6'
_cell_volume   188.39577948
_cell_formula_units_Z   1
loop_
 _symmetry_equiv_pos_site_id
 _symmetry_equiv_pos_as_xyz
  1  'x, y, z'
loop_
 _atom_site_type_symbol
 _atom_site_label
 _atom_site_symmetry_multiplicity
 _atom_site_fract_x
 _atom_site_fract_y
 _atom_site_fract_z
 _atom_site_occupancy
  Ba  Ba0  1  0.50000000  0.50000000  0.80884900  1
  Ba  Ba1  1  0.50000000  0.50000000  0.19115100  1
  La  La2  1  0.50000000  0.50000000  0.50000000  1
  Cu  Cu3  1  0.00000000  0.00000000  0.64886800  1
  Cu  Cu4  1  0.00000000  0.00000000  0.35113200  1
  Cu  Cu5  1  0.00000000  0.00000000  0.00000000  1
  O  O6  1  0.00000000  0.00000000  0.84985600  1
  O  O7  1  0.00000000  0.00000000  0.15014400  1
  O  O8  1  0.00000000  0.50000000  0.63173400  1
  O  O9  1  0.50000000  0.00000000  0.63173400  1
  O  O10  1  0.00000000  0.50000000  0.36826600  1
  O  O11  1  0.50000000  0.00000000  0.36826600  1
