# generated using pymatgen
data_BaLa4(CoO3)5
_symmetry_space_group_name_H-M   'P 1'
_cell_length_a   9.57793478
_cell_length_b   9.57793478
_cell_length_c   13.49348484
_cell_angle_alpha   62.65363002
_cell_angle_beta   62.65363002
_cell_angle_gamma   33.82226239
_symmetry_Int_Tables_number   1
_chemical_formula_structural   BaLa4(CoO3)5
_chemical_formula_sum   'Ba2 La8 Co10 O30'
_cell_volume   604.39736516
_cell_formula_units_Z   2
loop_
 _symmetry_equiv_pos_site_id
 _symmetry_equiv_pos_as_xyz
  1  'x, y, z'
loop_
 _atom_site_type_symbol
 _atom_site_label
 _atom_site_symmetry_multiplicity
 _atom_site_fract_x
 _atom_site_fract_y
 _atom_site_fract_z
 _atom_site_occupancy
  Ba  Ba0  1  0.99915100  0.00084900  0.75000000  1
  Ba  Ba1  1  0.00084900  0.99915100  0.25000000  1
  La  La2  1  0.19738200  0.20745600  0.94688000  1
  La  La3  1  0.39762000  0.39789800  0.14945200  1
  La  La4  1  0.60210200  0.60238000  0.35054800  1
  La  La5  1  0.79254400  0.80261800  0.55312000  1
  La  La6  1  0.80261800  0.79254400  0.05312000  1
  La  La7  1  0.20745600  0.19738200  0.44688000  1
  La  La8  1  0.39789800  0.39762000  0.64945200  1
  La  La9  1  0.60238000  0.60210200  0.85054800  1
  Co  Co10  1  0.19771600  0.20317400  0.69957100  1
  Co  Co11  1  0.39788400  0.39958300  0.90005000  1
  Co  Co12  1  0.60211600  0.60041700  0.09995000  1
  Co  Co13  1  0.80228400  0.79682600  0.30042900  1
  Co  Co14  1  0.00000000  0.00000000  0.50000000  1
  Co  Co15  1  0.60041700  0.60211600  0.59995000  1
  Co  Co16  1  0.79682600  0.80228400  0.80042900  1
  Co  Co17  1  0.00000000  0.00000000  0.00000000  1
  Co  Co18  1  0.20317400  0.19771600  0.19957100  1
  Co  Co19  1  0.39958300  0.39788400  0.40005000  1
  O  O20  1  0.21310900  0.71192300  0.44513000  1
  O  O21  1  0.41411500  0.92306400  0.62602000  1
  O  O22  1  0.58206100  0.12731400  0.84199200  1
  O  O23  1  0.80540700  0.33076700  0.02886000  1
  O  O24  1  0.01400300  0.51716800  0.22877400  1
  O  O25  1  0.66923300  0.19459300  0.47114000  1
  O  O26  1  0.87268600  0.41793900  0.65800800  1
  O  O27  1  0.07693600  0.58588500  0.87398000  1
  O  O28  1  0.28807700  0.78689100  0.05487000  1
  O  O29  1  0.48283200  0.98599700  0.27122600  1
  O  O30  1  0.78689100  0.28807700  0.55487000  1
  O  O31  1  0.98599700  0.48283200  0.77122600  1
  O  O32  1  0.19459300  0.66923300  0.97114000  1
  O  O33  1  0.41793900  0.87268600  0.15800800  1
  O  O34  1  0.58588500  0.07693600  0.37398000  1
  O  O35  1  0.33076700  0.80540700  0.52886000  1
  O  O36  1  0.51716800  0.01400300  0.72877400  1
  O  O37  1  0.71192300  0.21310900  0.94513000  1
  O  O38  1  0.92306400  0.41411500  0.12602000  1
  O  O39  1  0.12731400  0.58206100  0.34199200  1
  O  O40  1  0.17061300  0.04396600  0.84685100  1
  O  O41  1  0.36348300  0.23318400  0.05659000  1
  O  O42  1  0.52902600  0.47097400  0.25000000  1
  O  O43  1  0.76681600  0.63651700  0.44341000  1
  O  O44  1  0.95603400  0.82938700  0.65314900  1
  O  O45  1  0.63651700  0.76681600  0.94341000  1
  O  O46  1  0.82938700  0.95603400  0.15314900  1
  O  O47  1  0.04396600  0.17061300  0.34685100  1
  O  O48  1  0.23318400  0.36348300  0.55659000  1
  O  O49  1  0.47097400  0.52902600  0.75000000  1
