# generated using pymatgen
data_Ba6Nd2Al4O15
_symmetry_space_group_name_H-M   'P 1'
_cell_length_a   11.73066375
_cell_length_b   11.73066375
_cell_length_c   7.11440859
_cell_angle_alpha   89.58790049
_cell_angle_beta   89.58790049
_cell_angle_gamma   119.61351579
_symmetry_Int_Tables_number   1
_chemical_formula_structural   Ba6Nd2Al4O15
_chemical_formula_sum   'Ba12 Nd4 Al8 O30'
_cell_volume   851.03691374
_cell_formula_units_Z   2
loop_
 _symmetry_equiv_pos_site_id
 _symmetry_equiv_pos_as_xyz
  1  'x, y, z'
loop_
 _atom_site_type_symbol
 _atom_site_label
 _atom_site_symmetry_multiplicity
 _atom_site_fract_x
 _atom_site_fract_y
 _atom_site_fract_z
 _atom_site_occupancy
  Ba  Ba0  1  0.00253700  0.00099800  0.50085700  1
  Ba  Ba1  1  0.00099800  0.00253700  0.00085700  1
  Ba  Ba2  1  0.82888900  0.65689900  0.31679000  1
  Ba  Ba3  1  0.34556500  0.17079700  0.32075400  1
  Ba  Ba4  1  0.82233800  0.17129900  0.32068800  1
  Ba  Ba5  1  0.17079700  0.34556500  0.82075400  1
  Ba  Ba6  1  0.65689900  0.82888900  0.81679000  1
  Ba  Ba7  1  0.17129900  0.82233800  0.82068800  1
  Ba  Ba8  1  0.51890700  0.04019000  0.65305200  1
  Ba  Ba9  1  0.04019000  0.51890700  0.15305200  1
  Ba  Ba10  1  0.66756700  0.33384800  0.00599300  1
  Ba  Ba11  1  0.33384800  0.66756700  0.50599300  1
  Nd  Nd12  1  0.95647800  0.47791800  0.64996400  1
  Nd  Nd13  1  0.51898600  0.48078400  0.64678600  1
  Nd  Nd14  1  0.47791800  0.95647800  0.14996400  1
  Nd  Nd15  1  0.48078400  0.51898600  0.14678600  1
  Al  Al16  1  0.66023500  0.33430500  0.46332000  1
  Al  Al17  1  0.33430500  0.66023500  0.96332000  1
  Al  Al18  1  0.81285200  0.63785600  0.81002000  1
  Al  Al19  1  0.36599400  0.18598200  0.82664000  1
  Al  Al20  1  0.81561000  0.17867900  0.81860000  1
  Al  Al21  1  0.18598200  0.36599400  0.32664000  1
  Al  Al22  1  0.63785600  0.81285200  0.31002000  1
  Al  Al23  1  0.17867900  0.81561000  0.31860000  1
  O  O24  1  0.10460400  0.20748200  0.22879100  1
  O  O25  1  0.80078200  0.88894500  0.22494700  1
  O  O26  1  0.09043200  0.88688500  0.21935400  1
  O  O27  1  0.88894500  0.80078200  0.72494700  1
  O  O28  1  0.20748200  0.10460400  0.72879100  1
  O  O29  1  0.88688500  0.09043200  0.71935400  1
  O  O30  1  0.74343100  0.50521600  0.64068200  1
  O  O31  1  0.49996500  0.26109600  0.64920500  1
  O  O32  1  0.75510800  0.25494900  0.65039600  1
  O  O33  1  0.26109600  0.49996500  0.14920500  1
  O  O34  1  0.50521600  0.74343100  0.14068200  1
  O  O35  1  0.25494900  0.75510800  0.15039600  1
  O  O36  1  0.58643000  0.17925900  0.32001400  1
  O  O37  1  0.82157300  0.41494900  0.34411100  1
  O  O38  1  0.58269400  0.41703200  0.32547000  1
  O  O39  1  0.41494800  0.82157300  0.84411100  1
  O  O40  1  0.17925900  0.58643000  0.82001400  1
  O  O41  1  0.41703200  0.58269400  0.82547000  1
  O  O42  1  0.33067700  0.39967500  0.45088400  1
  O  O43  1  0.60123700  0.92450300  0.42157300  1
  O  O44  1  0.07462500  0.68175400  0.47248800  1
  O  O45  1  0.60092800  0.66926400  0.44473600  1
  O  O46  1  0.08020400  0.39672400  0.47340900  1
  O  O47  1  0.32310000  0.93092800  0.42954800  1
  O  O48  1  0.66926400  0.60092800  0.94473600  1
  O  O49  1  0.39672400  0.08020400  0.97340900  1
  O  O50  1  0.93092800  0.32310000  0.92954800  1
  O  O51  1  0.39967500  0.33067700  0.95088400  1
  O  O52  1  0.92450300  0.60123700  0.92157300  1
  O  O53  1  0.68175400  0.07462500  0.97248800  1
