# generated using pymatgen
data_Ba2PrPbO6
_symmetry_space_group_name_H-M   'P 1'
_cell_length_a   6.29810408
_cell_length_b   6.29810408
_cell_length_c   6.35550392
_cell_angle_alpha   60.09793114
_cell_angle_beta   60.09793114
_cell_angle_gamma   59.80930497
_symmetry_Int_Tables_number   1
_chemical_formula_structural   Ba2PrPbO6
_chemical_formula_sum   'Ba2 Pr1 Pb1 O6'
_cell_volume   178.26426232
_cell_formula_units_Z   1
loop_
 _symmetry_equiv_pos_site_id
 _symmetry_equiv_pos_as_xyz
  1  'x, y, z'
loop_
 _atom_site_type_symbol
 _atom_site_label
 _atom_site_symmetry_multiplicity
 _atom_site_fract_x
 _atom_site_fract_y
 _atom_site_fract_z
 _atom_site_occupancy
  Ba  Ba0  1  0.75150300  0.75150300  0.23980500  1
  Ba  Ba1  1  0.24849700  0.24849700  0.76019500  1
  Pr  Pr2  1  0.00000000  0.00000000  0.50000000  1
  Pb  Pb3  1  0.50000000  0.50000000  0.00000000  1
  O  O4  1  0.78600000  0.30023500  0.19699100  1
  O  O5  1  0.69976500  0.21400000  0.80300900  1
  O  O6  1  0.21400000  0.69976500  0.80300900  1
  O  O7  1  0.30023500  0.78600000  0.19699100  1
  O  O8  1  0.25916200  0.25916200  0.31653000  1
  O  O9  1  0.74083800  0.74083800  0.68347000  1
