# generated using pymatgen
data_Ba2Ti5(Bi2O9)2
_symmetry_space_group_name_H-M   'P 1'
_cell_length_a   3.92666700
_cell_length_b   3.92666700
_cell_length_c   24.60516819
_cell_angle_alpha   85.42330259
_cell_angle_beta   85.42330259
_cell_angle_gamma   90.00000000
_symmetry_Int_Tables_number   1
_chemical_formula_structural   Ba2Ti5(Bi2O9)2
_chemical_formula_sum   'Ba2 Ti5 Bi4 O18'
_cell_volume   376.95679034
_cell_formula_units_Z   1
loop_
 _symmetry_equiv_pos_site_id
 _symmetry_equiv_pos_as_xyz
  1  'x, y, z'
loop_
 _atom_site_type_symbol
 _atom_site_label
 _atom_site_symmetry_multiplicity
 _atom_site_fract_x
 _atom_site_fract_y
 _atom_site_fract_z
 _atom_site_occupancy
  Ba  Ba0  1  0.04178000  0.04178000  0.91644000  1
  Ba  Ba1  1  0.95822000  0.95822000  0.08356000  1
  Ti  Ti2  1  0.33232100  0.33232100  0.33535900  1
  Ti  Ti3  1  0.66767900  0.66767900  0.66464100  1
  Ti  Ti4  1  0.41615000  0.41615000  0.16770000  1
  Ti  Ti5  1  0.58385000  0.58385000  0.83230000  1
  Ti  Ti6  1  0.50000000  0.50000000  0.00000000  1
  Bi  Bi7  1  0.22441500  0.22441500  0.55116900  1
  Bi  Bi8  1  0.77558500  0.77558500  0.44883100  1
  Bi  Bi9  1  0.12736200  0.12736200  0.74527600  1
  Bi  Bi10  1  0.87263800  0.87263800  0.25472400  1
  O  O11  1  0.37706300  0.37706300  0.24587400  1
  O  O12  1  0.62293700  0.62293700  0.75412600  1
  O  O13  1  0.29577800  0.29577800  0.40844300  1
  O  O14  1  0.70422200  0.70422200  0.59155700  1
  O  O15  1  0.58419300  0.08419300  0.83161400  1
  O  O16  1  0.08419300  0.58419300  0.83161400  1
  O  O17  1  0.41580700  0.91580700  0.16838600  1
  O  O18  1  0.91580700  0.41580700  0.16838600  1
  O  O19  1  0.45838400  0.45838400  0.08323100  1
  O  O20  1  0.54161600  0.54161600  0.91676900  1
  O  O21  1  0.65986700  0.15986700  0.68026500  1
  O  O22  1  0.15986700  0.65986700  0.68026500  1
  O  O23  1  0.34013300  0.84013300  0.31973500  1
  O  O24  1  0.84013300  0.34013300  0.31973500  1
  O  O25  1  0.75000000  0.25000000  0.50000000  1
  O  O26  1  0.25000000  0.75000000  0.50000000  1
  O  O27  1  0.50000000  0.00000000  0.00000000  1
  O  O28  1  0.00000000  0.50000000  0.00000000  1
