# generated using pymatgen
data_Ba2In2O5
_symmetry_space_group_name_H-M   'P 1'
_cell_length_a   4.17601600
_cell_length_b   4.31761000
_cell_length_c   8.72762600
_cell_angle_alpha   90.00000000
_cell_angle_beta   90.00000000
_cell_angle_gamma   90.00000000
_symmetry_Int_Tables_number   1
_chemical_formula_structural   Ba2In2O5
_chemical_formula_sum   'Ba2 In2 O5'
_cell_volume   157.36266151
_cell_formula_units_Z   1
loop_
 _symmetry_equiv_pos_site_id
 _symmetry_equiv_pos_as_xyz
  1  'x, y, z'
loop_
 _atom_site_type_symbol
 _atom_site_label
 _atom_site_symmetry_multiplicity
 _atom_site_fract_x
 _atom_site_fract_y
 _atom_site_fract_z
 _atom_site_occupancy
  Ba  Ba0  1  0.00000000  0.99403500  0.71862400  1
  Ba  Ba1  1  0.00000000  0.99403500  0.28137600  1
  In  In2  1  0.50000000  0.48410300  0.50000000  1
  In  In3  1  0.50000000  0.56073300  0.00000000  1
  O  O4  1  0.50000000  0.43478500  0.77258300  1
  O  O5  1  0.50000000  0.43478500  0.22741700  1
  O  O6  1  0.50000000  0.98569000  0.50000000  1
  O  O7  1  0.00000000  0.50376700  0.50000000  1
  O  O8  1  0.00000000  0.75226600  0.00000000  1
