# generated using pymatgen
data_Ba2Nd2Co4O11
_symmetry_space_group_name_H-M   'P 1'
_cell_length_a   8.65354966
_cell_length_b   8.65354966
_cell_length_c   8.65354966
_cell_angle_alpha   142.01080051
_cell_angle_beta   142.01080051
_cell_angle_gamma   54.81253085
_symmetry_Int_Tables_number   1
_chemical_formula_structural   Ba2Nd2Co4O11
_chemical_formula_sum   'Ba2 Nd2 Co4 O11'
_cell_volume   243.77375686
_cell_formula_units_Z   1
loop_
 _symmetry_equiv_pos_site_id
 _symmetry_equiv_pos_as_xyz
  1  'x, y, z'
loop_
 _atom_site_type_symbol
 _atom_site_label
 _atom_site_symmetry_multiplicity
 _atom_site_fract_x
 _atom_site_fract_y
 _atom_site_fract_z
 _atom_site_occupancy
  Ba  Ba0  1  0.25000000  0.75000000  0.50000000  1
  Ba  Ba1  1  0.75000000  0.25000000  0.50000000  1
  Nd  Nd2  1  0.00000000  0.50000000  0.50000000  1
  Nd  Nd3  1  0.50000000  0.00000000  0.50000000  1
  Co  Co4  1  0.62230600  0.62230600  0.00000000  1
  Co  Co5  1  0.12106900  0.12106900  0.00000000  1
  Co  Co6  1  0.87893100  0.87893100  0.00000000  1
  Co  Co7  1  0.37769400  0.37769400  0.00000000  1
  O  O8  1  0.84000000  0.36800100  0.00000000  1
  O  O9  1  0.36800100  0.84000000  0.00000000  1
  O  O10  1  0.16000000  0.63199900  0.00000000  1
  O  O11  1  0.63199900  0.16000000  0.00000000  1
  O  O12  1  0.84000000  0.84000000  0.47199900  1
  O  O13  1  0.36800100  0.36800100  0.52800100  1
  O  O14  1  0.16000000  0.16000000  0.52800100  1
  O  O15  1  0.63199900  0.63199900  0.47199900  1
  O  O16  1  0.76142100  0.76142100  0.00000000  1
  O  O17  1  0.23857900  0.23857900  0.00000000  1
  O  O18  1  0.00000000  0.00000000  0.00000000  1
