# generated using pymatgen
data_BaMn2Fe4O11
_symmetry_space_group_name_H-M   'P 1'
_cell_length_a   5.88896389
_cell_length_b   5.88896389
_cell_length_c   13.61772341
_cell_angle_alpha   89.98293308
_cell_angle_beta   89.98293308
_cell_angle_gamma   119.87141215
_symmetry_Int_Tables_number   1
_chemical_formula_structural   BaMn2Fe4O11
_chemical_formula_sum   'Ba2 Mn4 Fe8 O22'
_cell_volume   409.51906122
_cell_formula_units_Z   2
loop_
 _symmetry_equiv_pos_site_id
 _symmetry_equiv_pos_as_xyz
  1  'x, y, z'
loop_
 _atom_site_type_symbol
 _atom_site_label
 _atom_site_symmetry_multiplicity
 _atom_site_fract_x
 _atom_site_fract_y
 _atom_site_fract_z
 _atom_site_occupancy
  Ba  Ba0  1  0.33319400  0.66719400  0.25231400  1
  Ba  Ba1  1  0.66719400  0.33319400  0.75231400  1
  Mn  Mn2  1  0.50129800  0.00300400  0.49981300  1
  Mn  Mn3  1  0.50116800  0.49866100  0.49978000  1
  Mn  Mn4  1  0.00300400  0.50129800  0.99981300  1
  Mn  Mn5  1  0.49866100  0.50116800  0.99978000  1
  Fe  Fe6  1  0.00629500  0.00305800  0.35554500  1
  Fe  Fe7  1  0.99398400  0.99727700  0.64476800  1
  Fe  Fe8  1  0.00305800  0.00629500  0.85554500  1
  Fe  Fe9  1  0.99727700  0.99398400  0.14476800  1
  Fe  Fe10  1  0.99788900  0.49916600  0.49991500  1
  Fe  Fe11  1  0.49916600  0.99788900  0.99991500  1
  Fe  Fe12  1  0.33444000  0.66676400  0.73108400  1
  Fe  Fe13  1  0.66676400  0.33444000  0.23108400  1
  O  O14  1  0.64842900  0.82462400  0.42367900  1
  O  O15  1  0.18429400  0.34954200  0.42221200  1
  O  O16  1  0.18458300  0.83536900  0.42217600  1
  O  O17  1  0.35298300  0.17658200  0.57661200  1
  O  O18  1  0.81525800  0.65051400  0.57816700  1
  O  O19  1  0.81502900  0.16548900  0.57853100  1
  O  O20  1  0.34954200  0.18429400  0.92221200  1
  O  O21  1  0.82462400  0.64842900  0.92367900  1
  O  O22  1  0.83536900  0.18458300  0.92217600  1
  O  O23  1  0.65051400  0.81525800  0.07816700  1
  O  O24  1  0.17658200  0.35298300  0.07661200  1
  O  O25  1  0.16548900  0.81502900  0.07853100  1
  O  O26  1  0.32571600  0.65144400  0.92341700  1
  O  O27  1  0.67344200  0.34728300  0.07828700  1
  O  O28  1  0.65144400  0.32571600  0.42341700  1
  O  O29  1  0.34728300  0.67344200  0.57828700  1
  O  O30  1  0.69858300  0.84969000  0.75162800  1
  O  O31  1  0.15068400  0.30111000  0.74582900  1
  O  O32  1  0.15109800  0.84899000  0.74853100  1
  O  O33  1  0.30111000  0.15068400  0.24582900  1
  O  O34  1  0.84969000  0.69858300  0.25162800  1
  O  O35  1  0.84899000  0.15109800  0.24853100  1
