# generated using pymatgen
data_Ba5Ce4YO15
_symmetry_space_group_name_H-M   'P 1'
_cell_length_a   6.29796783
_cell_length_b   14.02481201
_cell_length_c   10.87841673
_cell_angle_alpha   82.29894890
_cell_angle_beta   106.22084516
_cell_angle_gamma   76.82883795
_symmetry_Int_Tables_number   1
_chemical_formula_structural   Ba5Ce4YO15
_chemical_formula_sum   'Ba10 Ce8 Y2 O30'
_cell_volume   878.04100286
_cell_formula_units_Z   2
loop_
 _symmetry_equiv_pos_site_id
 _symmetry_equiv_pos_as_xyz
  1  'x, y, z'
loop_
 _atom_site_type_symbol
 _atom_site_label
 _atom_site_symmetry_multiplicity
 _atom_site_fract_x
 _atom_site_fract_y
 _atom_site_fract_z
 _atom_site_occupancy
  Ba  Ba0  1  0.15415100  0.55276400  0.35600900  1
  Ba  Ba1  1  0.75465600  0.75013300  0.75101800  1
  Ba  Ba2  1  0.35237200  0.95513100  0.15357800  1
  Ba  Ba3  1  0.95216600  0.15189000  0.55059500  1
  Ba  Ba4  1  0.55266100  0.35240900  0.95285800  1
  Ba  Ba5  1  0.24762800  0.24486900  0.24642200  1
  Ba  Ba6  1  0.84534400  0.44986700  0.64898200  1
  Ba  Ba7  1  0.44584900  0.64723600  0.04399100  1
  Ba  Ba8  1  0.04733900  0.84759100  0.44714200  1
  Ba  Ba9  1  0.64783400  0.04811000  0.84940500  1
  Ce  Ce10  1  0.39864700  0.30203100  0.59969600  1
  Ce  Ce11  1  0.99811500  0.50061200  0.99836100  1
  Ce  Ce12  1  0.60188500  0.69938800  0.40163900  1
  Ce  Ce13  1  0.20135300  0.89796900  0.80030400  1
  Ce  Ce14  1  0.70098500  0.39832500  0.29981500  1
  Ce  Ce15  1  0.89901500  0.80167500  0.10018500  1
  Ce  Ce16  1  0.49828100  0.00058100  0.49830000  1
  Ce  Ce17  1  0.10171900  0.19941900  0.90170000  1
  Y  Y18  1  0.80000000  0.10000000  0.20000000  1
  Y  Y19  1  0.30000000  0.60000000  0.70000000  1
  O  O20  1  0.36953400  0.45705400  0.12966300  1
  O  O21  1  0.96572900  0.65648900  0.52931400  1
  O  O22  1  0.57001400  0.85637000  0.93034000  1
  O  O23  1  0.17213800  0.05605200  0.33262800  1
  O  O24  1  0.76988600  0.25607500  0.73095900  1
  O  O25  1  0.02998600  0.34363000  0.46966000  1
  O  O26  1  0.63427100  0.54351100  0.87068600  1
  O  O27  1  0.23046600  0.74294600  0.27033700  1
  O  O28  1  0.83011400  0.94392500  0.66904100  1
  O  O29  1  0.42786200  0.14394800  0.06737200  1
  O  O30  1  0.01851600  0.33994700  0.98109900  1
  O  O31  1  0.61993300  0.53835700  0.38074500  1
  O  O32  1  0.21824000  0.74237800  0.77998800  1
  O  O33  1  0.82102400  0.93784100  0.17947700  1
  O  O34  1  0.41886500  0.14086500  0.58100700  1
  O  O35  1  0.77897600  0.26215900  0.22052300  1
  O  O36  1  0.38176000  0.45762200  0.62001200  1
  O  O37  1  0.98006700  0.66164300  0.01925500  1
  O  O38  1  0.58148400  0.86005300  0.41890100  1
  O  O39  1  0.18113500  0.05913500  0.81899300  1
  O  O40  1  0.52162300  0.32575400  0.42332000  1
  O  O41  1  0.11997600  0.52753000  0.82735100  1
  O  O42  1  0.72228000  0.72560100  0.22456500  1
  O  O43  1  0.32159600  0.92733900  0.62347200  1
  O  O44  1  0.92338100  0.12854200  0.02323100  1
  O  O45  1  0.87772000  0.47439900  0.17543500  1
  O  O46  1  0.48002400  0.67247000  0.57264900  1
  O  O47  1  0.07837700  0.87424600  0.97668000  1
  O  O48  1  0.67661900  0.07145800  0.37676900  1
  O  O49  1  0.27840400  0.27266100  0.77652800  1
