# generated using pymatgen
data_Ba2Sr2Mn3O10
_symmetry_space_group_name_H-M   'P 1'
_cell_length_a   5.64533700
_cell_length_b   7.10427256
_cell_length_c   12.91814800
_cell_angle_alpha   90.00000000
_cell_angle_beta   90.00000000
_cell_angle_gamma   66.58925974
_symmetry_Int_Tables_number   1
_chemical_formula_structural   Ba2Sr2Mn3O10
_chemical_formula_sum   'Ba4 Sr4 Mn6 O20'
_cell_volume   475.44587866
_cell_formula_units_Z   2
loop_
 _symmetry_equiv_pos_site_id
 _symmetry_equiv_pos_as_xyz
  1  'x, y, z'
loop_
 _atom_site_type_symbol
 _atom_site_label
 _atom_site_symmetry_multiplicity
 _atom_site_fract_x
 _atom_site_fract_y
 _atom_site_fract_z
 _atom_site_occupancy
  Ba  Ba0  1  0.76124100  0.47751800  0.88800100  1
  Ba  Ba1  1  0.23875900  0.52248200  0.11199900  1
  Ba  Ba2  1  0.73875900  0.52248200  0.38800100  1
  Ba  Ba3  1  0.26124100  0.47751800  0.61199900  1
  Sr  Sr4  1  0.97037900  0.05924300  0.64409000  1
  Sr  Sr5  1  0.02962100  0.94075700  0.35591000  1
  Sr  Sr6  1  0.52962100  0.94075700  0.14409000  1
  Sr  Sr7  1  0.47037900  0.05924300  0.85591000  1
  Mn  Mn8  1  0.50000000  0.00000000  0.50000000  1
  Mn  Mn9  1  0.00000000  0.00000000  0.00000000  1
  Mn  Mn10  1  0.62791700  0.74416600  0.65238000  1
  Mn  Mn11  1  0.37208300  0.25583400  0.34762000  1
  Mn  Mn12  1  0.87208300  0.25583400  0.15238000  1
  Mn  Mn13  1  0.12791700  0.74416600  0.84762000  1
  O  O14  1  0.37522100  0.79427800  0.53838100  1
  O  O15  1  0.16949800  0.20572200  0.46161900  1
  O  O16  1  0.66949800  0.20572200  0.03838100  1
  O  O17  1  0.87522100  0.79427800  0.96161900  1
  O  O18  1  0.62477900  0.20572200  0.46161900  1
  O  O19  1  0.83050200  0.79427800  0.53838100  1
  O  O20  1  0.33050200  0.79427800  0.96161900  1
  O  O21  1  0.12477900  0.20572200  0.03838100  1
  O  O22  1  0.77017400  0.45965300  0.64821400  1
  O  O23  1  0.22982600  0.54034700  0.35178600  1
  O  O24  1  0.72982600  0.54034700  0.14821400  1
  O  O25  1  0.27017400  0.45965300  0.85178600  1
  O  O26  1  0.36293000  0.77414000  0.75000000  1
  O  O27  1  0.13707000  0.22586000  0.25000000  1
  O  O28  1  0.63707000  0.22586000  0.25000000  1
  O  O29  1  0.86293000  0.77414000  0.75000000  1
  O  O30  1  0.53329400  0.93341300  0.35311400  1
  O  O31  1  0.46670600  0.06658700  0.64688600  1
  O  O32  1  0.96670600  0.06658700  0.85311400  1
  O  O33  1  0.03329400  0.93341300  0.14688600  1
