# generated using pymatgen
data_Ba8Ti3Nb4O24
_symmetry_space_group_name_H-M   'P 1'
_cell_length_a   5.85472511
_cell_length_b   5.85472511
_cell_length_c   19.20148500
_cell_angle_alpha   90.00000000
_cell_angle_beta   90.00000000
_cell_angle_gamma   120.00001256
_symmetry_Int_Tables_number   1
_chemical_formula_structural   Ba8Ti3Nb4O24
_chemical_formula_sum   'Ba8 Ti3 Nb4 O24'
_cell_volume   570.00466799
_cell_formula_units_Z   1
loop_
 _symmetry_equiv_pos_site_id
 _symmetry_equiv_pos_as_xyz
  1  'x, y, z'
loop_
 _atom_site_type_symbol
 _atom_site_label
 _atom_site_symmetry_multiplicity
 _atom_site_fract_x
 _atom_site_fract_y
 _atom_site_fract_z
 _atom_site_occupancy
  Ba  Ba0  1  0.66666700  0.33333300  0.24632600  1
  Ba  Ba1  1  0.33333300  0.66666700  0.74660400  1
  Ba  Ba2  1  0.00000000  0.00000000  0.50112200  1
  Ba  Ba3  1  0.00000000  0.00000000  0.01123600  1
  Ba  Ba4  1  0.66666700  0.33333300  0.63374200  1
  Ba  Ba5  1  0.33333300  0.66666700  0.37446800  1
  Ba  Ba6  1  0.33333300  0.66666700  0.14738800  1
  Ba  Ba7  1  0.66666700  0.33333300  0.86146400  1
  Ti  Ti8  1  0.00000000  0.00000000  0.67936800  1
  Ti  Ti9  1  0.00000000  0.00000000  0.82017500  1
  Ti  Ti10  1  0.33333300  0.66666700  0.56381400  1
  Nb  Nb11  1  0.00000000  0.00000000  0.30476000  1
  Nb  Nb12  1  0.66666700  0.33333300  0.06631600  1
  Nb  Nb13  1  0.33333300  0.66666700  0.93841700  1
  Nb  Nb14  1  0.66666700  0.33333300  0.44005700  1
  O  O15  1  0.16896400  0.83103600  0.62225400  1
  O  O16  1  0.66207200  0.83103600  0.62225400  1
  O  O17  1  0.16896400  0.33792800  0.62225400  1
  O  O18  1  0.83003100  0.16996900  0.38230600  1
  O  O19  1  0.33993800  0.16996900  0.38230600  1
  O  O20  1  0.83003100  0.66006200  0.38230600  1
  O  O21  1  0.82535600  0.17464400  0.11592500  1
  O  O22  1  0.34928800  0.17464400  0.11592500  1
  O  O23  1  0.82535600  0.65071200  0.11592500  1
  O  O24  1  0.16634700  0.83365300  0.87081400  1
  O  O25  1  0.66730500  0.83365300  0.87081400  1
  O  O26  1  0.16634700  0.33269500  0.87081400  1
  O  O27  1  0.16495700  0.83504300  0.26061700  1
  O  O28  1  0.67008700  0.83504300  0.26061700  1
  O  O29  1  0.16495700  0.32991300  0.26061700  1
  O  O30  1  0.85251200  0.14748800  0.74693100  1
  O  O31  1  0.29497500  0.14748800  0.74693100  1
  O  O32  1  0.85251200  0.70502500  0.74693100  1
  O  O33  1  0.49857300  0.99714500  0.50331800  1
  O  O34  1  0.49857300  0.50142700  0.50331800  1
  O  O35  1  0.00285500  0.50142700  0.50331800  1
  O  O36  1  0.49810400  0.99620800  0.99023800  1
  O  O37  1  0.49810400  0.50189600  0.99023800  1
  O  O38  1  0.00379200  0.50189600  0.99023800  1
