# generated using pymatgen
data_Ba2Ga11BiO20
_symmetry_space_group_name_H-M   'P 1'
_cell_length_a   9.91945830
_cell_length_b   9.91945830
_cell_length_c   5.19349061
_cell_angle_alpha   75.58505747
_cell_angle_beta   75.58505747
_cell_angle_gamma   73.68117943
_symmetry_Int_Tables_number   1
_chemical_formula_structural   Ba2Ga11BiO20
_chemical_formula_sum   'Ba2 Ga11 Bi1 O20'
_cell_volume   466.09970038
_cell_formula_units_Z   1
loop_
 _symmetry_equiv_pos_site_id
 _symmetry_equiv_pos_as_xyz
  1  'x, y, z'
loop_
 _atom_site_type_symbol
 _atom_site_label
 _atom_site_symmetry_multiplicity
 _atom_site_fract_x
 _atom_site_fract_y
 _atom_site_fract_z
 _atom_site_occupancy
  Ba  Ba0  1  0.00003100  0.00003100  0.00047200  1
  Ba  Ba1  1  0.28346700  0.28346700  0.74869600  1
  Ga  Ga2  1  0.36414500  0.63439700  0.49662800  1
  Ga  Ga3  1  0.63439700  0.36414500  0.49662800  1
  Ga  Ga4  1  0.84710200  0.42032800  0.84374500  1
  Ga  Ga5  1  0.57577100  0.15031900  0.15818400  1
  Ga  Ga6  1  0.15031900  0.57577100  0.15818400  1
  Ga  Ga7  1  0.42032800  0.84710200  0.84374500  1
  Ga  Ga8  1  0.99017200  0.71657400  0.65913400  1
  Ga  Ga9  1  0.28511400  0.00887700  0.34487800  1
  Ga  Ga10  1  0.00887700  0.28511400  0.34487800  1
  Ga  Ga11  1  0.71657400  0.99017200  0.65913400  1
  Ga  Ga12  1  0.50084000  0.50084000  0.00721300  1
  Bi  Bi13  1  0.71137200  0.71137200  0.36536200  1
  O  O14  1  0.86607800  0.60544900  0.64045000  1
  O  O15  1  0.39803200  0.12716900  0.34352900  1
  O  O16  1  0.12716900  0.39803200  0.34352900  1
  O  O17  1  0.60544900  0.86607800  0.64045000  1
  O  O18  1  0.43865400  0.43865400  0.39410100  1
  O  O19  1  0.57355500  0.57355500  0.60942800  1
  O  O20  1  0.70509300  0.99732200  0.01469200  1
  O  O21  1  0.99748100  0.29328400  0.98792400  1
  O  O22  1  0.29328400  0.99748100  0.98792400  1
  O  O23  1  0.99732200  0.70509300  0.01469200  1
  O  O24  1  0.54805300  0.31186300  0.88497500  1
  O  O25  1  0.69296400  0.45723400  0.11587600  1
  O  O26  1  0.45723400  0.69296400  0.11587600  1
  O  O27  1  0.31186300  0.54805300  0.88497500  1
  O  O28  1  0.89983800  0.89983800  0.51872400  1
  O  O29  1  0.09714600  0.09714600  0.47502400  1
  O  O30  1  0.16645300  0.66762800  0.42537600  1
  O  O31  1  0.33243700  0.82976000  0.57554900  1
  O  O32  1  0.82976000  0.33243700  0.57554900  1
  O  O33  1  0.66762800  0.16645300  0.42537600  1
