# generated using pymatgen
data_BaPb2(SO4)3
_symmetry_space_group_name_H-M   'P 1'
_cell_length_a   8.71129300
_cell_length_b   9.03729550
_cell_length_c   13.17237959
_cell_angle_alpha   94.90720005
_cell_angle_beta   90.18823756
_cell_angle_gamma   90.27020862
_symmetry_Int_Tables_number   1
_chemical_formula_structural   BaPb2(SO4)3
_chemical_formula_sum   'Ba4 Pb8 S12 O48'
_cell_volume   1033.19602818
_cell_formula_units_Z   4
loop_
 _symmetry_equiv_pos_site_id
 _symmetry_equiv_pos_as_xyz
  1  'x, y, z'
loop_
 _atom_site_type_symbol
 _atom_site_label
 _atom_site_symmetry_multiplicity
 _atom_site_fract_x
 _atom_site_fract_y
 _atom_site_fract_z
 _atom_site_occupancy
  Ba  Ba0  1  0.68200100  0.68867400  0.96925200  1
  Ba  Ba1  1  0.68317900  0.02341600  0.63592300  1
  Ba  Ba2  1  0.68298200  0.35634300  0.30404200  1
  Ba  Ba3  1  0.18167900  0.81050100  0.03017800  1
  Pb  Pb4  1  0.18851000  0.13693200  0.69346300  1
  Pb  Pb5  1  0.18896800  0.47004800  0.36036900  1
  Pb  Pb6  1  0.30500600  0.30548200  0.02524200  1
  Pb  Pb7  1  0.30415800  0.63595600  0.69351600  1
  Pb  Pb8  1  0.30414700  0.96942900  0.36158800  1
  Pb  Pb9  1  0.80690200  0.19666700  0.97188200  1
  Pb  Pb10  1  0.80972300  0.52861900  0.63939600  1
  Pb  Pb11  1  0.80596500  0.86190700  0.30698800  1
  S  S12  1  0.94285500  0.20699500  0.47854500  1
  S  S13  1  0.94011300  0.53965800  0.14609800  1
  S  S14  1  0.94006800  0.87450500  0.81094100  1
  S  S15  1  0.43194500  0.29503500  0.52247200  1
  S  S16  1  0.43453000  0.62631600  0.18992600  1
  S  S17  1  0.43465500  0.96194300  0.85429000  1
  S  S18  1  0.06430800  0.12917900  0.18957800  1
  S  S19  1  0.06557800  0.45735600  0.85375200  1
  S  S20  1  0.06511100  0.79353800  0.52167300  1
  S  S21  1  0.56552000  0.04071700  0.14535700  1
  S  S22  1  0.56308000  0.37241300  0.81100000  1
  S  S23  1  0.56292300  0.70605300  0.47824600  1
  O  O24  1  0.09380300  0.14589900  0.44789300  1
  O  O25  1  0.09249300  0.48342900  0.11355400  1
  O  O26  1  0.09247600  0.81252900  0.78440500  1
  O  O27  1  0.58907000  0.34846100  0.54926400  1
  O  O28  1  0.59051000  0.68105500  0.21868300  1
  O  O29  1  0.59060600  0.01861200  0.88117600  1
  O  O30  1  0.91146500  0.18501600  0.21778700  1
  O  O31  1  0.91418800  0.51730500  0.88389100  1
  O  O32  1  0.91192400  0.85006200  0.54960600  1
  O  O33  1  0.41318600  0.98059200  0.11544900  1
  O  O34  1  0.41076600  0.31193800  0.78100700  1
  O  O35  1  0.41053400  0.64609300  0.44782600  1
  O  O36  1  0.81312200  0.11415000  0.43206100  1
  O  O37  1  0.81241200  0.44459400  0.09949400  1
  O  O38  1  0.81248500  0.78041700  0.76301800  1
  O  O39  1  0.31007200  0.39186200  0.57093800  1
  O  O40  1  0.31118900  0.72466000  0.23543700  1
  O  O41  1  0.31129300  0.05558600  0.90468400  1
  O  O42  1  0.19125100  0.22351600  0.23647400  1
  O  O43  1  0.19505300  0.54844400  0.89941200  1
  O  O44  1  0.19175500  0.88821300  0.56914800  1
  O  O45  1  0.69333400  0.94972100  0.09994300  1
  O  O46  1  0.69217000  0.28243100  0.76611000  1
  O  O47  1  0.69185600  0.61602300  0.43317900  1
  O  O48  1  0.92777200  0.21525200  0.59254900  1
  O  O49  1  0.92776900  0.54582500  0.26010600  1
  O  O50  1  0.91942100  0.88558400  0.92442500  1
  O  O51  1  0.41137400  0.28712100  0.40856600  1
  O  O52  1  0.41840500  0.61443300  0.07617200  1
  O  O53  1  0.41229000  0.95718700  0.74059200  1
  O  O54  1  0.08214000  0.97371600  0.22234300  1
  O  O55  1  0.08028000  0.30176600  0.88683200  1
  O  O56  1  0.08233500  0.63850800  0.55503400  1
  O  O57  1  0.58070100  0.19634800  0.11242400  1
  O  O58  1  0.57862700  0.52818200  0.77838400  1
  O  O59  1  0.57862800  0.86202500  0.44531500  1
  O  O60  1  0.08169400  0.12103200  0.07500500  1
  O  O61  1  0.07978500  0.45002900  0.73899000  1
  O  O62  1  0.08311300  0.78597700  0.40723300  1
  O  O63  1  0.58107200  0.04866900  0.26016400  1
  O  O64  1  0.57851200  0.38060100  0.92595200  1
  O  O65  1  0.57819700  0.71444500  0.59295700  1
  O  O66  1  0.92784600  0.36193300  0.44629900  1
  O  O67  1  0.91958300  0.69465100  0.11558000  1
  O  O68  1  0.92748000  0.02843300  0.77691100  1
  O  O69  1  0.41142200  0.14036800  0.55496300  1
  O  O70  1  0.41219700  0.47311200  0.22461400  1
  O  O71  1  0.41843900  0.80651300  0.88443100  1
