# generated using pymatgen
data_Ba3Sr2Ca4Mg3(SiO4)6
_symmetry_space_group_name_H-M   'P 1'
_cell_length_a   5.51745508
_cell_length_b   5.51745508
_cell_length_c   20.86068000
_cell_angle_alpha   90.00000000
_cell_angle_beta   90.00000000
_cell_angle_gamma   119.99998899
_symmetry_Int_Tables_number   1
_chemical_formula_structural   Ba3Sr2Ca4Mg3(SiO4)6
_chemical_formula_sum   'Ba3 Sr2 Ca4 Mg3 Si6 O24'
_cell_volume   549.96715495
_cell_formula_units_Z   1
loop_
 _symmetry_equiv_pos_site_id
 _symmetry_equiv_pos_as_xyz
  1  'x, y, z'
loop_
 _atom_site_type_symbol
 _atom_site_label
 _atom_site_symmetry_multiplicity
 _atom_site_fract_x
 _atom_site_fract_y
 _atom_site_fract_z
 _atom_site_occupancy
  Ba  Ba0  1  0.33333300  0.66666700  0.16508500  1
  Ba  Ba1  1  0.33333300  0.66666700  0.50035600  1
  Ba  Ba2  1  0.33333300  0.66666700  0.83455800  1
  Sr  Sr3  1  0.66666700  0.33333300  0.27903300  1
  Sr  Sr4  1  0.66666700  0.33333300  0.61507000  1
  Ca  Ca5  1  0.66666700  0.33333300  0.94567300  1
  Ca  Ca6  1  0.00000000  0.00000000  0.05428000  1
  Ca  Ca7  1  0.00000000  0.00000000  0.38924700  1
  Ca  Ca8  1  0.00000000  0.00000000  0.72356100  1
  Mg  Mg9  1  0.33333300  0.66666700  0.99857400  1
  Mg  Mg10  1  0.33333300  0.66666700  0.33314600  1
  Mg  Mg11  1  0.33333300  0.66666700  0.66828500  1
  Si  Si12  1  0.66666700  0.33333300  0.08774000  1
  Si  Si13  1  0.66666700  0.33333300  0.42406000  1
  Si  Si14  1  0.66666700  0.33333300  0.76017900  1
  Si  Si15  1  0.00000000  0.00000000  0.24166700  1
  Si  Si16  1  0.00000000  0.00000000  0.57644400  1
  Si  Si17  1  0.00000000  0.00000000  0.90918500  1
  O  O18  1  0.66666700  0.33333300  0.16509400  1
  O  O19  1  0.66666700  0.33333300  0.50139800  1
  O  O20  1  0.66666700  0.33333300  0.83750700  1
  O  O21  1  0.00000000  0.00000000  0.16372300  1
  O  O22  1  0.00000000  0.00000000  0.49847200  1
  O  O23  1  0.00000000  0.00000000  0.83115900  1
  O  O24  1  0.97788500  0.55339900  0.05632800  1
  O  O25  1  0.97913000  0.54848400  0.39246000  1
  O  O26  1  0.97907400  0.54676900  0.72800800  1
  O  O27  1  0.44660100  0.42448700  0.05632800  1
  O  O28  1  0.45151600  0.43064600  0.39246000  1
  O  O29  1  0.45323100  0.43230500  0.72800800  1
  O  O30  1  0.57551300  0.02211500  0.05632800  1
  O  O31  1  0.56935400  0.02087000  0.39246000  1
  O  O32  1  0.56769500  0.02092600  0.72800800  1
  O  O33  1  0.68318000  0.81790900  0.27328800  1
  O  O34  1  0.68334700  0.81901800  0.60832100  1
  O  O35  1  0.68857200  0.78124400  0.94043100  1
  O  O36  1  0.18209100  0.86527200  0.27328800  1
  O  O37  1  0.18098200  0.86432900  0.60832100  1
  O  O38  1  0.21875600  0.90732800  0.94043100  1
  O  O39  1  0.13472800  0.31682000  0.27328800  1
  O  O40  1  0.13567100  0.31665300  0.60832100  1
  O  O41  1  0.09267200  0.31142800  0.94043100  1
