# generated using pymatgen
data_BaNb6Bi6Pb2O27
_symmetry_space_group_name_H-M   'P 1'
_cell_length_a   3.95970500
_cell_length_b   3.95970500
_cell_length_c   38.32290969
_cell_angle_alpha   92.96135356
_cell_angle_beta   92.96135356
_cell_angle_gamma   90.00000000
_symmetry_Int_Tables_number   1
_chemical_formula_structural   BaNb6Bi6Pb2O27
_chemical_formula_sum   'Ba1 Nb6 Bi6 Pb2 O27'
_cell_volume   599.26912528
_cell_formula_units_Z   1
loop_
 _symmetry_equiv_pos_site_id
 _symmetry_equiv_pos_as_xyz
  1  'x, y, z'
loop_
 _atom_site_type_symbol
 _atom_site_label
 _atom_site_symmetry_multiplicity
 _atom_site_fract_x
 _atom_site_fract_y
 _atom_site_fract_z
 _atom_site_occupancy
  Ba  Ba0  1  0.16666700  0.16666700  0.33333300  1
  Nb  Nb1  1  0.63708700  0.63708700  0.27417300  1
  Nb  Nb2  1  0.30415300  0.30415300  0.60830700  1
  Nb  Nb3  1  0.97082300  0.97082300  0.94164500  1
  Nb  Nb4  1  0.02918000  0.02918000  0.05836000  1
  Nb  Nb5  1  0.69624700  0.69624700  0.39249300  1
  Nb  Nb6  1  0.36251000  0.36251000  0.72502200  1
  Bi  Bi7  1  0.09948200  0.09948200  0.19896300  1
  Bi  Bi8  1  0.76625200  0.76625200  0.53250500  1
  Bi  Bi9  1  0.43289600  0.43289600  0.86579200  1
  Bi  Bi10  1  0.56708100  0.56708100  0.13416200  1
  Bi  Bi11  1  0.23385200  0.23385200  0.46770300  1
  Bi  Bi12  1  0.90043700  0.90043700  0.80087500  1
  Pb  Pb13  1  0.83332400  0.83332400  0.66664900  1
  Pb  Pb14  1  0.50000900  0.50000900  0.00001800  1
  O  O15  1  0.61221600  0.61221600  0.22443200  1
  O  O16  1  0.27919300  0.27919300  0.55838600  1
  O  O17  1  0.94586700  0.94586700  0.89173600  1
  O  O18  1  0.05414100  0.05414100  0.10828000  1
  O  O19  1  0.72111700  0.72111700  0.44223500  1
  O  O20  1  0.38746600  0.38746600  0.77493100  1
  O  O21  1  0.08329400  0.58329400  0.16659000  1
  O  O22  1  0.75003900  0.25003900  0.50007700  1
  O  O23  1  0.41666700  0.91666700  0.83333300  1
  O  O24  1  0.58329400  0.08329400  0.16659000  1
  O  O25  1  0.25003900  0.75003900  0.50007700  1
  O  O26  1  0.91666700  0.41666700  0.83333300  1
  O  O27  1  0.14006800  0.64006800  0.28013600  1
  O  O28  1  0.80715300  0.30715300  0.61430400  1
  O  O29  1  0.47383300  0.97383300  0.94766800  1
  O  O30  1  0.64006800  0.14006800  0.28013600  1
  O  O31  1  0.30715300  0.80715300  0.61430400  1
  O  O32  1  0.97383300  0.47383300  0.94766800  1
  O  O33  1  0.52618100  0.02618100  0.05236200  1
  O  O34  1  0.19326500  0.69326500  0.38653100  1
  O  O35  1  0.85950000  0.35950000  0.71899900  1
  O  O36  1  0.02618100  0.52618100  0.05236200  1
  O  O37  1  0.69326500  0.19326500  0.38653100  1
  O  O38  1  0.35950000  0.85950000  0.71899900  1
  O  O39  1  0.00003100  0.00003100  0.00006200  1
  O  O40  1  0.66666700  0.66666700  0.33333300  1
  O  O41  1  0.33330200  0.33330200  0.66660500  1
