# generated using pymatgen
data_Ba4Pr4Fe4Cu4O21
_symmetry_space_group_name_H-M   'P 1'
_cell_length_a   16.32884093
_cell_length_b   16.32884093
_cell_length_c   16.32884093
_cell_angle_alpha   160.22674889
_cell_angle_beta   160.22674889
_cell_angle_gamma   28.10599030
_symmetry_Int_Tables_number   1
_chemical_formula_structural   Ba4Pr4Fe4Cu4O21
_chemical_formula_sum   'Ba4 Pr4 Fe4 Cu4 O21'
_cell_volume   498.04213957
_cell_formula_units_Z   1
loop_
 _symmetry_equiv_pos_site_id
 _symmetry_equiv_pos_as_xyz
  1  'x, y, z'
loop_
 _atom_site_type_symbol
 _atom_site_label
 _atom_site_symmetry_multiplicity
 _atom_site_fract_x
 _atom_site_fract_y
 _atom_site_fract_z
 _atom_site_occupancy
  Ba  Ba0  1  0.86956400  0.36956400  0.50000000  1
  Ba  Ba1  1  0.13043600  0.63043600  0.50000000  1
  Ba  Ba2  1  0.36956400  0.86956400  0.50000000  1
  Ba  Ba3  1  0.63043600  0.13043600  0.50000000  1
  Pr  Pr4  1  0.00000000  0.50000000  0.50000000  1
  Pr  Pr5  1  0.25000000  0.75000000  0.50000000  1
  Pr  Pr6  1  0.50000000  0.00000000  0.50000000  1
  Pr  Pr7  1  0.75000000  0.25000000  0.50000000  1
  Fe  Fe8  1  0.56012900  0.56012900  0.00000000  1
  Fe  Fe9  1  0.06603200  0.06603200  0.00000000  1
  Fe  Fe10  1  0.43987100  0.43987100  0.00000000  1
  Fe  Fe11  1  0.93396800  0.93396800  0.00000000  1
  Cu  Cu12  1  0.30573600  0.30573600  0.00000000  1
  Cu  Cu13  1  0.80636600  0.80636600  0.00000000  1
  Cu  Cu14  1  0.19363400  0.19363400  0.00000000  1
  Cu  Cu15  1  0.69426400  0.69426400  0.00000000  1
  O  O16  1  0.29175200  0.29175200  0.48067500  1
  O  O17  1  0.54741300  0.54741300  0.49683200  1
  O  O18  1  0.81107700  0.81107700  0.51932500  1
  O  O19  1  0.05058100  0.05058100  0.50316800  1
  O  O20  1  0.29175200  0.81107700  0.00000000  1
  O  O21  1  0.54741300  0.05058100  0.00000000  1
  O  O22  1  0.81107700  0.29175200  0.00000000  1
  O  O23  1  0.05058100  0.54741300  0.00000000  1
  O  O24  1  0.18892300  0.18892300  0.48067500  1
  O  O25  1  0.45258700  0.45258700  0.50316800  1
  O  O26  1  0.70824800  0.70824800  0.51932500  1
  O  O27  1  0.94941900  0.94941900  0.49683200  1
  O  O28  1  0.18892300  0.70824800  0.00000000  1
  O  O29  1  0.45258700  0.94941900  0.00000000  1
  O  O30  1  0.70824800  0.18892300  0.00000000  1
  O  O31  1  0.94941900  0.45258700  0.00000000  1
  O  O32  1  0.38066600  0.38066600  0.00000000  1
  O  O33  1  0.61933400  0.61933400  0.00000000  1
  O  O34  1  0.87475200  0.87475200  0.00000000  1
  O  O35  1  0.12524800  0.12524800  0.00000000  1
  O  O36  1  0.50000000  0.50000000  0.00000000  1
