# generated using pymatgen
data_Ba9Ca3(MoN4)4
_symmetry_space_group_name_H-M   'P 1'
_cell_length_a   10.12469635
_cell_length_b   10.59423700
_cell_length_c   12.17125360
_cell_angle_alpha   90.00000000
_cell_angle_beta   89.94102496
_cell_angle_gamma   90.00000000
_symmetry_Int_Tables_number   1
_chemical_formula_structural   Ba9Ca3(MoN4)4
_chemical_formula_sum   'Ba18 Ca6 Mo8 N32'
_cell_volume   1305.52974973
_cell_formula_units_Z   2
loop_
 _symmetry_equiv_pos_site_id
 _symmetry_equiv_pos_as_xyz
  1  'x, y, z'
loop_
 _atom_site_type_symbol
 _atom_site_label
 _atom_site_symmetry_multiplicity
 _atom_site_fract_x
 _atom_site_fract_y
 _atom_site_fract_z
 _atom_site_occupancy
  Ba  Ba0  1  0.62211900  0.02855900  0.64534300  1
  Ba  Ba1  1  0.87788100  0.52855900  0.35465800  1
  Ba  Ba2  1  0.11979200  0.96081100  0.86037100  1
  Ba  Ba3  1  0.38020800  0.46081100  0.13962900  1
  Ba  Ba4  1  0.37741200  0.97213600  0.35450100  1
  Ba  Ba5  1  0.12258800  0.47213600  0.64549900  1
  Ba  Ba6  1  0.88047100  0.03732100  0.14546300  1
  Ba  Ba7  1  0.61952900  0.53732100  0.85453700  1
  Ba  Ba8  1  0.30247000  0.76915300  0.61782600  1
  Ba  Ba9  1  0.19753000  0.26915300  0.38217400  1
  Ba  Ba10  1  0.79483700  0.22959500  0.88507800  1
  Ba  Ba11  1  0.70516300  0.72959500  0.11492200  1
  Ba  Ba12  1  0.69498300  0.23222600  0.37870500  1
  Ba  Ba13  1  0.80501700  0.73222600  0.62129500  1
  Ba  Ba14  1  0.19517500  0.76633800  0.11660400  1
  Ba  Ba15  1  0.30482500  0.26633800  0.88339600  1
  Ba  Ba16  1  0.96420000  0.12445400  0.60938700  1
  Ba  Ba17  1  0.53580000  0.62445400  0.39061300  1
  Ca  Ca18  1  0.46747600  0.88181800  0.89952900  1
  Ca  Ca19  1  0.03252400  0.38181800  0.10047100  1
  Ca  Ca20  1  0.03304200  0.87912400  0.39352400  1
  Ca  Ca21  1  0.46695800  0.37912400  0.60647600  1
  Ca  Ca22  1  0.53015400  0.11459500  0.10140900  1
  Ca  Ca23  1  0.96984600  0.61459500  0.89859100  1
  Mo  Mo24  1  0.29883800  0.09367800  0.61953600  1
  Mo  Mo25  1  0.20116200  0.59367800  0.38046400  1
  Mo  Mo26  1  0.78227200  0.90049100  0.88701600  1
  Mo  Mo27  1  0.71772800  0.40049100  0.11298400  1
  Mo  Mo28  1  0.71268200  0.91070100  0.37573600  1
  Mo  Mo29  1  0.78731800  0.41070100  0.62426400  1
  Mo  Mo30  1  0.21470500  0.09423900  0.12039400  1
  Mo  Mo31  1  0.28529500  0.59423900  0.87960600  1
  N  N32  1  0.18833700  0.99044200  0.53054700  1
  N  N33  1  0.31166300  0.49044200  0.46945300  1
  N  N34  1  0.66876300  0.00017100  0.97465800  1
  N  N35  1  0.83123700  0.50017100  0.02534200  1
  N  N36  1  0.83399500  0.01265000  0.45054400  1
  N  N37  1  0.66600500  0.51265000  0.54945600  1
  N  N38  1  0.32541700  0.99304700  0.03065400  1
  N  N39  1  0.17458300  0.49304700  0.96934600  1
  N  N40  1  0.42811200  0.16903900  0.52847900  1
  N  N41  1  0.07188800  0.66903900  0.47152100  1
  N  N42  1  0.91398000  0.82299000  0.97622900  1
  N  N43  1  0.58602000  0.32299000  0.02377100  1
  N  N44  1  0.58505200  0.85074200  0.47670000  1
  N  N45  1  0.91494800  0.35074200  0.52330000  1
  N  N46  1  0.08567900  0.17077900  0.02963100  1
  N  N47  1  0.41432100  0.67077900  0.97036900  1
  N  N48  1  0.37681800  0.98684000  0.72623800  1
  N  N49  1  0.12318200  0.48684000  0.27376200  1
  N  N50  1  0.86790300  0.00797200  0.78777100  1
  N  N51  1  0.63209700  0.50797200  0.21222900  1
  N  N52  1  0.62719900  0.01315400  0.27025300  1
  N  N53  1  0.87280100  0.51315400  0.72974700  1
  N  N54  1  0.12899700  0.98873600  0.22439800  1
  N  N55  1  0.37100300  0.48873600  0.77560200  1
  N  N56  1  0.19590700  0.21742200  0.68930200  1
  N  N57  1  0.30409300  0.71742200  0.31069800  1
  N  N58  1  0.67150100  0.78840800  0.81062800  1
  N  N59  1  0.82849900  0.28840800  0.18937200  1
  N  N60  1  0.81306400  0.78222500  0.30985900  1
  N  N61  1  0.68693600  0.28222500  0.69014100  1
  N  N62  1  0.32659500  0.21014100  0.19189500  1
  N  N63  1  0.17340500  0.71014100  0.80810500  1
