# generated using pymatgen
data_Ca24Mg8B16C8O73
_symmetry_space_group_name_H-M   'P 1'
_cell_length_a   10.52028257
_cell_length_b   10.52028257
_cell_length_c   14.87384400
_cell_angle_alpha   90.00000000
_cell_angle_beta   90.00000000
_cell_angle_gamma   90.02289070
_symmetry_Int_Tables_number   1
_chemical_formula_structural   Ca24Mg8B16C8O73
_chemical_formula_sum   'Ca24 Mg8 B16 C8 O73'
_cell_volume   1646.18256529
_cell_formula_units_Z   1
loop_
 _symmetry_equiv_pos_site_id
 _symmetry_equiv_pos_as_xyz
  1  'x, y, z'
loop_
 _atom_site_type_symbol
 _atom_site_label
 _atom_site_symmetry_multiplicity
 _atom_site_fract_x
 _atom_site_fract_y
 _atom_site_fract_z
 _atom_site_occupancy
  Ca  Ca0  1  0.00000000  0.50000000  0.01203400  1
  Ca  Ca1  1  0.50000000  0.00000000  0.51216800  1
  Ca  Ca2  1  0.76208100  0.73773600  0.25004700  1
  Ca  Ca3  1  0.26226400  0.23791900  0.74995300  1
  Ca  Ca4  1  0.23786900  0.73790800  0.24994700  1
  Ca  Ca5  1  0.73790800  0.23786900  0.75005300  1
  Ca  Ca6  1  0.00000000  0.00000000  0.23802800  1
  Ca  Ca7  1  0.50000000  0.50000000  0.73785400  1
  Ca  Ca8  1  0.73783000  0.26217000  0.50000000  1
  Ca  Ca9  1  0.23769700  0.76230300  0.00000000  1
  Ca  Ca10  1  0.26218100  0.26218100  0.50000000  1
  Ca  Ca11  1  0.76197000  0.76197000  0.00000000  1
  Ca  Ca12  1  0.00000000  0.50000000  0.48783200  1
  Ca  Ca13  1  0.50000000  0.00000000  0.98796600  1
  Ca  Ca14  1  0.76213100  0.26209200  0.24994700  1
  Ca  Ca15  1  0.26209200  0.76213100  0.75005300  1
  Ca  Ca16  1  0.00000000  0.00000000  0.76197200  1
  Ca  Ca17  1  0.50000000  0.50000000  0.26214600  1
  Ca  Ca18  1  0.73781900  0.73781900  0.50000000  1
  Ca  Ca19  1  0.23803000  0.23803000  0.00000000  1
  Ca  Ca20  1  0.23791900  0.26226400  0.25004700  1
  Ca  Ca21  1  0.73773600  0.76208100  0.74995300  1
  Ca  Ca22  1  0.26217000  0.73783000  0.50000000  1
  Ca  Ca23  1  0.76230300  0.23769700  0.00000000  1
  Mg  Mg24  1  0.00020000  0.75012900  0.12479900  1
  Mg  Mg25  1  0.50000700  0.25000000  0.62501300  1
  Mg  Mg26  1  0.75000000  0.49999300  0.37498700  1
  Mg  Mg27  1  0.24987100  0.99980000  0.87520100  1
  Mg  Mg28  1  0.25000000  0.50000700  0.37498700  1
  Mg  Mg29  1  0.75012900  0.00020000  0.87520100  1
  Mg  Mg30  1  0.99980000  0.24987100  0.12479900  1
  Mg  Mg31  1  0.49999300  0.75000000  0.62501300  1
  B  B32  1  0.99931900  0.18194500  0.90937300  1
  B  B33  1  0.49999600  0.68300900  0.40849700  1
  B  B34  1  0.99998500  0.31698400  0.34152300  1
  B  B35  1  0.49999400  0.81698200  0.84151300  1
  B  B36  1  0.31699100  0.50000400  0.59150300  1
  B  B37  1  0.81805500  0.00068100  0.09062700  1
  B  B38  1  0.68301600  0.00001500  0.65847700  1
  B  B39  1  0.18301800  0.50000600  0.15848700  1
  B  B40  1  0.68300900  0.49999600  0.59150300  1
  B  B41  1  0.18194500  0.99931900  0.09062700  1
  B  B42  1  0.31698400  0.99998500  0.65847700  1
  B  B43  1  0.81698200  0.49999400  0.15848700  1
  B  B44  1  0.00068100  0.81805500  0.90937300  1
  B  B45  1  0.50000400  0.31699100  0.40849700  1
  B  B46  1  0.00001500  0.68301600  0.34152300  1
  B  B47  1  0.50000600  0.18301800  0.84151300  1
  C  C48  1  0.99997200  0.75001800  0.62497900  1
  C  C49  1  0.50002100  0.24997600  0.12489700  1
  C  C50  1  0.24998200  0.00002800  0.37502100  1
  C  C51  1  0.75002400  0.49997900  0.87510300  1
  C  C52  1  0.75001800  0.99997200  0.37502100  1
  C  C53  1  0.24997600  0.50002100  0.87510300  1
  C  C54  1  0.00002800  0.24998200  0.62497900  1
  C  C55  1  0.49997900  0.75002400  0.12489700  1
  O  O56  1  0.06142800  0.68851900  0.56353400  1
  O  O57  1  0.56131800  0.18880400  0.06356300  1
  O  O58  1  0.87708000  0.74997400  0.62497000  1
  O  O59  1  0.37707100  0.25017500  0.12503900  1
  O  O60  1  0.06141400  0.81150500  0.68632100  1
  O  O61  1  0.56142900  0.31153600  0.18652800  1
  O  O62  1  0.31148100  0.93857200  0.43646600  1
  O  O63  1  0.81119600  0.43868200  0.93643700  1
  O  O64  1  0.25002600  0.12292000  0.37503000  1
  O  O65  1  0.74982500  0.62292900  0.87496100  1
  O  O66  1  0.18849500  0.93858600  0.31367900  1
  O  O67  1  0.68846400  0.43857100  0.81347200  1
  O  O68  1  0.68851900  0.06142800  0.43646600  1
  O  O69  1  0.18880400  0.56131800  0.93643700  1
  O  O70  1  0.74997400  0.87708000  0.37503000  1
  O  O71  1  0.25017500  0.37707100  0.87496100  1
  O  O72  1  0.81150500  0.06141400  0.31367900  1
  O  O73  1  0.31153600  0.56142900  0.81347200  1
  O  O74  1  0.93857200  0.31148100  0.56353400  1
  O  O75  1  0.43868200  0.81119600  0.06356300  1
  O  O76  1  0.12292000  0.25002600  0.62497000  1
  O  O77  1  0.62292900  0.74982500  0.12503900  1
  O  O78  1  0.93858600  0.18849500  0.68632100  1
  O  O79  1  0.43857100  0.68846400  0.18652800  1
  O  O80  1  0.00000000  0.00000000  0.00000000  1
  O  O81  1  0.99161200  0.73907800  0.98449100  1
  O  O82  1  0.49189400  0.24135800  0.48508000  1
  O  O83  1  0.35981300  0.38966400  0.63336300  1
  O  O84  1  0.85902200  0.88954400  0.13380800  1
  O  O85  1  0.64826200  0.38156200  0.62525500  1
  O  O86  1  0.14984200  0.88104900  0.12640100  1
  O  O87  1  0.99188300  0.75863000  0.26494700  1
  O  O88  1  0.49190400  0.25871300  0.76487400  1
  O  O89  1  0.64825500  0.11843800  0.62468500  1
  O  O90  1  0.14832000  0.61841100  0.12477200  1
  O  O91  1  0.35982000  0.11034700  0.61658800  1
  O  O92  1  0.85973500  0.61039900  0.11670900  1
  O  O93  1  0.75864200  0.50810600  0.51492000  1
  O  O94  1  0.26092200  0.00838800  0.01550900  1
  O  O95  1  0.11045600  0.14097800  0.86619200  1
  O  O96  1  0.61033600  0.64018700  0.36663700  1
  O  O97  1  0.11895100  0.85015800  0.87359900  1
  O  O98  1  0.61843800  0.35173800  0.37474500  1
  O  O99  1  0.24137000  0.00811700  0.73505300  1
  O  O100  1  0.74128700  0.50809600  0.23512600  1
  O  O101  1  0.88156200  0.35174500  0.37531500  1
  O  O102  1  0.38158900  0.85168000  0.87522800  1
  O  O103  1  0.88965300  0.64018000  0.38341200  1
  O  O104  1  0.38960100  0.14026500  0.88329100  1
  O  O105  1  0.24135800  0.49189400  0.51492000  1
  O  O106  1  0.73907800  0.99161200  0.01550900  1
  O  O107  1  0.88954400  0.85902200  0.86619200  1
  O  O108  1  0.38966400  0.35981300  0.36663700  1
  O  O109  1  0.88104900  0.14984200  0.87359900  1
  O  O110  1  0.38156200  0.64826200  0.37474500  1
  O  O111  1  0.75863000  0.99188300  0.73505300  1
  O  O112  1  0.25871300  0.49190400  0.23512600  1
  O  O113  1  0.11843800  0.64825500  0.37531500  1
  O  O114  1  0.61841100  0.14832000  0.87522800  1
  O  O115  1  0.11034700  0.35982000  0.38341200  1
  O  O116  1  0.61039900  0.85973500  0.88329100  1
  O  O117  1  0.00838800  0.26092200  0.98449100  1
  O  O118  1  0.50810600  0.75864200  0.48508000  1
  O  O119  1  0.64018700  0.61033600  0.63336300  1
  O  O120  1  0.14097800  0.11045600  0.13380800  1
  O  O121  1  0.35173800  0.61843800  0.62525500  1
  O  O122  1  0.85015800  0.11895100  0.12640100  1
  O  O123  1  0.00811700  0.24137000  0.26494700  1
  O  O124  1  0.50809600  0.74128700  0.76487400  1
  O  O125  1  0.35174500  0.88156200  0.62468500  1
  O  O126  1  0.85168000  0.38158900  0.12477200  1
  O  O127  1  0.64018000  0.88965300  0.61658800  1
  O  O128  1  0.14026500  0.38960100  0.11670900  1
