# generated using pymatgen
data_Ba2SmNb4FeO15
_symmetry_space_group_name_H-M   'P 1'
_cell_length_a   12.60942600
_cell_length_b   4.07701700
_cell_length_c   12.71338285
_cell_angle_alpha   89.78579013
_cell_angle_beta   90.00000000
_cell_angle_gamma   90.00000000
_symmetry_Int_Tables_number   1
_chemical_formula_structural   Ba2SmNb4FeO15
_chemical_formula_sum   'Ba4 Sm2 Nb8 Fe2 O30'
_cell_volume   653.57575003
_cell_formula_units_Z   2
loop_
 _symmetry_equiv_pos_site_id
 _symmetry_equiv_pos_as_xyz
  1  'x, y, z'
loop_
 _atom_site_type_symbol
 _atom_site_label
 _atom_site_symmetry_multiplicity
 _atom_site_fract_x
 _atom_site_fract_y
 _atom_site_fract_z
 _atom_site_occupancy
  Ba  Ba0  1  0.09111700  0.35574100  0.32120100  1
  Ba  Ba1  1  0.42684700  0.35564700  0.67216400  1
  Ba  Ba2  1  0.57315300  0.35564700  0.17216400  1
  Ba  Ba3  1  0.90888300  0.35574100  0.82120100  1
  Sm  Sm4  1  0.73813400  0.37350800  0.52238600  1
  Sm  Sm5  1  0.26186600  0.37350800  0.02238600  1
  Nb  Nb6  1  0.24975000  0.87149000  0.49621400  1
  Nb  Nb7  1  0.75025000  0.87149000  0.99621400  1
  Nb  Nb8  1  0.46393600  0.86972700  0.92188400  1
  Nb  Nb9  1  0.04057000  0.86718200  0.07675000  1
  Nb  Nb10  1  0.95943000  0.86718200  0.57675000  1
  Nb  Nb11  1  0.53606400  0.86972700  0.42188400  1
  Nb  Nb12  1  0.17833100  0.86352600  0.78922600  1
  Nb  Nb13  1  0.82166900  0.86352600  0.28922600  1
  Fe  Fe14  1  0.32664700  0.84256300  0.21329800  1
  Fe  Fe15  1  0.67335300  0.84256300  0.71329800  1
  O  O16  1  0.58882100  0.82178700  0.01108900  1
  O  O17  1  0.90822800  0.81786200  0.99128100  1
  O  O18  1  0.09177200  0.81786200  0.49128100  1
  O  O19  1  0.41117900  0.82178700  0.51108900  1
  O  O20  1  0.17856300  0.81557800  0.14195000  1
  O  O21  1  0.31978200  0.80448800  0.85346700  1
  O  O22  1  0.68021800  0.80448800  0.35346700  1
  O  O23  1  0.82143700  0.81557800  0.64195000  1
  O  O24  1  0.24561700  0.82809700  0.34538000  1
  O  O25  1  0.25458100  0.81691600  0.65603800  1
  O  O26  1  0.74541900  0.81691600  0.15603800  1
  O  O27  1  0.75438300  0.82809700  0.84538000  1
  O  O28  1  0.96822600  0.82956200  0.21923700  1
  O  O29  1  0.52754600  0.84308900  0.78154400  1
  O  O30  1  0.47245400  0.84308900  0.28154400  1
  O  O31  1  0.03177400  0.82956200  0.71923700  1
  O  O32  1  0.82612300  0.32150300  0.30037300  1
  O  O33  1  0.67510500  0.33439000  0.68911500  1
  O  O34  1  0.32489500  0.33439000  0.18911500  1
  O  O35  1  0.17387700  0.32150300  0.80037300  1
  O  O36  1  0.25202200  0.32787200  0.50053600  1
  O  O37  1  0.74797800  0.32787200  0.00053600  1
  O  O38  1  0.36848200  0.83661800  0.05355800  1
  O  O39  1  0.12259100  0.80939700  0.93939000  1
  O  O40  1  0.87740900  0.80939700  0.43939000  1
  O  O41  1  0.63151800  0.83661800  0.55355800  1
  O  O42  1  0.55414200  0.33458200  0.42895200  1
  O  O43  1  0.94870700  0.32917700  0.57496600  1
  O  O44  1  0.05129300  0.32917700  0.07496600  1
  O  O45  1  0.44585800  0.33458200  0.92895200  1
