# generated using pymatgen
data_Ba2Fe8Ni3(SbO11)2
_symmetry_space_group_name_H-M   'P 1'
_cell_length_a   6.02267341
_cell_length_b   6.02267341
_cell_length_c   14.42683800
_cell_angle_alpha   90.00000000
_cell_angle_beta   90.00000000
_cell_angle_gamma   119.99999351
_symmetry_Int_Tables_number   1
_chemical_formula_structural   Ba2Fe8Ni3(SbO11)2
_chemical_formula_sum   'Ba2 Fe8 Ni3 Sb2 O22'
_cell_volume   453.19012904
_cell_formula_units_Z   1
loop_
 _symmetry_equiv_pos_site_id
 _symmetry_equiv_pos_as_xyz
  1  'x, y, z'
loop_
 _atom_site_type_symbol
 _atom_site_label
 _atom_site_symmetry_multiplicity
 _atom_site_fract_x
 _atom_site_fract_y
 _atom_site_fract_z
 _atom_site_occupancy
  Ba  Ba0  1  0.66666700  0.33333300  0.57536600  1
  Ba  Ba1  1  0.33333300  0.66666700  0.42463400  1
  Fe  Fe2  1  0.83506000  0.67012000  0.82838300  1
  Fe  Fe3  1  0.83506000  0.16494000  0.82838300  1
  Fe  Fe4  1  0.32988000  0.16494000  0.82838300  1
  Fe  Fe5  1  0.16494000  0.32988000  0.17161700  1
  Fe  Fe6  1  0.16494000  0.83506000  0.17161700  1
  Fe  Fe7  1  0.67012000  0.83506000  0.17161700  1
  Fe  Fe8  1  0.66666700  0.33333300  0.04635600  1
  Fe  Fe9  1  0.33333300  0.66666700  0.95364400  1
  Ni  Ni10  1  0.00000000  0.00000000  0.62220300  1
  Ni  Ni11  1  0.00000000  0.00000000  0.37779700  1
  Ni  Ni12  1  0.00000000  0.00000000  0.00000000  1
  Sb  Sb13  1  0.66666700  0.33333300  0.32412800  1
  Sb  Sb14  1  0.33333300  0.66666700  0.67587200  1
  O  O15  1  0.84448200  0.68896400  0.08657900  1
  O  O16  1  0.84448200  0.15551800  0.08657900  1
  O  O17  1  0.31103600  0.15551800  0.08657900  1
  O  O18  1  0.15551800  0.31103600  0.91342100  1
  O  O19  1  0.15551800  0.84448200  0.91342100  1
  O  O20  1  0.68896400  0.84448200  0.91342100  1
  O  O21  1  0.82051400  0.64102800  0.40706500  1
  O  O22  1  0.82051400  0.17948600  0.40706500  1
  O  O23  1  0.35897200  0.17948600  0.40706500  1
  O  O24  1  0.17948600  0.35897200  0.59293500  1
  O  O25  1  0.17948600  0.82051400  0.59293500  1
  O  O26  1  0.64102800  0.82051400  0.59293500  1
  O  O27  1  0.00000000  0.00000000  0.76078800  1
  O  O28  1  0.00000000  0.00000000  0.23921200  1
  O  O29  1  0.66666700  0.33333300  0.90896600  1
  O  O30  1  0.33333300  0.66666700  0.09103400  1
  O  O31  1  0.50366400  0.00732700  0.75510400  1
  O  O32  1  0.50366400  0.49633600  0.75510400  1
  O  O33  1  0.99267300  0.49633600  0.75510400  1
  O  O34  1  0.49633600  0.99267300  0.24489600  1
  O  O35  1  0.49633600  0.50366400  0.24489600  1
  O  O36  1  0.00732700  0.50366400  0.24489600  1
