# generated using pymatgen
data_Ba6Nd3TiCu6(MoO12)2
_symmetry_space_group_name_H-M   'P 1'
_cell_length_a   8.88461619
_cell_length_b   8.88461619
_cell_length_c   13.38384790
_cell_angle_alpha   66.52977674
_cell_angle_beta   66.52977674
_cell_angle_gamma   36.88669751
_symmetry_Int_Tables_number   1
_chemical_formula_structural   Ba6Nd3TiCu6(MoO12)2
_chemical_formula_sum   'Ba6 Nd3 Ti1 Cu6 Mo2 O24'
_cell_volume   575.53758313
_cell_formula_units_Z   1
loop_
 _symmetry_equiv_pos_site_id
 _symmetry_equiv_pos_as_xyz
  1  'x, y, z'
loop_
 _atom_site_type_symbol
 _atom_site_label
 _atom_site_symmetry_multiplicity
 _atom_site_fract_x
 _atom_site_fract_y
 _atom_site_fract_z
 _atom_site_occupancy
  Ba  Ba0  1  0.90056300  0.90056300  0.80356300  1
  Ba  Ba1  1  0.23045300  0.23045300  0.80342900  1
  Ba  Ba2  1  0.56560800  0.56560800  0.80312900  1
  Ba  Ba3  1  0.09943700  0.09943700  0.19643700  1
  Ba  Ba4  1  0.43439200  0.43439200  0.19687100  1
  Ba  Ba5  1  0.76954700  0.76954700  0.19657100  1
  Nd  Nd6  1  0.00000000  0.00000000  0.50000000  1
  Nd  Nd7  1  0.33314600  0.33314600  0.49981100  1
  Nd  Nd8  1  0.66685400  0.66685400  0.50018900  1
  Ti  Ti9  1  0.00000000  0.00000000  0.00000000  1
  Cu  Cu10  1  0.12084700  0.12084700  0.63724600  1
  Cu  Cu11  1  0.45529500  0.45529500  0.63335100  1
  Cu  Cu12  1  0.78910700  0.78910700  0.63350500  1
  Cu  Cu13  1  0.21089300  0.21089300  0.36649500  1
  Cu  Cu14  1  0.54470500  0.54470500  0.36664900  1
  Cu  Cu15  1  0.87915300  0.87915300  0.36275400  1
  Mo  Mo16  1  0.66417300  0.66417300  0.99999200  1
  Mo  Mo17  1  0.33582700  0.33582700  0.00000800  1
  O  O18  1  0.78994700  0.29223500  0.62632900  1
  O  O19  1  0.12519100  0.62453300  0.62528000  1
  O  O20  1  0.45884000  0.95730000  0.62627400  1
  O  O21  1  0.29223500  0.78994700  0.62632900  1
  O  O22  1  0.62453300  0.12519100  0.62528000  1
  O  O23  1  0.95730000  0.45884000  0.62627400  1
  O  O24  1  0.87480900  0.37546700  0.37472000  1
  O  O25  1  0.21005300  0.70776500  0.37367100  1
  O  O26  1  0.54116000  0.04270000  0.37372600  1
  O  O27  1  0.37546700  0.87480900  0.37472000  1
  O  O28  1  0.70776500  0.21005300  0.37367100  1
  O  O29  1  0.04270000  0.54116000  0.37372600  1
  O  O30  1  0.00000000  0.50000000  0.00000000  1
  O  O31  1  0.33987100  0.83020300  0.99999700  1
  O  O32  1  0.66012900  0.16979700  0.00000300  1
  O  O33  1  0.50000000  0.00000000  0.00000000  1
  O  O34  1  0.83020300  0.33987100  0.99999700  1
  O  O35  1  0.16979700  0.66012900  0.00000300  1
  O  O36  1  0.05226700  0.05226700  0.84316000  1
  O  O37  1  0.38295300  0.38295300  0.84198300  1
  O  O38  1  0.72240500  0.72240500  0.84194900  1
  O  O39  1  0.27759500  0.27759500  0.15805100  1
  O  O40  1  0.61704700  0.61704700  0.15801700  1
  O  O41  1  0.94773300  0.94773300  0.15684000  1
