# generated using pymatgen
data_BaSrGd4O8
_symmetry_space_group_name_H-M   'P 1'
_cell_length_a   3.50505300
_cell_length_b   10.40878605
_cell_length_c   12.22195405
_cell_angle_alpha   90.01056708
_cell_angle_beta   89.99976848
_cell_angle_gamma   89.99782039
_symmetry_Int_Tables_number   1
_chemical_formula_structural   BaSrGd4O8
_chemical_formula_sum   'Ba2 Sr2 Gd8 O16'
_cell_volume   445.89777990
_cell_formula_units_Z   2
loop_
 _symmetry_equiv_pos_site_id
 _symmetry_equiv_pos_as_xyz
  1  'x, y, z'
loop_
 _atom_site_type_symbol
 _atom_site_label
 _atom_site_symmetry_multiplicity
 _atom_site_fract_x
 _atom_site_fract_y
 _atom_site_fract_z
 _atom_site_occupancy
  Ba  Ba0  1  0.75000000  0.74838700  0.14776400  1
  Ba  Ba1  1  0.75000000  0.24838900  0.35222200  1
  Sr  Sr2  1  0.24999900  0.25420200  0.85320300  1
  Sr  Sr3  1  0.25000000  0.75416200  0.64678500  1
  Gd  Gd4  1  0.75000100  0.07984200  0.10955100  1
  Gd  Gd5  1  0.75000300  0.57986800  0.39041500  1
  Gd  Gd6  1  0.25000200  0.92292000  0.88617700  1
  Gd  Gd7  1  0.24999400  0.42292800  0.61383400  1
  Gd  Gd8  1  0.75000100  0.07399600  0.61323400  1
  Gd  Gd9  1  0.74999600  0.57398200  0.88679000  1
  Gd  Gd10  1  0.24999700  0.92389400  0.39072500  1
  Gd  Gd11  1  0.25000900  0.42393300  0.10927700  1
  O  O12  1  0.75000000  0.28626300  0.67267900  1
  O  O13  1  0.74999900  0.78647100  0.82737700  1
  O  O14  1  0.24999800  0.71327400  0.33286700  1
  O  O15  1  0.25000000  0.21311500  0.16715400  1
  O  O16  1  0.75000900  0.37432200  0.97908100  1
  O  O17  1  0.75000000  0.87443500  0.52080000  1
  O  O18  1  0.25000500  0.61959900  0.01526100  1
  O  O19  1  0.24999900  0.11946600  0.48481500  1
  O  O20  1  0.74999600  0.07463400  0.91933300  1
  O  O21  1  0.74999600  0.57482300  0.58067600  1
  O  O22  1  0.25000200  0.93288900  0.07553200  1
  O  O23  1  0.25000300  0.43285400  0.42434700  1
  O  O24  1  0.75000100  0.99024200  0.28544900  1
  O  O25  1  0.74999500  0.49033400  0.21460300  1
  O  O26  1  0.25000200  0.00537700  0.71440100  1
  O  O27  1  0.24999200  0.50539900  0.78565000  1
