# generated using pymatgen
data_Al4GaSb5
_symmetry_space_group_name_H-M   'P 1'
_cell_length_a   11.65411469
_cell_length_b   11.65411469
_cell_length_c   11.65411469
_cell_angle_alpha   158.18816389
_cell_angle_beta   149.02009783
_cell_angle_gamma   38.20925421
_symmetry_Int_Tables_number   1
_chemical_formula_structural   Al4GaSb5
_chemical_formula_sum   'Al4 Ga1 Sb5'
_cell_volume   302.29575794
_cell_formula_units_Z   1
loop_
 _symmetry_equiv_pos_site_id
 _symmetry_equiv_pos_as_xyz
  1  'x, y, z'
loop_
 _atom_site_type_symbol
 _atom_site_label
 _atom_site_symmetry_multiplicity
 _atom_site_fract_x
 _atom_site_fract_y
 _atom_site_fract_z
 _atom_site_occupancy
  Al  Al0  1  0.39999000  0.40001900  0.99997100  1
  Al  Al1  1  0.79998000  0.80000700  0.99997400  1
  Al  Al2  1  0.19996700  0.19999300  0.99997400  1
  Al  Al3  1  0.59995200  0.59998100  0.99997100  1
  Ga  Ga4  1  0.00001600  0.00000000  0.00001600  1
  Sb  Sb5  1  0.75001600  0.50000000  0.25001600  1
  Sb  Sb6  1  0.15003800  0.90002700  0.25001100  1
  Sb  Sb7  1  0.55001100  0.29998300  0.25002800  1
  Sb  Sb8  1  0.95004600  0.70001700  0.25002800  1
  Sb  Sb9  1  0.34998400  0.09997300  0.25001100  1
