# generated using pymatgen
data_Al4InAgS8
_symmetry_space_group_name_H-M   'P 1'
_cell_length_a   7.36590611
_cell_length_b   7.36590611
_cell_length_c   7.36590641
_cell_angle_alpha   59.21344404
_cell_angle_beta   59.21344404
_cell_angle_gamma   59.21344782
_symmetry_Int_Tables_number   1
_chemical_formula_structural   Al4InAgS8
_chemical_formula_sum   'Al4 In1 Ag1 S8'
_cell_volume   277.53055119
_cell_formula_units_Z   1
loop_
 _symmetry_equiv_pos_site_id
 _symmetry_equiv_pos_as_xyz
  1  'x, y, z'
loop_
 _atom_site_type_symbol
 _atom_site_label
 _atom_site_symmetry_multiplicity
 _atom_site_fract_x
 _atom_site_fract_y
 _atom_site_fract_z
 _atom_site_occupancy
  Al  Al0  1  0.37525600  0.37525600  0.37525600  1
  Al  Al1  1  0.52287200  0.99158600  0.99158600  1
  Al  Al2  1  0.99158600  0.99158600  0.52287200  1
  Al  Al3  1  0.99158600  0.52287200  0.99158600  1
  In  In4  1  0.99589100  0.99589100  0.99589100  1
  Ag  Ag5  1  0.62760900  0.62760900  0.62760900  1
  S  S6  1  0.21818800  0.75026800  0.75026800  1
  S  S7  1  0.75026800  0.75026800  0.21818800  1
  S  S8  1  0.75026800  0.21818800  0.75026800  1
  S  S9  1  0.76183000  0.76183000  0.76183000  1
  S  S10  1  0.76951700  0.25152300  0.25152300  1
  S  S11  1  0.25152300  0.25152300  0.76951700  1
  S  S12  1  0.25152300  0.76951700  0.25152300  1
  S  S13  1  0.24208100  0.24208100  0.24208100  1
