# generated using pymatgen
data_B8O
_symmetry_space_group_name_H-M   'P 1'
_cell_length_a   5.13987461
_cell_length_b   5.13987461
_cell_length_c   9.14588255
_cell_angle_alpha   72.79051290
_cell_angle_beta   72.79051290
_cell_angle_gamma   62.30262546
_symmetry_Int_Tables_number   1
_chemical_formula_structural   B8O
_chemical_formula_sum   'B24 O3'
_cell_volume   200.74149672
_cell_formula_units_Z   3
loop_
 _symmetry_equiv_pos_site_id
 _symmetry_equiv_pos_as_xyz
  1  'x, y, z'
loop_
 _atom_site_type_symbol
 _atom_site_label
 _atom_site_symmetry_multiplicity
 _atom_site_fract_x
 _atom_site_fract_y
 _atom_site_fract_z
 _atom_site_occupancy
  B  B0  1  0.16830800  0.50000600  0.50280400  1
  B  B1  1  0.66192900  0.00083300  0.99637500  1
  B  B2  1  0.33402500  0.33402500  0.67008300  1
  B  B3  1  0.83213300  0.83213300  0.16551500  1
  B  B4  1  0.50000600  0.16830800  0.50280400  1
  B  B5  1  0.00083300  0.66192900  0.99637500  1
  B  B6  1  0.33658000  0.99693500  0.99198700  1
  B  B7  1  0.83485000  0.50412600  0.50812600  1
  B  B8  1  0.16527800  0.16527800  0.82716800  1
  B  B9  1  0.67072100  0.67072100  0.33674900  1
  B  B10  1  0.99693500  0.33658000  0.99198700  1
  B  B11  1  0.50412600  0.83485000  0.50812600  1
  B  B12  1  0.75533200  0.31646100  0.88914500  1
  B  B13  1  0.27947300  0.80385800  0.40175700  1
  B  B14  1  0.53695000  0.53695000  0.68383000  1
  B  B15  1  0.04049000  0.04049000  0.15835300  1
  B  B16  1  0.31646100  0.75533200  0.88914500  1
  B  B17  1  0.80385800  0.27947300  0.40175700  1
  B  B18  1  0.72215200  0.20154200  0.60495600  1
  B  B19  1  0.22575200  0.69619100  0.09612500  1
  B  B20  1  0.95934900  0.95934900  0.83587400  1
  B  B21  1  0.46253000  0.46253000  0.33904000  1
  B  B22  1  0.20154200  0.72215200  0.60495600  1
  B  B23  1  0.69619100  0.22575200  0.09612500  1
  O  O24  1  0.07081800  0.07081800  0.30983600  1
  O  O25  1  0.92704400  0.92704400  0.69045100  1
  O  O26  1  0.43383400  0.43383400  0.18805200  1
