# generated using pymatgen
data_Ba12Br3Cl2F19
_symmetry_space_group_name_H-M   'P 1'
_cell_length_a   14.36431195
_cell_length_b   14.36431195
_cell_length_c   4.39809100
_cell_angle_alpha   90.00000000
_cell_angle_beta   90.00000000
_cell_angle_gamma   120.01436020
_symmetry_Int_Tables_number   1
_chemical_formula_structural   Ba12Br3Cl2F19
_chemical_formula_sum   'Ba12 Br3 Cl2 F19'
_cell_volume   785.78120556
_cell_formula_units_Z   1
loop_
 _symmetry_equiv_pos_site_id
 _symmetry_equiv_pos_as_xyz
  1  'x, y, z'
loop_
 _atom_site_type_symbol
 _atom_site_label
 _atom_site_symmetry_multiplicity
 _atom_site_fract_x
 _atom_site_fract_y
 _atom_site_fract_z
 _atom_site_occupancy
  Ba  Ba0  1  0.00007000  0.37867300  0.00000000  1
  Ba  Ba1  1  0.37867300  0.00007000  0.00000000  1
  Ba  Ba2  1  0.61952700  0.61952700  0.00000000  1
  Ba  Ba3  1  0.17758200  0.17758200  0.00000000  1
  Ba  Ba4  1  0.00228100  0.82276600  0.00000000  1
  Ba  Ba5  1  0.82276600  0.00228100  0.00000000  1
  Ba  Ba6  1  0.69542400  0.16693200  0.50000000  1
  Ba  Ba7  1  0.47134000  0.30433800  0.50000000  1
  Ba  Ba8  1  0.83307900  0.52875700  0.50000000  1
  Ba  Ba9  1  0.16693200  0.69542400  0.50000000  1
  Ba  Ba10  1  0.30433800  0.47134000  0.50000000  1
  Ba  Ba11  1  0.52875700  0.83307900  0.50000000  1
  Br  Br12  1  0.80913200  0.80913200  0.50000000  1
  Br  Br13  1  0.66660500  0.33326700  0.00000000  1
  Br  Br14  1  0.33326700  0.66660500  0.00000000  1
  Cl  Cl15  1  0.00007000  0.19073300  0.50000000  1
  Cl  Cl16  1  0.19073300  0.00007000  0.50000000  1
  F  F17  1  0.80886900  0.18463500  0.00000000  1
  F  F18  1  0.37547800  0.19114300  0.00000000  1
  F  F19  1  0.81571200  0.62407300  0.00000000  1
  F  F20  1  0.18463500  0.80886900  0.00000000  1
  F  F21  1  0.19114300  0.37547800  0.00000000  1
  F  F22  1  0.62407300  0.81571200  0.00000000  1
  F  F23  1  0.56563800  0.00006800  0.00000000  1
  F  F24  1  0.43400400  0.43400400  0.00000000  1
  F  F25  1  0.00006800  0.56563800  0.00000000  1
  F  F26  1  0.00028400  0.00028400  0.00000000  1
  F  F27  1  0.72272200  0.00029100  0.50000000  1
  F  F28  1  0.27702500  0.27702500  0.50000000  1
  F  F29  1  0.00029100  0.72272200  0.50000000  1
  F  F30  1  0.87562100  0.36640200  0.50000000  1
  F  F31  1  0.49085500  0.12438700  0.50000000  1
  F  F32  1  0.63333800  0.50877700  0.50000000  1
  F  F33  1  0.36640200  0.87562100  0.50000000  1
  F  F34  1  0.12438700  0.49085500  0.50000000  1
  F  F35  1  0.50877700  0.63333800  0.50000000  1
