# generated using pymatgen
data_Ca13Nb3(Si2O9)4
_symmetry_space_group_name_H-M   'P 1'
_cell_length_a   7.38245300
_cell_length_b   10.53635992
_cell_length_c   10.99268440
_cell_angle_alpha   89.95388314
_cell_angle_beta   109.37917694
_cell_angle_gamma   90.17987005
_symmetry_Int_Tables_number   1
_chemical_formula_structural   Ca13Nb3(Si2O9)4
_chemical_formula_sum   'Ca13 Nb3 Si8 O36'
_cell_volume   806.60826854
_cell_formula_units_Z   1
loop_
 _symmetry_equiv_pos_site_id
 _symmetry_equiv_pos_as_xyz
  1  'x, y, z'
loop_
 _atom_site_type_symbol
 _atom_site_label
 _atom_site_symmetry_multiplicity
 _atom_site_fract_x
 _atom_site_fract_y
 _atom_site_fract_z
 _atom_site_occupancy
  Ca  Ca0  1  0.03244000  0.90781300  0.06744000  1
  Ca  Ca1  1  0.96220700  0.41982500  0.92488500  1
  Ca  Ca2  1  0.96389200  0.10196000  0.43333900  1
  Ca  Ca3  1  0.03374800  0.59764700  0.57227800  1
  Ca  Ca4  1  0.46167000  0.10312200  0.43406900  1
  Ca  Ca5  1  0.52769700  0.58798500  0.55699400  1
  Ca  Ca6  1  0.34531100  0.62803200  0.18824500  1
  Ca  Ca7  1  0.67720700  0.12550500  0.83023100  1
  Ca  Ca8  1  0.53212600  0.90602200  0.06142500  1
  Ca  Ca9  1  0.47587300  0.40661600  0.94021500  1
  Ca  Ca10  1  0.16739000  0.38609800  0.33291800  1
  Ca  Ca11  1  0.64971300  0.38029000  0.31268500  1
  Ca  Ca12  1  0.32592400  0.88871500  0.67080400  1
  Nb  Nb13  1  0.84308400  0.89170000  0.68593500  1
  Nb  Nb14  1  0.85031400  0.61571100  0.19207700  1
  Nb  Nb15  1  0.15910400  0.11997000  0.81990600  1
  Si  Si16  1  0.22781500  0.81390900  0.38913900  1
  Si  Si17  1  0.77694600  0.31498100  0.62171200  1
  Si  Si18  1  0.65718800  0.83431800  0.37192300  1
  Si  Si19  1  0.34365000  0.31450800  0.62960100  1
  Si  Si20  1  0.77247700  0.19648000  0.11288700  1
  Si  Si21  1  0.22810100  0.69581400  0.88208900  1
  Si  Si22  1  0.33839100  0.18077200  0.12204500  1
  Si  Si23  1  0.65658900  0.68639600  0.87512300  1
  O  O24  1  0.20731900  0.96079300  0.42645200  1
  O  O25  1  0.81279900  0.46558000  0.61304800  1
  O  O26  1  0.61062500  0.52659500  0.12896400  1
  O  O27  1  0.38964500  0.02323800  0.85386200  1
  O  O28  1  0.24757700  0.77344500  0.01402400  1
  O  O29  1  0.76945500  0.28111700  0.98661200  1
  O  O30  1  0.90779500  0.24199000  0.25466600  1
  O  O31  1  0.07168200  0.75342300  0.74909000  1
  O  O32  1  0.25462200  0.72799600  0.51795500  1
  O  O33  1  0.74763800  0.23960000  0.48758300  1
  O  O34  1  0.02596400  0.52307400  0.13284100  1
  O  O35  1  0.95126400  0.99374400  0.85181300  1
  O  O36  1  0.06995700  0.76434800  0.25391000  1
  O  O37  1  0.93095000  0.24832800  0.75010600  1
  O  O38  1  0.33891200  0.24296100  0.25662200  1
  O  O39  1  0.69463800  0.75916400  0.75331000  1
  O  O40  1  0.43056700  0.79560200  0.35479600  1
  O  O41  1  0.57943900  0.28974400  0.66184700  1
  O  O42  1  0.67916000  0.76230800  0.24560800  1
  O  O43  1  0.32350600  0.26433200  0.76627900  1
  O  O44  1  0.78768800  0.77769400  0.51560200  1
  O  O45  1  0.23818800  0.22735000  0.50441600  1
  O  O46  1  0.43792800  0.50449000  0.36025600  1
  O  O47  1  0.61334200  0.98913200  0.64039600  1
  O  O48  1  0.92213400  0.53516200  0.35459600  1
  O  O49  1  0.03960000  0.00658300  0.65117700  1
  O  O50  1  0.77717800  0.74868400  0.01596600  1
  O  O51  1  0.19674700  0.24323900  0.98455600  1
  O  O52  1  0.55150700  0.23048100  0.11633500  1
  O  O53  1  0.42955800  0.73234300  0.84931100  1
  O  O54  1  0.78495300  0.04721700  0.07435000  1
  O  O55  1  0.21027100  0.54436000  0.90048500  1
  O  O56  1  0.68189400  0.98550200  0.36673500  1
  O  O57  1  0.29188000  0.46258200  0.59885000  1
  O  O58  1  0.31212000  0.02831100  0.11646700  1
  O  O59  1  0.67264200  0.53529300  0.86314900  1
