# generated using pymatgen
data_Ba2(CrS2)5
_symmetry_space_group_name_H-M   'P 1'
_cell_length_a   5.92080300
_cell_length_b   6.83475011
_cell_length_c   17.45999628
_cell_angle_alpha   95.39506155
_cell_angle_beta   91.88782770
_cell_angle_gamma   90.05465723
_symmetry_Int_Tables_number   1
_chemical_formula_structural   Ba2(CrS2)5
_chemical_formula_sum   'Ba4 Cr10 S20'
_cell_volume   703.03969819
_cell_formula_units_Z   2
loop_
 _symmetry_equiv_pos_site_id
 _symmetry_equiv_pos_as_xyz
  1  'x, y, z'
loop_
 _atom_site_type_symbol
 _atom_site_label
 _atom_site_symmetry_multiplicity
 _atom_site_fract_x
 _atom_site_fract_y
 _atom_site_fract_z
 _atom_site_occupancy
  Ba  Ba0  1  0.36540500  0.31637300  0.76803200  1
  Ba  Ba1  1  0.63459500  0.68362700  0.23196800  1
  Ba  Ba2  1  0.74726700  0.26188100  0.54717500  1
  Ba  Ba3  1  0.25273300  0.73811900  0.45282500  1
  Cr  Cr4  1  0.72836500  0.83058500  0.82950900  1
  Cr  Cr5  1  0.27163500  0.16941500  0.17049100  1
  Cr  Cr6  1  0.76691900  0.37560000  0.00218400  1
  Cr  Cr7  1  0.23308100  0.62440000  0.99781600  1
  Cr  Cr8  1  0.09429300  0.79146100  0.66917100  1
  Cr  Cr9  1  0.90570700  0.20853900  0.33082900  1
  Cr  Cr10  1  0.58742200  0.79039200  0.66500400  1
  Cr  Cr11  1  0.41257800  0.20960800  0.33499600  1
  Cr  Cr12  1  0.24280600  0.12239800  0.98966500  1
  Cr  Cr13  1  0.75719400  0.87760200  0.01033500  1
  S  S14  1  0.33457800  0.53985400  0.61431900  1
  S  S15  1  0.66542200  0.46014600  0.38568100  1
  S  S16  1  0.35824700  0.81820100  0.77880600  1
  S  S17  1  0.64175300  0.18179900  0.22119400  1
  S  S18  1  0.07217900  0.35859400  0.91944200  1
  S  S19  1  0.92782100  0.64140600  0.08055800  1
  S  S20  1  0.33521300  0.01640300  0.61430600  1
  S  S21  1  0.66478700  0.98359700  0.38569400  1
  S  S22  1  0.05695800  0.85339600  0.91927900  1
  S  S23  1  0.94304200  0.14660400  0.08072100  1
  S  S24  1  0.58079500  0.61099200  0.92744400  1
  S  S25  1  0.41920500  0.38900800  0.07255600  1
  S  S26  1  0.58941600  0.10282700  0.92338000  1
  S  S27  1  0.41058400  0.89717300  0.07662000  1
  S  S28  1  0.84485400  0.57848600  0.73606700  1
  S  S29  1  0.15514600  0.42151400  0.26393300  1
  S  S30  1  0.84622000  0.03643100  0.73563100  1
  S  S31  1  0.15378000  0.96356900  0.26436900  1
  S  S32  1  0.83155600  0.76566300  0.56307300  1
  S  S33  1  0.16844400  0.23433700  0.43692700  1
