# generated using pymatgen
data_Ba2FeP4HO14
_symmetry_space_group_name_H-M   'P 1'
_cell_length_a   4.94323767
_cell_length_b   7.70685473
_cell_length_c   8.97661865
_cell_angle_alpha   109.40797437
_cell_angle_beta   98.76853251
_cell_angle_gamma   103.43422822
_symmetry_Int_Tables_number   1
_chemical_formula_structural   Ba2FeP4HO14
_chemical_formula_sum   'Ba2 Fe1 P4 H1 O14'
_cell_volume   303.73353778
_cell_formula_units_Z   1
loop_
 _symmetry_equiv_pos_site_id
 _symmetry_equiv_pos_as_xyz
  1  'x, y, z'
loop_
 _atom_site_type_symbol
 _atom_site_label
 _atom_site_symmetry_multiplicity
 _atom_site_fract_x
 _atom_site_fract_y
 _atom_site_fract_z
 _atom_site_occupancy
  Ba  Ba0  1  0.38258500  0.05020300  0.76695800  1
  Ba  Ba1  1  0.60788700  0.98925300  0.24411600  1
  Fe  Fe2  1  0.49343100  0.50526100  0.49993600  1
  P  P3  1  0.91604000  0.69160600  0.86792100  1
  P  P4  1  0.10498100  0.31245000  0.12927300  1
  P  P5  1  0.96364900  0.32536300  0.64275100  1
  P  P6  1  0.03279200  0.68243900  0.35946800  1
  H  H7  1  0.73761300  0.58423500  0.03839400  1
  O  O8  1  0.86025400  0.12726600  0.64978400  1
  O  O9  1  0.11776700  0.87838300  0.34492000  1
  O  O10  1  0.93639500  0.47506800  0.81387100  1
  O  O11  1  0.05339000  0.52946600  0.18947000  1
  O  O12  1  0.72894600  0.68770500  0.99819200  1
  O  O13  1  0.30081800  0.31830100  0.01716800  1
  O  O14  1  0.20877700  0.83819900  0.94811400  1
  O  O15  1  0.80732400  0.16411200  0.05165100  1
  O  O16  1  0.74918200  0.71980700  0.72529600  1
  O  O17  1  0.23726500  0.29348900  0.29078000  1
  O  O18  1  0.76094000  0.34552400  0.50518500  1
  O  O19  1  0.24624700  0.67675900  0.50165700  1
  O  O20  1  0.27707500  0.37847000  0.63461200  1
  O  O21  1  0.72204100  0.62923900  0.37398400  1
