# generated using pymatgen
data_Ba5NbIr4O15
_symmetry_space_group_name_H-M   'P 1'
_cell_length_a   10.12934900
_cell_length_b   11.79973505
_cell_length_c   13.16982334
_cell_angle_alpha   103.65576593
_cell_angle_beta   97.36368857
_cell_angle_gamma   106.62421076
_symmetry_Int_Tables_number   1
_chemical_formula_structural   Ba5NbIr4O15
_chemical_formula_sum   'Ba20 Nb4 Ir16 O60'
_cell_volume   1432.93087931
_cell_formula_units_Z   4
loop_
 _symmetry_equiv_pos_site_id
 _symmetry_equiv_pos_as_xyz
  1  'x, y, z'
loop_
 _atom_site_type_symbol
 _atom_site_label
 _atom_site_symmetry_multiplicity
 _atom_site_fract_x
 _atom_site_fract_y
 _atom_site_fract_z
 _atom_site_occupancy
  Ba  Ba0  1  0.51468000  0.31516800  0.45696200  1
  Ba  Ba1  1  0.31135100  0.91592200  0.05605100  1
  Ba  Ba2  1  0.11450900  0.51465300  0.65650600  1
  Ba  Ba3  1  0.91504300  0.11353700  0.25436800  1
  Ba  Ba4  1  0.71696100  0.71743200  0.85827700  1
  Ba  Ba5  1  0.88549100  0.48534700  0.34349400  1
  Ba  Ba6  1  0.68864900  0.08407800  0.94394900  1
  Ba  Ba7  1  0.48532000  0.68483200  0.54303800  1
  Ba  Ba8  1  0.28303900  0.28256800  0.14172300  1
  Ba  Ba9  1  0.08495700  0.88646300  0.74563200  1
  Ba  Ba10  1  0.45091600  0.03145800  0.64587500  1
  Ba  Ba11  1  0.25186700  0.63159600  0.24581200  1
  Ba  Ba12  1  0.05103600  0.22861700  0.84731800  1
  Ba  Ba13  1  0.85207400  0.83159900  0.44533100  1
  Ba  Ba14  1  0.65089900  0.43182500  0.04562400  1
  Ba  Ba15  1  0.94896400  0.77138300  0.15268200  1
  Ba  Ba16  1  0.74813300  0.36840400  0.75418800  1
  Ba  Ba17  1  0.54908400  0.96854200  0.35412500  1
  Ba  Ba18  1  0.34910100  0.56817500  0.95437600  1
  Ba  Ba19  1  0.14792600  0.16840100  0.55466900  1
  Nb  Nb20  1  0.59999700  0.20010000  0.20008300  1
  Nb  Nb21  1  0.19997300  0.39997300  0.40007000  1
  Nb  Nb22  1  0.80002700  0.60002700  0.59993000  1
  Nb  Nb23  1  0.40000300  0.79990000  0.79991700  1
  Ir  Ir24  1  0.16490000  0.74172900  0.50573400  1
  Ir  Ir25  1  0.96466100  0.34122000  0.10571800  1
  Ir  Ir26  1  0.76480200  0.94158900  0.70572900  1
  Ir  Ir27  1  0.56460600  0.54137200  0.30562300  1
  Ir  Ir28  1  0.36504600  0.14165900  0.90556900  1
  Ir  Ir29  1  0.23519800  0.05841100  0.29427100  1
  Ir  Ir30  1  0.03533900  0.65878000  0.89428200  1
  Ir  Ir31  1  0.83510000  0.25827100  0.49426600  1
  Ir  Ir32  1  0.63495400  0.85834100  0.09443100  1
  Ir  Ir33  1  0.43539400  0.45862800  0.69437700  1
  Ir  Ir34  1  0.20001000  0.89974100  0.40004100  1
  Ir  Ir35  1  0.00000000  0.50000000  0.00000000  1
  Ir  Ir36  1  0.79999000  0.10025900  0.59995900  1
  Ir  Ir37  1  0.60012300  0.70012300  0.19995700  1
  Ir  Ir38  1  0.39987700  0.29987700  0.80004300  1
  Ir  Ir39  1  0.00000000  0.00000000  0.00000000  1
  O  O40  1  0.34217200  0.82087100  0.45289000  1
  O  O41  1  0.14167700  0.42098800  0.05320700  1
  O  O42  1  0.94149800  0.02059200  0.65257800  1
  O  O43  1  0.74185900  0.62080100  0.25267900  1
  O  O44  1  0.54047800  0.21982000  0.85344000  1
  O  O45  1  0.05495400  0.72522300  0.35710100  1
  O  O46  1  0.85454200  0.32528600  0.95740400  1
  O  O47  1  0.65569300  0.92480400  0.55873100  1
  O  O48  1  0.45473000  0.52503200  0.15714400  1
  O  O49  1  0.25511400  0.12499600  0.75700900  1
  O  O50  1  0.15044200  0.91644200  0.54850000  1
  O  O51  1  0.95064200  0.51427600  0.14818700  1
  O  O52  1  0.75000600  0.11635600  0.74841300  1
  O  O53  1  0.55045800  0.71657500  0.34864200  1
  O  O54  1  0.35092900  0.31661400  0.94850200  1
  O  O55  1  0.05850200  0.97940800  0.34742200  1
  O  O56  1  0.85832300  0.57901200  0.94679300  1
  O  O57  1  0.65782800  0.17912900  0.54711000  1
  O  O58  1  0.45952200  0.78018000  0.14656000  1
  O  O59  1  0.25814100  0.37919900  0.74732100  1
  O  O60  1  0.34430700  0.07519600  0.44126900  1
  O  O61  1  0.14545800  0.67471400  0.04259600  1
  O  O62  1  0.94504600  0.27477700  0.64289900  1
  O  O63  1  0.74488600  0.87500400  0.24299100  1
  O  O64  1  0.54527000  0.47496800  0.84285600  1
  O  O65  1  0.24999400  0.88364400  0.25158700  1
  O  O66  1  0.04935800  0.48572400  0.85181300  1
  O  O67  1  0.84955800  0.08355800  0.45150000  1
  O  O68  1  0.64907100  0.68338600  0.05149800  1
  O  O69  1  0.44954200  0.28342500  0.65135800  1
  O  O70  1  0.42006400  0.12861500  0.24775000  1
  O  O71  1  0.22006500  0.72852300  0.84743900  1
  O  O72  1  0.01987300  0.32890700  0.44758400  1
  O  O73  1  0.82075900  0.92844900  0.04774300  1
  O  O74  1  0.61989400  0.52877100  0.64738200  1
  O  O75  1  0.11460900  0.02635800  0.14564500  1
  O  O76  1  0.91549600  0.62699700  0.74595300  1
  O  O77  1  0.71549600  0.22740500  0.34602900  1
  O  O78  1  0.51532700  0.82706200  0.94610100  1
  O  O79  1  0.31557800  0.42741300  0.54609500  1
  O  O80  1  0.21709600  0.23009600  0.34916200  1
  O  O81  1  0.01662500  0.83061800  0.95009100  1
  O  O82  1  0.81704900  0.43024600  0.54887600  1
  O  O83  1  0.61680100  0.03008100  0.14913300  1
  O  O84  1  0.41694700  0.63017300  0.74884900  1
  O  O85  1  0.98012700  0.67109300  0.55241600  1
  O  O86  1  0.77993500  0.27147700  0.15256100  1
  O  O87  1  0.57993600  0.87138500  0.75225000  1
  O  O88  1  0.38010600  0.47122900  0.35261800  1
  O  O89  1  0.17924100  0.07155100  0.95225700  1
  O  O90  1  0.28450400  0.77259500  0.65397100  1
  O  O91  1  0.08450400  0.37300300  0.25404700  1
  O  O92  1  0.88539100  0.97364200  0.85435500  1
  O  O93  1  0.68442200  0.57258700  0.45390500  1
  O  O94  1  0.48467300  0.17293800  0.05389900  1
  O  O95  1  0.18295100  0.56975400  0.45112400  1
  O  O96  1  0.98337500  0.16938200  0.04990900  1
  O  O97  1  0.78290400  0.76990400  0.65083800  1
  O  O98  1  0.58305300  0.36982700  0.25115100  1
  O  O99  1  0.38319900  0.96991900  0.85086700  1
