# generated using pymatgen
data_Ba2Sr(ZrSe3)3
_symmetry_space_group_name_H-M   'P 1'
_cell_length_a   4.05466800
_cell_length_b   15.01896500
_cell_length_c   27.35231701
_cell_angle_alpha   89.94412301
_cell_angle_beta   90.00000000
_cell_angle_gamma   90.00000000
_symmetry_Int_Tables_number   1
_chemical_formula_structural   Ba2Sr(ZrSe3)3
_chemical_formula_sum   'Ba8 Sr4 Zr12 Se36'
_cell_volume   1665.67098039
_cell_formula_units_Z   4
loop_
 _symmetry_equiv_pos_site_id
 _symmetry_equiv_pos_as_xyz
  1  'x, y, z'
loop_
 _atom_site_type_symbol
 _atom_site_label
 _atom_site_symmetry_multiplicity
 _atom_site_fract_x
 _atom_site_fract_y
 _atom_site_fract_z
 _atom_site_occupancy
  Ba  Ba0  1  0.50000000  0.32371900  0.47750700  1
  Ba  Ba1  1  0.50000000  0.32367300  0.14412800  1
  Ba  Ba2  1  0.00000000  0.82618200  0.68926100  1
  Ba  Ba3  1  0.00000000  0.82622300  0.35589800  1
  Ba  Ba4  1  0.00000000  0.82621500  0.02244800  1
  Ba  Ba5  1  0.00000000  0.67408700  0.85582300  1
  Ba  Ba6  1  0.00000000  0.67447300  0.52243700  1
  Ba  Ba7  1  0.00000000  0.67464800  0.18912900  1
  Sr  Sr8  1  0.50000000  0.17629600  0.97828300  1
  Sr  Sr9  1  0.50000000  0.17706300  0.64622000  1
  Sr  Sr10  1  0.50000000  0.17601900  0.31228600  1
  Sr  Sr11  1  0.50000000  0.32258400  0.81211800  1
  Zr  Zr12  1  0.50000000  0.94359900  0.88865800  1
  Zr  Zr13  1  0.50000000  0.94300700  0.55556500  1
  Zr  Zr14  1  0.50000000  0.94297300  0.22225000  1
  Zr  Zr15  1  0.50000000  0.55635700  0.72206100  1
  Zr  Zr16  1  0.50000000  0.55883000  0.38774900  1
  Zr  Zr17  1  0.50000000  0.55880400  0.05430800  1
  Zr  Zr18  1  0.00000000  0.06158700  0.77817900  1
  Zr  Zr19  1  0.00000000  0.05974100  0.44450000  1
  Zr  Zr20  1  0.00000000  0.05965900  0.11115100  1
  Zr  Zr21  1  0.00000000  0.43825000  0.94469700  1
  Zr  Zr22  1  0.00000000  0.43886100  0.61250500  1
  Zr  Zr23  1  0.00000000  0.43871900  0.27904300  1
  Se  Se24  1  0.50000000  0.10835900  0.84114600  1
  Se  Se25  1  0.50000000  0.10691200  0.50771900  1
  Se  Se26  1  0.50000000  0.10696900  0.17440300  1
  Se  Se27  1  0.50000000  0.39221300  0.67503300  1
  Se  Se28  1  0.50000000  0.39241800  0.34196300  1
  Se  Se29  1  0.50000000  0.39188300  0.00813900  1
  Se  Se30  1  0.00000000  0.89537700  0.82522300  1
  Se  Se31  1  0.00000000  0.89475300  0.49194400  1
  Se  Se32  1  0.00000000  0.89473600  0.15855900  1
  Se  Se33  1  0.00000000  0.60534200  0.99111000  1
  Se  Se34  1  0.00000000  0.60493300  0.65879700  1
  Se  Se35  1  0.00000000  0.60564800  0.32466800  1
  Se  Se36  1  0.50000000  0.78690900  0.92911000  1
  Se  Se37  1  0.50000000  0.78650000  0.59590700  1
  Se  Se38  1  0.50000000  0.78645800  0.26251800  1
  Se  Se39  1  0.50000000  0.71313300  0.76249500  1
  Se  Se40  1  0.50000000  0.71433700  0.42913300  1
  Se  Se41  1  0.50000000  0.71416900  0.09578800  1
  Se  Se42  1  0.00000000  0.21840800  0.73708100  1
  Se  Se43  1  0.00000000  0.21301100  0.39976800  1
  Se  Se44  1  0.00000000  0.21292600  0.06622700  1
  Se  Se45  1  0.00000000  0.28192800  0.90350600  1
  Se  Se46  1  0.00000000  0.27972200  0.57459300  1
  Se  Se47  1  0.00000000  0.28003100  0.24112700  1
  Se  Se48  1  0.50000000  0.50283700  0.88807100  1
  Se  Se49  1  0.50000000  0.50460300  0.55576800  1
  Se  Se50  1  0.50000000  0.50443800  0.22248700  1
  Se  Se51  1  0.50000000  0.99699400  0.72134200  1
  Se  Se52  1  0.50000000  0.99582700  0.38794400  1
  Se  Se53  1  0.50000000  0.99589700  0.05461300  1
  Se  Se54  1  0.00000000  0.48794800  0.77828800  1
  Se  Se55  1  0.00000000  0.49385300  0.44430700  1
  Se  Se56  1  0.00000000  0.49382300  0.11092900  1
  Se  Se57  1  0.00000000  0.01181900  0.94473300  1
  Se  Se58  1  0.00000000  0.01176000  0.61138300  1
  Se  Se59  1  0.00000000  0.01155400  0.27797500  1
