# generated using pymatgen
data_Ba4Ge2Pb(Se4Br)2
_symmetry_space_group_name_H-M   'P 1'
_cell_length_a   9.19744500
_cell_length_b   9.65670400
_cell_length_c   12.62917600
_cell_angle_alpha   90.00000000
_cell_angle_beta   90.00000000
_cell_angle_gamma   90.00000000
_symmetry_Int_Tables_number   1
_chemical_formula_structural   Ba4Ge2Pb(Se4Br)2
_chemical_formula_sum   'Ba8 Ge4 Pb2 Se16 Br4'
_cell_volume   1121.68557431
_cell_formula_units_Z   2
loop_
 _symmetry_equiv_pos_site_id
 _symmetry_equiv_pos_as_xyz
  1  'x, y, z'
loop_
 _atom_site_type_symbol
 _atom_site_label
 _atom_site_symmetry_multiplicity
 _atom_site_fract_x
 _atom_site_fract_y
 _atom_site_fract_z
 _atom_site_occupancy
  Ba  Ba0  1  0.39518600  0.75974600  0.07975500  1
  Ba  Ba1  1  0.10062100  0.24346300  0.57268000  1
  Ba  Ba2  1  0.60062100  0.25653700  0.42732000  1
  Ba  Ba3  1  0.89518600  0.74025400  0.92024500  1
  Ba  Ba4  1  0.60062100  0.74346300  0.42732000  1
  Ba  Ba5  1  0.89518600  0.25974600  0.92024500  1
  Ba  Ba6  1  0.39518600  0.24025400  0.07975500  1
  Ba  Ba7  1  0.10062100  0.75653700  0.57268000  1
  Ge  Ge8  1  0.69052300  0.50000000  0.14829200  1
  Ge  Ge9  1  0.80451500  0.50000000  0.65827400  1
  Ge  Ge10  1  0.30451500  0.00000000  0.34172600  1
  Ge  Ge11  1  0.19052300  0.00000000  0.85170800  1
  Pb  Pb12  1  0.04398700  0.50000000  0.25284900  1
  Pb  Pb13  1  0.54398700  0.00000000  0.74715100  1
  Se  Se14  1  0.62724100  0.50000000  0.96554900  1
  Se  Se15  1  0.87070600  0.50000000  0.46893900  1
  Se  Se16  1  0.37070600  0.00000000  0.53106100  1
  Se  Se17  1  0.12724100  0.00000000  0.03445100  1
  Se  Se18  1  0.47334400  0.50000000  0.25024100  1
  Se  Se19  1  0.02897300  0.50000000  0.75303000  1
  Se  Se20  1  0.52897300  0.00000000  0.24697000  1
  Se  Se21  1  0.97334400  0.00000000  0.74975900  1
  Se  Se22  1  0.82749100  0.70305900  0.18972200  1
  Se  Se23  1  0.69009300  0.28667500  0.68811200  1
  Se  Se24  1  0.19009300  0.21332500  0.31188800  1
  Se  Se25  1  0.32749100  0.79694100  0.81027800  1
  Se  Se26  1  0.19009300  0.78667500  0.31188800  1
  Se  Se27  1  0.32749100  0.20305900  0.81027800  1
  Se  Se28  1  0.82749100  0.29694100  0.18972200  1
  Se  Se29  1  0.69009300  0.71332500  0.68811200  1
  Br  Br30  1  0.14987400  0.50000000  0.02180600  1
  Br  Br31  1  0.34970400  0.50000000  0.52926500  1
  Br  Br32  1  0.84970400  0.00000000  0.47073500  1
  Br  Br33  1  0.64987400  0.00000000  0.97819400  1
