# generated using pymatgen
data_Ba2V2BiPO11
_symmetry_space_group_name_H-M   'P 1'
_cell_length_a   7.83060900
_cell_length_b   11.08682208
_cell_length_c   12.45956474
_cell_angle_alpha   102.83217828
_cell_angle_beta   90.00000000
_cell_angle_gamma   90.00000000
_symmetry_Int_Tables_number   1
_chemical_formula_structural   Ba2V2BiPO11
_chemical_formula_sum   'Ba8 V8 Bi4 P4 O44'
_cell_volume   1054.68104129
_cell_formula_units_Z   4
loop_
 _symmetry_equiv_pos_site_id
 _symmetry_equiv_pos_as_xyz
  1  'x, y, z'
loop_
 _atom_site_type_symbol
 _atom_site_label
 _atom_site_symmetry_multiplicity
 _atom_site_fract_x
 _atom_site_fract_y
 _atom_site_fract_z
 _atom_site_occupancy
  Ba  Ba0  1  0.73338300  0.55515900  0.72299300  1
  Ba  Ba1  1  0.23338300  0.94484100  0.27700700  1
  Ba  Ba2  1  0.26661700  0.44484100  0.27700700  1
  Ba  Ba3  1  0.76661700  0.05515900  0.72299300  1
  Ba  Ba4  1  0.25201400  0.61081200  0.94534200  1
  Ba  Ba5  1  0.75201400  0.88918800  0.05465800  1
  Ba  Ba6  1  0.74798600  0.38918800  0.05465800  1
  Ba  Ba7  1  0.24798600  0.11081200  0.94534200  1
  V  V8  1  0.51848200  0.67030300  0.18795900  1
  V  V9  1  0.01848200  0.82969700  0.81204100  1
  V  V10  1  0.48151800  0.32969700  0.81204100  1
  V  V11  1  0.98151800  0.17030300  0.18795900  1
  V  V12  1  0.48213100  0.82542600  0.81501200  1
  V  V13  1  0.98213100  0.67457400  0.18498800  1
  V  V14  1  0.51786900  0.17457400  0.18498800  1
  V  V15  1  0.01786900  0.32542600  0.81501200  1
  Bi  Bi16  1  0.50144600  0.76965500  0.50143300  1
  Bi  Bi17  1  0.00144600  0.73034500  0.49856700  1
  Bi  Bi18  1  0.49855400  0.23034500  0.49856700  1
  Bi  Bi19  1  0.99855400  0.26965500  0.50143300  1
  P  P20  1  0.25219800  0.52326300  0.59469500  1
  P  P21  1  0.75219800  0.97673700  0.40530500  1
  P  P22  1  0.74780200  0.47673700  0.40530500  1
  P  P23  1  0.24780200  0.02326300  0.59469500  1
  O  O24  1  0.43547400  0.69076900  0.32045900  1
  O  O25  1  0.93547400  0.80923100  0.67954100  1
  O  O26  1  0.56452600  0.30923100  0.67954100  1
  O  O27  1  0.06452600  0.19076900  0.32045900  1
  O  O28  1  0.36355100  0.54839500  0.69690200  1
  O  O29  1  0.86355100  0.95160500  0.30309800  1
  O  O30  1  0.63644900  0.45160500  0.30309800  1
  O  O31  1  0.13644900  0.04839500  0.69690200  1
  O  O32  1  0.70981700  0.61024000  0.48349600  1
  O  O33  1  0.20981700  0.88976000  0.51650400  1
  O  O34  1  0.29018300  0.38976000  0.51650400  1
  O  O35  1  0.79018300  0.11024000  0.48349600  1
  O  O36  1  0.25027900  0.83132700  0.83042100  1
  O  O37  1  0.75027900  0.66867300  0.16957900  1
  O  O38  1  0.74972100  0.16867300  0.16957900  1
  O  O39  1  0.24972100  0.33132700  0.83042100  1
  O  O40  1  0.56015900  0.46519800  0.88711100  1
  O  O41  1  0.06015900  0.03480200  0.11288900  1
  O  O42  1  0.43984100  0.53480200  0.11288900  1
  O  O43  1  0.93984100  0.96519800  0.88711100  1
  O  O44  1  0.55840000  0.72755500  0.89120000  1
  O  O45  1  0.05840000  0.77244500  0.10880000  1
  O  O46  1  0.44160000  0.27244500  0.10880000  1
  O  O47  1  0.94160000  0.22755500  0.89120000  1
  O  O48  1  0.94479900  0.46809100  0.87601700  1
  O  O49  1  0.44479900  0.03190900  0.12398300  1
  O  O50  1  0.05520100  0.53190900  0.12398300  1
  O  O51  1  0.55520100  0.96809100  0.87601700  1
  O  O52  1  0.05867300  0.52724200  0.61757800  1
  O  O53  1  0.55867300  0.97275800  0.38242200  1
  O  O54  1  0.94132700  0.47275800  0.38242200  1
  O  O55  1  0.44132700  0.02724200  0.61757800  1
  O  O56  1  0.56856300  0.78055100  0.68329900  1
  O  O57  1  0.06856300  0.71944900  0.31670100  1
  O  O58  1  0.43143700  0.21944900  0.31670100  1
  O  O59  1  0.93143700  0.28055100  0.68329900  1
  O  O60  1  0.28762400  0.62088500  0.51898500  1
  O  O61  1  0.78762400  0.87911500  0.48101500  1
  O  O62  1  0.71237600  0.37911500  0.48101500  1
  O  O63  1  0.21237600  0.12088500  0.51898500  1
  O  O64  1  0.94230500  0.71737700  0.87159800  1
  O  O65  1  0.44230500  0.78262300  0.12840200  1
  O  O66  1  0.05769500  0.28262300  0.12840200  1
  O  O67  1  0.55769500  0.21737700  0.87159800  1
