# generated using pymatgen
data_AlH12(OF)5
_symmetry_space_group_name_H-M   'P 1'
_cell_length_a   8.01186000
_cell_length_b   3.73411700
_cell_length_c   13.77713940
_cell_angle_alpha   90.00000000
_cell_angle_beta   107.98823671
_cell_angle_gamma   90.00000000
_symmetry_Int_Tables_number   1
_chemical_formula_structural   AlH12(OF)5
_chemical_formula_sum   'Al2 H24 O10 F10'
_cell_volume   392.02666915
_cell_formula_units_Z   2
loop_
 _symmetry_equiv_pos_site_id
 _symmetry_equiv_pos_as_xyz
  1  'x, y, z'
loop_
 _atom_site_type_symbol
 _atom_site_label
 _atom_site_symmetry_multiplicity
 _atom_site_fract_x
 _atom_site_fract_y
 _atom_site_fract_z
 _atom_site_occupancy
  Al  Al0  1  0.00056600  0.02080300  0.74998700  1
  Al  Al1  1  0.00056600  0.97919700  0.24998700  1
  H  H2  1  0.84471300  0.76567200  0.40488800  1
  H  H3  1  0.16061900  0.78469100  0.09716800  1
  H  H4  1  0.16061900  0.21530900  0.59716800  1
  H  H5  1  0.84471300  0.23432800  0.90488800  1
  H  H6  1  0.33299500  0.22492500  0.89862600  1
  H  H7  1  0.66420200  0.24087000  0.59444400  1
  H  H8  1  0.66420200  0.75913000  0.09444400  1
  H  H9  1  0.33299500  0.77507500  0.39862600  1
  H  H10  1  0.47306400  0.45577600  0.85493800  1
  H  H11  1  0.52502200  0.45825000  0.63549900  1
  H  H12  1  0.52502200  0.54175000  0.13549900  1
  H  H13  1  0.47306400  0.54422400  0.35493800  1
  H  H14  1  0.60569700  0.79910100  0.77239200  1
  H  H15  1  0.39514700  0.80665100  0.73067800  1
  H  H16  1  0.39514700  0.19334900  0.23067800  1
  H  H17  1  0.60569700  0.20089900  0.27239200  1
  H  H18  1  0.84707800  0.79240800  0.52382800  1
  H  H19  1  0.15806800  0.81394400  0.97712800  1
  H  H20  1  0.15806800  0.18605600  0.47712800  1
  H  H21  1  0.84707800  0.20759200  0.02382800  1
  H  H22  1  0.49678800  0.47914500  0.99005000  1
  H  H23  1  0.49678800  0.52085500  0.49005000  1
  H  H24  1  0.00375900  0.51417000  0.00099700  1
  H  H25  1  0.00375900  0.48583000  0.50099700  1
  O  O26  1  0.45634400  0.32349100  0.91541100  1
  O  O27  1  0.54289300  0.34072000  0.57483700  1
  O  O28  1  0.54289300  0.65928000  0.07483700  1
  O  O29  1  0.45634400  0.67650900  0.41541100  1
  O  O30  1  0.49932700  0.64723500  0.75238100  1
  O  O31  1  0.49932700  0.35276500  0.25238100  1
  O  O32  1  0.85880300  0.62592600  0.46954300  1
  O  O33  1  0.14566000  0.64818200  0.03182700  1
  O  O34  1  0.14566000  0.35181800  0.53182700  1
  O  O35  1  0.85880300  0.37407400  0.96954300  1
  F  F36  1  0.00243300  0.52346900  0.75069300  1
  F  F37  1  0.00243300  0.47653100  0.25069300  1
  F  F38  1  0.81848800  0.02272800  0.80296500  1
  F  F39  1  0.18666600  0.02186400  0.69936000  1
  F  F40  1  0.18666600  0.97813600  0.19936000  1
  F  F41  1  0.81848800  0.97727200  0.30296500  1
  F  F42  1  0.15746500  0.03360900  0.87863300  1
  F  F43  1  0.84820500  0.02834700  0.62172800  1
  F  F44  1  0.84820500  0.97165300  0.12172800  1
  F  F45  1  0.15746500  0.96639100  0.37863300  1
