# generated using pymatgen
data_AsPPt
_symmetry_space_group_name_H-M   'P 1'
_cell_length_a   5.91058500
_cell_length_b   5.91058500
_cell_length_c   5.91058500
_cell_angle_alpha   90.00000000
_cell_angle_beta   90.00000000
_cell_angle_gamma   90.00000000
_symmetry_Int_Tables_number   1
_chemical_formula_structural   AsPPt
_chemical_formula_sum   'As4 P4 Pt4'
_cell_volume   206.48637588
_cell_formula_units_Z   4
loop_
 _symmetry_equiv_pos_site_id
 _symmetry_equiv_pos_as_xyz
  1  'x, y, z'
loop_
 _atom_site_type_symbol
 _atom_site_label
 _atom_site_symmetry_multiplicity
 _atom_site_fract_x
 _atom_site_fract_y
 _atom_site_fract_z
 _atom_site_occupancy
  As  As0  1  0.11285700  0.88714300  0.38714300  1
  As  As1  1  0.88714300  0.38714300  0.11285700  1
  As  As2  1  0.38714300  0.11285700  0.88714300  1
  As  As3  1  0.61285700  0.61285700  0.61285700  1
  P  P4  1  0.88539600  0.11460400  0.61460400  1
  P  P5  1  0.11460400  0.61460400  0.88539600  1
  P  P6  1  0.61460400  0.88539600  0.11460400  1
  P  P7  1  0.38539600  0.38539600  0.38539600  1
  Pt  Pt8  1  0.49085900  0.50914100  0.00914100  1
  Pt  Pt9  1  0.50914100  0.00914100  0.49085900  1
  Pt  Pt10  1  0.00914100  0.49085900  0.50914100  1
  Pt  Pt11  1  0.99085900  0.99085900  0.99085900  1
