# generated using pymatgen
data_BH2CN
_symmetry_space_group_name_H-M   'P 1'
_cell_length_a   5.15188718
_cell_length_b   8.82864877
_cell_length_c   10.65300450
_cell_angle_alpha   109.95419617
_cell_angle_beta   97.35024105
_cell_angle_gamma   99.66875859
_symmetry_Int_Tables_number   1
_chemical_formula_structural   BH2CN
_chemical_formula_sum   'B6 H12 C6 N6'
_cell_volume   439.92032717
_cell_formula_units_Z   6
loop_
 _symmetry_equiv_pos_site_id
 _symmetry_equiv_pos_as_xyz
  1  'x, y, z'
loop_
 _atom_site_type_symbol
 _atom_site_label
 _atom_site_symmetry_multiplicity
 _atom_site_fract_x
 _atom_site_fract_y
 _atom_site_fract_z
 _atom_site_occupancy
  B  B0  1  0.36237300  0.16287700  0.40300600  1
  B  B1  1  0.63762700  0.83712300  0.59699400  1
  B  B2  1  0.35551600  0.17441900  0.91192700  1
  B  B3  1  0.64448400  0.82558100  0.08807300  1
  B  B4  1  0.00091400  0.47453800  0.24157600  1
  B  B5  1  0.99908600  0.52546200  0.75842400  1
  H  H6  1  0.91050500  0.56696800  0.32868100  1
  H  H7  1  0.08949500  0.43303200  0.67131900  1
  H  H8  1  0.55738100  0.24409700  0.49105500  1
  H  H9  1  0.44261900  0.75590300  0.50894500  1
  H  H10  1  0.17075200  0.55352200  0.20588900  1
  H  H11  1  0.82924800  0.44647800  0.79411100  1
  H  H12  1  0.19417300  0.09886300  0.95523100  1
  H  H13  1  0.80582700  0.90113700  0.04476900  1
  H  H14  1  0.20316500  0.08645600  0.44610400  1
  H  H15  1  0.79683500  0.91354400  0.55389600  1
  H  H16  1  0.25339300  0.26479200  0.86865500  1
  H  H17  1  0.74660700  0.73520800  0.13134500  1
  C  C18  1  0.13165200  0.35989200  0.30308100  1
  C  C19  1  0.86834800  0.64010800  0.69691900  1
  C  C20  1  0.59756600  0.28423900  0.03189800  1
  C  C21  1  0.40243400  0.71576100  0.96810200  1
  C  C22  1  0.46264700  0.03741300  0.28539500  1
  C  C23  1  0.53735300  0.96258700  0.71460500  1
  N  N24  1  0.54128700  0.94454800  0.20062000  1
  N  N25  1  0.45871300  0.05545200  0.79938000  1
  N  N26  1  0.23201900  0.27599300  0.34775800  1
  N  N27  1  0.76798100  0.72400700  0.65224200  1
  N  N28  1  0.77248100  0.36705600  0.12249500  1
  N  N29  1  0.22751900  0.63294400  0.87750500  1
