# generated using pymatgen
data_AlSb3Pb4O13
_symmetry_space_group_name_H-M   'P 1'
_cell_length_a   7.41049823
_cell_length_b   7.41049823
_cell_length_c   7.41049855
_cell_angle_alpha   60.87095390
_cell_angle_beta   60.87095390
_cell_angle_gamma   60.87094956
_symmetry_Int_Tables_number   1
_chemical_formula_structural   AlSb3Pb4O13
_chemical_formula_sum   'Al1 Sb3 Pb4 O13'
_cell_volume   293.40806510
_cell_formula_units_Z   1
loop_
 _symmetry_equiv_pos_site_id
 _symmetry_equiv_pos_as_xyz
  1  'x, y, z'
loop_
 _atom_site_type_symbol
 _atom_site_label
 _atom_site_symmetry_multiplicity
 _atom_site_fract_x
 _atom_site_fract_y
 _atom_site_fract_z
 _atom_site_occupancy
  Al  Al0  1  0.49919700  0.49919700  0.49919700  1
  Sb  Sb1  1  0.00107500  0.49984400  0.49984400  1
  Sb  Sb2  1  0.49984400  0.49984400  0.00107500  1
  Sb  Sb3  1  0.49984400  0.00107500  0.49984400  1
  Pb  Pb4  1  0.99764700  0.99764700  0.99764700  1
  Pb  Pb5  1  0.50659500  0.99772800  0.99772800  1
  Pb  Pb6  1  0.99772800  0.99772800  0.50659500  1
  Pb  Pb7  1  0.99772800  0.50659500  0.99772800  1
  O  O8  1  0.81737700  0.43074400  0.43074400  1
  O  O9  1  0.42586100  0.82442100  0.82442100  1
  O  O10  1  0.43074400  0.43074400  0.81737700  1
  O  O11  1  0.82442100  0.82442100  0.42586100  1
  O  O12  1  0.82442100  0.42586100  0.82442100  1
  O  O13  1  0.43074400  0.81737700  0.43074400  1
  O  O14  1  0.18534500  0.56700700  0.56700700  1
  O  O15  1  0.57172300  0.17794400  0.17794400  1
  O  O16  1  0.56700700  0.56700700  0.18534500  1
  O  O17  1  0.17794400  0.17794400  0.57172300  1
  O  O18  1  0.17794400  0.57172300  0.17794400  1
  O  O19  1  0.56700700  0.18534500  0.56700700  1
  O  O20  1  0.12480400  0.12480400  0.12480400  1
