# generated using pymatgen
data_BaLa2Ti3O10
_symmetry_space_group_name_H-M   'P 1'
_cell_length_a   3.95336700
_cell_length_b   7.73406200
_cell_length_c   13.95517610
_cell_angle_alpha   90.00000000
_cell_angle_beta   81.85694487
_cell_angle_gamma   90.00000000
_symmetry_Int_Tables_number   1
_chemical_formula_structural   BaLa2Ti3O10
_chemical_formula_sum   'Ba2 La4 Ti6 O20'
_cell_volume   422.38560017
_cell_formula_units_Z   2
loop_
 _symmetry_equiv_pos_site_id
 _symmetry_equiv_pos_as_xyz
  1  'x, y, z'
loop_
 _atom_site_type_symbol
 _atom_site_label
 _atom_site_symmetry_multiplicity
 _atom_site_fract_x
 _atom_site_fract_y
 _atom_site_fract_z
 _atom_site_occupancy
  Ba  Ba0  1  0.42544300  0.75000000  0.14911400  1
  Ba  Ba1  1  0.57455700  0.25000000  0.85088600  1
  La  La2  1  0.27730300  0.75000000  0.44539300  1
  La  La3  1  0.72269700  0.25000000  0.55460700  1
  La  La4  1  0.57906900  0.75000000  0.84186200  1
  La  La5  1  0.42093100  0.25000000  0.15813800  1
  Ti  Ti6  1  0.15327500  0.50288500  0.69345100  1
  Ti  Ti7  1  0.84672600  0.49711500  0.30654900  1
  Ti  Ti8  1  0.15327500  0.99711500  0.69345100  1
  Ti  Ti9  1  0.84672600  0.00288500  0.30654900  1
  Ti  Ti10  1  0.00000000  0.50000000  0.00000000  1
  Ti  Ti11  1  0.00000000  0.00000000  0.00000000  1
  O  O12  1  0.14729800  0.75000000  0.70540300  1
  O  O13  1  0.85270200  0.25000000  0.29459700  1
  O  O14  1  0.35401600  0.50000100  0.29196800  1
  O  O15  1  0.64598400  0.49999900  0.70803200  1
  O  O16  1  0.35401600  0.99999900  0.29196800  1
  O  O17  1  0.64598400  0.00000100  0.70803200  1
  O  O18  1  0.21867200  0.45838700  0.56265600  1
  O  O19  1  0.78132800  0.54161300  0.43734400  1
  O  O20  1  0.21867200  0.04161300  0.56265600  1
  O  O21  1  0.78132800  0.95838700  0.43734400  1
  O  O22  1  0.99650900  0.75000000  0.00698100  1
  O  O23  1  0.00349100  0.25000000  0.99301900  1
  O  O24  1  0.85627900  0.75000000  0.28744200  1
  O  O25  1  0.14372100  0.25000000  0.71255800  1
  O  O26  1  0.07198400  0.52885300  0.85603200  1
  O  O27  1  0.92801600  0.47114700  0.14396800  1
  O  O28  1  0.07198400  0.97114700  0.85603200  1
  O  O29  1  0.92801600  0.02885300  0.14396800  1
  O  O30  1  0.50000000  0.50000000  0.00000000  1
  O  O31  1  0.50000000  0.00000000  0.00000000  1
