# generated using pymatgen
data_K2CrMo6H19O32
_symmetry_space_group_name_H-M   'P 1'
_cell_length_a   10.77404600
_cell_length_b   11.00169736
_cell_length_c   12.78947202
_cell_angle_alpha   100.86793735
_cell_angle_beta   94.74959428
_cell_angle_gamma   98.65625395
_symmetry_Int_Tables_number   1
_chemical_formula_structural   K2CrMo6H19O32
_chemical_formula_sum   'K4 Cr2 Mo12 H38 O64'
_cell_volume   1462.14128252
_cell_formula_units_Z   2
loop_
 _symmetry_equiv_pos_site_id
 _symmetry_equiv_pos_as_xyz
  1  'x, y, z'
loop_
 _atom_site_type_symbol
 _atom_site_label
 _atom_site_symmetry_multiplicity
 _atom_site_fract_x
 _atom_site_fract_y
 _atom_site_fract_z
 _atom_site_occupancy
  K  K0  1  0.93449800  0.97526600  0.33342100  1
  K  K1  1  0.06550200  0.02473400  0.66657900  1
  K  K2  1  0.06937700  0.41900900  0.22199400  1
  K  K3  1  0.93062300  0.58099100  0.77800600  1
  Cr  Cr4  1  0.50000000  0.00000000  0.00000000  1
  Cr  Cr5  1  0.50000000  0.50000000  0.50000000  1
  Mo  Mo6  1  0.76673200  0.86267100  0.00328800  1
  Mo  Mo7  1  0.23326800  0.13732900  0.99671200  1
  Mo  Mo8  1  0.47713800  0.80818400  0.57079400  1
  Mo  Mo9  1  0.52286200  0.19181600  0.42920600  1
  Mo  Mo10  1  0.76325700  0.72557800  0.53110500  1
  Mo  Mo11  1  0.23674300  0.27442200  0.46889500  1
  Mo  Mo12  1  0.78960800  0.17380400  0.09471600  1
  Mo  Mo13  1  0.21039200  0.82619600  0.90528400  1
  Mo  Mo14  1  0.21084500  0.58081400  0.53957400  1
  Mo  Mo15  1  0.78915500  0.41918600  0.46042600  1
  Mo  Mo16  1  0.52099100  0.31397600  0.07733100  1
  Mo  Mo17  1  0.47900900  0.68602400  0.92266900  1
  H  H18  1  0.37670300  0.53494000  0.21074800  1
  H  H19  1  0.62329700  0.46506000  0.78925200  1
  H  H20  1  0.58627400  0.63921100  0.68587400  1
  H  H21  1  0.41372600  0.36078900  0.31412600  1
  H  H22  1  0.22613100  0.46661800  0.00499800  1
  H  H23  1  0.77386900  0.53338200  0.99500200  1
  H  H24  1  0.14997400  0.92367800  0.13665700  1
  H  H25  1  0.85002600  0.07632200  0.86334300  1
  H  H26  1  0.94064600  0.63503500  0.13411600  1
  H  H27  1  0.05935400  0.36496500  0.86588400  1
  H  H28  1  0.19326900  0.99908700  0.25457800  1
  H  H29  1  0.80673100  0.00091300  0.74542200  1
  H  H30  1  0.57779600  0.89244100  0.82398100  1
  H  H31  1  0.42220400  0.10755900  0.17601900  1
  H  H32  1  0.67137600  0.80433200  0.25614400  1
  H  H33  1  0.32862400  0.19566800  0.74385600  1
  H  H34  1  0.22068500  0.94908300  0.46401000  1
  H  H35  1  0.77931500  0.05091700  0.53599000  1
  H  H36  1  0.12171000  0.83297500  0.46314800  1
  H  H37  1  0.87829000  0.16702500  0.53685200  1
  H  H38  1  0.62277800  0.15778500  0.90262200  1
  H  H39  1  0.37722200  0.84221500  0.09737800  1
  H  H40  1  0.63669900  0.96837400  0.17445400  1
  H  H41  1  0.36330100  0.03162600  0.82554600  1
  H  H42  1  0.32711700  0.66729900  0.23230700  1
  H  H43  1  0.67288300  0.33270100  0.76769300  1
  H  H44  1  0.62946300  0.38664700  0.62259700  1
  H  H45  1  0.37053700  0.61335300  0.37740300  1
  H  H46  1  0.11885600  0.54252700  0.00052500  1
  H  H47  1  0.88114400  0.45747300  0.99947500  1
  H  H48  1  0.62036200  0.88825000  0.35077400  1
  H  H49  1  0.37963800  0.11175000  0.64922600  1
  H  H50  1  0.64002900  0.55515200  0.34225200  1
  H  H51  1  0.35997100  0.44484800  0.65774800  1
  H  H52  1  0.04069600  0.72604500  0.22125500  1
  H  H53  1  0.95930400  0.27395500  0.77874500  1
  H  H54  1  0.66155200  0.27431200  0.26096500  1
  H  H55  1  0.33844800  0.72568800  0.73903500  1
  O  O56  1  0.15513100  0.91454800  0.21333000  1
  O  O57  1  0.84486900  0.08545200  0.78667000  1
  O  O58  1  0.33992000  0.71503100  0.63779000  1
  O  O59  1  0.66008000  0.28496900  0.36221000  1
  O  O60  1  0.86799900  0.29796600  0.04586700  1
  O  O61  1  0.13200100  0.70203400  0.95413300  1
  O  O62  1  0.66181800  0.26466000  0.17094800  1
  O  O63  1  0.33818200  0.73534000  0.82905200  1
  O  O64  1  0.66737400  0.17052200  0.78816300  1
  O  O65  1  0.33262600  0.82947800  0.21183700  1
  O  O66  1  0.13447600  0.45823800  0.00715400  1
  O  O67  1  0.86552400  0.54176200  0.99284600  1
  O  O68  1  0.60756300  0.37887600  0.54260400  1
  O  O69  1  0.39243700  0.62112400  0.45739600  1
  O  O70  1  0.54642100  0.90621300  0.69319600  1
  O  O71  1  0.45357900  0.09378700  0.30680400  1
  O  O72  1  0.70965600  0.65220800  0.24858200  1
  O  O73  1  0.29034400  0.34779200  0.75141800  1
  O  O74  1  0.58183100  0.88125000  0.89989400  1
  O  O75  1  0.41816900  0.11875000  0.10010600  1
  O  O76  1  0.60873600  0.42431000  0.02087900  1
  O  O77  1  0.39126400  0.57569000  0.97912100  1
  O  O78  1  0.64503900  0.54727900  0.41804600  1
  O  O79  1  0.35496100  0.45272100  0.58195400  1
  O  O80  1  0.98630000  0.64383100  0.20623100  1
  O  O81  1  0.01370000  0.35616900  0.79376900  1
  O  O82  1  0.58703100  0.64964400  0.61054500  1
  O  O83  1  0.41296900  0.35035600  0.38945500  1
  O  O84  1  0.13376100  0.67314300  0.46873900  1
  O  O85  1  0.86623900  0.32685700  0.53126100  1
  O  O86  1  0.86822000  0.85686600  0.11402400  1
  O  O87  1  0.13178000  0.14313400  0.88597600  1
  O  O88  1  0.84915900  0.76121300  0.42783500  1
  O  O89  1  0.15084100  0.23878700  0.57216500  1
  O  O90  1  0.82578800  0.03757900  0.98726700  1
  O  O91  1  0.17421200  0.96242100  0.01273300  1
  O  O92  1  0.12996100  0.92448400  0.46652900  1
  O  O93  1  0.87003900  0.07551600  0.53347100  1
  O  O94  1  0.37344300  0.26702000  0.97658900  1
  O  O95  1  0.62655700  0.73298000  0.02341100  1
  O  O96  1  0.64779300  0.88819500  0.27951400  1
  O  O97  1  0.35220700  0.11180500  0.72048600  1
  O  O98  1  0.12147000  0.55331600  0.64143200  1
  O  O99  1  0.87853000  0.44668400  0.35856800  1
  O  O100  1  0.64926600  0.99486300  0.10482000  1
  O  O101  1  0.35073400  0.00513700  0.89518000  1
  O  O102  1  0.39106800  0.89632900  0.50366300  1
  O  O103  1  0.60893200  0.10367100  0.49633700  1
  O  O104  1  0.60635300  0.15813300  0.97973400  1
  O  O105  1  0.39364700  0.84186700  0.02026600  1
  O  O106  1  0.17301500  0.42122900  0.43561500  1
  O  O107  1  0.82698500  0.57877100  0.56438500  1
  O  O108  1  0.88203400  0.16616100  0.21011100  1
  O  O109  1  0.11796600  0.83383900  0.78988900  1
  O  O110  1  0.61890500  0.80501500  0.48767800  1
  O  O111  1  0.38109500  0.19498500  0.51232200  1
  O  O112  1  0.83098300  0.83560200  0.64616500  1
  O  O113  1  0.16901700  0.16439800  0.35383500  1
  O  O114  1  0.32076900  0.58404300  0.25170700  1
  O  O115  1  0.67923100  0.41595700  0.74829300  1
  O  O116  1  0.46318500  0.39750500  0.18977500  1
  O  O117  1  0.53681500  0.60249500  0.81022500  1
  O  O118  1  0.82417500  0.78395400  0.89218600  1
  O  O119  1  0.17582500  0.21604600  0.10781400  1
