# generated using pymatgen
data_Ba5BiPb4O15
_symmetry_space_group_name_H-M   'P 1'
_cell_length_a   22.13662048
_cell_length_b   22.13662048
_cell_length_c   6.22152234
_cell_angle_alpha   81.94203889
_cell_angle_beta   81.94203889
_cell_angle_gamma   15.95710942
_symmetry_Int_Tables_number   1
_chemical_formula_structural   Ba5BiPb4O15
_chemical_formula_sum   'Ba10 Bi2 Pb8 O30'
_cell_volume   829.71184032
_cell_formula_units_Z   2
loop_
 _symmetry_equiv_pos_site_id
 _symmetry_equiv_pos_as_xyz
  1  'x, y, z'
loop_
 _atom_site_type_symbol
 _atom_site_label
 _atom_site_symmetry_multiplicity
 _atom_site_fract_x
 _atom_site_fract_y
 _atom_site_fract_z
 _atom_site_occupancy
  Ba  Ba0  1  0.35127900  0.35127900  0.14500000  1
  Ba  Ba1  1  0.54962800  0.54962800  0.94349800  1
  Ba  Ba2  1  0.95033300  0.95033300  0.54300300  1
  Ba  Ba3  1  0.75006300  0.75006300  0.74832500  1
  Ba  Ba4  1  0.14875400  0.14875400  0.34959300  1
  Ba  Ba5  1  0.45037200  0.45037200  0.05650200  1
  Ba  Ba6  1  0.64872100  0.64872100  0.85500000  1
  Ba  Ba7  1  0.04966700  0.04966700  0.45699700  1
  Ba  Ba8  1  0.85124600  0.85124600  0.65040700  1
  Ba  Ba9  1  0.24993700  0.24993700  0.25167500  1
  Bi  Bi10  1  0.30002200  0.30002200  0.69882800  1
  Bi  Bi11  1  0.69997800  0.69997800  0.30117200  1
  Pb  Pb12  1  0.09964200  0.09964200  0.90217900  1
  Pb  Pb13  1  0.50000000  0.50000000  0.50000000  1
  Pb  Pb14  1  0.90035800  0.90035800  0.09782100  1
  Pb  Pb15  1  0.40055900  0.40055900  0.60097200  1
  Pb  Pb16  1  0.80036300  0.80036300  0.20038800  1
  Pb  Pb17  1  0.19963700  0.19963700  0.79961200  1
  Pb  Pb18  1  0.59944100  0.59944100  0.39902800  1
  Pb  Pb19  1  0.00000000  0.00000000  0.00000000  1
  O  O20  1  0.14227400  0.64190000  0.85732900  1
  O  O21  1  0.34403200  0.84359400  0.65614800  1
  O  O22  1  0.74214500  0.24224000  0.25794200  1
  O  O23  1  0.54011600  0.04440300  0.46050100  1
  O  O24  1  0.94223600  0.44590800  0.05973500  1
  O  O25  1  0.15640600  0.65596800  0.34385200  1
  O  O26  1  0.35810000  0.85772600  0.14267100  1
  O  O27  1  0.75776000  0.25785500  0.74205800  1
  O  O28  1  0.55409200  0.05776400  0.94026500  1
  O  O29  1  0.95559700  0.45988400  0.53949900  1
  O  O30  1  0.64190000  0.14227400  0.85732900  1
  O  O31  1  0.84359400  0.34403200  0.65614800  1
  O  O32  1  0.24224000  0.74214500  0.25794200  1
  O  O33  1  0.04440300  0.54011600  0.46050100  1
  O  O34  1  0.44590800  0.94223600  0.05973500  1
  O  O35  1  0.65596800  0.15640600  0.34385200  1
  O  O36  1  0.85772600  0.35810000  0.14267100  1
  O  O37  1  0.25785500  0.75776000  0.74205800  1
  O  O38  1  0.05776400  0.55409200  0.94026500  1
  O  O39  1  0.45988400  0.95559700  0.53949900  1
  O  O40  1  0.34917700  0.34917700  0.58860900  1
  O  O41  1  0.74975200  0.74975200  0.19044700  1
  O  O42  1  0.15029700  0.15029700  0.78698600  1
  O  O43  1  0.54988400  0.54988400  0.37944500  1
  O  O44  1  0.94999800  0.94999800  0.98015200  1
  O  O45  1  0.25024800  0.25024800  0.80955300  1
  O  O46  1  0.65082300  0.65082300  0.41139100  1
  O  O47  1  0.05000200  0.05000200  0.01984800  1
  O  O48  1  0.45011600  0.45011600  0.62055500  1
  O  O49  1  0.84970300  0.84970300  0.21301400  1
