# generated using pymatgen
data_AlPH8(CCl)3
_symmetry_space_group_name_H-M   'P 1'
_cell_length_a   6.84508435
_cell_length_b   7.99351467
_cell_length_c   10.83302400
_cell_angle_alpha   90.00000000
_cell_angle_beta   90.00000000
_cell_angle_gamma   113.27564831
_symmetry_Int_Tables_number   1
_chemical_formula_structural   AlPH8(CCl)3
_chemical_formula_sum   'Al2 P2 H16 C6 Cl6'
_cell_volume   544.50207622
_cell_formula_units_Z   2
loop_
 _symmetry_equiv_pos_site_id
 _symmetry_equiv_pos_as_xyz
  1  'x, y, z'
loop_
 _atom_site_type_symbol
 _atom_site_label
 _atom_site_symmetry_multiplicity
 _atom_site_fract_x
 _atom_site_fract_y
 _atom_site_fract_z
 _atom_site_occupancy
  Al  Al0  1  0.40324200  0.92310600  0.74978100  1
  Al  Al1  1  0.59675800  0.07689400  0.24978100  1
  P  P2  1  0.42479100  0.23479300  0.74862300  1
  P  P3  1  0.57520900  0.76520700  0.24862300  1
  H  H4  1  0.36719400  0.25634400  0.53124900  1
  H  H5  1  0.63280600  0.74365600  0.03124900  1
  H  H6  1  0.62883800  0.74154600  0.46817000  1
  H  H7  1  0.37116200  0.25845400  0.96817000  1
  H  H8  1  0.12185600  0.19339900  0.61465600  1
  H  H9  1  0.87814400  0.80660100  0.11465600  1
  H  H10  1  0.87028000  0.80295600  0.38336400  1
  H  H11  1  0.12972000  0.19704400  0.88336400  1
  H  H12  1  0.31534800  0.42533800  0.61842800  1
  H  H13  1  0.68465200  0.57466200  0.11842800  1
  H  H14  1  0.68158800  0.57174700  0.38154800  1
  H  H15  1  0.31841200  0.42825300  0.88154800  1
  H  H16  1  0.72148200  0.54262300  0.76601400  1
  H  H17  1  0.27851800  0.45737700  0.26601400  1
  H  H18  1  0.80235600  0.37910400  0.67709600  1
  H  H19  1  0.19764400  0.62089600  0.17709600  1
  C  C20  1  0.29264900  0.28147900  0.61464400  1
  C  C21  1  0.70735100  0.71852100  0.11464400  1
  C  C22  1  0.69962200  0.71450800  0.38378800  1
  C  C23  1  0.30037800  0.28549200  0.88378800  1
  C  C24  1  0.68640100  0.40355000  0.73505400  1
  C  C25  1  0.31359900  0.59645000  0.23505400  1
  Cl  Cl26  1  0.71856100  0.92640300  0.74999000  1
  Cl  Cl27  1  0.28143900  0.07359700  0.24999000  1
  Cl  Cl28  1  0.23084300  0.79328900  0.58709800  1
  Cl  Cl29  1  0.76915700  0.20671100  0.08709800  1
  Cl  Cl30  1  0.76938100  0.20617900  0.41279800  1
  Cl  Cl31  1  0.23061900  0.79382100  0.91279800  1
