# generated using pymatgen
data_Ba5BiPb4O15
_symmetry_space_group_name_H-M   'P 1'
_cell_length_a   6.17113000
_cell_length_b   6.17253418
_cell_length_c   25.42433837
_cell_angle_alpha   83.09670670
_cell_angle_beta   83.11750072
_cell_angle_gamma   60.44610859
_symmetry_Int_Tables_number   1
_chemical_formula_structural   Ba5BiPb4O15
_chemical_formula_sum   'Ba10 Bi2 Pb8 O30'
_cell_volume   834.28272402
_cell_formula_units_Z   2
loop_
 _symmetry_equiv_pos_site_id
 _symmetry_equiv_pos_as_xyz
  1  'x, y, z'
loop_
 _atom_site_type_symbol
 _atom_site_label
 _atom_site_symmetry_multiplicity
 _atom_site_fract_x
 _atom_site_fract_y
 _atom_site_fract_z
 _atom_site_occupancy
  Ba  Ba0  1  0.74796700  0.75523900  0.24686000  1
  Ba  Ba1  1  0.34763400  0.35328800  0.44915200  1
  Ba  Ba2  1  0.54426500  0.55388500  0.85184300  1
  Ba  Ba3  1  0.94540000  0.95185900  0.65295000  1
  Ba  Ba4  1  0.14532500  0.15528400  0.04943700  1
  Ba  Ba5  1  0.85467500  0.84471600  0.95056300  1
  Ba  Ba6  1  0.45573500  0.44611500  0.14815700  1
  Ba  Ba7  1  0.65236600  0.64671200  0.55084800  1
  Ba  Ba8  1  0.05460000  0.04814100  0.34705000  1
  Ba  Ba9  1  0.25203300  0.24476100  0.75314000  1
  Bi  Bi10  1  0.70054300  0.69986900  0.39951300  1
  Bi  Bi11  1  0.29945700  0.30013100  0.60048700  1
  Pb  Pb12  1  0.80010000  0.80041900  0.09946400  1
  Pb  Pb13  1  0.39988800  0.40141200  0.29849200  1
  Pb  Pb14  1  0.00000000  0.00000000  0.50000000  1
  Pb  Pb15  1  0.60011200  0.59858800  0.70150800  1
  Pb  Pb16  1  0.19990000  0.19958100  0.90053600  1
  Pb  Pb17  1  0.89901100  0.90012900  0.80089600  1
  Pb  Pb18  1  0.50000000  0.50000000  0.00000000  1
  Pb  Pb19  1  0.10098900  0.09987100  0.19910400  1
  O  O20  1  0.66990600  0.17089200  0.05689700  1
  O  O21  1  0.26754900  0.77291900  0.25758700  1
  O  O22  1  0.46772200  0.96829800  0.65453200  1
  O  O23  1  0.86526100  0.37200300  0.45610400  1
  O  O24  1  0.07207700  0.56727800  0.85596300  1
  O  O25  1  0.13078200  0.62901900  0.04346900  1
  O  O26  1  0.73488300  0.22695700  0.24480400  1
  O  O27  1  0.93253000  0.43269000  0.64259900  1
  O  O28  1  0.33575900  0.82999100  0.44404300  1
  O  O29  1  0.52804000  0.03101900  0.84288700  1
  O  O30  1  0.47196000  0.96898100  0.15711300  1
  O  O31  1  0.06747000  0.56731000  0.35740100  1
  O  O32  1  0.26511700  0.77304300  0.75519600  1
  O  O33  1  0.66424100  0.17000900  0.55595700  1
  O  O34  1  0.86921800  0.37098100  0.95653100  1
  O  O35  1  0.92792300  0.43272200  0.14403700  1
  O  O36  1  0.53227800  0.03170200  0.34546800  1
  O  O37  1  0.73245100  0.22708100  0.74241300  1
  O  O38  1  0.13473900  0.62799700  0.54389600  1
  O  O39  1  0.33009400  0.82910800  0.94310300  1
  O  O40  1  0.58791300  0.71078800  0.05025700  1
  O  O41  1  0.18719900  0.30615500  0.25154900  1
  O  O42  1  0.79277100  0.90322800  0.45005700  1
  O  O43  1  0.39609400  0.50653200  0.64819900  1
  O  O44  1  0.99083900  0.11305500  0.84916900  1
  O  O45  1  0.00916100  0.88694500  0.15083100  1
  O  O46  1  0.60390600  0.49346800  0.35180100  1
  O  O47  1  0.20722900  0.09677200  0.54994300  1
  O  O48  1  0.81280100  0.69384500  0.74845100  1
  O  O49  1  0.41208700  0.28921200  0.94974300  1
