# generated using pymatgen
data_Ba10Pr5Nb4SnO30
_symmetry_space_group_name_H-M   'P 1'
_cell_length_a   8.74476333
_cell_length_b   10.68131099
_cell_length_c   10.67470766
_cell_angle_alpha   80.30961895
_cell_angle_beta   113.99353826
_cell_angle_gamma   113.95553328
_symmetry_Int_Tables_number   1
_chemical_formula_structural   Ba10Pr5Nb4SnO30
_chemical_formula_sum   'Ba10 Pr5 Nb4 Sn1 O30'
_cell_volume   832.44858323
_cell_formula_units_Z   1
loop_
 _symmetry_equiv_pos_site_id
 _symmetry_equiv_pos_as_xyz
  1  'x, y, z'
loop_
 _atom_site_type_symbol
 _atom_site_label
 _atom_site_symmetry_multiplicity
 _atom_site_fract_x
 _atom_site_fract_y
 _atom_site_fract_z
 _atom_site_occupancy
  Ba  Ba0  1  0.64815900  0.69932400  0.09958500  1
  Ba  Ba1  1  0.84907900  0.29846800  0.89792300  1
  Ba  Ba2  1  0.24606100  0.49757700  0.49953600  1
  Ba  Ba3  1  0.45089800  0.09934400  0.30133300  1
  Ba  Ba4  1  0.04702300  0.90105900  0.69902500  1
  Ba  Ba5  1  0.75297700  0.49894100  0.50097500  1
  Ba  Ba6  1  0.95092100  0.10153200  0.30207700  1
  Ba  Ba7  1  0.34910200  0.30065600  0.89866700  1
  Ba  Ba8  1  0.55393900  0.90242300  0.70046400  1
  Ba  Ba9  1  0.15184100  0.70067600  0.10041500  1
  Pr  Pr10  1  0.79939500  0.39983400  0.19919100  1
  Pr  Pr11  1  0.00060500  0.00016600  0.00080900  1
  Pr  Pr12  1  0.40000000  0.20000000  0.60000000  1
  Pr  Pr13  1  0.59984600  0.79931900  0.40048700  1
  Pr  Pr14  1  0.20015400  0.60068100  0.79951300  1
  Nb  Nb15  1  0.30003300  0.40001000  0.19997600  1
  Nb  Nb16  1  0.70028900  0.60004400  0.80028600  1
  Nb  Nb17  1  0.09971100  0.79995600  0.39971400  1
  Nb  Nb18  1  0.49996700  0.99999000  0.00002400  1
  Sn  Sn19  1  0.90000000  0.20000000  0.60000000  1
  O  O20  1  0.92462900  0.61139800  0.77747000  1
  O  O21  1  0.13092300  0.21101600  0.57677200  1
  O  O22  1  0.52363300  0.41117100  0.17602000  1
  O  O23  1  0.72384900  0.00930500  0.97814100  1
  O  O24  1  0.32276600  0.80954200  0.37592900  1
  O  O25  1  0.56936700  0.40479900  0.73107300  1
  O  O26  1  0.76360500  0.99875300  0.52738400  1
  O  O27  1  0.16898300  0.20484000  0.13088800  1
  O  O28  1  0.36904300  0.80427700  0.93134400  1
  O  O29  1  0.96810600  0.60459300  0.32943200  1
  O  O30  1  0.47723400  0.59045800  0.82407100  1
  O  O31  1  0.66907700  0.18898400  0.62322800  1
  O  O32  1  0.07615100  0.39069500  0.22185900  1
  O  O33  1  0.27636700  0.98882900  0.02398000  1
  O  O34  1  0.87537100  0.78860200  0.42253000  1
  O  O35  1  0.83189400  0.79540700  0.87056800  1
  O  O36  1  0.03639500  0.40124700  0.67261600  1
  O  O37  1  0.43095700  0.59572300  0.26865600  1
  O  O38  1  0.63101700  0.19516000  0.06911200  1
  O  O39  1  0.23063300  0.99520100  0.46892700  1
  O  O40  1  0.80957700  0.27325800  0.39942800  1
  O  O41  1  0.21107500  0.47133300  0.00552300  1
  O  O42  1  0.61029300  0.66974500  0.60566800  1
  O  O43  1  0.00976600  0.86945200  0.20544900  1
  O  O44  1  0.41064500  0.06935100  0.80564300  1
  O  O45  1  0.99042300  0.12674200  0.80057200  1
  O  O46  1  0.38935500  0.33064900  0.39435700  1
  O  O47  1  0.79023400  0.53054800  0.99455100  1
  O  O48  1  0.18970700  0.73025500  0.59433200  1
  O  O49  1  0.58892500  0.92866700  0.19447700  1
