# generated using pymatgen
data_Al3WC4
_symmetry_space_group_name_H-M   'P 1'
_cell_length_a   2.66436100
_cell_length_b   3.03114300
_cell_length_c   10.43372300
_cell_angle_alpha   90.00000000
_cell_angle_beta   90.00000000
_cell_angle_gamma   90.00000000
_symmetry_Int_Tables_number   1
_chemical_formula_structural   Al3WC4
_chemical_formula_sum   'Al3 W1 C4'
_cell_volume   84.26336457
_cell_formula_units_Z   1
loop_
 _symmetry_equiv_pos_site_id
 _symmetry_equiv_pos_as_xyz
  1  'x, y, z'
loop_
 _atom_site_type_symbol
 _atom_site_label
 _atom_site_symmetry_multiplicity
 _atom_site_fract_x
 _atom_site_fract_y
 _atom_site_fract_z
 _atom_site_occupancy
  Al  Al0  1  0.00000000  0.00000000  0.24637200  1
  Al  Al1  1  0.00000000  0.50000000  0.49782500  1
  Al  Al2  1  0.00000000  0.00000000  0.74695700  1
  W  W3  1  0.00000000  0.50000000  0.00565800  1
  C  C4  1  0.50000000  0.50000000  0.16120100  1
  C  C5  1  0.50000000  0.00000000  0.41455400  1
  C  C6  1  0.50000000  0.50000000  0.66717600  1
  C  C7  1  0.50000000  0.00000000  0.92695800  1
