# generated using pymatgen
data_AlGa(CuSe2)2
_symmetry_space_group_name_H-M   'P 1'
_cell_length_a   6.86824128
_cell_length_b   6.86824128
_cell_length_c   6.86824128
_cell_angle_alpha   131.38782442
_cell_angle_beta   131.38782442
_cell_angle_gamma   71.19762726
_symmetry_Int_Tables_number   1
_chemical_formula_structural   AlGa(CuSe2)2
_chemical_formula_sum   'Al1 Ga1 Cu2 Se4'
_cell_volume   178.53434866
_cell_formula_units_Z   1
loop_
 _symmetry_equiv_pos_site_id
 _symmetry_equiv_pos_as_xyz
  1  'x, y, z'
loop_
 _atom_site_type_symbol
 _atom_site_label
 _atom_site_symmetry_multiplicity
 _atom_site_fract_x
 _atom_site_fract_y
 _atom_site_fract_z
 _atom_site_occupancy
  Al  Al0  1  0.50000000  0.50000000  0.00000000  1
  Ga  Ga1  1  0.75000000  0.25000000  0.50000000  1
  Cu  Cu2  1  0.25000000  0.75000000  0.50000000  1
  Cu  Cu3  1  0.00000000  0.00000000  0.00000000  1
  Se  Se4  1  0.62363600  0.62869600  0.49971000  1
  Se  Se5  1  0.12898600  0.12392600  0.50029000  1
  Se  Se6  1  0.87607400  0.37636400  0.00505900  1
  Se  Se7  1  0.37130400  0.87101400  0.99494100  1
