# generated using pymatgen
data_CsPr2Ti2NbO10
_symmetry_space_group_name_H-M   'P 1'
_cell_length_a   3.88493467
_cell_length_b   3.88493467
_cell_length_c   15.73486686
_cell_angle_alpha   89.58126926
_cell_angle_beta   90.41873074
_cell_angle_gamma   90.14946904
_symmetry_Int_Tables_number   1
_chemical_formula_structural   CsPr2Ti2NbO10
_chemical_formula_sum   'Cs1 Pr2 Ti2 Nb1 O10'
_cell_volume   237.46843951
_cell_formula_units_Z   1
loop_
 _symmetry_equiv_pos_site_id
 _symmetry_equiv_pos_as_xyz
  1  'x, y, z'
loop_
 _atom_site_type_symbol
 _atom_site_label
 _atom_site_symmetry_multiplicity
 _atom_site_fract_x
 _atom_site_fract_y
 _atom_site_fract_z
 _atom_site_occupancy
  Cs  Cs0  1  0.49990000  0.50010000  0.51303800  1
  Pr  Pr1  1  0.51038600  0.48961400  0.84559100  1
  Pr  Pr2  1  0.50834700  0.49165300  0.12767800  1
  Ti  Ti3  1  0.99093000  0.00907000  0.99862700  1
  Ti  Ti4  1  0.00026900  0.99973100  0.71618000  1
  Nb  Nb5  1  0.99920400  0.00079600  0.27892400  1
  O  O6  1  0.98189400  0.01810600  0.87927000  1
  O  O7  1  0.97730400  0.02269600  0.12725200  1
  O  O8  1  0.49869500  0.99843500  0.75164800  1
  O  O9  1  0.00156500  0.50130500  0.75164800  1
  O  O10  1  0.49399600  0.00915700  0.24613100  1
  O  O11  1  0.99084300  0.50600400  0.24613100  1
  O  O12  1  0.99813400  0.00186600  0.60798700  1
  O  O13  1  0.00318400  0.99681600  0.39266000  1
  O  O14  1  0.47758200  0.03823400  0.00861800  1
  O  O15  1  0.96176600  0.52241800  0.00861800  1
