# generated using pymatgen
data_CsLa2TaTi2O10
_symmetry_space_group_name_H-M   'P 1'
_cell_length_a   3.89483470
_cell_length_b   3.89483470
_cell_length_c   15.71052733
_cell_angle_alpha   89.57125297
_cell_angle_beta   90.42874703
_cell_angle_gamma   90.06640539
_symmetry_Int_Tables_number   1
_chemical_formula_structural   CsLa2TaTi2O10
_chemical_formula_sum   'Cs1 La2 Ta1 Ti2 O10'
_cell_volume   238.31108272
_cell_formula_units_Z   1
loop_
 _symmetry_equiv_pos_site_id
 _symmetry_equiv_pos_as_xyz
  1  'x, y, z'
loop_
 _atom_site_type_symbol
 _atom_site_label
 _atom_site_symmetry_multiplicity
 _atom_site_fract_x
 _atom_site_fract_y
 _atom_site_fract_z
 _atom_site_occupancy
  Cs  Cs0  1  0.49994800  0.50005200  0.50771300  1
  La  La1  1  0.50738700  0.49261300  0.84570600  1
  La  La2  1  0.49953000  0.50047000  0.12792500  1
  Ta  Ta3  1  0.99971800  0.00028200  0.27804200  1
  Ti  Ti4  1  0.98422500  0.01577500  0.99847800  1
  Ti  Ti5  1  0.00040700  0.99959300  0.71553800  1
  O  O6  1  0.98660300  0.01339700  0.88000200  1
  O  O7  1  0.98498200  0.01501800  0.12881200  1
  O  O8  1  0.99883900  0.00116100  0.60786200  1
  O  O9  1  0.00222700  0.99777300  0.39208800  1
  O  O10  1  0.49875700  0.99942800  0.75145900  1
  O  O11  1  0.00057200  0.50124300  0.75145900  1
  O  O12  1  0.49711500  0.00356700  0.24844200  1
  O  O13  1  0.99643300  0.50288500  0.24844200  1
  O  O14  1  0.47615000  0.04189300  0.00901600  1
  O  O15  1  0.95810700  0.52385000  0.00901600  1
