# generated using pymatgen
data_Ba4Ge2Pb(S4Br)2
_symmetry_space_group_name_H-M   'P 1'
_cell_length_a   9.04818300
_cell_length_b   9.34903000
_cell_length_c   12.15722300
_cell_angle_alpha   90.00000000
_cell_angle_beta   90.00000000
_cell_angle_gamma   90.00000000
_symmetry_Int_Tables_number   1
_chemical_formula_structural   Ba4Ge2Pb(S4Br)2
_chemical_formula_sum   'Ba8 Ge4 Pb2 S16 Br4'
_cell_volume   1028.40057799
_cell_formula_units_Z   2
loop_
 _symmetry_equiv_pos_site_id
 _symmetry_equiv_pos_as_xyz
  1  'x, y, z'
loop_
 _atom_site_type_symbol
 _atom_site_label
 _atom_site_symmetry_multiplicity
 _atom_site_fract_x
 _atom_site_fract_y
 _atom_site_fract_z
 _atom_site_occupancy
  Ba  Ba0  1  0.89046800  0.00884200  0.16958300  1
  Ba  Ba1  1  0.60086900  0.49279900  0.67311100  1
  Ba  Ba2  1  0.10086900  0.50720100  0.82688900  1
  Ba  Ba3  1  0.39046800  0.99115800  0.33041700  1
  Ba  Ba4  1  0.10086900  0.99279900  0.82688900  1
  Ba  Ba5  1  0.39046800  0.50884200  0.33041700  1
  Ba  Ba6  1  0.89046800  0.49115800  0.16958300  1
  Ba  Ba7  1  0.60086900  0.00720100  0.67311100  1
  Ge  Ge8  1  0.19447100  0.75000000  0.10114800  1
  Ge  Ge9  1  0.30146100  0.75000000  0.59012600  1
  Ge  Ge10  1  0.80146100  0.25000000  0.90987400  1
  Ge  Ge11  1  0.69447100  0.25000000  0.39885200  1
  Pb  Pb12  1  0.53434000  0.75000000  0.98159100  1
  Pb  Pb13  1  0.03434000  0.25000000  0.51840900  1
  S  S14  1  0.82464000  0.05433800  0.44060200  1
  S  S15  1  0.70193900  0.46243300  0.93552300  1
  S  S16  1  0.20193900  0.53756700  0.56447700  1
  S  S17  1  0.32464000  0.94566200  0.05939800  1
  S  S18  1  0.20193900  0.96243300  0.56447700  1
  S  S19  1  0.32464000  0.55433800  0.05939800  1
  S  S20  1  0.82464000  0.44566200  0.44060200  1
  S  S21  1  0.70193900  0.03756700  0.93552300  1
  S  S22  1  0.01559600  0.25000000  0.00277900  1
  S  S23  1  0.48693800  0.25000000  0.49750900  1
  S  S24  1  0.98693800  0.75000000  0.00249100  1
  S  S25  1  0.51559600  0.75000000  0.49722100  1
  S  S26  1  0.63217100  0.25000000  0.22197600  1
  S  S27  1  0.86636600  0.25000000  0.72527500  1
  S  S28  1  0.36636600  0.75000000  0.77472500  1
  S  S29  1  0.13217100  0.75000000  0.27802400  1
  Br  Br30  1  0.64573900  0.75000000  0.22409700  1
  Br  Br31  1  0.85283700  0.75000000  0.71624500  1
  Br  Br32  1  0.35283700  0.25000000  0.78375500  1
  Br  Br33  1  0.14573900  0.25000000  0.27590300  1
