# generated using pymatgen
data_Al2Ga(PO4)3
_symmetry_space_group_name_H-M   'P 1'
_cell_length_a   5.01731799
_cell_length_b   5.01731799
_cell_length_c   11.13165050
_cell_angle_alpha   89.86763789
_cell_angle_beta   89.86763789
_cell_angle_gamma   59.73131464
_symmetry_Int_Tables_number   1
_chemical_formula_structural   Al2Ga(PO4)3
_chemical_formula_sum   'Al2 Ga1 P3 O12'
_cell_volume   242.01913105
_cell_formula_units_Z   1
loop_
 _symmetry_equiv_pos_site_id
 _symmetry_equiv_pos_as_xyz
  1  'x, y, z'
loop_
 _atom_site_type_symbol
 _atom_site_label
 _atom_site_symmetry_multiplicity
 _atom_site_fract_x
 _atom_site_fract_y
 _atom_site_fract_z
 _atom_site_occupancy
  Al  Al0  1  0.46420100  0.00006600  0.16506400  1
  Al  Al1  1  0.99993400  0.53579900  0.83493600  1
  Ga  Ga2  1  0.53340200  0.46659800  0.50000000  1
  P  P3  1  0.53392100  0.46607900  0.00000000  1
  P  P4  1  0.46518300  0.99958400  0.66922200  1
  P  P5  1  0.00041600  0.53481700  0.33077800  1
  O  O6  1  0.59117800  0.10341200  0.56339800  1
  O  O7  1  0.12098400  0.29482400  0.22839100  1
  O  O8  1  0.29400700  0.58153300  0.89803400  1
  O  O9  1  0.89658800  0.40882200  0.43660200  1
  O  O10  1  0.70517600  0.87901600  0.77160900  1
  O  O11  1  0.41846700  0.70599300  0.10196600  1
  O  O12  1  0.58412300  0.15774600  0.05007300  1
  O  O13  1  0.15679300  0.26513600  0.71749200  1
  O  O14  1  0.25548000  0.59700400  0.37510400  1
  O  O15  1  0.84225400  0.41587700  0.94992700  1
  O  O16  1  0.73486400  0.84320700  0.28250800  1
  O  O17  1  0.40299600  0.74452000  0.62489600  1
