# generated using pymatgen
data_Al2Fe2Bi2O9
_symmetry_space_group_name_H-M   'P 1'
_cell_length_a   5.97497300
_cell_length_b   7.95235200
_cell_length_c   8.44613400
_cell_angle_alpha   90.00000000
_cell_angle_beta   90.00000000
_cell_angle_gamma   90.00000000
_symmetry_Int_Tables_number   1
_chemical_formula_structural   Al2Fe2Bi2O9
_chemical_formula_sum   'Al4 Fe4 Bi4 O18'
_cell_volume   401.31880438
_cell_formula_units_Z   2
loop_
 _symmetry_equiv_pos_site_id
 _symmetry_equiv_pos_as_xyz
  1  'x, y, z'
loop_
 _atom_site_type_symbol
 _atom_site_label
 _atom_site_symmetry_multiplicity
 _atom_site_fract_x
 _atom_site_fract_y
 _atom_site_fract_z
 _atom_site_occupancy
  Al  Al0  1  0.50000000  0.85662800  0.15760600  1
  Al  Al1  1  0.50000000  0.14337200  0.84239400  1
  Al  Al2  1  0.50000000  0.35662800  0.34239400  1
  Al  Al3  1  0.50000000  0.64337200  0.65760600  1
  Fe  Fe4  1  0.26330200  0.00000000  0.50000000  1
  Fe  Fe5  1  0.73669800  0.50000000  0.00000000  1
  Fe  Fe6  1  0.73669800  0.00000000  0.50000000  1
  Fe  Fe7  1  0.26330200  0.50000000  0.00000000  1
  Bi  Bi8  1  0.00000000  0.68204200  0.31966200  1
  Bi  Bi9  1  0.00000000  0.31795800  0.68033800  1
  Bi  Bi10  1  0.00000000  0.18204200  0.18033800  1
  Bi  Bi11  1  0.00000000  0.81795800  0.81966200  1
  O  O12  1  0.25295000  0.87577200  0.28254700  1
  O  O13  1  0.25295000  0.12422800  0.71745300  1
  O  O14  1  0.74705000  0.37577200  0.21745300  1
  O  O15  1  0.74705000  0.62422800  0.78254700  1
  O  O16  1  0.74705000  0.12422800  0.71745300  1
  O  O17  1  0.74705000  0.87577200  0.28254700  1
  O  O18  1  0.25295000  0.62422800  0.78254700  1
  O  O19  1  0.25295000  0.37577200  0.21745300  1
  O  O20  1  0.00000000  0.65400700  0.05875500  1
  O  O21  1  0.00000000  0.34599300  0.94124500  1
  O  O22  1  0.00000000  0.15400700  0.44124500  1
  O  O23  1  0.00000000  0.84599300  0.55875500  1
  O  O24  1  0.50000000  0.50000000  0.50000000  1
  O  O25  1  0.50000000  0.00000000  0.00000000  1
  O  O26  1  0.50000000  0.64553500  0.08930800  1
  O  O27  1  0.50000000  0.35446500  0.91069200  1
  O  O28  1  0.50000000  0.14553500  0.41069200  1
  O  O29  1  0.50000000  0.85446500  0.58930800  1
