# generated using pymatgen
data_Ba4Zn2CuGe20
_symmetry_space_group_name_H-M   'P 1'
_cell_length_a   10.86670035
_cell_length_b   10.86670035
_cell_length_c   10.87238300
_cell_angle_alpha   90.00000000
_cell_angle_beta   90.00000000
_cell_angle_gamma   90.00382523
_symmetry_Int_Tables_number   1
_chemical_formula_structural   Ba4Zn2CuGe20
_chemical_formula_sum   'Ba8 Zn4 Cu2 Ge40'
_cell_volume   1283.86726186
_cell_formula_units_Z   2
loop_
 _symmetry_equiv_pos_site_id
 _symmetry_equiv_pos_as_xyz
  1  'x, y, z'
loop_
 _atom_site_type_symbol
 _atom_site_label
 _atom_site_symmetry_multiplicity
 _atom_site_fract_x
 _atom_site_fract_y
 _atom_site_fract_z
 _atom_site_occupancy
  Ba  Ba0  1  0.49949000  0.99944700  0.25000000  1
  Ba  Ba1  1  0.00055300  0.50051000  0.75000000  1
  Ba  Ba2  1  0.25176600  0.99830400  0.75000000  1
  Ba  Ba3  1  0.00169600  0.74823400  0.25000000  1
  Ba  Ba4  1  0.49835100  0.50164900  0.50000000  1
  Ba  Ba5  1  0.74828800  0.99831600  0.75000000  1
  Ba  Ba6  1  0.00168400  0.25171200  0.25000000  1
  Ba  Ba7  1  0.49835100  0.50164900  0.00000000  1
  Zn  Zn8  1  0.99983000  0.00017000  0.50000000  1
  Zn  Zn9  1  0.74977400  0.49980500  0.25000000  1
  Zn  Zn10  1  0.50019500  0.25022600  0.75000000  1
  Zn  Zn11  1  0.99983000  0.00017000  0.00000000  1
  Cu  Cu12  1  0.25004600  0.49987200  0.25000000  1
  Cu  Cu13  1  0.50012800  0.74995400  0.75000000  1
  Ge  Ge14  1  0.31698500  0.81662200  0.43379200  1
  Ge  Ge15  1  0.68371600  0.18365800  0.06625200  1
  Ge  Ge16  1  0.68371600  0.18365800  0.43374800  1
  Ge  Ge17  1  0.31698500  0.81662200  0.06620800  1
  Ge  Ge18  1  0.31682800  0.18394900  0.06644700  1
  Ge  Ge19  1  0.68352600  0.81686400  0.43401000  1
  Ge  Ge20  1  0.68352600  0.81686400  0.06599000  1
  Ge  Ge21  1  0.31682800  0.18394900  0.43355300  1
  Ge  Ge22  1  0.18337800  0.68301500  0.93379200  1
  Ge  Ge23  1  0.81634200  0.31628400  0.56625200  1
  Ge  Ge24  1  0.81634200  0.31628400  0.93374800  1
  Ge  Ge25  1  0.18337800  0.68301500  0.56620800  1
  Ge  Ge26  1  0.81605100  0.68317200  0.56644700  1
  Ge  Ge27  1  0.18313600  0.31647400  0.93401000  1
  Ge  Ge28  1  0.18313600  0.31647400  0.56599000  1
  Ge  Ge29  1  0.81605100  0.68317200  0.93355300  1
  Ge  Ge30  1  0.50001600  0.87838400  0.56627300  1
  Ge  Ge31  1  0.18927400  0.00002500  0.36845900  1
  Ge  Ge32  1  0.37824700  0.68381300  0.25000000  1
  Ge  Ge33  1  0.50000700  0.11688300  0.93970100  1
  Ge  Ge34  1  0.81080200  0.00000500  0.13194600  1
  Ge  Ge35  1  0.61663200  0.31016700  0.25000000  1
  Ge  Ge36  1  0.50000700  0.11688300  0.56029900  1
  Ge  Ge37  1  0.81080200  0.00000500  0.36805400  1
  Ge  Ge38  1  0.50001600  0.87838400  0.93372700  1
  Ge  Ge39  1  0.18927400  0.00002500  0.13154100  1
  Ge  Ge40  1  0.37862500  0.31628500  0.25000000  1
  Ge  Ge41  1  0.61708200  0.68983300  0.25000000  1
  Ge  Ge42  1  0.12161600  0.49998400  0.06627300  1
  Ge  Ge43  1  0.99997500  0.81072600  0.86845900  1
  Ge  Ge44  1  0.31618700  0.62175300  0.75000000  1
  Ge  Ge45  1  0.88311700  0.49999300  0.43970100  1
  Ge  Ge46  1  0.99999500  0.18919800  0.63194600  1
  Ge  Ge47  1  0.68983300  0.38336800  0.75000000  1
  Ge  Ge48  1  0.88311700  0.49999300  0.06029900  1
  Ge  Ge49  1  0.99999500  0.18919800  0.86805400  1
  Ge  Ge50  1  0.12161600  0.49998400  0.43372700  1
  Ge  Ge51  1  0.99997500  0.81072600  0.63154100  1
  Ge  Ge52  1  0.68371500  0.62137500  0.75000000  1
  Ge  Ge53  1  0.31016700  0.38291800  0.75000000  1
