# generated using pymatgen
data_AlIn(CuSe2)2
_symmetry_space_group_name_H-M   'P 1'
_cell_length_a   7.02125949
_cell_length_b   7.02125949
_cell_length_c   7.02125949
_cell_angle_alpha   131.55472631
_cell_angle_beta   131.55472631
_cell_angle_gamma   70.93320399
_symmetry_Int_Tables_number   1
_chemical_formula_structural   AlIn(CuSe2)2
_chemical_formula_sum   'Al1 In1 Cu2 Se4'
_cell_volume   189.81886994
_cell_formula_units_Z   1
loop_
 _symmetry_equiv_pos_site_id
 _symmetry_equiv_pos_as_xyz
  1  'x, y, z'
loop_
 _atom_site_type_symbol
 _atom_site_label
 _atom_site_symmetry_multiplicity
 _atom_site_fract_x
 _atom_site_fract_y
 _atom_site_fract_z
 _atom_site_occupancy
  Al  Al0  1  0.75000000  0.25000000  0.50000000  1
  In  In1  1  0.50000000  0.50000000  0.00000000  1
  Cu  Cu2  1  0.25000000  0.75000000  0.50000000  1
  Cu  Cu3  1  0.00000000  0.00000000  0.00000000  1
  Se  Se4  1  0.10123200  0.10456700  0.46999600  1
  Se  Se5  1  0.63457100  0.63123600  0.53000400  1
  Se  Se6  1  0.36876400  0.89876800  0.00333500  1
  Se  Se7  1  0.89543300  0.36542900  0.99666500  1
