# generated using pymatgen
data_Al41V4
_symmetry_space_group_name_H-M   'P 1'
_cell_length_a   10.22906892
_cell_length_b   10.22906892
_cell_length_c   10.22906892
_cell_angle_alpha   60.00000000
_cell_angle_beta   60.00000000
_cell_angle_gamma   60.00000000
_symmetry_Int_Tables_number   1
_chemical_formula_structural   Al41V4
_chemical_formula_sum   'Al41 V4'
_cell_volume   756.82124826
_cell_formula_units_Z   1
loop_
 _symmetry_equiv_pos_site_id
 _symmetry_equiv_pos_as_xyz
  1  'x, y, z'
loop_
 _atom_site_type_symbol
 _atom_site_label
 _atom_site_symmetry_multiplicity
 _atom_site_fract_x
 _atom_site_fract_y
 _atom_site_fract_z
 _atom_site_occupancy
  Al  Al0  1  0.37656600  0.87447800  0.87447800  1
  Al  Al1  1  0.87447800  0.37656600  0.87447800  1
  Al  Al2  1  0.87447800  0.87447800  0.37656600  1
  Al  Al3  1  0.87447800  0.87447800  0.87447800  1
  Al  Al4  1  0.81662400  0.55236900  0.55236900  1
  Al  Al5  1  0.55236900  0.81662400  0.07863700  1
  Al  Al6  1  0.55236900  0.07863700  0.81662400  1
  Al  Al7  1  0.07863700  0.55236900  0.55236900  1
  Al  Al8  1  0.55236900  0.55236900  0.81662400  1
  Al  Al9  1  0.81662400  0.07863700  0.55236900  1
  Al  Al10  1  0.07863700  0.81662400  0.55236900  1
  Al  Al11  1  0.55236900  0.55236900  0.07863700  1
  Al  Al12  1  0.55236900  0.81662400  0.55236900  1
  Al  Al13  1  0.07863700  0.55236900  0.81662400  1
  Al  Al14  1  0.81662400  0.55236900  0.07863700  1
  Al  Al15  1  0.55236900  0.07863700  0.55236900  1
  Al  Al16  1  0.93291800  0.19768300  0.19768300  1
  Al  Al17  1  0.19768300  0.93291800  0.67171600  1
  Al  Al18  1  0.19768300  0.67171600  0.93291800  1
  Al  Al19  1  0.67171600  0.19768300  0.19768300  1
  Al  Al20  1  0.19768300  0.19768300  0.93291800  1
  Al  Al21  1  0.93291800  0.67171600  0.19768300  1
  Al  Al22  1  0.67171600  0.93291800  0.19768300  1
  Al  Al23  1  0.19768300  0.19768300  0.67171600  1
  Al  Al24  1  0.19768300  0.93291800  0.19768300  1
  Al  Al25  1  0.67171600  0.19768300  0.93291800  1
  Al  Al26  1  0.93291800  0.19768300  0.67171600  1
  Al  Al27  1  0.19768300  0.67171600  0.19768300  1
  Al  Al28  1  0.11004000  0.11004000  0.38996000  1
  Al  Al29  1  0.38996000  0.38996000  0.11004000  1
  Al  Al30  1  0.11004000  0.38996000  0.11004000  1
  Al  Al31  1  0.38996000  0.11004000  0.38996000  1
  Al  Al32  1  0.38996000  0.11004000  0.11004000  1
  Al  Al33  1  0.11004000  0.38996000  0.38996000  1
  Al  Al34  1  0.63925700  0.63925700  0.36074300  1
  Al  Al35  1  0.36074300  0.36074300  0.63925700  1
  Al  Al36  1  0.63925700  0.36074300  0.63925700  1
  Al  Al37  1  0.36074300  0.63925700  0.36074300  1
  Al  Al38  1  0.36074300  0.63925700  0.63925700  1
  Al  Al39  1  0.63925700  0.36074300  0.36074300  1
  Al  Al40  1  0.75000000  0.75000000  0.75000000  1
  V  V41  1  0.87499000  0.37500300  0.37500300  1
  V  V42  1  0.37500300  0.87499000  0.37500300  1
  V  V43  1  0.37500300  0.37500300  0.87499000  1
  V  V44  1  0.37500300  0.37500300  0.37500300  1
