# generated using pymatgen
data_Ba2Pb(SO4)3
_symmetry_space_group_name_H-M   'P 1'
_cell_length_a   5.54378900
_cell_length_b   11.39740400
_cell_length_c   16.97527461
_cell_angle_alpha   82.61386815
_cell_angle_beta   90.00000000
_cell_angle_gamma   90.00000000
_symmetry_Int_Tables_number   1
_chemical_formula_structural   Ba2Pb(SO4)3
_chemical_formula_sum   'Ba8 Pb4 S12 O48'
_cell_volume   1063.67944685
_cell_formula_units_Z   4
loop_
 _symmetry_equiv_pos_site_id
 _symmetry_equiv_pos_as_xyz
  1  'x, y, z'
loop_
 _atom_site_type_symbol
 _atom_site_label
 _atom_site_symmetry_multiplicity
 _atom_site_fract_x
 _atom_site_fract_y
 _atom_site_fract_z
 _atom_site_occupancy
  Ba  Ba0  1  0.50000000  0.15629700  0.34231000  1
  Ba  Ba1  1  0.50000000  0.49003700  0.67624600  1
  Ba  Ba2  1  0.00000000  0.56873200  0.88716300  1
  Ba  Ba3  1  0.00000000  0.90285700  0.21906600  1
  Ba  Ba4  1  0.00000000  0.23562900  0.55346200  1
  Ba  Ba5  1  0.00000000  0.17387900  0.99122900  1
  Ba  Ba6  1  0.00000000  0.51003300  0.32397300  1
  Ba  Ba7  1  0.00000000  0.84302500  0.65835800  1
  Pb  Pb8  1  0.50000000  0.42889300  0.11831600  1
  Pb  Pb9  1  0.50000000  0.76330400  0.45129200  1
  Pb  Pb10  1  0.50000000  0.09452000  0.78638000  1
  Pb  Pb11  1  0.50000000  0.81824200  0.00876200  1
  S  S12  1  0.00000000  0.93775400  0.87454100  1
  S  S13  1  0.00000000  0.27510700  0.20577900  1
  S  S14  1  0.00000000  0.60831600  0.53946200  1
  S  S15  1  0.00000000  0.30818600  0.75099300  1
  S  S16  1  0.00000000  0.64694900  0.08299700  1
  S  S17  1  0.00000000  0.97492300  0.41770900  1
  S  S18  1  0.50000000  0.39643300  0.45766500  1
  S  S19  1  0.50000000  0.73143200  0.79255400  1
  S  S20  1  0.50000000  0.06089900  0.12350700  1
  S  S21  1  0.50000000  0.02067800  0.58429800  1
  S  S22  1  0.50000000  0.35417600  0.91783700  1
  S  S23  1  0.50000000  0.68777700  0.24940300  1
  O  O24  1  0.22119900  0.98897400  0.90951300  1
  O  O25  1  0.22026300  0.32820800  0.23961300  1
  O  O26  1  0.22011500  0.66123000  0.57342900  1
  O  O27  1  0.78011200  0.27682800  0.70601400  1
  O  O28  1  0.77889300  0.61698600  0.03734300  1
  O  O29  1  0.78010300  0.94339500  0.37270800  1
  O  O30  1  0.71842300  0.34420800  0.42297000  1
  O  O31  1  0.71802200  0.67786800  0.75846400  1
  O  O32  1  0.71827500  0.00877700  0.08900300  1
  O  O33  1  0.28171900  0.04841200  0.63074800  1
  O  O34  1  0.28178300  0.38181300  0.96433200  1
  O  O35  1  0.28190000  0.71559800  0.29592600  1
  O  O36  1  0.28157700  0.34420800  0.42297000  1
  O  O37  1  0.28197800  0.67786800  0.75846400  1
  O  O38  1  0.28172500  0.00877700  0.08900300  1
  O  O39  1  0.71828100  0.04841200  0.63074800  1
  O  O40  1  0.71821700  0.38181300  0.96433200  1
  O  O41  1  0.71810000  0.71559800  0.29592600  1
  O  O42  1  0.77880100  0.98897400  0.90951300  1
  O  O43  1  0.77973700  0.32820800  0.23961300  1
  O  O44  1  0.77988500  0.66123000  0.57342900  1
  O  O45  1  0.21988800  0.27682800  0.70601400  1
  O  O46  1  0.22110700  0.61698600  0.03734300  1
  O  O47  1  0.21989700  0.94339500  0.37270800  1
  O  O48  1  0.00000000  0.97566700  0.78733300  1
  O  O49  1  0.00000000  0.30834100  0.11841400  1
  O  O50  1  0.00000000  0.64163800  0.45204300  1
  O  O51  1  0.00000000  0.43876400  0.75324600  1
  O  O52  1  0.00000000  0.77650300  0.08695000  1
  O  O53  1  0.00000000  0.10546200  0.41974700  1
  O  O54  1  0.50000000  0.36078400  0.54517400  1
  O  O55  1  0.50000000  0.69818300  0.88050000  1
  O  O56  1  0.50000000  0.02614600  0.21126700  1
  O  O57  1  0.50000000  0.89138900  0.57646100  1
  O  O58  1  0.50000000  0.22502400  0.90971600  1
  O  O59  1  0.50000000  0.55830400  0.24202500  1
  O  O60  1  0.00000000  0.47923900  0.56350600  1
  O  O61  1  0.00000000  0.80856900  0.89548600  1
  O  O62  1  0.00000000  0.14614500  0.23012800  1
  O  O63  1  0.00000000  0.24078700  0.83073900  1
  O  O64  1  0.00000000  0.57585900  0.16163100  1
  O  O65  1  0.00000000  0.90771600  0.49744000  1
  O  O66  1  0.50000000  0.86058000  0.76899900  1
  O  O67  1  0.50000000  0.19101000  0.10200100  1
  O  O68  1  0.50000000  0.52610100  0.43604000  1
  O  O69  1  0.50000000  0.09473400  0.50642400  1
  O  O70  1  0.50000000  0.42862400  0.84002300  1
  O  O71  1  0.50000000  0.76176100  0.17127800  1
