# generated using pymatgen
data_AlGaCu2(AsO5)2
_symmetry_space_group_name_H-M   'P 1'
_cell_length_a   10.39541100
_cell_length_b   5.76110300
_cell_length_c   7.47153364
_cell_angle_alpha   79.45833308
_cell_angle_beta   90.00000000
_cell_angle_gamma   90.00000000
_symmetry_Int_Tables_number   1
_chemical_formula_structural   AlGaCu2(AsO5)2
_chemical_formula_sum   'Al2 Ga2 Cu4 As4 O20'
_cell_volume   439.91070333
_cell_formula_units_Z   2
loop_
 _symmetry_equiv_pos_site_id
 _symmetry_equiv_pos_as_xyz
  1  'x, y, z'
loop_
 _atom_site_type_symbol
 _atom_site_label
 _atom_site_symmetry_multiplicity
 _atom_site_fract_x
 _atom_site_fract_y
 _atom_site_fract_z
 _atom_site_occupancy
  Al  Al0  1  0.32402000  0.81251600  0.14357200  1
  Al  Al1  1  0.82402000  0.18748400  0.85642800  1
  Ga  Ga2  1  0.67718500  0.68833000  0.85503000  1
  Ga  Ga3  1  0.17718500  0.31167000  0.14497000  1
  Cu  Cu4  1  0.35892100  0.33976900  0.46124500  1
  Cu  Cu5  1  0.85892100  0.66023100  0.53875500  1
  Cu  Cu6  1  0.64141700  0.16207400  0.53905000  1
  Cu  Cu7  1  0.14141700  0.83792600  0.46095000  1
  As  As8  1  0.60881300  0.67557400  0.27719200  1
  As  As9  1  0.10881300  0.32442600  0.72280800  1
  As  As10  1  0.38897100  0.82607600  0.72447400  1
  As  As11  1  0.88897100  0.17392400  0.27552600  1
  O  O12  1  0.70461500  0.61867500  0.10462200  1
  O  O13  1  0.20461500  0.38132500  0.89537800  1
  O  O14  1  0.29846300  0.87779400  0.90430300  1
  O  O15  1  0.79846300  0.12220600  0.09569700  1
  O  O16  1  0.53889200  0.40757300  0.38205700  1
  O  O17  1  0.03889200  0.59242700  0.61794300  1
  O  O18  1  0.46040300  0.09225500  0.61880500  1
  O  O19  1  0.96040300  0.90774500  0.38119500  1
  O  O20  1  0.28188100  0.51862700  0.23735500  1
  O  O21  1  0.78188100  0.48137300  0.76264500  1
  O  O22  1  0.72272400  0.99485100  0.76290200  1
  O  O23  1  0.22272400  0.00514900  0.23709800  1
  O  O24  1  0.69530700  0.79724600  0.43383700  1
  O  O25  1  0.19530700  0.20275400  0.56616300  1
  O  O26  1  0.30370900  0.70437900  0.56700600  1
  O  O27  1  0.80370900  0.29562100  0.43299400  1
  O  O28  1  0.48751100  0.86704100  0.19431100  1
  O  O29  1  0.98751100  0.13295900  0.80568900  1
  O  O30  1  0.50716800  0.62584300  0.80436900  1
  O  O31  1  0.00716800  0.37415700  0.19563100  1
