# generated using pymatgen
data_Ba10Pr5Nb2(SnO10)3
_symmetry_space_group_name_H-M   'P 1'
_cell_length_a   8.78374573
_cell_length_b   10.70081964
_cell_length_c   10.76178496
_cell_angle_alpha   80.85116523
_cell_angle_beta   113.84511095
_cell_angle_gamma   113.73844218
_symmetry_Int_Tables_number   1
_chemical_formula_structural   Ba10Pr5Nb2(SnO10)3
_chemical_formula_sum   'Ba10 Pr5 Nb2 Sn3 O30'
_cell_volume   846.90597258
_cell_formula_units_Z   1
loop_
 _symmetry_equiv_pos_site_id
 _symmetry_equiv_pos_as_xyz
  1  'x, y, z'
loop_
 _atom_site_type_symbol
 _atom_site_label
 _atom_site_symmetry_multiplicity
 _atom_site_fract_x
 _atom_site_fract_y
 _atom_site_fract_z
 _atom_site_occupancy
  Ba  Ba0  1  0.65062200  0.09989400  0.69891300  1
  Ba  Ba1  1  0.44974700  0.30040900  0.09982500  1
  Ba  Ba2  1  0.85274100  0.89799400  0.29862700  1
  Ba  Ba3  1  0.24785100  0.49634200  0.49914700  1
  Ba  Ba4  1  0.05094400  0.69667900  0.90024900  1
  Ba  Ba5  1  0.75025300  0.49959100  0.50017500  1
  Ba  Ba6  1  0.54937800  0.70010600  0.90108700  1
  Ba  Ba7  1  0.95214900  0.30365800  0.10085300  1
  Ba  Ba8  1  0.34725900  0.90200600  0.30137300  1
  Ba  Ba9  1  0.14905600  0.10332100  0.69975100  1
  Pr  Pr10  1  0.79810900  0.19834900  0.39861700  1
  Pr  Pr11  1  0.60000000  0.40000000  0.80000000  1
  Pr  Pr12  1  0.99926000  0.00013300  0.99848600  1
  Pr  Pr13  1  0.40189100  0.60165100  0.20138300  1
  Pr  Pr14  1  0.20074000  0.79986700  0.60151400  1
  Nb  Nb15  1  0.70013600  0.79954800  0.60042100  1
  Nb  Nb16  1  0.49986400  0.00045200  0.99957900  1
  Sn  Sn17  1  0.90017500  0.60036900  0.20000800  1
  Sn  Sn18  1  0.29982500  0.19963100  0.39999200  1
  Sn  Sn19  1  0.10000000  0.40000000  0.80000000  1
  O  O20  1  0.98537300  0.79981100  0.12663500  1
  O  O21  1  0.38422000  0.39863600  0.32536400  1
  O  O22  1  0.78350500  0.99393700  0.52948400  1
  O  O23  1  0.18536200  0.59912100  0.72660900  1
  O  O24  1  0.58405500  0.19385700  0.92938900  1
  O  O25  1  0.65595800  0.61186700  0.17159000  1
  O  O26  1  0.05536500  0.21026800  0.37247700  1
  O  O27  1  0.46334900  0.81228400  0.57318000  1
  O  O28  1  0.85555900  0.41142500  0.77156400  1
  O  O29  1  0.26052400  0.00937900  0.97040900  1
  O  O30  1  0.01356200  0.67711600  0.39809100  1
  O  O31  1  0.41211400  0.27444900  0.59856500  1
  O  O32  1  0.80667900  0.87308500  0.79291800  1
  O  O33  1  0.21357300  0.47694400  0.99783800  1
  O  O34  1  0.60604400  0.07176500  0.19231100  1
  O  O35  1  0.81578000  0.40136400  0.27463600  1
  O  O36  1  0.21462700  0.00018900  0.47336500  1
  O  O37  1  0.61594500  0.60614300  0.67061100  1
  O  O38  1  0.01463800  0.20087900  0.87339100  1
  O  O39  1  0.41649500  0.80606300  0.07051600  1
  O  O40  1  0.14463500  0.58973200  0.22752300  1
  O  O41  1  0.54404200  0.18813300  0.42841000  1
  O  O42  1  0.93947600  0.79062100  0.62959100  1
  O  O43  1  0.34444100  0.38857500  0.82843600  1
  O  O44  1  0.73665100  0.98771600  0.02682000  1
  O  O45  1  0.78788600  0.52555100  0.00143500  1
  O  O46  1  0.18643800  0.12288400  0.20190900  1
  O  O47  1  0.59395600  0.72823500  0.40768900  1
  O  O48  1  0.98642700  0.32305600  0.60216200  1
  O  O49  1  0.39332100  0.92691500  0.80708200  1
