# generated using pymatgen
data_AlBi3Sb2O11
_symmetry_space_group_name_H-M   'P 1'
_cell_length_a   9.56223200
_cell_length_b   9.48462800
_cell_length_c   13.46485539
_cell_angle_alpha   45.27297031
_cell_angle_beta   90.00000000
_cell_angle_gamma   90.00000000
_symmetry_Int_Tables_number   1
_chemical_formula_structural   AlBi3Sb2O11
_chemical_formula_sum   'Al4 Bi12 Sb8 O44'
_cell_volume   867.61195321
_cell_formula_units_Z   4
loop_
 _symmetry_equiv_pos_site_id
 _symmetry_equiv_pos_as_xyz
  1  'x, y, z'
loop_
 _atom_site_type_symbol
 _atom_site_label
 _atom_site_symmetry_multiplicity
 _atom_site_fract_x
 _atom_site_fract_y
 _atom_site_fract_z
 _atom_site_occupancy
  Al  Al0  1  0.24877500  0.84042000  0.25388900  1
  Al  Al1  1  0.75223400  0.65834800  0.09005600  1
  Al  Al2  1  0.75122500  0.84042000  0.75388900  1
  Al  Al3  1  0.24776600  0.65834800  0.59005600  1
  Bi  Bi4  1  0.00052500  0.98491900  0.51195000  1
  Bi  Bi5  1  0.52277500  0.52166000  0.99394400  1
  Bi  Bi6  1  0.47722500  0.52166000  0.49394400  1
  Bi  Bi7  1  0.99947500  0.98491900  0.01195000  1
  Bi  Bi8  1  0.38007800  0.00653900  0.87709600  1
  Bi  Bi9  1  0.12420000  0.27065200  0.62270300  1
  Bi  Bi10  1  0.11169500  0.74512500  0.87332400  1
  Bi  Bi11  1  0.38332700  0.98233400  0.62699600  1
  Bi  Bi12  1  0.61667300  0.98233400  0.12699600  1
  Bi  Bi13  1  0.88830500  0.74512500  0.37332400  1
  Bi  Bi14  1  0.87580000  0.27065200  0.12270300  1
  Bi  Bi15  1  0.61992200  0.00653900  0.37709600  1
  Sb  Sb16  1  0.25052300  0.14367500  0.25430700  1
  Sb  Sb17  1  0.74897900  0.34221300  0.40539000  1
  Sb  Sb18  1  0.90957500  0.50432900  0.74783600  1
  Sb  Sb19  1  0.59008300  0.50661500  0.74702400  1
  Sb  Sb20  1  0.74947700  0.14367500  0.75430700  1
  Sb  Sb21  1  0.25102100  0.34221300  0.90539000  1
  Sb  Sb22  1  0.09042500  0.50432900  0.24783600  1
  Sb  Sb23  1  0.40991700  0.50661500  0.24702400  1
  O  O24  1  0.14858600  0.00306300  0.64554500  1
  O  O25  1  0.35105400  0.79422500  0.85354100  1
  O  O26  1  0.35268100  0.20565700  0.64573100  1
  O  O27  1  0.14713600  0.99998800  0.85298800  1
  O  O28  1  0.85286400  0.99998800  0.35298800  1
  O  O29  1  0.64731900  0.20565700  0.14573100  1
  O  O30  1  0.64894600  0.79422500  0.35354100  1
  O  O31  1  0.85141400  0.00306300  0.14554500  1
  O  O32  1  0.24502700  0.04734700  0.04147100  1
  O  O33  1  0.25593600  0.63418500  0.46045300  1
  O  O34  1  0.24903800  0.37242800  0.03931300  1
  O  O35  1  0.24438600  0.94178900  0.46545500  1
  O  O36  1  0.95856300  0.66546800  0.08807800  1
  O  O37  1  0.54285600  0.66014500  0.08801900  1
  O  O38  1  0.96431700  0.33464500  0.41433800  1
  O  O39  1  0.53536100  0.33538900  0.41440000  1
  O  O40  1  0.91300900  0.28488800  0.75222800  1
  O  O41  1  0.90796100  0.71986400  0.74462700  1
  O  O42  1  0.58764200  0.28930800  0.74851800  1
  O  O43  1  0.59247200  0.71116200  0.75425200  1
  O  O44  1  0.75561400  0.94178900  0.96545500  1
  O  O45  1  0.75096200  0.37242800  0.53931300  1
  O  O46  1  0.74406400  0.63418500  0.96045300  1
  O  O47  1  0.75497300  0.04734700  0.54147100  1
  O  O48  1  0.03568300  0.33464500  0.91433800  1
  O  O49  1  0.46463900  0.33538900  0.91440000  1
  O  O50  1  0.04143700  0.66546800  0.58807800  1
  O  O51  1  0.45714400  0.66014500  0.58801900  1
  O  O52  1  0.09203900  0.71986400  0.24462700  1
  O  O53  1  0.08699100  0.28488800  0.25222800  1
  O  O54  1  0.40752800  0.71116200  0.25425200  1
  O  O55  1  0.41235800  0.28930800  0.24851800  1
  O  O56  1  0.25015400  0.36630100  0.74409800  1
  O  O57  1  0.24925800  0.63879600  0.74570800  1
  O  O58  1  0.25035700  0.64190500  0.10826300  1
  O  O59  1  0.24982900  0.36422500  0.38585100  1
  O  O60  1  0.88857400  0.99066100  0.75131100  1
  O  O61  1  0.61065500  0.99173300  0.75129600  1
  O  O62  1  0.75074200  0.63879600  0.24570800  1
  O  O63  1  0.74984600  0.36630100  0.24409800  1
  O  O64  1  0.75017100  0.36422500  0.88585100  1
  O  O65  1  0.74964300  0.64190500  0.60826300  1
  O  O66  1  0.11142600  0.99066100  0.25131100  1
  O  O67  1  0.38934500  0.99173300  0.25129600  1
