# generated using pymatgen
data_Ba10Y5(Fe5O12)3
_symmetry_space_group_name_H-M   'P 1'
_cell_length_a   8.86665300
_cell_length_b   8.93424485
_cell_length_c   12.55786254
_cell_angle_alpha   106.43775115
_cell_angle_beta   98.30495516
_cell_angle_gamma   89.23860720
_symmetry_Int_Tables_number   1
_chemical_formula_structural   Ba10Y5(Fe5O12)3
_chemical_formula_sum   'Ba10 Y5 Fe15 O36'
_cell_volume   943.73020642
_cell_formula_units_Z   1
loop_
 _symmetry_equiv_pos_site_id
 _symmetry_equiv_pos_as_xyz
  1  'x, y, z'
loop_
 _atom_site_type_symbol
 _atom_site_label
 _atom_site_symmetry_multiplicity
 _atom_site_fract_x
 _atom_site_fract_y
 _atom_site_fract_z
 _atom_site_occupancy
  Ba  Ba0  1  0.93334000  0.37965700  0.17492800  1
  Ba  Ba1  1  0.12816300  0.75967300  0.17379400  1
  Ba  Ba2  1  0.34039000  0.17214300  0.17903100  1
  Ba  Ba3  1  0.54002800  0.56887900  0.17902200  1
  Ba  Ba4  1  0.73510200  0.97486300  0.18100900  1
  Ba  Ba5  1  0.06666000  0.62034300  0.82507200  1
  Ba  Ba6  1  0.26489800  0.02513700  0.81899100  1
  Ba  Ba7  1  0.45997200  0.43112100  0.82097800  1
  Ba  Ba8  1  0.65961000  0.82785700  0.82096900  1
  Ba  Ba9  1  0.87183700  0.24032700  0.82620600  1
  Y  Y10  1  0.80038900  0.10157700  0.49968600  1
  Y  Y11  1  0.60071300  0.70174200  0.49991900  1
  Y  Y12  1  0.39928700  0.29825800  0.50008100  1
  Y  Y13  1  0.19961100  0.89842300  0.50031400  1
  Y  Y14  1  0.00000000  0.50000000  0.50000000  1
  Fe  Fe15  1  0.06910100  0.13570700  0.34067600  1
  Fe  Fe16  1  0.86997600  0.74156800  0.35024800  1
  Fe  Fe17  1  0.67048200  0.34380600  0.35033200  1
  Fe  Fe18  1  0.46711100  0.93600400  0.34038500  1
  Fe  Fe19  1  0.27011200  0.53493400  0.34161000  1
  Fe  Fe20  1  0.13002400  0.25843200  0.64975200  1
  Fe  Fe21  1  0.93089900  0.86429300  0.65932400  1
  Fe  Fe22  1  0.72988800  0.46506600  0.65839000  1
  Fe  Fe23  1  0.53288900  0.06399600  0.65961500  1
  Fe  Fe24  1  0.32951800  0.65619400  0.64966800  1
  Fe  Fe25  1  0.00000000  0.00000000  0.00000000  1
  Fe  Fe26  1  0.80408800  0.59957500  0.00237700  1
  Fe  Fe27  1  0.59784700  0.20153200  0.00139500  1
  Fe  Fe28  1  0.40215300  0.79846800  0.99860500  1
  Fe  Fe29  1  0.19591200  0.40042500  0.99762300  1
  O  O30  1  0.97981900  0.95637400  0.38150300  1
  O  O31  1  0.77828400  0.55520800  0.38668400  1
  O  O32  1  0.57117300  0.14597600  0.38153400  1
  O  O33  1  0.37485300  0.75244300  0.37977500  1
  O  O34  1  0.17612800  0.34947200  0.37718600  1
  O  O35  1  0.02018100  0.04362600  0.61849700  1
  O  O36  1  0.82387200  0.65052800  0.62281400  1
  O  O37  1  0.62514700  0.24755700  0.62022500  1
  O  O38  1  0.42882700  0.85402400  0.61846600  1
  O  O39  1  0.22171600  0.44479200  0.61331600  1
  O  O40  1  0.03591600  0.06969300  0.17869900  1
  O  O41  1  0.82004300  0.67632700  0.17063300  1
  O  O42  1  0.63815300  0.26553700  0.17001000  1
  O  O43  1  0.43271400  0.87252600  0.17896300  1
  O  O44  1  0.24547000  0.46689000  0.18222500  1
  O  O45  1  0.17995700  0.32367300  0.82936700  1
  O  O46  1  0.96408400  0.93030700  0.82130100  1
  O  O47  1  0.75453000  0.53311000  0.81777500  1
  O  O48  1  0.56728600  0.12747400  0.82103700  1
  O  O49  1  0.36184700  0.73446300  0.82999000  1
  O  O50  1  0.88179000  0.81404200  0.99784200  1
  O  O51  1  0.67989700  0.40519100  0.99536100  1
  O  O52  1  0.50000000  0.00000000  0.00000000  1
  O  O53  1  0.32010300  0.59480900  0.00463900  1
  O  O54  1  0.11821000  0.18595800  0.00215800  1
  O  O55  1  0.88412500  0.24992500  0.38386000  1
  O  O56  1  0.66851200  0.85691100  0.38221500  1
  O  O57  1  0.47202100  0.45548400  0.38399100  1
  O  O58  1  0.27565400  0.05233800  0.38082400  1
  O  O59  1  0.08085900  0.64804900  0.37674100  1
  O  O60  1  0.91914100  0.35195100  0.62325900  1
  O  O61  1  0.72434600  0.94766200  0.61917600  1
  O  O62  1  0.52797900  0.54451600  0.61600900  1
  O  O63  1  0.33148800  0.14308900  0.61778500  1
  O  O64  1  0.11587500  0.75007500  0.61614000  1
  O  O65  1  0.00000000  0.50000000  0.00000000  1
