# generated using pymatgen
data_Ba3Al2Ga2(FeO6)2
_symmetry_space_group_name_H-M   'P 1'
_cell_length_a   9.09467700
_cell_length_b   9.31679900
_cell_length_c   9.34640132
_cell_angle_alpha   60.45649923
_cell_angle_beta   90.00000000
_cell_angle_gamma   90.00000000
_symmetry_Int_Tables_number   1
_chemical_formula_structural   Ba3Al2Ga2(FeO6)2
_chemical_formula_sum   'Ba6 Al4 Ga4 Fe4 O24'
_cell_volume   688.98297245
_cell_formula_units_Z   2
loop_
 _symmetry_equiv_pos_site_id
 _symmetry_equiv_pos_as_xyz
  1  'x, y, z'
loop_
 _atom_site_type_symbol
 _atom_site_label
 _atom_site_symmetry_multiplicity
 _atom_site_fract_x
 _atom_site_fract_y
 _atom_site_fract_z
 _atom_site_occupancy
  Ba  Ba0  1  0.23527100  0.66626300  0.65836000  1
  Ba  Ba1  1  0.73527100  0.33373700  0.34164000  1
  Ba  Ba2  1  0.23839400  0.34094700  0.32896000  1
  Ba  Ba3  1  0.73839400  0.65905300  0.67104000  1
  Ba  Ba4  1  0.24315400  0.99279100  0.01082200  1
  Ba  Ba5  1  0.74315400  0.00720900  0.98917800  1
  Al  Al6  1  0.04240700  0.32183400  0.67081600  1
  Al  Al7  1  0.54240700  0.67816600  0.32918400  1
  Al  Al8  1  0.93507300  0.99354900  0.67214600  1
  Al  Al9  1  0.43507300  0.00645100  0.32785400  1
  Ga  Ga10  1  0.04078700  0.00293900  0.33908900  1
  Ga  Ga11  1  0.54078700  0.99706100  0.66091100  1
  Ga  Ga12  1  0.04010600  0.66920500  0.00554400  1
  Ga  Ga13  1  0.54010600  0.33079500  0.99445600  1
  Fe  Fe14  1  0.94421600  0.33035100  0.99669100  1
  Fe  Fe15  1  0.44421600  0.66964900  0.00330900  1
  Fe  Fe16  1  0.93513500  0.65776100  0.34855500  1
  Fe  Fe17  1  0.43513500  0.34223900  0.65144500  1
  O  O18  1  0.98273700  0.53062100  0.57496100  1
  O  O19  1  0.48273700  0.46937900  0.42503900  1
  O  O20  1  0.74151100  0.33306900  0.95372000  1
  O  O21  1  0.24151100  0.66693100  0.04628000  1
  O  O22  1  0.97279900  0.20770100  0.58050600  1
  O  O23  1  0.47279900  0.79229900  0.41949400  1
  O  O24  1  0.99351000  0.89068200  0.88192200  1
  O  O25  1  0.49351000  0.10931800  0.11807800  1
  O  O26  1  0.99862800  0.88033900  0.23587200  1
  O  O27  1  0.49862800  0.11966100  0.76412800  1
  O  O28  1  0.96992500  0.55439400  0.22068000  1
  O  O29  1  0.46992500  0.44560600  0.77932000  1
  O  O30  1  0.73228300  0.65936800  0.37084400  1
  O  O31  1  0.23228300  0.34063200  0.62915600  1
  O  O32  1  0.99999800  0.89458800  0.56280300  1
  O  O33  1  0.49999800  0.10541200  0.43719700  1
  O  O34  1  0.02035100  0.22044400  0.88816700  1
  O  O35  1  0.52035100  0.77955600  0.11183300  1
  O  O36  1  0.00434300  0.55438100  0.89417400  1
  O  O37  1  0.50434300  0.44561900  0.10582600  1
  O  O38  1  0.74257200  0.97021300  0.67982600  1
  O  O39  1  0.24257200  0.02978700  0.32017400  1
  O  O40  1  0.96889900  0.21708900  0.22819700  1
  O  O41  1  0.46889900  0.78291100  0.77180300  1
