# generated using pymatgen
data_Ag15S5I4Br
_symmetry_space_group_name_H-M   'P 1'
_cell_length_a   6.99391357
_cell_length_b   8.55899514
_cell_length_c   10.98724307
_cell_angle_alpha   105.12331588
_cell_angle_beta   72.02611549
_cell_angle_gamma   89.56575805
_symmetry_Int_Tables_number   1
_chemical_formula_structural   Ag15S5I4Br
_chemical_formula_sum   'Ag15 S5 I4 Br1'
_cell_volume   601.15584618
_cell_formula_units_Z   1
loop_
 _symmetry_equiv_pos_site_id
 _symmetry_equiv_pos_as_xyz
  1  'x, y, z'
loop_
 _atom_site_type_symbol
 _atom_site_label
 _atom_site_symmetry_multiplicity
 _atom_site_fract_x
 _atom_site_fract_y
 _atom_site_fract_z
 _atom_site_occupancy
  Ag  Ag0  1  0.27447000  0.24389800  0.86724400  1
  Ag  Ag1  1  0.67852500  0.64586500  0.06418500  1
  Ag  Ag2  1  0.07845200  0.04505600  0.26053900  1
  Ag  Ag3  1  0.47634900  0.44432800  0.46550200  1
  Ag  Ag4  1  0.87676300  0.84532500  0.66680400  1
  Ag  Ag5  1  0.44617700  0.05542800  0.01223100  1
  Ag  Ag6  1  0.84461500  0.45541700  0.21178700  1
  Ag  Ag7  1  0.24284200  0.85815900  0.41309400  1
  Ag  Ag8  1  0.64302500  0.25703600  0.61321200  1
  Ag  Ag9  1  0.04526300  0.66081600  0.81523000  1
  Ag  Ag10  1  0.39517600  0.88595400  0.75031900  1
  Ag  Ag11  1  0.80168300  0.28104500  0.94901200  1
  Ag  Ag12  1  0.19791300  0.68557700  0.14855800  1
  Ag  Ag13  1  0.59966900  0.08497700  0.34694700  1
  Ag  Ag14  1  0.99789300  0.48415200  0.54973900  1
  S  S15  1  0.84458500  0.30494800  0.38387800  1
  S  S16  1  0.24210900  0.70787700  0.58710500  1
  S  S17  1  0.64169600  0.10634500  0.78775700  1
  S  S18  1  0.04228900  0.50701000  0.98570300  1
  S  S19  1  0.44295500  0.90706200  0.18442100  1
  I  I20  1  0.39550400  0.40070900  0.20245700  1
  I  I21  1  0.79507100  0.80025600  0.40089000  1
  I  I22  1  0.19464500  0.19945800  0.60243900  1
  I  I23  1  0.59586700  0.59896200  0.80050400  1
  Br  Br24  1  0.00846200  0.00134000  0.99644100  1
