# generated using pymatgen
data_Ag3Bi7S12
_symmetry_space_group_name_H-M   'P 1'
_cell_length_a   7.03639371
_cell_length_b   7.03639371
_cell_length_c   20.45132175
_cell_angle_alpha   78.43999161
_cell_angle_beta   78.43999161
_cell_angle_gamma   33.66118691
_symmetry_Int_Tables_number   1
_chemical_formula_structural   Ag3Bi7S12
_chemical_formula_sum   'Ag3 Bi7 S12'
_cell_volume   548.80543422
_cell_formula_units_Z   1
loop_
 _symmetry_equiv_pos_site_id
 _symmetry_equiv_pos_as_xyz
  1  'x, y, z'
loop_
 _atom_site_type_symbol
 _atom_site_label
 _atom_site_symmetry_multiplicity
 _atom_site_fract_x
 _atom_site_fract_y
 _atom_site_fract_z
 _atom_site_occupancy
  Ag  Ag0  1  0.00000000  0.00000000  0.50000000  1
  Ag  Ag1  1  0.29906100  0.29906100  0.91226600  1
  Ag  Ag2  1  0.70093900  0.70093900  0.08773400  1
  Bi  Bi3  1  0.61364300  0.61364300  0.82737800  1
  Bi  Bi4  1  0.38635700  0.38635700  0.17262200  1
  Bi  Bi5  1  0.00000000  0.00000000  0.00000000  1
  Bi  Bi6  1  0.23750900  0.23750900  0.58880500  1
  Bi  Bi7  1  0.76249100  0.76249100  0.41119500  1
  Bi  Bi8  1  0.91817100  0.91817100  0.73196800  1
  Bi  Bi9  1  0.08182900  0.08182900  0.26803200  1
  S  S10  1  0.43710500  0.43710500  0.29698600  1
  S  S11  1  0.56289500  0.56289500  0.70301400  1
  S  S12  1  0.73266700  0.73266700  0.21033500  1
  S  S13  1  0.26733300  0.26733300  0.78966500  1
  S  S14  1  0.12643400  0.12643400  0.38862000  1
  S  S15  1  0.87356600  0.87356600  0.61138000  1
  S  S16  1  0.34839500  0.34839500  0.03445500  1
  S  S17  1  0.65160500  0.65160500  0.96554500  1
  S  S18  1  0.03202200  0.03202200  0.13158600  1
  S  S19  1  0.96797800  0.96797800  0.86841400  1
  S  S20  1  0.36243700  0.36243700  0.47095900  1
  S  S21  1  0.63756300  0.63756300  0.52904100  1
