# generated using pymatgen
data_Cs4H4SeS3O16
_symmetry_space_group_name_H-M   'P 1'
_cell_length_a   7.88113477
_cell_length_b   7.96943654
_cell_length_c   8.39376468
_cell_angle_alpha   89.91864774
_cell_angle_beta   90.15016552
_cell_angle_gamma   108.43417983
_symmetry_Int_Tables_number   1
_chemical_formula_structural   Cs4H4SeS3O16
_chemical_formula_sum   'Cs4 H4 Se1 S3 O16'
_cell_volume   500.14367629
_cell_formula_units_Z   1
loop_
 _symmetry_equiv_pos_site_id
 _symmetry_equiv_pos_as_xyz
  1  'x, y, z'
loop_
 _atom_site_type_symbol
 _atom_site_label
 _atom_site_symmetry_multiplicity
 _atom_site_fract_x
 _atom_site_fract_y
 _atom_site_fract_z
 _atom_site_occupancy
  Cs  Cs0  1  0.70426400  0.21198900  0.37605200  1
  Cs  Cs1  1  0.79582100  0.79161000  0.87723800  1
  Cs  Cs2  1  0.29534800  0.79047400  0.62723300  1
  Cs  Cs3  1  0.20626600  0.21105200  0.12314100  1
  H  H4  1  0.54044600  0.62493200  0.20674000  1
  H  H5  1  0.94856900  0.36693100  0.71652100  1
  H  H6  1  0.44933700  0.36604100  0.78390400  1
  H  H7  1  0.05589800  0.62968600  0.28817600  1
  Se  Se8  1  0.78386100  0.75589200  0.37312700  1
  S  S9  1  0.71649200  0.24714600  0.87190700  1
  S  S10  1  0.21654800  0.24637600  0.62793300  1
  S  S11  1  0.28352300  0.75335300  0.12769400  1
  O  O12  1  0.68561200  0.81671900  0.52537600  1
  O  O13  1  0.80489300  0.19388600  0.00732600  1
  O  O14  1  0.30415000  0.19256900  0.49287200  1
  O  O15  1  0.19629000  0.80769300  0.99217400  1
  O  O16  1  0.62359800  0.57809900  0.27618700  1
  O  O17  1  0.86147300  0.40791300  0.78279600  1
  O  O18  1  0.36167400  0.40720200  0.71724700  1
  O  O19  1  0.13975800  0.59093100  0.21433500  1
  O  O20  1  0.86234900  0.91401500  0.24020800  1
  O  O21  1  0.64754300  0.10638800  0.75372200  1
  O  O22  1  0.14808200  0.10572200  0.74612100  1
  O  O23  1  0.35199300  0.89264100  0.24680000  1
  O  O24  1  0.93287700  0.65801500  0.42957700  1
  O  O25  1  0.58283000  0.33216300  0.92111700  1
  O  O26  1  0.08222600  0.33105000  0.57817300  1
  O  O27  1  0.41827900  0.66951300  0.07630200  1
