# generated using pymatgen
data_Ag3C(NO2)3
_symmetry_space_group_name_H-M   'P 1'
_cell_length_a   11.70688100
_cell_length_b   5.30779200
_cell_length_c   7.51543576
_cell_angle_alpha   57.24363533
_cell_angle_beta   90.00000000
_cell_angle_gamma   90.00000000
_symmetry_Int_Tables_number   1
_chemical_formula_structural   Ag3C(NO2)3
_chemical_formula_sum   'Ag6 C2 N6 O12'
_cell_volume   392.73026696
_cell_formula_units_Z   2
loop_
 _symmetry_equiv_pos_site_id
 _symmetry_equiv_pos_as_xyz
  1  'x, y, z'
loop_
 _atom_site_type_symbol
 _atom_site_label
 _atom_site_symmetry_multiplicity
 _atom_site_fract_x
 _atom_site_fract_y
 _atom_site_fract_z
 _atom_site_occupancy
  Ag  Ag0  1  0.36783700  0.17031000  0.12752800  1
  Ag  Ag1  1  0.63216300  0.17031000  0.62752800  1
  Ag  Ag2  1  0.13084300  0.82499500  0.87633600  1
  Ag  Ag3  1  0.86915700  0.82499500  0.37633600  1
  Ag  Ag4  1  0.25073200  0.50606400  0.49790400  1
  Ag  Ag5  1  0.74926800  0.50606400  0.99790400  1
  C  C6  1  0.25376000  0.89720700  0.49022400  1
  C  C7  1  0.74624000  0.89720700  0.99022400  1
  N  N8  1  0.07621100  0.17405600  0.08293600  1
  N  N9  1  0.92378900  0.17405600  0.58293600  1
  N  N10  1  0.42354100  0.82556200  0.91678200  1
  N  N11  1  0.57645900  0.82556200  0.41678200  1
  N  N12  1  0.24662500  0.10303400  0.50872300  1
  N  N13  1  0.75337500  0.10303400  0.00872300  1
  O  O14  1  0.16214200  0.29877300  0.95978400  1
  O  O15  1  0.83785800  0.29877300  0.45978400  1
  O  O16  1  0.33788700  0.70057800  0.04052500  1
  O  O17  1  0.66211300  0.70057800  0.54052500  1
  O  O18  1  0.01712300  0.31804900  0.13842400  1
  O  O19  1  0.98287700  0.31804900  0.63842400  1
  O  O20  1  0.48246700  0.68157100  0.86118900  1
  O  O21  1  0.51753300  0.68157100  0.36118900  1
  O  O22  1  0.05183100  0.90330700  0.14816000  1
  O  O23  1  0.94816900  0.90330700  0.64816000  1
  O  O24  1  0.44798600  0.09649400  0.85148500  1
  O  O25  1  0.55201400  0.09649400  0.35148500  1
