# generated using pymatgen
data_Cs2BaCl4
_symmetry_space_group_name_H-M   'P 1'
_cell_length_a   8.68669802
_cell_length_b   8.68669802
_cell_length_c   8.68669802
_cell_angle_alpha   110.54873202
_cell_angle_beta   110.54873202
_cell_angle_gamma   107.33704669
_symmetry_Int_Tables_number   1
_chemical_formula_structural   Cs2BaCl4
_chemical_formula_sum   'Cs4 Ba2 Cl8'
_cell_volume   504.07159450
_cell_formula_units_Z   2
loop_
 _symmetry_equiv_pos_site_id
 _symmetry_equiv_pos_as_xyz
  1  'x, y, z'
loop_
 _atom_site_type_symbol
 _atom_site_label
 _atom_site_symmetry_multiplicity
 _atom_site_fract_x
 _atom_site_fract_y
 _atom_site_fract_z
 _atom_site_occupancy
  Cs  Cs0  1  0.37500000  0.51765300  0.64265300  1
  Cs  Cs1  1  0.87500000  0.73234700  0.35734700  1
  Cs  Cs2  1  0.48234700  0.12500000  0.85734700  1
  Cs  Cs3  1  0.26765300  0.62500000  0.14265300  1
  Ba  Ba4  1  0.75000000  0.25000000  0.50000000  1
  Ba  Ba5  1  0.00000000  0.00000000  0.00000000  1
  Cl  Cl6  1  0.96678800  0.34491100  0.24466700  1
  Cl  Cl7  1  0.10024400  0.72212100  0.75533300  1
  Cl  Cl8  1  0.64975600  0.90508900  0.12187700  1
  Cl  Cl9  1  0.78321200  0.52787900  0.87812300  1
  Cl  Cl10  1  0.09491100  0.21678800  0.74466700  1
  Cl  Cl11  1  0.47212100  0.35024400  0.25533300  1
  Cl  Cl12  1  0.65508900  0.89975600  0.62187700  1
  Cl  Cl13  1  0.27787900  0.03321200  0.37812300  1
