# generated using pymatgen
data_BaCa2Yb10O18
_symmetry_space_group_name_H-M   'P 1'
_cell_length_a   3.47890630
_cell_length_b   17.39918057
_cell_length_c   17.40122439
_cell_angle_alpha   59.92327488
_cell_angle_beta   90.03426094
_cell_angle_gamma   90.09878474
_symmetry_Int_Tables_number   1
_chemical_formula_structural   BaCa2Yb10O18
_chemical_formula_sum   'Ba2 Ca4 Yb20 O36'
_cell_volume   911.47552832
_cell_formula_units_Z   2
loop_
 _symmetry_equiv_pos_site_id
 _symmetry_equiv_pos_as_xyz
  1  'x, y, z'
loop_
 _atom_site_type_symbol
 _atom_site_label
 _atom_site_symmetry_multiplicity
 _atom_site_fract_x
 _atom_site_fract_y
 _atom_site_fract_z
 _atom_site_occupancy
  Ba  Ba0  1  0.25778100  0.33402000  0.33233700  1
  Ba  Ba1  1  0.75834800  0.66616600  0.66714700  1
  Ca  Ca2  1  0.75918000  0.68270100  0.34466800  1
  Ca  Ca3  1  0.75896400  0.97370200  0.68104400  1
  Ca  Ca4  1  0.75653500  0.34413900  0.97287300  1
  Ca  Ca5  1  0.25701300  0.65399200  0.02776100  1
  Yb  Yb6  1  0.25987000  0.10401500  0.45087100  1
  Yb  Yb7  1  0.25986500  0.44287400  0.10383000  1
  Yb  Yb8  1  0.25927700  0.45183500  0.44480200  1
  Yb  Yb9  1  0.76149900  0.89743800  0.54573700  1
  Yb  Yb10  1  0.75972500  0.55571000  0.89722000  1
  Yb  Yb11  1  0.76052500  0.54804500  0.55538200  1
  Yb  Yb12  1  0.25642600  0.44193000  0.76394000  1
  Yb  Yb13  1  0.25982800  0.79475900  0.44179000  1
  Yb  Yb14  1  0.25828900  0.76433500  0.79414400  1
  Yb  Yb15  1  0.75638000  0.55723600  0.23640100  1
  Yb  Yb16  1  0.75773100  0.20596300  0.55807600  1
  Yb  Yb17  1  0.75569600  0.23436400  0.20664200  1
  Yb  Yb18  1  0.25437100  0.75931600  0.14626100  1
  Yb  Yb19  1  0.25820000  0.09556200  0.75716500  1
  Yb  Yb20  1  0.25599200  0.14488500  0.09650900  1
  Yb  Yb21  1  0.75671700  0.24132500  0.85353300  1
  Yb  Yb22  1  0.76511000  0.90467700  0.24201600  1
  Yb  Yb23  1  0.76094900  0.85467600  0.90384600  1
  Yb  Yb24  1  0.25778000  0.32009400  0.65509700  1
  Yb  Yb25  1  0.25818700  0.02581200  0.31799000  1
  O  O26  1  0.25704400  0.09677900  0.61914500  1
  O  O27  1  0.25531400  0.28322200  0.09695600  1
  O  O28  1  0.25508400  0.61943400  0.28449700  1
  O  O29  1  0.75926800  0.90602100  0.38124200  1
  O  O30  1  0.75692700  0.71595800  0.90287900  1
  O  O31  1  0.75665400  0.38104100  0.71332600  1
  O  O32  1  0.25790800  0.44340900  0.97175100  1
  O  O33  1  0.25930000  0.58407400  0.44343200  1
  O  O34  1  0.25980000  0.97221500  0.58266500  1
  O  O35  1  0.75832000  0.55466600  0.02938200  1
  O  O36  1  0.75809000  0.41472800  0.55843700  1
  O  O37  1  0.75796000  0.02845900  0.41311100  1
  O  O38  1  0.25810500  0.29986600  0.52902100  1
  O  O39  1  0.25565500  0.17185500  0.30037400  1
  O  O40  1  0.25598400  0.52273900  0.17589800  1
  O  O41  1  0.75863300  0.70020000  0.47554400  1
  O  O42  1  0.75774100  0.82579100  0.69799600  1
  O  O43  1  0.75680900  0.47650100  0.82453600  1
  O  O44  1  0.26525500  0.79803800  0.31073300  1
  O  O45  1  0.26101600  0.89305500  0.79682300  1
  O  O46  1  0.25615500  0.31004100  0.89115900  1
  O  O47  1  0.75826200  0.20680500  0.68988000  1
  O  O48  1  0.75384800  0.10372700  0.20635400  1
  O  O49  1  0.75343100  0.68979700  0.10839100  1
  O  O50  1  0.25734200  0.63283200  0.80375400  1
  O  O51  1  0.25699900  0.56436200  0.63274600  1
  O  O52  1  0.25791000  0.80313200  0.56397700  1
  O  O53  1  0.75724500  0.36589000  0.19780900  1
  O  O54  1  0.75708700  0.43444200  0.36878400  1
  O  O55  1  0.75755200  0.19776200  0.43494500  1
  O  O56  1  0.26664000  0.99787300  0.19748000  1
  O  O57  1  0.26125400  0.80737400  0.99861800  1
  O  O58  1  0.25595500  0.19763500  0.80224200  1
  O  O59  1  0.75737500  0.00277600  0.80508000  1
  O  O60  1  0.75706300  0.19033000  0.00221200  1
  O  O61  1  0.75477800  0.80760200  0.19173800  1
