# generated using pymatgen
data_AgSb3PbS6
_symmetry_space_group_name_H-M   'P 1'
_cell_length_a   5.46325900
_cell_length_b   13.01242519
_cell_length_c   11.76675486
_cell_angle_alpha   113.64228528
_cell_angle_beta   90.00000000
_cell_angle_gamma   90.00000000
_symmetry_Int_Tables_number   1
_chemical_formula_structural   AgSb3PbS6
_chemical_formula_sum   'Ag2 Sb6 Pb2 S12'
_cell_volume   766.29146353
_cell_formula_units_Z   2
loop_
 _symmetry_equiv_pos_site_id
 _symmetry_equiv_pos_as_xyz
  1  'x, y, z'
loop_
 _atom_site_type_symbol
 _atom_site_label
 _atom_site_symmetry_multiplicity
 _atom_site_fract_x
 _atom_site_fract_y
 _atom_site_fract_z
 _atom_site_occupancy
  Ag  Ag0  1  0.38428500  0.94352400  0.25647000  1
  Ag  Ag1  1  0.61571500  0.44352400  0.75647000  1
  Sb  Sb2  1  0.63833800  0.70324300  0.04430300  1
  Sb  Sb3  1  0.71193700  0.77247600  0.49901000  1
  Sb  Sb4  1  0.28097000  0.54950000  0.24433100  1
  Sb  Sb5  1  0.71903000  0.04950000  0.74433100  1
  Sb  Sb6  1  0.28806300  0.27247600  0.99901000  1
  Sb  Sb7  1  0.36166200  0.20324300  0.54430300  1
  Pb  Pb8  1  0.66281000  0.25566000  0.28708600  1
  Pb  Pb9  1  0.33719000  0.75566000  0.78708600  1
  S  S10  1  0.54084000  0.10225900  0.95561200  1
  S  S11  1  0.51951000  0.37357100  0.53088400  1
  S  S12  1  0.48049000  0.87357100  0.03088400  1
  S  S13  1  0.45916000  0.60225900  0.45561200  1
  S  S14  1  0.19208200  0.29018500  0.20994900  1
  S  S15  1  0.80791800  0.79018500  0.70994900  1
  S  S16  1  0.59263100  0.43286600  0.09096000  1
  S  S17  1  0.40736900  0.93286600  0.59096000  1
  S  S18  1  0.34813400  0.58910400  0.88760600  1
  S  S19  1  0.65186600  0.08910400  0.38760600  1
  S  S20  1  0.41144000  0.73761200  0.24378800  1
  S  S21  1  0.58856000  0.23761200  0.74378800  1
