# generated using pymatgen
data_Ba2SrTa6(Bi2O9)3
_symmetry_space_group_name_H-M   'P 1'
_cell_length_a   3.88880100
_cell_length_b   11.86929500
_cell_length_c   14.26906941
_cell_angle_alpha   114.57662927
_cell_angle_beta   82.16812256
_cell_angle_gamma   90.00000000
_symmetry_Int_Tables_number   1
_chemical_formula_structural   Ba2SrTa6(Bi2O9)3
_chemical_formula_sum   'Ba2 Sr1 Ta6 Bi6 O27'
_cell_volume   592.19258785
_cell_formula_units_Z   1
loop_
 _symmetry_equiv_pos_site_id
 _symmetry_equiv_pos_as_xyz
  1  'x, y, z'
loop_
 _atom_site_type_symbol
 _atom_site_label
 _atom_site_symmetry_multiplicity
 _atom_site_fract_x
 _atom_site_fract_y
 _atom_site_fract_z
 _atom_site_occupancy
  Ba  Ba0  1  0.00000000  0.33256000  0.00000000  1
  Ba  Ba1  1  0.00000000  0.66744000  0.00000000  1
  Sr  Sr2  1  0.00000000  0.00000000  0.00000000  1
  Ta  Ta3  1  0.41200000  0.25306000  0.17600100  1
  Ta  Ta4  1  0.41072200  0.58927800  0.17855600  1
  Ta  Ta5  1  0.41200000  0.92294100  0.17600100  1
  Ta  Ta6  1  0.58927800  0.41072200  0.82144400  1
  Ta  Ta7  1  0.58800000  0.74694000  0.82399900  1
  Ta  Ta8  1  0.58800000  0.07705900  0.82399900  1
  Bi  Bi9  1  0.20153800  0.46507500  0.59692400  1
  Bi  Bi10  1  0.20097800  0.79902200  0.59804400  1
  Bi  Bi11  1  0.20153800  0.13184900  0.59692400  1
  Bi  Bi12  1  0.79902200  0.20097800  0.40195600  1
  Bi  Bi13  1  0.79846200  0.53492500  0.40307600  1
  Bi  Bi14  1  0.79846200  0.86815100  0.40307600  1
  O  O15  1  0.92618100  0.23466600  0.14763800  1
  O  O16  1  0.92444400  0.57555600  0.15111100  1
  O  O17  1  0.92618100  0.91297200  0.14763800  1
  O  O18  1  0.41807600  0.08192400  0.16384800  1
  O  O19  1  0.41693900  0.41575400  0.16612200  1
  O  O20  1  0.41693900  0.75036900  0.16612200  1
  O  O21  1  0.07555600  0.42444400  0.84888900  1
  O  O22  1  0.07381900  0.76533400  0.85236200  1
  O  O23  1  0.07381900  0.08702800  0.85236200  1
  O  O24  1  0.58306100  0.58424600  0.83387800  1
  O  O25  1  0.58192400  0.91807600  0.83615200  1
  O  O26  1  0.58306100  0.24963100  0.83387800  1
  O  O27  1  0.75017300  0.41675100  0.49965500  1
  O  O28  1  0.75030000  0.74970000  0.49939900  1
  O  O29  1  0.75017300  0.08290400  0.49965500  1
  O  O30  1  0.24970000  0.25030000  0.50060100  1
  O  O31  1  0.24982700  0.58324900  0.50034500  1
  O  O32  1  0.24982700  0.91709600  0.50034500  1
  O  O33  1  0.33786400  0.32677200  0.32427100  1
  O  O34  1  0.33699900  0.66300100  0.32600300  1
  O  O35  1  0.33786400  0.99750000  0.32427100  1
  O  O36  1  0.66300100  0.33699900  0.67399700  1
  O  O37  1  0.66213600  0.67322800  0.67572900  1
  O  O38  1  0.66213600  0.00250000  0.67572900  1
  O  O39  1  0.50000000  0.16199600  0.00000000  1
  O  O40  1  0.50000000  0.50000000  0.00000000  1
  O  O41  1  0.50000000  0.83800400  0.00000000  1
