# generated using pymatgen
data_Bi2PbF8
_symmetry_space_group_name_H-M   'P 1'
_cell_length_a   8.85043552
_cell_length_b   8.85043552
_cell_length_c   8.85043552
_cell_angle_alpha   151.84541303
_cell_angle_beta   151.84541303
_cell_angle_gamma   40.23909386
_symmetry_Int_Tables_number   1
_chemical_formula_structural   Bi2PbF8
_chemical_formula_sum   'Bi2 Pb1 F8'
_cell_volume   154.04420981
_cell_formula_units_Z   1
loop_
 _symmetry_equiv_pos_site_id
 _symmetry_equiv_pos_as_xyz
  1  'x, y, z'
loop_
 _atom_site_type_symbol
 _atom_site_label
 _atom_site_symmetry_multiplicity
 _atom_site_fract_x
 _atom_site_fract_y
 _atom_site_fract_z
 _atom_site_occupancy
  Bi  Bi0  1  0.32252900  0.32252900  0.00000000  1
  Bi  Bi1  1  0.67747100  0.67747100  0.00000000  1
  Pb  Pb2  1  0.00000000  0.00000000  0.00000000  1
  F  F3  1  0.41271300  0.91271300  0.50000000  1
  F  F4  1  0.75000000  0.25000000  0.50000000  1
  F  F5  1  0.08728700  0.58728700  0.50000000  1
  F  F6  1  0.25000000  0.75000000  0.50000000  1
  F  F7  1  0.58728700  0.08728700  0.50000000  1
  F  F8  1  0.91271300  0.41271300  0.50000000  1
  F  F9  1  0.81333400  0.81333400  0.00000000  1
  F  F10  1  0.18666600  0.18666600  0.00000000  1
