# generated using pymatgen
data_CuAg64Hg3(As4S15)4
_symmetry_space_group_name_H-M   'P 1'
_cell_length_a   15.22970445
_cell_length_b   15.22640711
_cell_length_c   15.98364104
_cell_angle_alpha   90.52567510
_cell_angle_beta   90.74519006
_cell_angle_gamma   60.13851233
_symmetry_Int_Tables_number   1
_chemical_formula_structural   CuAg64Hg3(As4S15)4
_chemical_formula_sum   'Cu1 Ag64 Hg3 As16 S60'
_cell_volume   3214.11119907
_cell_formula_units_Z   1
loop_
 _symmetry_equiv_pos_site_id
 _symmetry_equiv_pos_as_xyz
  1  'x, y, z'
loop_
 _atom_site_type_symbol
 _atom_site_label
 _atom_site_symmetry_multiplicity
 _atom_site_fract_x
 _atom_site_fract_y
 _atom_site_fract_z
 _atom_site_occupancy
  Cu  Cu0  1  0.01888472  0.23124339  0.49809188  1
  Ag  Ag1  1  0.65819648  0.48934651  0.50171775  1
  Ag  Ag2  1  0.51183215  0.34310791  0.49796806  1
  Ag  Ag3  1  0.92364821  0.41419383  0.90969675  1
  Ag  Ag4  1  0.58299917  0.07789858  0.08924348  1
  Ag  Ag5  1  0.95643520  0.60605586  0.91619560  1
  Ag  Ag6  1  0.39398200  0.04373012  0.08386688  1
  Ag  Ag7  1  0.48612363  0.74640515  0.30513650  1
  Ag  Ag8  1  0.25328670  0.51427942  0.69488875  1
  Ag  Ag9  1  0.10972062  0.38032098  0.50400028  1
  Ag  Ag10  1  0.61302006  0.88541858  0.49960230  1
  Ag  Ag11  1  0.56147842  0.70922886  0.69597336  1
  Ag  Ag12  1  0.29077561  0.43804906  0.30475535  1
  Ag  Ag13  1  0.75421329  0.71654044  0.69706119  1
  Ag  Ag14  1  0.28164047  0.24656871  0.30295628  1
  Ag  Ag15  1  0.61352712  0.53818873  0.08567457  1
  Ag  Ag16  1  0.46161278  0.38741841  0.91457711  1
  Ag  Ag17  1  0.10914411  0.04343641  0.08825038  1
  Ag  Ag18  1  0.95898829  0.88989674  0.91298240  1
  Ag  Ag19  1  0.43074849  0.92414385  0.91612939  1
  Ag  Ag20  1  0.07570345  0.56856674  0.08370953  1
  Ag  Ag21  1  0.25654640  0.00406511  0.71356362  1
  Ag  Ag22  1  0.99953677  0.74110619  0.28409324  1
  Ag  Ag23  1  0.79111477  0.24430510  0.30388542  1
  Ag  Ag24  1  0.75866530  0.21097184  0.69871769  1
  Ag  Ag25  1  0.23733053  0.76463879  0.50099517  1
  Ag  Ag26  1  0.80484471  0.69133647  0.49972649  1
  Ag  Ag27  1  0.30107175  0.19669291  0.49836673  1
  Ag  Ag28  1  0.59093976  0.35434889  0.08385933  1
  Ag  Ag29  1  0.64514669  0.41015264  0.91658448  1
  Ag  Ag30  1  0.72751367  0.27546178  0.49976382  1
  Ag  Ag31  1  0.92272826  0.09026328  0.49587445  1
  Ag  Ag32  1  0.28954137  0.74427752  0.30775119  1
  Ag  Ag33  1  0.25570641  0.71037253  0.69262892  1
  Ag  Ag34  1  0.28281592  0.95235003  0.28965021  1
  Ag  Ag35  1  0.04816733  0.71565934  0.71012314  1
  Ag  Ag36  1  0.42978103  0.57042418  0.50004404  1
  Ag  Ag37  1  0.42898495  0.67050084  0.90414894  1
  Ag  Ag38  1  0.32957918  0.57086755  0.09553558  1
  Ag  Ag39  1  0.25103836  0.21205725  0.69219779  1
  Ag  Ag40  1  0.78552184  0.74669535  0.30406712  1
  Ag  Ag41  1  0.06148577  0.20776856  0.68612591  1
  Ag  Ag42  1  0.79424961  0.93542961  0.30787054  1
  Ag  Ag43  1  0.79082186  0.44287426  0.29691773  1
  Ag  Ag44  1  0.55262278  0.21285800  0.70757379  1
  Ag  Ag45  1  0.11566430  0.28693831  0.09779775  1
  Ag  Ag46  1  0.71262197  0.88373892  0.90279981  1
  Ag  Ag47  1  0.38053312  0.98041929  0.50073604  1
  Ag  Ag48  1  0.02254970  0.61271655  0.49977733  1
  Ag  Ag49  1  0.44056441  0.11595957  0.91611551  1
  Ag  Ag50  1  0.88452111  0.55739638  0.08404439  1
  Ag  Ag51  1  0.98612993  0.24576836  0.31323930  1
  Ag  Ag52  1  0.75196707  0.01736967  0.69275677  1
  Ag  Ag53  1  0.14735264  0.99237860  0.50366776  1
  Ag  Ag54  1  0.01580614  0.85508184  0.49873955  1
  Ag  Ag55  1  0.59495326  0.80830109  0.09346824  1
  Ag  Ag56  1  0.19196613  0.40385508  0.90610388  1
  Ag  Ag57  1  0.93099246  0.16625978  0.90307180  1
  Ag  Ag58  1  0.83440558  0.07018825  0.09620587  1
  Ag  Ag59  1  0.88861761  0.46755121  0.49586108  1
  Ag  Ag60  1  0.52186409  0.11258280  0.50157127  1
  Ag  Ag61  1  0.75888744  0.50431758  0.71009121  1
  Ag  Ag62  1  0.49463708  0.24278870  0.29057029  1
  Ag  Ag63  1  0.08878888  0.85228297  0.08485157  1
  Ag  Ag64  1  0.14804374  0.91189377  0.91493746  1
  Hg  Hg65  1  0.77159049  0.98083272  0.50094833  1
  Hg  Hg66  1  0.51679469  0.73449273  0.49957736  1
  Hg  Hg67  1  0.26453902  0.48179074  0.50079065  1
  As  As68  1  0.86202813  0.30662337  0.07773459  1
  As  As69  1  0.69350467  0.13905080  0.92490891  1
  As  As70  1  0.51100529  0.98794660  0.28888882  1
  As  As71  1  0.01174271  0.48875548  0.71164597  1
  As  As72  1  0.17569279  0.16237831  0.92242560  1
  As  As73  1  0.83804707  0.82345169  0.07531707  1
  As  As74  1  0.52896046  0.47191369  0.28939958  1
  As  As75  1  0.52898716  0.47081945  0.71067425  1
  As  As76  1  0.67992990  0.65546647  0.92560806  1
  As  As77  1  0.34388899  0.32067101  0.07464409  1
  As  As78  1  0.35620601  0.80326233  0.07591924  1
  As  As79  1  0.19718430  0.64344697  0.92405786  1
  As  As80  1  0.01357208  0.48764181  0.28821973  1
  As  As81  1  0.51178739  0.98693914  0.71140399  1
  As  As82  1  0.02524637  0.97505442  0.71153754  1
  As  As83  1  0.02621828  0.97347305  0.28774063  1
  S  S84  1  0.29031822  0.96205897  0.13294242  1
  S  S85  1  0.03790993  0.70989443  0.86718599  1
  S  S86  1  0.87378001  0.05640405  0.35440796  1
  S  S87  1  0.94342349  0.12692266  0.64438076  1
  S  S88  1  0.26384691  0.74923845  0.14931889  1
  S  S89  1  0.25025970  0.73667889  0.85069480  1
  S  S90  1  0.24975390  0.00023406  0.87123561  1
  S  S91  1  0.00021120  0.74989359  0.12727737  1
  S  S92  1  0.55743461  0.95551736  0.99808826  1
  S  S93  1  0.04463775  0.44190107  0.00162115  1
  S  S94  1  0.17653736  0.90524883  0.64373584  1
  S  S95  1  0.09521416  0.82262410  0.35632688  1
  S  S96  1  0.00735892  0.22338133  0.15570148  1
  S  S97  1  0.77665910  0.99327168  0.84833861  1
  S  S98  1  0.60798397  0.54788490  0.35372035  1
  S  S99  1  0.45223314  0.39268236  0.64575262  1
  S  S100  1  0.68415741  0.64189239  0.56669715  1
  S  S101  1  0.35838379  0.31464568  0.43428641  1
  S  S102  1  0.98636580  0.01442037  0.99999110  1
  S  S103  1  0.43101371  0.91333171  0.64603651  1
  S  S104  1  0.08739260  0.56818250  0.35365872  1
  S  S105  1  0.26705434  0.21992727  0.85267316  1
  S  S106  1  0.78031092  0.73215206  0.14501235  1
  S  S107  1  0.03192845  0.23600222  0.84195665  1
  S  S108  1  0.76390816  0.96804103  0.15404972  1
  S  S109  1  0.59473310  0.83484045  0.35445427  1
  S  S110  1  0.16471590  0.40536694  0.64618418  1
  S  S111  1  0.79136934  0.46347005  0.13792814  1
  S  S112  1  0.53596905  0.20903908  0.86502097  1
  S  S113  1  0.17236309  0.15140174  0.55589697  1
  S  S114  1  0.85880750  0.81255966  0.43546738  1
  S  S115  1  0.93362549  0.41341549  0.64482889  1
  S  S116  1  0.58616058  0.06667517  0.35557727  1
  S  S117  1  0.76729351  0.25009991  0.14460300  1
  S  S118  1  0.74956775  0.23350301  0.85711969  1
  S  S119  1  0.37657423  0.55337241  0.35560864  1
  S  S120  1  0.44654116  0.62366365  0.64462042  1
  S  S121  1  0.86227092  0.55759013  0.35633951  1
  S  S122  1  0.44164378  0.13828142  0.64362274  1
  S  S123  1  0.60019197  0.32064427  0.35761623  1
  S  S124  1  0.67970041  0.40038898  0.64242865  1
  S  S125  1  0.36007779  0.05741055  0.35669613  1
  S  S126  1  0.94260002  0.63960943  0.64272688  1
  S  S127  1  0.34918576  0.82391449  0.43342085  1
  S  S128  1  0.17773506  0.65017237  0.56617004  1
  S  S129  1  0.53253703  0.74190805  0.85046317  1
  S  S130  1  0.25815267  0.46745866  0.14990059  1
  S  S131  1  0.74284944  0.49852945  0.86643801  1
  S  S132  1  0.50136264  0.25746764  0.13386071  1
  S  S133  1  0.48251868  0.51759813  0.00017751  1
  S  S134  1  0.77741416  0.70573145  0.85523204  1
  S  S135  1  0.29446866  0.22237475  0.14492381  1
  S  S136  1  0.10620361  0.04663335  0.35452543  1
  S  S137  1  0.95271628  0.89358357  0.64552570  1
  S  S138  1  0.66392021  0.90431317  0.64443435  1
  S  S139  1  0.09527562  0.33615723  0.35594212  1
  S  S140  1  0.86547889  0.31005465  0.44114805  1
  S  S141  1  0.67881980  0.14894210  0.56567282  1
  S  S142  1  0.50582724  0.72226049  0.14842291  1
  S  S143  1  0.27730269  0.49426038  0.85151886  1
