# generated using pymatgen
data_Bi26Mo10O69
_symmetry_space_group_name_H-M   'P 1'
_cell_length_a   5.93971400
_cell_length_b   11.96469677
_cell_length_c   25.32181274
_cell_angle_alpha   102.83814060
_cell_angle_beta   90.02235326
_cell_angle_gamma   90.64781970
_symmetry_Int_Tables_number   1
_chemical_formula_structural   Bi26Mo10O69
_chemical_formula_sum   'Bi26 Mo10 O69'
_cell_volume   1754.43665519
_cell_formula_units_Z   1
loop_
 _symmetry_equiv_pos_site_id
 _symmetry_equiv_pos_as_xyz
  1  'x, y, z'
loop_
 _atom_site_type_symbol
 _atom_site_label
 _atom_site_symmetry_multiplicity
 _atom_site_fract_x
 _atom_site_fract_y
 _atom_site_fract_z
 _atom_site_occupancy
  Bi  Bi0  1  0.90518000  0.34308700  0.75371800  1
  Bi  Bi1  1  0.91050300  0.65553000  0.74472400  1
  Bi  Bi2  1  0.09513000  0.65637200  0.24620200  1
  Bi  Bi3  1  0.09182200  0.34116900  0.25367100  1
  Bi  Bi4  1  0.49644600  0.13770100  0.67597400  1
  Bi  Bi5  1  0.51447600  0.85860800  0.82316300  1
  Bi  Bi6  1  0.50237300  0.86182500  0.32433900  1
  Bi  Bi7  1  0.49897200  0.14004300  0.17718500  1
  Bi  Bi8  1  0.00924000  0.57946400  0.59291400  1
  Bi  Bi9  1  0.00707000  0.41795800  0.90681300  1
  Bi  Bi10  1  0.99082600  0.41997700  0.40656400  1
  Bi  Bi11  1  0.99270700  0.58034100  0.09371900  1
  Bi  Bi12  1  0.50374100  0.23371100  0.84025000  1
  Bi  Bi13  1  0.50018900  0.76512300  0.65943100  1
  Bi  Bi14  1  0.50692100  0.76758100  0.16127300  1
  Bi  Bi15  1  0.49729600  0.23285400  0.34066000  1
  Bi  Bi16  1  0.01402600  0.25432700  0.59947700  1
  Bi  Bi17  1  0.01468100  0.74098100  0.89925800  1
  Bi  Bi18  1  0.98427700  0.74612500  0.40052800  1
  Bi  Bi19  1  0.98797100  0.25595800  0.09913100  1
  Bi  Bi20  1  0.40860200  0.45895600  0.67428600  1
  Bi  Bi21  1  0.40605100  0.54003400  0.82524100  1
  Bi  Bi22  1  0.59225200  0.53930300  0.32545400  1
  Bi  Bi23  1  0.59265400  0.45795700  0.17460900  1
  Bi  Bi24  1  0.43346200  0.99524700  0.51209800  1
  Bi  Bi25  1  0.57681500  0.99427900  0.99701400  1
  Mo  Mo26  1  0.99341700  0.92288400  0.57984900  1
  Mo  Mo27  1  0.01595500  0.08905600  0.92671300  1
  Mo  Mo28  1  0.99594700  0.07737000  0.42452600  1
  Mo  Mo29  1  0.00620400  0.92481400  0.07725600  1
  Mo  Mo30  1  0.99422400  0.99880900  0.74834300  1
  Mo  Mo31  1  0.00996000  0.00065000  0.25014600  1
  Mo  Mo32  1  0.50439400  0.33315000  0.51120400  1
  Mo  Mo33  1  0.50670300  0.67397700  0.98880000  1
  Mo  Mo34  1  0.49628700  0.66854800  0.48929400  1
  Mo  Mo35  1  0.49020000  0.33301700  0.01140700  1
  O  O36  1  0.06640700  0.43652400  0.63305200  1
  O  O37  1  0.06491900  0.56000600  0.86544400  1
  O  O38  1  0.93395200  0.56303400  0.36686500  1
  O  O39  1  0.93392400  0.43919800  0.13364400  1
  O  O40  1  0.71829700  0.99124300  0.57643800  1
  O  O41  1  0.76655000  0.98204300  0.92200800  1
  O  O42  1  0.27737800  0.01857800  0.42722700  1
  O  O43  1  0.28621500  0.98170600  0.07415200  1
  O  O44  1  0.76672600  0.25662500  0.66300700  1
  O  O45  1  0.77040400  0.73478600  0.83541500  1
  O  O46  1  0.23027000  0.74272800  0.33720500  1
  O  O47  1  0.23412900  0.25858100  0.16364600  1
  O  O48  1  0.02159900  0.79705700  0.60723500  1
  O  O49  1  0.94607500  0.20993000  0.89807000  1
  O  O50  1  0.99224900  0.19712300  0.39212800  1
  O  O51  1  0.99734600  0.80462700  0.10865100  1
  O  O52  1  0.81249300  0.01247200  0.80569000  1
  O  O53  1  0.82556700  0.98552800  0.68806700  1
  O  O54  1  0.18481700  0.98916500  0.19147600  1
  O  O55  1  0.19293000  0.01262000  0.30743900  1
  O  O56  1  0.25187200  0.36181000  0.84029000  1
  O  O57  1  0.25511600  0.63392000  0.66060400  1
  O  O58  1  0.74617900  0.63559000  0.16010100  1
  O  O59  1  0.74489400  0.36389400  0.33974400  1
  O  O60  1  0.40518800  0.20661100  0.53364400  1
  O  O61  1  0.42359000  0.80559900  0.96775000  1
  O  O62  1  0.59010800  0.80051500  0.47100800  1
  O  O63  1  0.57155400  0.20251700  0.03154900  1
  O  O64  1  0.26913400  0.27209600  0.66573600  1
  O  O65  1  0.27247400  0.72526200  0.83347100  1
  O  O66  1  0.72701300  0.72624400  0.33484500  1
  O  O67  1  0.72990200  0.27451000  0.16633800  1
  O  O68  1  0.74712600  0.37245100  0.84430100  1
  O  O69  1  0.74968500  0.62930400  0.65470200  1
  O  O70  1  0.25068000  0.63248900  0.15586400  1
  O  O71  1  0.24940000  0.36871100  0.34479800  1
  O  O72  1  0.55564600  0.30515400  0.43952500  1
  O  O73  1  0.55737300  0.69758200  0.06030900  1
  O  O74  1  0.45017700  0.69162600  0.56120200  1
  O  O75  1  0.43035900  0.30868900  0.94004500  1
  O  O76  1  0.22969600  0.04014000  0.59328600  1
  O  O77  1  0.20526700  0.94889900  0.89227300  1
  O  O78  1  0.81198300  0.95996200  0.39280200  1
  O  O79  1  0.81501600  0.03935800  0.10558100  1
  O  O80  1  0.74826300  0.38965100  0.55139700  1
  O  O81  1  0.74500300  0.61499400  0.94838400  1
  O  O82  1  0.25252100  0.61371600  0.44866200  1
  O  O83  1  0.25341600  0.39147000  0.05304800  1
  O  O84  1  0.22174400  0.49937200  0.74946500  1
  O  O85  1  0.77856000  0.49931800  0.25019100  1
  O  O86  1  0.12807000  0.87950100  0.50972800  1
  O  O87  1  0.03353700  0.13753700  0.00073100  1
  O  O88  1  0.89877900  0.12742300  0.49179800  1
  O  O89  1  0.88868400  0.87305500  0.00987000  1
  O  O90  1  0.71216100  0.49866800  0.74891500  1
  O  O91  1  0.28759700  0.49978900  0.25003900  1
  O  O92  1  0.17367800  0.12448300  0.75540600  1
  O  O93  1  0.17262600  0.87532000  0.74364000  1
  O  O94  1  0.82874700  0.87541300  0.24399000  1
  O  O95  1  0.83165900  0.12494000  0.25654900  1
  O  O96  1  0.28194500  0.43339000  0.52576900  1
  O  O97  1  0.27668500  0.57666000  0.97338300  1
  O  O98  1  0.71983000  0.56951800  0.47254600  1
  O  O99  1  0.72140500  0.43068500  0.02664900  1
  O  O100  1  0.59266300  0.23706600  0.75638600  1
  O  O101  1  0.59904000  0.76115100  0.74279500  1
  O  O102  1  0.41039900  0.76162800  0.24415400  1
  O  O103  1  0.40568300  0.23789700  0.25683900  1
  O  O104  1  0.34865300  0.04106100  0.92560600  1
