# generated using pymatgen
data_Ca33In4P28Pb3O112
_symmetry_space_group_name_H-M   'P 1'
_cell_length_a   10.53008908
_cell_length_b   10.57143528
_cell_length_c   25.97327591
_cell_angle_alpha   78.11568059
_cell_angle_beta   89.95777958
_cell_angle_gamma   119.91024564
_symmetry_Int_Tables_number   1
_chemical_formula_structural   Ca33In4P28Pb3O112
_chemical_formula_sum   'Ca33 In4 P28 Pb3 O112'
_cell_volume   2434.17985440
_cell_formula_units_Z   1
loop_
 _symmetry_equiv_pos_site_id
 _symmetry_equiv_pos_as_xyz
  1  'x, y, z'
loop_
 _atom_site_type_symbol
 _atom_site_label
 _atom_site_symmetry_multiplicity
 _atom_site_fract_x
 _atom_site_fract_y
 _atom_site_fract_z
 _atom_site_occupancy
  Ca  Ca0  1  0.80985426  0.64385633  0.10094395  1
  Ca  Ca1  1  0.30927989  0.64310918  0.60061145  1
  Ca  Ca2  1  0.83280022  0.09007480  0.10101138  1
  Ca  Ca3  1  0.33379362  0.08981533  0.60062013  1
  Ca  Ca4  1  0.25735726  0.06614376  0.10104547  1
  Ca  Ca5  1  0.75811622  0.06651877  0.60078801  1
  Ca  Ca6  1  0.50702270  0.59124403  0.34964449  1
  Ca  Ca7  1  0.00711192  0.59115201  0.84936077  1
  Ca  Ca8  1  0.08364057  0.14278950  0.35024910  1
  Ca  Ca9  1  0.58385161  0.14296657  0.85014593  1
  Ca  Ca10  1  0.05912086  0.56590977  0.35042021  1
  Ca  Ca11  1  0.55905657  0.56605572  0.84956896  1
  Ca  Ca12  1  0.68103842  0.34621890  0.40068241  1
  Ca  Ca13  1  0.18023379  0.34538771  0.90042199  1
  Ca  Ca14  1  0.66561867  0.91866990  0.40073650  1
  Ca  Ca15  1  0.16646035  0.91859345  0.90049247  1
  Ca  Ca16  1  0.25131925  0.93276440  0.40080208  1
  Ca  Ca17  1  0.75266788  0.93389466  0.90036027  1
  Ca  Ca18  1  0.00141591  0.41730161  0.15207598  1
  Ca  Ca19  1  0.50182846  0.41721264  0.65180314  1
  Ca  Ca20  1  0.41600652  0.84748043  0.15145468  1
  Ca  Ca21  1  0.91634675  0.84748195  0.65128100  1
  Ca  Ca22  1  0.43083038  0.43253626  0.15202331  1
  Ca  Ca23  1  0.93129156  0.43320468  0.65113142  1
  Ca  Ca24  1  0.30928108  0.04159943  0.24215845  1
  Ca  Ca25  1  0.80953009  0.04195626  0.74188642  1
  Ca  Ca26  1  0.73224266  0.44844928  0.24206336  1
  Ca  Ca27  1  0.23211531  0.44828388  0.74189255  1
  Ca  Ca28  1  0.71621167  0.02547154  0.24204002  1
  Ca  Ca29  1  0.21602648  0.02549272  0.74198519  1
  Ca  Ca30  1  0.96635490  0.94941707  0.49227846  1
  Ca  Ca31  1  0.46643060  0.94937719  0.99250960  1
  Ca  Ca32  1  0.98218421  0.54143879  0.49222923  1
  In  In33  1  0.24912455  0.49855405  0.25214705  1
  In  In34  1  0.74934236  0.49871819  0.75198849  1
  In  In35  1  0.99955617  0.99880574  0.00222188  1
  In  In36  1  0.49931790  0.99844319  0.50217148  1
  P  P37  1  0.38972543  0.81227099  0.29981889  1
  P  P38  1  0.88974659  0.81267743  0.79956801  1
  P  P39  1  0.42290408  0.31059514  0.29988236  1
  P  P40  1  0.92292377  0.31070888  0.79974407  1
  P  P41  1  0.88765676  0.27730773  0.30005562  1
  P  P42  1  0.38757583  0.27741225  0.79985394  1
  P  P43  1  0.63958347  0.81398195  0.05126236  1
  P  P44  1  0.13785803  0.81041427  0.55006493  1
  P  P45  1  0.16742780  0.30369796  0.05275867  1
  P  P46  1  0.67439138  0.30896552  0.55113391  1
  P  P47  1  0.14142837  0.78255029  0.05159490  1
  P  P48  1  0.64156011  0.78260529  0.55153082  1
  P  P49  1  0.32148929  0.67969585  0.45395945  1
  P  P50  1  0.82841359  0.68289965  0.95273977  1
  P  P51  1  0.35080078  0.21629880  0.45378036  1
  P  P52  1  0.85072518  0.21629318  0.95367086  1
  P  P53  1  0.86732828  0.19059686  0.45473365  1
  P  P54  1  0.36679617  0.18835559  0.95375499  1
  P  P55  1  0.61744456  0.72198455  0.20498740  1
  P  P56  1  0.11741503  0.72209800  0.70476959  1
  P  P57  1  0.10424943  0.17725301  0.20543884  1
  P  P58  1  0.60460629  0.17781721  0.70509786  1
  P  P59  1  0.07292583  0.69032769  0.20520718  1
  P  P60  1  0.57291167  0.69044352  0.70506583  1
  P  P61  1  0.61492936  0.23004185  0.15530438  1
  P  P62  1  0.11512285  0.22996775  0.65530165  1
  P  P63  1  0.86674757  0.73117418  0.40454500  1
  P  P64  1  0.36622705  0.73262572  0.90376554  1
  Pb  Pb65  1  0.48428307  0.53939886  0.99256207  1
  Pb  Pb66  1  0.55551957  0.52380079  0.49223996  1
  Pb  Pb67  1  0.05373541  0.52278483  0.99261542  1
  O  O68  1  0.42913146  0.88055169  0.23965058  1
  O  O69  1  0.92973705  0.88062224  0.73939217  1
  O  O70  1  0.45114957  0.33107629  0.23972043  1
  O  O71  1  0.95109142  0.33118041  0.73960239  1
  O  O72  1  0.87974629  0.30914371  0.23992969  1
  O  O73  1  0.37990010  0.30908158  0.73972041  1
  O  O74  1  0.13102823  0.83198760  0.48993760  1
  O  O75  1  0.63300363  0.83642377  0.99089278  1
  O  O76  1  0.70402444  0.37715244  0.49072220  1
  O  O77  1  0.19552853  0.36981291  0.99208186  1
  O  O78  1  0.68113698  0.81595565  0.49109927  1
  O  O79  1  0.18029650  0.81592099  0.99119701  1
  O  O80  1  0.18665028  0.66010180  0.42405009  1
  O  O81  1  0.69817793  0.66486354  0.92036706  1
  O  O82  1  0.46022052  0.37813298  0.42019248  1
  O  O83  1  0.96028012  0.37814128  0.92010142  1
  O  O84  1  0.91882420  0.10933816  0.42356201  1
  O  O85  1  0.41641345  0.10353507  0.92379356  1
  O  O86  1  0.66878200  0.88586140  0.17379227  1
  O  O87  1  0.16885929  0.88613706  0.67365494  1
  O  O88  1  0.21682262  0.15578578  0.17478209  1
  O  O89  1  0.71745993  0.15781135  0.67382746  1
  O  O90  1  0.93896051  0.60886255  0.17464064  1
  O  O91  1  0.43897512  0.60889437  0.67453857  1
  O  O92  1  0.41677129  0.63067011  0.42836281  1
  O  O93  1  0.92444273  0.63338011  0.92812752  1
  O  O94  1  0.20098096  0.13969061  0.43220815  1
  O  O95  1  0.70096914  0.14011509  0.93200434  1
  O  O96  1  0.94110933  0.36172290  0.43196803  1
  O  O97  1  0.44184665  0.35805906  0.92816333  1
  O  O98  1  0.69143230  0.64692037  0.18264266  1
  O  O99  1  0.19106506  0.64709796  0.68219181  1
  O  O100  1  0.95528348  0.12631526  0.18297561  1
  O  O101  1  0.45535474  0.12652877  0.68279784  1
  O  O102  1  0.17083494  0.86122096  0.18231340  1
  O  O103  1  0.67078818  0.86141201  0.68227507  1
  O  O104  1  0.59404391  0.18838356  0.21707183  1
  O  O105  1  0.09415788  0.18827424  0.71708516  1
  O  O106  1  0.84979084  0.69216322  0.46650986  1
  O  O107  1  0.34697743  0.69562845  0.96585884  1
  O  O108  1  0.75706444  0.23333120  0.13593574  1
  O  O109  1  0.25723322  0.23311352  0.63586161  1
  O  O110  1  0.47647442  0.10796968  0.13604354  1
  O  O111  1  0.97661237  0.10790183  0.63607389  1
  O  O112  1  0.63136314  0.38805704  0.13580275  1
  O  O113  1  0.13147174  0.38787134  0.63592978  1
  O  O114  1  0.88060644  0.60723784  0.38574071  1
  O  O115  1  0.37942013  0.60717762  0.88576700  1
  O  O116  1  0.72717191  0.73433027  0.38589345  1
  O  O117  1  0.22783403  0.73636363  0.88449089  1
  O  O118  1  0.00804170  0.88833551  0.38452364  1
  O  O119  1  0.50895393  0.88855082  0.88403214  1
  O  O120  1  0.42539929  0.85832300  0.44530365  1
  O  O121  1  0.92948641  0.86096142  0.94477770  1
  O  O122  1  0.43069806  0.12556168  0.44495506  1
  O  O123  1  0.93048222  0.12536778  0.94474992  1
  O  O124  1  0.69669033  0.12322675  0.44524581  1
  O  O125  1  0.19622982  0.12232776  0.94502600  1
  O  O126  1  0.44691366  0.62893983  0.19564840  1
  O  O127  1  0.94692008  0.62909109  0.69541429  1
  O  O128  1  0.18179301  0.35704868  0.19572665  1
  O  O129  1  0.68173875  0.35737590  0.69563388  1
  O  O130  1  0.17567917  0.62259652  0.19554932  1
  O  O131  1  0.67569671  0.62272441  0.69548551  1
  O  O132  1  0.30767220  0.63472296  0.31128096  1
  O  O133  1  0.80766727  0.63504263  0.81107355  1
  O  O134  1  0.32691474  0.38116843  0.31126026  1
  O  O135  1  0.82683767  0.38115066  0.81118862  1
  O  O136  1  0.05417432  0.36160271  0.31141618  1
  O  O137  1  0.55410394  0.36163060  0.81123869  1
  O  O138  1  0.80590438  0.88287172  0.06215115  1
  O  O139  1  0.30431546  0.88067477  0.56167054  1
  O  O140  1  0.07142456  0.12747862  0.06328502  1
  O  O141  1  0.57742941  0.13224614  0.56194636  1
  O  O142  1  0.05866257  0.86602807  0.06273603  1
  O  O143  1  0.55863126  0.86604093  0.56254177  1
  O  O144  1  0.53270122  0.86570876  0.32651141  1
  O  O145  1  0.03228705  0.86579169  0.82648813  1
  O  O146  1  0.33357230  0.14163447  0.32714002  1
  O  O147  1  0.83364268  0.14178714  0.82709969  1
  O  O148  1  0.80741844  0.33942808  0.32706633  1
  O  O149  1  0.30685904  0.33947494  0.82661660  1
  O  O150  1  0.56069286  0.64568740  0.07976189  1
  O  O151  1  0.05799989  0.64103947  0.57702928  1
  O  O152  1  0.07880236  0.35617404  0.08039167  1
  O  O153  1  0.58461013  0.35910933  0.57965088  1
  O  O154  1  0.28517037  0.84467838  0.07761372  1
  O  O155  1  0.78492640  0.84446103  0.57771445  1
  O  O156  1  0.77266069  0.60721308  0.01166624  1
  O  O157  1  0.26654844  0.60397410  0.51287834  1
  O  O158  1  0.83598176  0.21612354  0.01239358  1
  O  O159  1  0.33634386  0.21635076  0.51253289  1
  O  O160  1  0.38309663  0.14994411  0.01263071  1
  O  O161  1  0.88222930  0.14715664  0.51345759  1
  O  O162  1  0.63229058  0.72169974  0.26367127  1
  O  O163  1  0.13238343  0.72152577  0.76347233  1
  O  O164  1  0.08875238  0.10395616  0.26424702  1
  O  O165  1  0.58961541  0.10398176  0.76382659  1
  O  O166  1  0.01522504  0.64698151  0.26405000  1
  O  O167  1  0.51508511  0.64710627  0.76390811  1
  O  O168  1  0.28115528  0.85361148  0.32111376  1
  O  O169  1  0.78142847  0.85509477  0.82030334  1
  O  O170  1  0.57373805  0.39790772  0.32041905  1
  O  O171  1  0.07368476  0.39788153  0.82035851  1
  O  O172  1  0.82486419  0.10645434  0.32119683  1
  O  O173  1  0.32498393  0.10665408  0.82113610  1
  O  O174  1  0.57603898  0.90087998  0.07189600  1
  O  O175  1  0.07447131  0.89687132  0.57128552  1
  O  O176  1  0.31495781  0.34219813  0.07537479  1
  O  O177  1  0.82519389  0.35151344  0.57168893  1
  O  O178  1  0.03275576  0.61285782  0.07498423  1
  O  O179  1  0.53263612  0.61285126  0.57476287  1
