# generated using pymatgen
data_Y2MgS4
_symmetry_space_group_name_H-M   'P 1'
_cell_length_a   7.57947600
_cell_length_b   12.67756600
_cell_length_c   12.81606800
_cell_angle_alpha   90.00000000
_cell_angle_beta   90.00000000
_cell_angle_gamma   90.00000000
_symmetry_Int_Tables_number   1
_chemical_formula_structural   Y2MgS4
_chemical_formula_sum   'Y16 Mg8 S32'
_cell_volume   1231.48709560
_cell_formula_units_Z   8
loop_
 _symmetry_equiv_pos_site_id
 _symmetry_equiv_pos_as_xyz
  1  'x, y, z'
loop_
 _atom_site_type_symbol
 _atom_site_label
 _atom_site_symmetry_multiplicity
 _atom_site_fract_x
 _atom_site_fract_y
 _atom_site_fract_z
 _atom_site_occupancy
  Y  Y0  1  0.88193900  0.10916000  0.68531200  1
  Y  Y1  1  0.11806100  0.89084000  0.18531200  1
  Y  Y2  1  0.88193900  0.39084000  0.18531200  1
  Y  Y3  1  0.11806100  0.60916000  0.68531200  1
  Y  Y4  1  0.38105700  0.12764800  0.32661400  1
  Y  Y5  1  0.61894300  0.87235200  0.82661400  1
  Y  Y6  1  0.38105700  0.37235200  0.82661400  1
  Y  Y7  1  0.61894300  0.62764800  0.32661400  1
  Y  Y8  1  0.62825200  0.13321400  0.99195000  1
  Y  Y9  1  0.37174800  0.86678600  0.49195000  1
  Y  Y10  1  0.62825200  0.36678600  0.49195000  1
  Y  Y11  1  0.37174800  0.63321400  0.99195000  1
  Y  Y12  1  0.12855400  0.13362200  0.99115100  1
  Y  Y13  1  0.87144600  0.86637800  0.49115100  1
  Y  Y14  1  0.12855400  0.36637800  0.49115100  1
  Y  Y15  1  0.87144600  0.63362200  0.99115100  1
  Mg  Mg16  1  0.38100800  0.10995200  0.69109100  1
  Mg  Mg17  1  0.61899200  0.89004800  0.19109100  1
  Mg  Mg18  1  0.38100800  0.39004800  0.19109100  1
  Mg  Mg19  1  0.61899200  0.60995200  0.69109100  1
  Mg  Mg20  1  0.87805000  0.12592000  0.32120800  1
  Mg  Mg21  1  0.12195000  0.87408000  0.82120800  1
  Mg  Mg22  1  0.87805000  0.37408000  0.82120800  1
  Mg  Mg23  1  0.12195000  0.62592000  0.32120800  1
  S  S24  1  0.87764800  0.01293500  0.87744500  1
  S  S25  1  0.12235200  0.98706500  0.37744500  1
  S  S26  1  0.87764800  0.48706500  0.37744500  1
  S  S27  1  0.12235200  0.51293500  0.87744500  1
  S  S28  1  0.37694400  0.03308100  0.13061500  1
  S  S29  1  0.62305600  0.96691900  0.63061500  1
  S  S30  1  0.37694400  0.46691900  0.63061500  1
  S  S31  1  0.62305600  0.53308100  0.13061500  1
  S  S32  1  0.37230300  0.02068800  0.86931400  1
  S  S33  1  0.62769700  0.97931200  0.36931400  1
  S  S34  1  0.37230300  0.47931200  0.36931400  1
  S  S35  1  0.62769700  0.52068800  0.86931400  1
  S  S36  1  0.87215300  0.04099100  0.13707000  1
  S  S37  1  0.12784700  0.95900900  0.63707000  1
  S  S38  1  0.87215300  0.45900900  0.63707000  1
  S  S39  1  0.12784700  0.54099100  0.13707000  1
  S  S40  1  0.87898500  0.21248700  0.50197000  1
  S  S41  1  0.12101500  0.78751300  0.00197000  1
  S  S42  1  0.87898500  0.28751300  0.00197000  1
  S  S43  1  0.12101500  0.71248700  0.50197000  1
  S  S44  1  0.37944100  0.21296000  0.51961300  1
  S  S45  1  0.62055900  0.78704000  0.01961300  1
  S  S46  1  0.37944100  0.28704000  0.01961300  1
  S  S47  1  0.62055900  0.71296000  0.51961300  1
  S  S48  1  0.12752000  0.23256700  0.77659200  1
  S  S49  1  0.87248000  0.76743300  0.27659200  1
  S  S50  1  0.12752000  0.26743300  0.27659200  1
  S  S51  1  0.87248000  0.73256700  0.77659200  1
  S  S52  1  0.63048800  0.23090700  0.77705400  1
  S  S53  1  0.36951200  0.76909300  0.27705400  1
  S  S54  1  0.63048800  0.26909300  0.27705400  1
  S  S55  1  0.36951200  0.73090700  0.77705400  1
