# generated using pymatgen
data_La2MgSe4
_symmetry_space_group_name_H-M   'P 1'
_cell_length_a   8.29482200
_cell_length_b   13.76135000
_cell_length_c   13.82095700
_cell_angle_alpha   90.00000000
_cell_angle_beta   90.00000000
_cell_angle_gamma   90.00000000
_symmetry_Int_Tables_number   1
_chemical_formula_structural   La2MgSe4
_chemical_formula_sum   'La16 Mg8 Se32'
_cell_volume   1577.63389103
_cell_formula_units_Z   8
loop_
 _symmetry_equiv_pos_site_id
 _symmetry_equiv_pos_as_xyz
  1  'x, y, z'
loop_
 _atom_site_type_symbol
 _atom_site_label
 _atom_site_symmetry_multiplicity
 _atom_site_fract_x
 _atom_site_fract_y
 _atom_site_fract_z
 _atom_site_occupancy
  La  La0  1  0.88654500  0.68516700  0.10891500  1
  La  La1  1  0.11345500  0.18516700  0.89108500  1
  La  La2  1  0.88654500  0.18516700  0.39108500  1
  La  La3  1  0.11345500  0.68516700  0.60891500  1
  La  La4  1  0.38501800  0.32548100  0.12664200  1
  La  La5  1  0.61498200  0.82548100  0.87335800  1
  La  La6  1  0.38501800  0.82548100  0.37335800  1
  La  La7  1  0.61498200  0.32548100  0.62664200  1
  La  La8  1  0.63140700  0.99386500  0.13511000  1
  La  La9  1  0.36859300  0.49386500  0.86489000  1
  La  La10  1  0.63140700  0.49386500  0.36489000  1
  La  La11  1  0.36859300  0.99386500  0.63511000  1
  La  La12  1  0.13102300  0.99279000  0.13571900  1
  La  La13  1  0.86897700  0.49279000  0.86428100  1
  La  La14  1  0.13102300  0.49279000  0.36428100  1
  La  La15  1  0.86897700  0.99279000  0.63571900  1
  Mg  Mg16  1  0.38508300  0.69358500  0.11186800  1
  Mg  Mg17  1  0.61491700  0.19358500  0.88813200  1
  Mg  Mg18  1  0.38508300  0.19358500  0.38813200  1
  Mg  Mg19  1  0.61491700  0.69358500  0.61186800  1
  Mg  Mg20  1  0.88015800  0.32017800  0.12596200  1
  Mg  Mg21  1  0.11984200  0.82017800  0.87403800  1
  Mg  Mg22  1  0.88015800  0.82017800  0.37403800  1
  Mg  Mg23  1  0.11984200  0.32017800  0.62596200  1
  Se  Se24  1  0.88350700  0.88014500  0.00989700  1
  Se  Se25  1  0.11649300  0.38014500  0.99010300  1
  Se  Se26  1  0.88350700  0.38014500  0.49010300  1
  Se  Se27  1  0.11649300  0.88014500  0.50989700  1
  Se  Se28  1  0.38470200  0.12888200  0.02683600  1
  Se  Se29  1  0.61529800  0.62888200  0.97316400  1
  Se  Se30  1  0.38470200  0.62888200  0.47316400  1
  Se  Se31  1  0.61529800  0.12888200  0.52683600  1
  Se  Se32  1  0.37314600  0.86687500  0.02641000  1
  Se  Se33  1  0.62685400  0.36687500  0.97359000  1
  Se  Se34  1  0.37314600  0.36687500  0.47359000  1
  Se  Se35  1  0.62685400  0.86687500  0.52641000  1
  Se  Se36  1  0.87449100  0.14085800  0.04841300  1
  Se  Se37  1  0.12550900  0.64085800  0.95158700  1
  Se  Se38  1  0.87449100  0.64085800  0.45158700  1
  Se  Se39  1  0.12550900  0.14085800  0.54841300  1
  Se  Se40  1  0.88193400  0.49494900  0.20894400  1
  Se  Se41  1  0.11806600  0.99494900  0.79105600  1
  Se  Se42  1  0.88193400  0.99494900  0.29105600  1
  Se  Se43  1  0.11806600  0.49494900  0.70894400  1
  Se  Se44  1  0.38189200  0.52474800  0.21001500  1
  Se  Se45  1  0.61810800  0.02474800  0.78998500  1
  Se  Se46  1  0.38189200  0.02474800  0.28998500  1
  Se  Se47  1  0.61810800  0.52474800  0.71001500  1
  Se  Se48  1  0.13708000  0.77272100  0.23131000  1
  Se  Se49  1  0.86292000  0.27272100  0.76869000  1
  Se  Se50  1  0.13708000  0.27272100  0.26869000  1
  Se  Se51  1  0.86292000  0.77272100  0.73131000  1
  Se  Se52  1  0.63974300  0.77675800  0.23457200  1
  Se  Se53  1  0.36025700  0.27675800  0.76542800  1
  Se  Se54  1  0.63974300  0.27675800  0.26542800  1
  Se  Se55  1  0.36025700  0.77675800  0.73457200  1
