# generated using pymatgen
data_Y2MgS4
_symmetry_space_group_name_H-M   'P 1'
_cell_length_a   7.24756328
_cell_length_b   8.39449325
_cell_length_c   12.87788174
_cell_angle_alpha   80.38586455
_cell_angle_beta   84.30291819
_cell_angle_gamma   90.01664874
_symmetry_Int_Tables_number   1
_chemical_formula_structural   Y2MgS4
_chemical_formula_sum   'Y8 Mg4 S16'
_cell_volume   768.55206976
_cell_formula_units_Z   4
loop_
 _symmetry_equiv_pos_site_id
 _symmetry_equiv_pos_as_xyz
  1  'x, y, z'
loop_
 _atom_site_type_symbol
 _atom_site_label
 _atom_site_symmetry_multiplicity
 _atom_site_fract_x
 _atom_site_fract_y
 _atom_site_fract_z
 _atom_site_occupancy
  Y  Y0  1  0.13496800  0.70033100  0.69290800  1
  Y  Y1  1  0.86503200  0.29966900  0.30709200  1
  Y  Y2  1  0.24216400  0.87224300  0.00052100  1
  Y  Y3  1  0.75783600  0.12775700  0.99947900  1
  Y  Y4  1  0.36785800  0.55492400  0.30512500  1
  Y  Y5  1  0.63214200  0.44507600  0.69487500  1
  Y  Y6  1  0.36608900  0.04238600  0.30885900  1
  Y  Y7  1  0.63391100  0.95761400  0.69114100  1
  Mg  Mg8  1  0.13406700  0.20040400  0.70015900  1
  Mg  Mg9  1  0.86593300  0.79959600  0.29984100  1
  Mg  Mg10  1  0.24908600  0.37773400  0.99598600  1
  Mg  Mg11  1  0.75091400  0.62226600  0.00401400  1
  S  S12  1  0.09382100  0.64536100  0.89665700  1
  S  S13  1  0.90617900  0.35463900  0.10334300  1
  S  S14  1  0.10788200  0.15575200  0.89300800  1
  S  S15  1  0.89211800  0.84424800  0.10699200  1
  S  S16  1  0.16868900  0.78081200  0.37305400  1
  S  S17  1  0.83131100  0.21918800  0.62694600  1
  S  S18  1  0.19177400  0.28174400  0.37583200  1
  S  S19  1  0.80822600  0.71825600  0.62416800  1
  S  S20  1  0.30335500  0.97927500  0.62868000  1
  S  S21  1  0.69664500  0.02072500  0.37132000  1
  S  S22  1  0.30522900  0.45642700  0.62797900  1
  S  S23  1  0.69477100  0.54357300  0.37202100  1
  S  S24  1  0.39418000  0.10298000  0.10466400  1
  S  S25  1  0.60582000  0.89702000  0.89533600  1
  S  S26  1  0.40389100  0.59301800  0.10177000  1
  S  S27  1  0.59610900  0.40698200  0.89823000  1
