# generated using pymatgen
data_Y2MgS4
_symmetry_space_group_name_H-M   'P 1'
_cell_length_a   7.20255167
_cell_length_b   7.20255167
_cell_length_c   7.20255167
_cell_angle_alpha   110.54997196
_cell_angle_beta   110.54997196
_cell_angle_gamma   107.33461411
_symmetry_Int_Tables_number   1
_chemical_formula_structural   Y2MgS4
_chemical_formula_sum   'Y4 Mg2 S8'
_cell_volume   287.33344252
_cell_formula_units_Z   2
loop_
 _symmetry_equiv_pos_site_id
 _symmetry_equiv_pos_as_xyz
  1  'x, y, z'
loop_
 _atom_site_type_symbol
 _atom_site_label
 _atom_site_symmetry_multiplicity
 _atom_site_fract_x
 _atom_site_fract_y
 _atom_site_fract_z
 _atom_site_occupancy
  Y  Y0  1  0.87500000  0.75762300  0.38262300  1
  Y  Y1  1  0.50762300  0.12500000  0.88262300  1
  Y  Y2  1  0.37500000  0.49237700  0.61737700  1
  Y  Y3  1  0.24237700  0.62500000  0.11737700  1
  Mg  Mg4  1  0.00000000  0.00000000  0.00000000  1
  Mg  Mg5  1  0.75000000  0.25000000  0.50000000  1
  S  S6  1  0.50810200  0.37852100  0.26214800  1
  S  S7  1  0.75404600  0.49189800  0.87041900  1
  S  S8  1  0.11637300  0.24595400  0.73785200  1
  S  S9  1  0.62147900  0.88362700  0.12958100  1
  S  S10  1  0.24189800  0.00404600  0.37041900  1
  S  S11  1  0.99595400  0.36637300  0.23785200  1
  S  S12  1  0.63362700  0.87147900  0.62958100  1
  S  S13  1  0.12852100  0.75810200  0.76214800  1
