# generated using pymatgen
data_Dy2MgSe4
_symmetry_space_group_name_H-M   'P 1'
_cell_length_a   7.90081700
_cell_length_b   13.23042600
_cell_length_c   13.45308300
_cell_angle_alpha   90.00000000
_cell_angle_beta   90.00000000
_cell_angle_gamma   90.00000000
_symmetry_Int_Tables_number   1
_chemical_formula_structural   Dy2MgSe4
_chemical_formula_sum   'Dy16 Mg8 Se32'
_cell_volume   1406.26656876
_cell_formula_units_Z   8
loop_
 _symmetry_equiv_pos_site_id
 _symmetry_equiv_pos_as_xyz
  1  'x, y, z'
loop_
 _atom_site_type_symbol
 _atom_site_label
 _atom_site_symmetry_multiplicity
 _atom_site_fract_x
 _atom_site_fract_y
 _atom_site_fract_z
 _atom_site_occupancy
  Dy  Dy0  1  0.88207900  0.10778500  0.68599700  1
  Dy  Dy1  1  0.11792100  0.89221500  0.18599700  1
  Dy  Dy2  1  0.88207900  0.39221500  0.18599700  1
  Dy  Dy3  1  0.11792100  0.60778500  0.68599700  1
  Dy  Dy4  1  0.38068700  0.12783800  0.32633300  1
  Dy  Dy5  1  0.61931300  0.87216200  0.82633300  1
  Dy  Dy6  1  0.38068700  0.37216200  0.82633300  1
  Dy  Dy7  1  0.61931300  0.62783800  0.32633300  1
  Dy  Dy8  1  0.62814900  0.13304100  0.99052700  1
  Dy  Dy9  1  0.37185100  0.86695900  0.49052700  1
  Dy  Dy10  1  0.62814900  0.36695900  0.49052700  1
  Dy  Dy11  1  0.37185100  0.63304100  0.99052700  1
  Dy  Dy12  1  0.12859900  0.13311200  0.99106500  1
  Dy  Dy13  1  0.87140100  0.86688800  0.49106500  1
  Dy  Dy14  1  0.12859900  0.36688800  0.49106500  1
  Dy  Dy15  1  0.87140100  0.63311200  0.99106500  1
  Mg  Mg16  1  0.38117200  0.11068800  0.69036100  1
  Mg  Mg17  1  0.61882800  0.88931200  0.19036100  1
  Mg  Mg18  1  0.38117200  0.38931200  0.19036100  1
  Mg  Mg19  1  0.61882800  0.61068800  0.69036100  1
  Mg  Mg20  1  0.87778000  0.12654100  0.32106500  1
  Mg  Mg21  1  0.12222000  0.87345900  0.82106500  1
  Mg  Mg22  1  0.87778000  0.37345900  0.82106500  1
  Mg  Mg23  1  0.12222000  0.62654100  0.32106500  1
  Se  Se24  1  0.87710200  0.01293400  0.87782300  1
  Se  Se25  1  0.12289800  0.98706600  0.37782300  1
  Se  Se26  1  0.87710200  0.48706600  0.37782300  1
  Se  Se27  1  0.12289800  0.51293400  0.87782300  1
  Se  Se28  1  0.37660000  0.03465500  0.13002300  1
  Se  Se29  1  0.62340000  0.96534500  0.63002300  1
  Se  Se30  1  0.37660000  0.46534500  0.63002300  1
  Se  Se31  1  0.62340000  0.53465500  0.13002300  1
  Se  Se32  1  0.37260500  0.02105500  0.86873900  1
  Se  Se33  1  0.62739500  0.97894500  0.36873900  1
  Se  Se34  1  0.37260500  0.47894500  0.36873900  1
  Se  Se35  1  0.62739500  0.52105500  0.86873900  1
  Se  Se36  1  0.87211800  0.04192900  0.13633700  1
  Se  Se37  1  0.12788200  0.95807100  0.63633700  1
  Se  Se38  1  0.87211800  0.45807100  0.63633700  1
  Se  Se39  1  0.12788200  0.54192900  0.13633700  1
  Se  Se40  1  0.87914200  0.21168100  0.50324400  1
  Se  Se41  1  0.12085800  0.78831900  0.00324400  1
  Se  Se42  1  0.87914200  0.28831900  0.00324400  1
  Se  Se43  1  0.12085800  0.71168100  0.50324400  1
  Se  Se44  1  0.37933900  0.21221700  0.51881300  1
  Se  Se45  1  0.62066100  0.78778300  0.01881300  1
  Se  Se46  1  0.37933900  0.28778300  0.01881300  1
  Se  Se47  1  0.62066100  0.71221700  0.51881300  1
  Se  Se48  1  0.12711100  0.23147200  0.77806800  1
  Se  Se49  1  0.87288900  0.76852800  0.27806800  1
  Se  Se50  1  0.12711100  0.26852800  0.27806800  1
  Se  Se51  1  0.87288900  0.73147200  0.77806800  1
  Se  Se52  1  0.63103600  0.23014300  0.77860600  1
  Se  Se53  1  0.36896400  0.76985700  0.27860600  1
  Se  Se54  1  0.63103600  0.26985700  0.27860600  1
  Se  Se55  1  0.36896400  0.73014300  0.77860600  1
