# generated using pymatgen
data_Nd2MgS4
_symmetry_space_group_name_H-M   'P 1'
_cell_length_a   14.00074800
_cell_length_b   8.22960000
_cell_length_c   6.65342200
_cell_angle_alpha   90.00000000
_cell_angle_beta   90.00000000
_cell_angle_gamma   90.00000000
_symmetry_Int_Tables_number   1
_chemical_formula_structural   Nd2MgS4
_chemical_formula_sum   'Nd8 Mg4 S16'
_cell_volume   766.61098042
_cell_formula_units_Z   4
loop_
 _symmetry_equiv_pos_site_id
 _symmetry_equiv_pos_as_xyz
  1  'x, y, z'
loop_
 _atom_site_type_symbol
 _atom_site_label
 _atom_site_symmetry_multiplicity
 _atom_site_fract_x
 _atom_site_fract_y
 _atom_site_fract_z
 _atom_site_occupancy
  Nd  Nd0  1  0.00000000  0.00000000  0.50000000  1
  Nd  Nd1  1  0.50000000  0.00000000  0.00000000  1
  Nd  Nd2  1  0.50000000  0.50000000  0.00000000  1
  Nd  Nd3  1  0.00000000  0.50000000  0.50000000  1
  Nd  Nd4  1  0.23059000  0.75000000  0.99863300  1
  Nd  Nd5  1  0.76941000  0.25000000  0.00136700  1
  Nd  Nd6  1  0.26941000  0.25000000  0.49863300  1
  Nd  Nd7  1  0.73059000  0.75000000  0.50136700  1
  Mg  Mg8  1  0.09269000  0.25000000  0.92277600  1
  Mg  Mg9  1  0.90731000  0.75000000  0.07722400  1
  Mg  Mg10  1  0.40731000  0.75000000  0.42277600  1
  Mg  Mg11  1  0.59269000  0.25000000  0.57722400  1
  S  S12  1  0.16745000  0.01703400  0.74960300  1
  S  S13  1  0.83255000  0.98296600  0.25039700  1
  S  S14  1  0.33255000  0.98296600  0.24960300  1
  S  S15  1  0.66745000  0.01703400  0.75039700  1
  S  S16  1  0.66745000  0.48296600  0.75039700  1
  S  S17  1  0.33255000  0.51703400  0.24960300  1
  S  S18  1  0.83255000  0.51703400  0.25039700  1
  S  S19  1  0.16745000  0.48296600  0.74960300  1
  S  S20  1  0.06638600  0.75000000  0.24239000  1
  S  S21  1  0.93361400  0.25000000  0.75761000  1
  S  S22  1  0.43361400  0.25000000  0.74239000  1
  S  S23  1  0.56638600  0.75000000  0.25761000  1
  S  S24  1  0.09265800  0.25000000  0.28614400  1
  S  S25  1  0.90734200  0.75000000  0.71385600  1
  S  S26  1  0.40734200  0.75000000  0.78614400  1
  S  S27  1  0.59265800  0.25000000  0.21385600  1
