# generated using pymatgen
data_Eu2MgSe4
_symmetry_space_group_name_H-M   'P 1'
_cell_length_a   14.09693000
_cell_length_b   4.12671600
_cell_length_c   13.79924000
_cell_angle_alpha   90.00000000
_cell_angle_beta   90.00000000
_cell_angle_gamma   90.00000000
_symmetry_Int_Tables_number   1
_chemical_formula_structural   Eu2MgSe4
_chemical_formula_sum   'Eu8 Mg4 Se16'
_cell_volume   802.75735457
_cell_formula_units_Z   4
loop_
 _symmetry_equiv_pos_site_id
 _symmetry_equiv_pos_as_xyz
  1  'x, y, z'
loop_
 _atom_site_type_symbol
 _atom_site_label
 _atom_site_symmetry_multiplicity
 _atom_site_fract_x
 _atom_site_fract_y
 _atom_site_fract_z
 _atom_site_occupancy
  Eu  Eu0  1  0.12303100  0.25000000  0.07169600  1
  Eu  Eu1  1  0.87696900  0.75000000  0.92830400  1
  Eu  Eu2  1  0.37696900  0.75000000  0.57169600  1
  Eu  Eu3  1  0.62303100  0.25000000  0.42830400  1
  Eu  Eu4  1  0.12654100  0.25000000  0.70559900  1
  Eu  Eu5  1  0.87345900  0.75000000  0.29440100  1
  Eu  Eu6  1  0.37345900  0.75000000  0.20559900  1
  Eu  Eu7  1  0.62654100  0.25000000  0.79440100  1
  Mg  Mg8  1  0.10466600  0.75000000  0.46259100  1
  Mg  Mg9  1  0.89533400  0.25000000  0.53740900  1
  Mg  Mg10  1  0.39533400  0.25000000  0.96259100  1
  Mg  Mg11  1  0.60466600  0.75000000  0.03740900  1
  Se  Se12  1  0.99768000  0.75000000  0.62112900  1
  Se  Se13  1  0.00232000  0.25000000  0.37887100  1
  Se  Se14  1  0.50232000  0.25000000  0.12112900  1
  Se  Se15  1  0.49768000  0.75000000  0.87887100  1
  Se  Se16  1  0.01943600  0.25000000  0.88678000  1
  Se  Se17  1  0.98056400  0.75000000  0.11322000  1
  Se  Se18  1  0.48056400  0.75000000  0.38678000  1
  Se  Se19  1  0.51943600  0.25000000  0.61322000  1
  Se  Se20  1  0.23552600  0.25000000  0.25245200  1
  Se  Se21  1  0.76447400  0.75000000  0.74754800  1
  Se  Se22  1  0.26447400  0.75000000  0.75245200  1
  Se  Se23  1  0.73552600  0.25000000  0.24754800  1
  Se  Se24  1  0.27146400  0.75000000  0.00676400  1
  Se  Se25  1  0.72853600  0.25000000  0.99323600  1
  Se  Se26  1  0.22853600  0.25000000  0.50676400  1
  Se  Se27  1  0.77146400  0.75000000  0.49323600  1
