# generated using pymatgen
data_Sm2MgSe4
_symmetry_space_group_name_H-M   'P 1'
_cell_length_a   8.05869500
_cell_length_b   13.47444000
_cell_length_c   13.59483800
_cell_angle_alpha   90.00000000
_cell_angle_beta   90.00000000
_cell_angle_gamma   90.00000000
_symmetry_Int_Tables_number   1
_chemical_formula_structural   Sm2MgSe4
_chemical_formula_sum   'Sm16 Mg8 Se32'
_cell_volume   1476.21454767
_cell_formula_units_Z   8
loop_
 _symmetry_equiv_pos_site_id
 _symmetry_equiv_pos_as_xyz
  1  'x, y, z'
loop_
 _atom_site_type_symbol
 _atom_site_label
 _atom_site_symmetry_multiplicity
 _atom_site_fract_x
 _atom_site_fract_y
 _atom_site_fract_z
 _atom_site_occupancy
  Sm  Sm0  1  0.88330700  0.10794600  0.68531500  1
  Sm  Sm1  1  0.11669300  0.89205400  0.18531500  1
  Sm  Sm2  1  0.88330700  0.39205400  0.18531500  1
  Sm  Sm3  1  0.11669300  0.60794600  0.68531500  1
  Sm  Sm4  1  0.38184600  0.12749100  0.32634500  1
  Sm  Sm5  1  0.61815400  0.87250900  0.82634500  1
  Sm  Sm6  1  0.38184600  0.37250900  0.82634500  1
  Sm  Sm7  1  0.61815400  0.62749100  0.32634500  1
  Sm  Sm8  1  0.62852300  0.13353900  0.99155000  1
  Sm  Sm9  1  0.37147700  0.86646100  0.49155000  1
  Sm  Sm10  1  0.62852300  0.36646100  0.49155000  1
  Sm  Sm11  1  0.37147700  0.63353900  0.99155000  1
  Sm  Sm12  1  0.12879000  0.13417700  0.99246700  1
  Sm  Sm13  1  0.87121000  0.86582300  0.49246700  1
  Sm  Sm14  1  0.12879000  0.36582300  0.49246700  1
  Sm  Sm15  1  0.87121000  0.63417700  0.99246700  1
  Mg  Mg16  1  0.38290800  0.11128600  0.69203100  1
  Mg  Mg17  1  0.61709200  0.88871400  0.19203100  1
  Mg  Mg18  1  0.38290800  0.38871400  0.19203100  1
  Mg  Mg19  1  0.61709200  0.61128600  0.69203100  1
  Mg  Mg20  1  0.87882500  0.12639800  0.32001800  1
  Mg  Mg21  1  0.12117500  0.87360200  0.82001800  1
  Mg  Mg22  1  0.87882500  0.37360200  0.82001800  1
  Mg  Mg23  1  0.12117500  0.62639800  0.32001800  1
  Se  Se24  1  0.87986900  0.01123600  0.87908500  1
  Se  Se25  1  0.12013100  0.98876400  0.37908500  1
  Se  Se26  1  0.87986900  0.48876400  0.37908500  1
  Se  Se27  1  0.12013100  0.51123600  0.87908500  1
  Se  Se28  1  0.37982900  0.03163000  0.12896600  1
  Se  Se29  1  0.62017100  0.96837000  0.62896600  1
  Se  Se30  1  0.37982900  0.46837000  0.62896600  1
  Se  Se31  1  0.62017100  0.53163000  0.12896600  1
  Se  Se32  1  0.37138400  0.02311300  0.86731300  1
  Se  Se33  1  0.62861600  0.97688700  0.36731300  1
  Se  Se34  1  0.37138400  0.47688700  0.36731300  1
  Se  Se35  1  0.62861600  0.52311300  0.86731300  1
  Se  Se36  1  0.87160300  0.04451200  0.13825700  1
  Se  Se37  1  0.12839700  0.95548800  0.63825700  1
  Se  Se38  1  0.87160300  0.45548800  0.63825700  1
  Se  Se39  1  0.12839700  0.54451200  0.13825700  1
  Se  Se40  1  0.87914700  0.21001000  0.49913000  1
  Se  Se41  1  0.12085300  0.78999000  0.99913000  1
  Se  Se42  1  0.87914700  0.28999000  0.99913000  1
  Se  Se43  1  0.12085300  0.71001000  0.49913000  1
  Se  Se44  1  0.37998500  0.21078300  0.52191800  1
  Se  Se45  1  0.62001500  0.78921700  0.02191800  1
  Se  Se46  1  0.37998500  0.28921700  0.02191800  1
  Se  Se47  1  0.62001500  0.71078300  0.52191800  1
  Se  Se48  1  0.12856500  0.23215500  0.77639000  1
  Se  Se49  1  0.87143500  0.76784500  0.27639000  1
  Se  Se50  1  0.12856500  0.26784500  0.27639000  1
  Se  Se51  1  0.87143500  0.73215500  0.77639000  1
  Se  Se52  1  0.63240700  0.23034400  0.77821700  1
  Se  Se53  1  0.36759300  0.76965600  0.27821700  1
  Se  Se54  1  0.63240700  0.26965600  0.27821700  1
  Se  Se55  1  0.36759300  0.73034400  0.77821700  1
