# generated using pymatgen
data_Dy2MgSe4
_symmetry_space_group_name_H-M   'P 1'
_cell_length_a   4.01845500
_cell_length_b   13.15830700
_cell_length_c   14.09718700
_cell_angle_alpha   90.00000000
_cell_angle_beta   90.00000000
_cell_angle_gamma   90.00000000
_symmetry_Int_Tables_number   1
_chemical_formula_structural   Dy2MgSe4
_chemical_formula_sum   'Dy8 Mg4 Se16'
_cell_volume   745.40376987
_cell_formula_units_Z   4
loop_
 _symmetry_equiv_pos_site_id
 _symmetry_equiv_pos_as_xyz
  1  'x, y, z'
loop_
 _atom_site_type_symbol
 _atom_site_label
 _atom_site_symmetry_multiplicity
 _atom_site_fract_x
 _atom_site_fract_y
 _atom_site_fract_z
 _atom_site_occupancy
  Dy  Dy0  1  0.25000000  0.11560400  0.07375800  1
  Dy  Dy1  1  0.75000000  0.88439600  0.92624200  1
  Dy  Dy2  1  0.75000000  0.38439600  0.57375800  1
  Dy  Dy3  1  0.25000000  0.61560400  0.42624200  1
  Dy  Dy4  1  0.25000000  0.14283100  0.70294300  1
  Dy  Dy5  1  0.75000000  0.85716900  0.29705700  1
  Dy  Dy6  1  0.75000000  0.35716900  0.20294300  1
  Dy  Dy7  1  0.25000000  0.64283100  0.79705700  1
  Mg  Mg8  1  0.75000000  0.11099900  0.45367200  1
  Mg  Mg9  1  0.25000000  0.88900100  0.54632800  1
  Mg  Mg10  1  0.25000000  0.38900100  0.95367200  1
  Mg  Mg11  1  0.75000000  0.61099900  0.04632800  1
  Se  Se12  1  0.75000000  0.00888900  0.61730300  1
  Se  Se13  1  0.25000000  0.99111100  0.38269700  1
  Se  Se14  1  0.25000000  0.49111100  0.11730300  1
  Se  Se15  1  0.75000000  0.50888900  0.88269700  1
  Se  Se16  1  0.25000000  0.02851000  0.88086800  1
  Se  Se17  1  0.75000000  0.97149000  0.11913200  1
  Se  Se18  1  0.75000000  0.47149000  0.38086800  1
  Se  Se19  1  0.25000000  0.52851000  0.61913200  1
  Se  Se20  1  0.25000000  0.22125900  0.24898200  1
  Se  Se21  1  0.75000000  0.77874100  0.75101800  1
  Se  Se22  1  0.75000000  0.27874100  0.74898200  1
  Se  Se23  1  0.25000000  0.72125900  0.25101800  1
  Se  Se24  1  0.75000000  0.25964700  0.01365200  1
  Se  Se25  1  0.25000000  0.74035300  0.98634800  1
  Se  Se26  1  0.25000000  0.24035300  0.51365200  1
  Se  Se27  1  0.75000000  0.75964700  0.48634800  1
