# generated using pymatgen
data_Pr2MgS4
_symmetry_space_group_name_H-M   'P 1'
_cell_length_a   7.67072444
_cell_length_b   8.94222341
_cell_length_c   12.00403774
_cell_angle_alpha   79.58163367
_cell_angle_beta   83.40059968
_cell_angle_gamma   91.00334146
_symmetry_Int_Tables_number   1
_chemical_formula_structural   Pr2MgS4
_chemical_formula_sum   'Pr8 Mg4 S16'
_cell_volume   803.83798602
_cell_formula_units_Z   4
loop_
 _symmetry_equiv_pos_site_id
 _symmetry_equiv_pos_as_xyz
  1  'x, y, z'
loop_
 _atom_site_type_symbol
 _atom_site_label
 _atom_site_symmetry_multiplicity
 _atom_site_fract_x
 _atom_site_fract_y
 _atom_site_fract_z
 _atom_site_occupancy
  Pr  Pr0  1  0.13722100  0.70540600  0.65940300  1
  Pr  Pr1  1  0.86277900  0.29459400  0.34059700  1
  Pr  Pr2  1  0.24650700  0.86894500  0.99801300  1
  Pr  Pr3  1  0.75349300  0.13105500  0.00198700  1
  Pr  Pr4  1  0.36828300  0.55269200  0.33504400  1
  Pr  Pr5  1  0.63171700  0.44730800  0.66495600  1
  Pr  Pr6  1  0.36060800  0.02900500  0.34407700  1
  Pr  Pr7  1  0.63939200  0.97099500  0.65592300  1
  Mg  Mg8  1  0.13945800  0.20710400  0.68460700  1
  Mg  Mg9  1  0.86054200  0.79289600  0.31539300  1
  Mg  Mg10  1  0.24991800  0.38667600  0.99353500  1
  Mg  Mg11  1  0.75008200  0.61332400  0.00646500  1
  S  S12  1  0.09725000  0.63949900  0.88964400  1
  S  S13  1  0.90275000  0.36050100  0.11035600  1
  S  S14  1  0.11636300  0.16658600  0.89049500  1
  S  S15  1  0.88363700  0.83341400  0.10950500  1
  S  S16  1  0.14868700  0.77231500  0.39261400  1
  S  S17  1  0.85131300  0.22768500  0.60738600  1
  S  S18  1  0.19908800  0.28053400  0.37958400  1
  S  S19  1  0.80091200  0.71946600  0.62041600  1
  S  S20  1  0.29696000  0.99381800  0.61030600  1
  S  S21  1  0.70304000  0.00618200  0.38969400  1
  S  S22  1  0.30039700  0.45348800  0.60219200  1
  S  S23  1  0.69960300  0.54651200  0.39780800  1
  S  S24  1  0.39341100  0.09325800  0.11412600  1
  S  S25  1  0.60658900  0.90674200  0.88587400  1
  S  S26  1  0.40510800  0.58767500  0.10468700  1
  S  S27  1  0.59489200  0.41232500  0.89531300  1
