# generated using pymatgen
data_Tm2MgSe4
_symmetry_space_group_name_H-M   'P 1'
_cell_length_a   3.96765300
_cell_length_b   13.03408700
_cell_length_c   13.87382600
_cell_angle_alpha   90.00000000
_cell_angle_beta   90.00000000
_cell_angle_gamma   90.00000000
_symmetry_Int_Tables_number   1
_chemical_formula_structural   Tm2MgSe4
_chemical_formula_sum   'Tm8 Mg4 Se16'
_cell_volume   717.48122653
_cell_formula_units_Z   4
loop_
 _symmetry_equiv_pos_site_id
 _symmetry_equiv_pos_as_xyz
  1  'x, y, z'
loop_
 _atom_site_type_symbol
 _atom_site_label
 _atom_site_symmetry_multiplicity
 _atom_site_fract_x
 _atom_site_fract_y
 _atom_site_fract_z
 _atom_site_occupancy
  Tm  Tm0  1  0.25000000  0.11376300  0.07573000  1
  Tm  Tm1  1  0.75000000  0.88623700  0.92427000  1
  Tm  Tm2  1  0.75000000  0.38623700  0.57573000  1
  Tm  Tm3  1  0.25000000  0.61376300  0.42427000  1
  Tm  Tm4  1  0.25000000  0.14418800  0.70207100  1
  Tm  Tm5  1  0.75000000  0.85581200  0.29792900  1
  Tm  Tm6  1  0.75000000  0.35581200  0.20207100  1
  Tm  Tm7  1  0.25000000  0.64418800  0.79792900  1
  Mg  Mg8  1  0.75000000  0.11588300  0.44235100  1
  Mg  Mg9  1  0.25000000  0.88411700  0.55764900  1
  Mg  Mg10  1  0.25000000  0.38411700  0.94235100  1
  Mg  Mg11  1  0.75000000  0.61588300  0.05764900  1
  Se  Se12  1  0.75000000  0.01520800  0.61414900  1
  Se  Se13  1  0.25000000  0.98479200  0.38585100  1
  Se  Se14  1  0.25000000  0.48479200  0.11414900  1
  Se  Se15  1  0.75000000  0.51520800  0.88585100  1
  Se  Se16  1  0.25000000  0.03095900  0.88078300  1
  Se  Se17  1  0.75000000  0.96904100  0.11921700  1
  Se  Se18  1  0.75000000  0.46904100  0.38078300  1
  Se  Se19  1  0.25000000  0.53095900  0.61921700  1
  Se  Se20  1  0.25000000  0.21934800  0.25200300  1
  Se  Se21  1  0.75000000  0.78065200  0.74799700  1
  Se  Se22  1  0.75000000  0.28065200  0.75200300  1
  Se  Se23  1  0.25000000  0.71934800  0.24799700  1
  Se  Se24  1  0.75000000  0.25671700  0.01521900  1
  Se  Se25  1  0.25000000  0.74328300  0.98478100  1
  Se  Se26  1  0.25000000  0.24328300  0.51521900  1
  Se  Se27  1  0.75000000  0.75671700  0.48478100  1
