# generated using pymatgen
data_Er2MgSe4
_symmetry_space_group_name_H-M   'P 1'
_cell_length_a   7.50182263
_cell_length_b   7.50182263
_cell_length_c   7.50182263
_cell_angle_alpha   110.37348899
_cell_angle_beta   110.37348899
_cell_angle_gamma   107.68137400
_symmetry_Int_Tables_number   1
_chemical_formula_structural   Er2MgSe4
_chemical_formula_sum   'Er4 Mg2 Se8'
_cell_volume   324.75940491
_cell_formula_units_Z   2
loop_
 _symmetry_equiv_pos_site_id
 _symmetry_equiv_pos_as_xyz
  1  'x, y, z'
loop_
 _atom_site_type_symbol
 _atom_site_label
 _atom_site_symmetry_multiplicity
 _atom_site_fract_x
 _atom_site_fract_y
 _atom_site_fract_z
 _atom_site_occupancy
  Er  Er0  1  0.87500000  0.75651500  0.38151500  1
  Er  Er1  1  0.50651500  0.12500000  0.88151500  1
  Er  Er2  1  0.37500000  0.49348500  0.61848500  1
  Er  Er3  1  0.24348500  0.62500000  0.11848500  1
  Mg  Mg4  1  0.00000000  0.00000000  0.00000000  1
  Mg  Mg5  1  0.75000000  0.25000000  0.50000000  1
  Se  Se6  1  0.50853100  0.37891600  0.25936100  1
  Se  Se7  1  0.75083000  0.49146900  0.87038400  1
  Se  Se8  1  0.11955400  0.24917000  0.74063900  1
  Se  Se9  1  0.62108400  0.88044600  0.12961600  1
  Se  Se10  1  0.24146900  0.00083000  0.37038400  1
  Se  Se11  1  0.99917000  0.36955400  0.24063900  1
  Se  Se12  1  0.63044600  0.87108400  0.62961600  1
  Se  Se13  1  0.12891600  0.75853100  0.75936100  1
