# generated using pymatgen
data_Tb2MgS4
_symmetry_space_group_name_H-M   'P 1'
_cell_length_a   3.86474500
_cell_length_b   12.65318100
_cell_length_c   13.49250700
_cell_angle_alpha   90.00000000
_cell_angle_beta   90.00000000
_cell_angle_gamma   90.00000000
_symmetry_Int_Tables_number   1
_chemical_formula_structural   Tb2MgS4
_chemical_formula_sum   'Tb8 Mg4 S16'
_cell_volume   659.80137548
_cell_formula_units_Z   4
loop_
 _symmetry_equiv_pos_site_id
 _symmetry_equiv_pos_as_xyz
  1  'x, y, z'
loop_
 _atom_site_type_symbol
 _atom_site_label
 _atom_site_symmetry_multiplicity
 _atom_site_fract_x
 _atom_site_fract_y
 _atom_site_fract_z
 _atom_site_occupancy
  Tb  Tb0  1  0.25000000  0.11751200  0.07578900  1
  Tb  Tb1  1  0.75000000  0.88248800  0.92421100  1
  Tb  Tb2  1  0.75000000  0.38248800  0.57578900  1
  Tb  Tb3  1  0.25000000  0.61751200  0.42421100  1
  Tb  Tb4  1  0.25000000  0.13852000  0.70553200  1
  Tb  Tb5  1  0.75000000  0.86148000  0.29446800  1
  Tb  Tb6  1  0.75000000  0.36148000  0.20553200  1
  Tb  Tb7  1  0.25000000  0.63852000  0.79446800  1
  Mg  Mg8  1  0.75000000  0.11108200  0.45348200  1
  Mg  Mg9  1  0.25000000  0.88891800  0.54651800  1
  Mg  Mg10  1  0.25000000  0.38891800  0.95348200  1
  Mg  Mg11  1  0.75000000  0.61108200  0.04651800  1
  S  S12  1  0.75000000  0.00818300  0.61540500  1
  S  S13  1  0.25000000  0.99181700  0.38459500  1
  S  S14  1  0.25000000  0.49181700  0.11540500  1
  S  S15  1  0.75000000  0.50818300  0.88459500  1
  S  S16  1  0.25000000  0.02715200  0.88342300  1
  S  S17  1  0.75000000  0.97284800  0.11657700  1
  S  S18  1  0.75000000  0.47284800  0.38342300  1
  S  S19  1  0.25000000  0.52715200  0.61657700  1
  S  S20  1  0.25000000  0.22539600  0.24884400  1
  S  S21  1  0.75000000  0.77460400  0.75115600  1
  S  S22  1  0.75000000  0.27460400  0.74884400  1
  S  S23  1  0.25000000  0.72539600  0.25115600  1
  S  S24  1  0.75000000  0.26216300  0.01600500  1
  S  S25  1  0.25000000  0.73783700  0.98399500  1
  S  S26  1  0.25000000  0.23783700  0.51600500  1
  S  S27  1  0.75000000  0.76216300  0.48399500  1
