# generated using pymatgen
data_Lu2MgS4
_symmetry_space_group_name_H-M   'P 1'
_cell_length_a   7.08678812
_cell_length_b   7.08678812
_cell_length_c   7.08678812
_cell_angle_alpha   110.32155222
_cell_angle_beta   110.32155222
_cell_angle_gamma   107.78362395
_symmetry_Int_Tables_number   1
_chemical_formula_structural   Lu2MgS4
_chemical_formula_sum   'Lu4 Mg2 S8'
_cell_volume   273.80716549
_cell_formula_units_Z   2
loop_
 _symmetry_equiv_pos_site_id
 _symmetry_equiv_pos_as_xyz
  1  'x, y, z'
loop_
 _atom_site_type_symbol
 _atom_site_label
 _atom_site_symmetry_multiplicity
 _atom_site_fract_x
 _atom_site_fract_y
 _atom_site_fract_z
 _atom_site_occupancy
  Lu  Lu0  1  0.87500000  0.75745000  0.38245100  1
  Lu  Lu1  1  0.50745000  0.12500000  0.88245000  1
  Lu  Lu2  1  0.37500000  0.49254900  0.61754900  1
  Lu  Lu3  1  0.24254900  0.62500000  0.11754900  1
  Mg  Mg4  1  0.00000000  0.00000000  0.00000000  1
  Mg  Mg5  1  0.75000000  0.25000000  0.50000000  1
  S  S6  1  0.50795100  0.37997600  0.25993500  1
  S  S7  1  0.75198400  0.49204900  0.87202500  1
  S  S8  1  0.12004100  0.24801600  0.74006500  1
  S  S9  1  0.62002400  0.87995900  0.12797500  1
  S  S10  1  0.24204900  0.00198400  0.37202500  1
  S  S11  1  0.99801600  0.37004100  0.24006500  1
  S  S12  1  0.62995900  0.87002400  0.62797500  1
  S  S13  1  0.12997600  0.75795100  0.75993500  1
