# generated using pymatgen
data_Er2MgS4
_symmetry_space_group_name_H-M   'P 1'
_cell_length_a   7.51001900
_cell_length_b   12.57906800
_cell_length_c   12.72624600
_cell_angle_alpha   90.00000000
_cell_angle_beta   90.00000000
_cell_angle_gamma   90.00000000
_symmetry_Int_Tables_number   1
_chemical_formula_structural   Er2MgS4
_chemical_formula_sum   'Er16 Mg8 S32'
_cell_volume   1202.23623838
_cell_formula_units_Z   8
loop_
 _symmetry_equiv_pos_site_id
 _symmetry_equiv_pos_as_xyz
  1  'x, y, z'
loop_
 _atom_site_type_symbol
 _atom_site_label
 _atom_site_symmetry_multiplicity
 _atom_site_fract_x
 _atom_site_fract_y
 _atom_site_fract_z
 _atom_site_occupancy
  Er  Er0  1  0.88540300  0.10850700  0.68570200  1
  Er  Er1  1  0.11459700  0.89149300  0.18570200  1
  Er  Er2  1  0.88540300  0.39149300  0.18570200  1
  Er  Er3  1  0.11459700  0.60850700  0.68570200  1
  Er  Er4  1  0.38384100  0.12657300  0.32625200  1
  Er  Er5  1  0.61615900  0.87342700  0.82625200  1
  Er  Er6  1  0.38384100  0.37342700  0.82625200  1
  Er  Er7  1  0.61615900  0.62657300  0.32625200  1
  Er  Er8  1  0.63115000  0.13433200  0.99239000  1
  Er  Er9  1  0.36885000  0.86566800  0.49239000  1
  Er  Er10  1  0.63115000  0.36566800  0.49239000  1
  Er  Er11  1  0.36885000  0.63433200  0.99239000  1
  Er  Er12  1  0.13090500  0.13464600  0.99192400  1
  Er  Er13  1  0.86909500  0.86535400  0.49192400  1
  Er  Er14  1  0.13090500  0.36535400  0.49192400  1
  Er  Er15  1  0.86909500  0.63464600  0.99192400  1
  Mg  Mg16  1  0.38375900  0.11164700  0.69176600  1
  Mg  Mg17  1  0.61624100  0.88835300  0.19176600  1
  Mg  Mg18  1  0.38375900  0.38835300  0.19176600  1
  Mg  Mg19  1  0.61624100  0.61164700  0.69176600  1
  Mg  Mg20  1  0.88017200  0.12622900  0.32136800  1
  Mg  Mg21  1  0.11982800  0.87377100  0.82136800  1
  Mg  Mg22  1  0.88017200  0.37377100  0.82136800  1
  Mg  Mg23  1  0.11982800  0.62622900  0.32136800  1
  S  S24  1  0.87840500  0.01302400  0.87786700  1
  S  S25  1  0.12159500  0.98697600  0.37786700  1
  S  S26  1  0.87840500  0.48697600  0.37786700  1
  S  S27  1  0.12159500  0.51302400  0.87786700  1
  S  S28  1  0.37915400  0.03094300  0.13077900  1
  S  S29  1  0.62084600  0.96905700  0.63077900  1
  S  S30  1  0.37915400  0.46905700  0.63077900  1
  S  S31  1  0.62084600  0.53094300  0.13077900  1
  S  S32  1  0.37585000  0.02361300  0.87080100  1
  S  S33  1  0.62415000  0.97638700  0.37080100  1
  S  S34  1  0.37585000  0.47638700  0.37080100  1
  S  S35  1  0.62415000  0.52361300  0.87080100  1
  S  S36  1  0.87685400  0.04489200  0.13657700  1
  S  S37  1  0.12314600  0.95510800  0.63657700  1
  S  S38  1  0.87685400  0.45510800  0.63657700  1
  S  S39  1  0.12314600  0.54489200  0.13657700  1
  S  S40  1  0.88161700  0.21136600  0.50211300  1
  S  S41  1  0.11838300  0.78863400  0.00211300  1
  S  S42  1  0.88161700  0.28863400  0.00211300  1
  S  S43  1  0.11838300  0.71136600  0.50211300  1
  S  S44  1  0.38141000  0.21285400  0.51876100  1
  S  S45  1  0.61859000  0.78714600  0.01876100  1
  S  S46  1  0.38141000  0.28714600  0.01876100  1
  S  S47  1  0.61859000  0.71285400  0.51876100  1
  S  S48  1  0.13398000  0.23188400  0.77400400  1
  S  S49  1  0.86602000  0.76811600  0.27400400  1
  S  S50  1  0.13398000  0.26811600  0.27400400  1
  S  S51  1  0.86602000  0.73188400  0.77400400  1
  S  S52  1  0.63661100  0.23382900  0.77669500  1
  S  S53  1  0.36338900  0.76617100  0.27669500  1
  S  S54  1  0.63661100  0.26617100  0.27669500  1
  S  S55  1  0.36338900  0.73382900  0.77669500  1
