# generated using pymatgen
data_ErMgSe3
_symmetry_space_group_name_H-M   'P 1'
_cell_length_a   7.36652754
_cell_length_b   7.36652754
_cell_length_c   6.92844508
_cell_angle_alpha   76.64564285
_cell_angle_beta   76.64564285
_cell_angle_gamma   120.37765148
_symmetry_Int_Tables_number   1
_chemical_formula_structural   ErMgSe3
_chemical_formula_sum   'Er2 Mg2 Se6'
_cell_volume   287.22705771
_cell_formula_units_Z   2
loop_
 _symmetry_equiv_pos_site_id
 _symmetry_equiv_pos_as_xyz
  1  'x, y, z'
loop_
 _atom_site_type_symbol
 _atom_site_label
 _atom_site_symmetry_multiplicity
 _atom_site_fract_x
 _atom_site_fract_y
 _atom_site_fract_z
 _atom_site_occupancy
  Er  Er0  1  0.80531200  0.80531200  0.31848100  1
  Er  Er1  1  0.19468800  0.19468800  0.68151900  1
  Mg  Mg2  1  0.33617800  0.66382200  0.00000000  1
  Mg  Mg3  1  0.66382200  0.33617800  0.00000000  1
  Se  Se4  1  0.22098300  0.87780200  0.21486500  1
  Se  Se5  1  0.77901700  0.12219800  0.78513500  1
  Se  Se6  1  0.12219800  0.77901700  0.78513500  1
  Se  Se7  1  0.87780200  0.22098300  0.21486500  1
  Se  Se8  1  0.53184300  0.53184300  0.74612700  1
  Se  Se9  1  0.46815700  0.46815700  0.25387300  1
