# generated using pymatgen
data_Lu2MgS4
_symmetry_space_group_name_H-M   'P 1'
_cell_length_a   12.46103400
_cell_length_b   7.42936600
_cell_length_c   12.67561100
_cell_angle_alpha   90.00000000
_cell_angle_beta   90.00000000
_cell_angle_gamma   90.00000000
_symmetry_Int_Tables_number   1
_chemical_formula_structural   Lu2MgS4
_chemical_formula_sum   'Lu16 Mg8 S32'
_cell_volume   1173.47742087
_cell_formula_units_Z   8
loop_
 _symmetry_equiv_pos_site_id
 _symmetry_equiv_pos_as_xyz
  1  'x, y, z'
loop_
 _atom_site_type_symbol
 _atom_site_label
 _atom_site_symmetry_multiplicity
 _atom_site_fract_x
 _atom_site_fract_y
 _atom_site_fract_z
 _atom_site_occupancy
  Lu  Lu0  1  0.10876200  0.88283600  0.68629800  1
  Lu  Lu1  1  0.89123800  0.11716400  0.18629800  1
  Lu  Lu2  1  0.39123800  0.88283600  0.18629800  1
  Lu  Lu3  1  0.60876200  0.11716400  0.68629800  1
  Lu  Lu4  1  0.12749700  0.38178000  0.32611200  1
  Lu  Lu5  1  0.87250300  0.61822000  0.82611200  1
  Lu  Lu6  1  0.37250300  0.38178000  0.82611200  1
  Lu  Lu7  1  0.62749700  0.61822000  0.32611200  1
  Lu  Lu8  1  0.13369100  0.62987800  0.99114900  1
  Lu  Lu9  1  0.86630900  0.37012200  0.49114900  1
  Lu  Lu10  1  0.36630900  0.62987800  0.49114900  1
  Lu  Lu11  1  0.63369100  0.37012200  0.99114900  1
  Lu  Lu12  1  0.13365000  0.12971000  0.99055700  1
  Lu  Lu13  1  0.86635000  0.87029000  0.49055700  1
  Lu  Lu14  1  0.36635000  0.12971000  0.49055700  1
  Lu  Lu15  1  0.63365000  0.87029000  0.99055700  1
  Mg  Mg16  1  0.10979700  0.38033100  0.68966900  1
  Mg  Mg17  1  0.89020300  0.61966900  0.18966900  1
  Mg  Mg18  1  0.39020300  0.38033100  0.18966900  1
  Mg  Mg19  1  0.60979700  0.61966900  0.68966900  1
  Mg  Mg20  1  0.12608500  0.87791900  0.32224800  1
  Mg  Mg21  1  0.87391500  0.12208100  0.82224800  1
  Mg  Mg22  1  0.37391500  0.87791900  0.82224800  1
  Mg  Mg23  1  0.62608500  0.12208100  0.32224800  1
  S  S24  1  0.01447800  0.87598000  0.87676700  1
  S  S25  1  0.98552200  0.12402100  0.37676700  1
  S  S26  1  0.48552200  0.87598000  0.37676700  1
  S  S27  1  0.51447800  0.12402100  0.87676700  1
  S  S28  1  0.03416300  0.37554500  0.13176900  1
  S  S29  1  0.96583700  0.62445500  0.63176900  1
  S  S30  1  0.46583700  0.37554500  0.63176900  1
  S  S31  1  0.53416300  0.62445500  0.13176900  1
  S  S32  1  0.02080500  0.37564200  0.87176300  1
  S  S33  1  0.97919500  0.62435800  0.37176300  1
  S  S34  1  0.47919500  0.37564200  0.37176300  1
  S  S35  1  0.52080500  0.62435800  0.87176300  1
  S  S36  1  0.04123400  0.87559000  0.13520100  1
  S  S37  1  0.95876600  0.12441000  0.63520100  1
  S  S38  1  0.45876600  0.87559000  0.63520100  1
  S  S39  1  0.54123400  0.12441000  0.13520100  1
  S  S40  1  0.21334200  0.88044900  0.50524700  1
  S  S41  1  0.78665800  0.11955100  0.00524700  1
  S  S42  1  0.28665800  0.88044900  0.00524700  1
  S  S43  1  0.71334200  0.11955100  0.50524700  1
  S  S44  1  0.21437100  0.38015100  0.51663900  1
  S  S45  1  0.78562900  0.61984900  0.01663900  1
  S  S46  1  0.28562900  0.38015100  0.01663900  1
  S  S47  1  0.71437100  0.61984900  0.51663900  1
  S  S48  1  0.23172500  0.13009900  0.77643700  1
  S  S49  1  0.76827500  0.86990100  0.27643700  1
  S  S50  1  0.26827500  0.13009900  0.27643700  1
  S  S51  1  0.73172500  0.86990100  0.77643700  1
  S  S52  1  0.23232600  0.63264300  0.77714600  1
  S  S53  1  0.76767400  0.36735700  0.27714600  1
  S  S54  1  0.26767400  0.63264300  0.27714600  1
  S  S55  1  0.73232600  0.36735700  0.77714600  1
