# generated using pymatgen
data_LaMgSe3
_symmetry_space_group_name_H-M   'P 1'
_cell_length_a   7.36619708
_cell_length_b   7.36619708
_cell_length_c   6.81784891
_cell_angle_alpha   76.79524257
_cell_angle_beta   76.79524257
_cell_angle_gamma   113.95632066
_symmetry_Int_Tables_number   1
_chemical_formula_structural   LaMgSe3
_chemical_formula_sum   'La2 Mg2 Se6'
_cell_volume   306.93939416
_cell_formula_units_Z   2
loop_
 _symmetry_equiv_pos_site_id
 _symmetry_equiv_pos_as_xyz
  1  'x, y, z'
loop_
 _atom_site_type_symbol
 _atom_site_label
 _atom_site_symmetry_multiplicity
 _atom_site_fract_x
 _atom_site_fract_y
 _atom_site_fract_z
 _atom_site_occupancy
  La  La0  1  0.19463700  0.19463700  0.69258900  1
  La  La1  1  0.80536300  0.80536300  0.30741100  1
  Mg  Mg2  1  0.33389200  0.66610800  0.00000000  1
  Mg  Mg3  1  0.66610800  0.33389200  0.00000000  1
  Se  Se4  1  0.09709200  0.75478100  0.79057200  1
  Se  Se5  1  0.90290800  0.24521900  0.20942800  1
  Se  Se6  1  0.24521900  0.90290800  0.20942800  1
  Se  Se7  1  0.75478100  0.09709200  0.79057200  1
  Se  Se8  1  0.46672500  0.46672500  0.25646800  1
  Se  Se9  1  0.53327500  0.53327500  0.74353200  1
