# generated using pymatgen
data_Mg(ScSe2)2
_symmetry_space_group_name_H-M   'P 1'
_cell_length_a   3.80803000
_cell_length_b   12.66135500
_cell_length_c   13.29263000
_cell_angle_alpha   90.00000000
_cell_angle_beta   90.00000000
_cell_angle_gamma   90.00000000
_symmetry_Int_Tables_number   1
_chemical_formula_structural   Mg(ScSe2)2
_chemical_formula_sum   'Mg4 Sc8 Se16'
_cell_volume   640.90175853
_cell_formula_units_Z   4
loop_
 _symmetry_equiv_pos_site_id
 _symmetry_equiv_pos_as_xyz
  1  'x, y, z'
loop_
 _atom_site_type_symbol
 _atom_site_label
 _atom_site_symmetry_multiplicity
 _atom_site_fract_x
 _atom_site_fract_y
 _atom_site_fract_z
 _atom_site_occupancy
  Mg  Mg0  1  0.75000000  0.12662400  0.42325500  1
  Mg  Mg1  1  0.25000000  0.87337600  0.57674500  1
  Mg  Mg2  1  0.25000000  0.37337600  0.92325500  1
  Mg  Mg3  1  0.75000000  0.62662400  0.07674500  1
  Sc  Sc4  1  0.25000000  0.10896300  0.08029300  1
  Sc  Sc5  1  0.75000000  0.89103700  0.91970700  1
  Sc  Sc6  1  0.75000000  0.39103700  0.58029300  1
  Sc  Sc7  1  0.25000000  0.60896300  0.41970700  1
  Sc  Sc8  1  0.25000000  0.14705000  0.70285500  1
  Sc  Sc9  1  0.75000000  0.85295000  0.29714500  1
  Sc  Sc10  1  0.75000000  0.35295000  0.20285500  1
  Sc  Sc11  1  0.25000000  0.64705000  0.79714500  1
  Se  Se12  1  0.75000000  0.02647900  0.61187700  1
  Se  Se13  1  0.25000000  0.97352100  0.38812300  1
  Se  Se14  1  0.25000000  0.47352100  0.11187700  1
  Se  Se15  1  0.75000000  0.52647900  0.88812300  1
  Se  Se16  1  0.25000000  0.03457800  0.88020500  1
  Se  Se17  1  0.75000000  0.96542200  0.11979500  1
  Se  Se18  1  0.75000000  0.46542200  0.38020500  1
  Se  Se19  1  0.25000000  0.53457800  0.61979500  1
  Se  Se20  1  0.25000000  0.21510200  0.26028000  1
  Se  Se21  1  0.75000000  0.78489800  0.73972000  1
  Se  Se22  1  0.75000000  0.28489800  0.76028000  1
  Se  Se23  1  0.25000000  0.71510200  0.23972000  1
  Se  Se24  1  0.75000000  0.24770100  0.02307400  1
  Se  Se25  1  0.25000000  0.75229900  0.97692600  1
  Se  Se26  1  0.25000000  0.25229900  0.52307400  1
  Se  Se27  1  0.75000000  0.74770100  0.47692600  1
