# generated using pymatgen
data_Er2MgSe4
_symmetry_space_group_name_H-M   'P 1'
_cell_length_a   8.16612700
_cell_length_b   7.71617300
_cell_length_c   11.93539300
_cell_angle_alpha   90.00000000
_cell_angle_beta   90.00000000
_cell_angle_gamma   90.00000000
_symmetry_Int_Tables_number   1
_chemical_formula_structural   Er2MgSe4
_chemical_formula_sum   'Er8 Mg4 Se16'
_cell_volume   752.06401632
_cell_formula_units_Z   4
loop_
 _symmetry_equiv_pos_site_id
 _symmetry_equiv_pos_as_xyz
  1  'x, y, z'
loop_
 _atom_site_type_symbol
 _atom_site_label
 _atom_site_symmetry_multiplicity
 _atom_site_fract_x
 _atom_site_fract_y
 _atom_site_fract_z
 _atom_site_occupancy
  Er  Er0  1  0.04495900  0.75000000  0.31235300  1
  Er  Er1  1  0.95504100  0.25000000  0.68764700  1
  Er  Er2  1  0.45504100  0.25000000  0.81235300  1
  Er  Er3  1  0.54495900  0.75000000  0.18764700  1
  Er  Er4  1  0.06343600  0.25000000  0.01940000  1
  Er  Er5  1  0.93656400  0.75000000  0.98060000  1
  Er  Er6  1  0.43656400  0.75000000  0.51940000  1
  Er  Er7  1  0.56343600  0.25000000  0.48060000  1
  Mg  Mg8  1  0.18332800  0.25000000  0.40663600  1
  Mg  Mg9  1  0.81667200  0.75000000  0.59336400  1
  Mg  Mg10  1  0.31667200  0.75000000  0.90663600  1
  Mg  Mg11  1  0.68332800  0.25000000  0.09336400  1
  Se  Se12  1  0.12539600  0.50285600  0.84256800  1
  Se  Se13  1  0.87460400  0.49714400  0.15743200  1
  Se  Se14  1  0.37460400  0.49714400  0.34256800  1
  Se  Se15  1  0.62539600  0.50285600  0.65743200  1
  Se  Se16  1  0.62539600  0.99714400  0.65743200  1
  Se  Se17  1  0.37460400  0.00285600  0.34256800  1
  Se  Se18  1  0.87460400  0.00285600  0.15743200  1
  Se  Se19  1  0.12539600  0.99714400  0.84256800  1
  Se  Se20  1  0.89029800  0.25000000  0.45676700  1
  Se  Se21  1  0.10970200  0.75000000  0.54323300  1
  Se  Se22  1  0.60970200  0.75000000  0.95676700  1
  Se  Se23  1  0.39029800  0.25000000  0.04323300  1
  Se  Se24  1  0.22340900  0.75000000  0.11539500  1
  Se  Se25  1  0.77659100  0.25000000  0.88460500  1
  Se  Se26  1  0.27659100  0.25000000  0.61539500  1
  Se  Se27  1  0.72340900  0.75000000  0.38460500  1
