# generated using pymatgen
data_Er2MgS4
_symmetry_space_group_name_H-M   'P 1'
_cell_length_a   7.92863000
_cell_length_b   7.24315200
_cell_length_c   11.33280200
_cell_angle_alpha   90.00000000
_cell_angle_beta   90.00000000
_cell_angle_gamma   90.00072520
_symmetry_Int_Tables_number   1
_chemical_formula_structural   Er2MgS4
_chemical_formula_sum   'Er8 Mg4 S16'
_cell_volume   650.82323849
_cell_formula_units_Z   4
loop_
 _symmetry_equiv_pos_site_id
 _symmetry_equiv_pos_as_xyz
  1  'x, y, z'
loop_
 _atom_site_type_symbol
 _atom_site_label
 _atom_site_symmetry_multiplicity
 _atom_site_fract_x
 _atom_site_fract_y
 _atom_site_fract_z
 _atom_site_occupancy
  Er  Er0  1  0.03463500  0.75000500  0.31076000  1
  Er  Er1  1  0.96536500  0.24999500  0.68924000  1
  Er  Er2  1  0.46536500  0.24999500  0.81076000  1
  Er  Er3  1  0.53463500  0.75000500  0.18924000  1
  Er  Er4  1  0.07470600  0.24998600  0.02056200  1
  Er  Er5  1  0.92529400  0.75001400  0.97943800  1
  Er  Er6  1  0.42529400  0.75001400  0.52056200  1
  Er  Er7  1  0.57470600  0.24998600  0.47943800  1
  Mg  Mg8  1  0.18453100  0.25000000  0.40865200  1
  Mg  Mg9  1  0.81546900  0.75000000  0.59134800  1
  Mg  Mg10  1  0.31546900  0.75000000  0.90865200  1
  Mg  Mg11  1  0.68453100  0.25000000  0.09134800  1
  S  S12  1  0.12954300  0.49976800  0.84324500  1
  S  S13  1  0.87045700  0.50023200  0.15675500  1
  S  S14  1  0.37045700  0.50023200  0.34324500  1
  S  S15  1  0.62954300  0.49976800  0.65675500  1
  S  S16  1  0.62954800  0.00022200  0.65675500  1
  S  S17  1  0.37045200  0.99977800  0.34324500  1
  S  S18  1  0.87045200  0.99977800  0.15675500  1
  S  S19  1  0.12954800  0.00022200  0.84324500  1
  S  S20  1  0.89755100  0.25000000  0.45453600  1
  S  S21  1  0.10244900  0.75000000  0.54546400  1
  S  S22  1  0.60244900  0.75000000  0.95453600  1
  S  S23  1  0.39755100  0.25000000  0.04546400  1
  S  S24  1  0.21598000  0.74999400  0.11185600  1
  S  S25  1  0.78402000  0.25000600  0.88814400  1
  S  S26  1  0.28402000  0.25000600  0.61185600  1
  S  S27  1  0.71598000  0.74999400  0.38814400  1
