# generated using pymatgen
data_Ho2MgSe4
_symmetry_space_group_name_H-M   'P 1'
_cell_length_a   7.51396567
_cell_length_b   7.51396567
_cell_length_c   7.51396567
_cell_angle_alpha   110.48732439
_cell_angle_beta   110.48732439
_cell_angle_gamma   107.45758492
_symmetry_Int_Tables_number   1
_chemical_formula_structural   Ho2MgSe4
_chemical_formula_sum   'Ho4 Mg2 Se8'
_cell_volume   326.27589250
_cell_formula_units_Z   2
loop_
 _symmetry_equiv_pos_site_id
 _symmetry_equiv_pos_as_xyz
  1  'x, y, z'
loop_
 _atom_site_type_symbol
 _atom_site_label
 _atom_site_symmetry_multiplicity
 _atom_site_fract_x
 _atom_site_fract_y
 _atom_site_fract_z
 _atom_site_occupancy
  Ho  Ho0  1  0.87500000  0.75694600  0.38194600  1
  Ho  Ho1  1  0.50694600  0.12500000  0.88194600  1
  Ho  Ho2  1  0.37500000  0.49305400  0.61805400  1
  Ho  Ho3  1  0.24305400  0.62500000  0.11805400  1
  Mg  Mg4  1  0.00000000  0.00000000  0.00000000  1
  Mg  Mg5  1  0.75000000  0.25000000  0.50000000  1
  Se  Se6  1  0.50710800  0.37844300  0.26211200  1
  Se  Se7  1  0.75500400  0.49289200  0.87133500  1
  Se  Se8  1  0.11633100  0.24499600  0.73788800  1
  Se  Se9  1  0.62155700  0.88366900  0.12866500  1
  Se  Se10  1  0.24289200  0.00500400  0.37133500  1
  Se  Se11  1  0.99499600  0.36633100  0.23788800  1
  Se  Se12  1  0.63366900  0.87155700  0.62866500  1
  Se  Se13  1  0.12844300  0.75710800  0.76211200  1
