# generated using pymatgen
data_Mg(ScSe2)2
_symmetry_space_group_name_H-M   'P 1'
_cell_length_a   7.56867500
_cell_length_b   12.73784000
_cell_length_c   13.08248000
_cell_angle_alpha   90.00000000
_cell_angle_beta   90.00000000
_cell_angle_gamma   90.00000000
_symmetry_Int_Tables_number   1
_chemical_formula_structural   Mg(ScSe2)2
_chemical_formula_sum   'Mg8 Sc16 Se32'
_cell_volume   1261.26320406
_cell_formula_units_Z   8
loop_
 _symmetry_equiv_pos_site_id
 _symmetry_equiv_pos_as_xyz
  1  'x, y, z'
loop_
 _atom_site_type_symbol
 _atom_site_label
 _atom_site_symmetry_multiplicity
 _atom_site_fract_x
 _atom_site_fract_y
 _atom_site_fract_z
 _atom_site_occupancy
  Mg  Mg0  1  0.37981000  0.10934300  0.68694500  1
  Mg  Mg1  1  0.62019000  0.89065700  0.18694500  1
  Mg  Mg2  1  0.37981000  0.39065700  0.18694500  1
  Mg  Mg3  1  0.62019000  0.60934300  0.68694500  1
  Mg  Mg4  1  0.87833200  0.12567700  0.32298500  1
  Mg  Mg5  1  0.12166800  0.87432300  0.82298500  1
  Mg  Mg6  1  0.87833200  0.37432300  0.82298500  1
  Mg  Mg7  1  0.12166800  0.62567700  0.32298500  1
  Sc  Sc8  1  0.88086600  0.10713800  0.68696700  1
  Sc  Sc9  1  0.11913400  0.89286200  0.18696700  1
  Sc  Sc10  1  0.88086600  0.39286200  0.18696700  1
  Sc  Sc11  1  0.11913400  0.60713800  0.68696700  1
  Sc  Sc12  1  0.38001300  0.12845100  0.32656400  1
  Sc  Sc13  1  0.61998700  0.87154900  0.82656400  1
  Sc  Sc14  1  0.38001300  0.37154900  0.82656400  1
  Sc  Sc15  1  0.61998700  0.62845100  0.32656400  1
  Sc  Sc16  1  0.62839200  0.13285900  0.98737200  1
  Sc  Sc17  1  0.37160800  0.86714100  0.48737200  1
  Sc  Sc18  1  0.62839200  0.36714100  0.48737200  1
  Sc  Sc19  1  0.37160800  0.63285900  0.98737200  1
  Sc  Sc20  1  0.12924300  0.13194600  0.98963500  1
  Sc  Sc21  1  0.87075700  0.86805400  0.48963500  1
  Sc  Sc22  1  0.12924300  0.36805400  0.48963500  1
  Sc  Sc23  1  0.87075700  0.63194600  0.98963500  1
  Se  Se24  1  0.87143700  0.01637400  0.87518100  1
  Se  Se25  1  0.12856300  0.98362600  0.37518100  1
  Se  Se26  1  0.87143700  0.48362600  0.37518100  1
  Se  Se27  1  0.12856300  0.51637400  0.87518100  1
  Se  Se28  1  0.36946700  0.03912300  0.13198000  1
  Se  Se29  1  0.63053300  0.96087700  0.63198000  1
  Se  Se30  1  0.36946700  0.46087700  0.63198000  1
  Se  Se31  1  0.63053300  0.53912300  0.13198000  1
  Se  Se32  1  0.37917900  0.01826600  0.87304700  1
  Se  Se33  1  0.62082100  0.98173400  0.37304700  1
  Se  Se34  1  0.37917900  0.48173400  0.37304700  1
  Se  Se35  1  0.62082100  0.51826600  0.87304700  1
  Se  Se36  1  0.87725800  0.03817900  0.13209000  1
  Se  Se37  1  0.12274200  0.96182100  0.63209000  1
  Se  Se38  1  0.87725800  0.46182100  0.63209000  1
  Se  Se39  1  0.12274200  0.53817900  0.13209000  1
  Se  Se40  1  0.87965300  0.21576000  0.51103700  1
  Se  Se41  1  0.12034700  0.78424000  0.01103700  1
  Se  Se42  1  0.87965300  0.28424000  0.01103700  1
  Se  Se43  1  0.12034700  0.71576000  0.51103700  1
  Se  Se44  1  0.37878600  0.21639400  0.51262800  1
  Se  Se45  1  0.62121400  0.78360600  0.01262800  1
  Se  Se46  1  0.37878600  0.28360600  0.01262800  1
  Se  Se47  1  0.62121400  0.71639400  0.51262800  1
  Se  Se48  1  0.12825800  0.22913100  0.78112800  1
  Se  Se49  1  0.87174200  0.77086900  0.28112800  1
  Se  Se50  1  0.12825800  0.27086900  0.28112800  1
  Se  Se51  1  0.87174200  0.72913100  0.78112800  1
  Se  Se52  1  0.63053300  0.23100700  0.77944100  1
  Se  Se53  1  0.36946700  0.76899300  0.27944100  1
  Se  Se54  1  0.63053300  0.26899300  0.27944100  1
  Se  Se55  1  0.36946700  0.73100700  0.77944100  1
