# generated using pymatgen
data_NdMgS3
_symmetry_space_group_name_H-M   'P 1'
_cell_length_a   7.80863315
_cell_length_b   11.61294800
_cell_length_c   7.67580098
_cell_angle_alpha   90.00000000
_cell_angle_beta   127.17855274
_cell_angle_gamma   90.00000000
_symmetry_Int_Tables_number   1
_chemical_formula_structural   NdMgS3
_chemical_formula_sum   'Nd4 Mg4 S12'
_cell_volume   554.58312046
_cell_formula_units_Z   4
loop_
 _symmetry_equiv_pos_site_id
 _symmetry_equiv_pos_as_xyz
  1  'x, y, z'
loop_
 _atom_site_type_symbol
 _atom_site_label
 _atom_site_symmetry_multiplicity
 _atom_site_fract_x
 _atom_site_fract_y
 _atom_site_fract_z
 _atom_site_occupancy
  Nd  Nd0  1  0.04586100  0.00000000  0.25981000  1
  Nd  Nd1  1  0.95413900  0.00000000  0.74019000  1
  Nd  Nd2  1  0.54586100  0.50000000  0.25981000  1
  Nd  Nd3  1  0.45413900  0.50000000  0.74019000  1
  Mg  Mg4  1  0.00000000  0.33993200  0.00000000  1
  Mg  Mg5  1  0.00000000  0.66006800  0.00000000  1
  Mg  Mg6  1  0.50000000  0.83993200  0.00000000  1
  Mg  Mg7  1  0.50000000  0.16006800  0.00000000  1
  S  S8  1  0.22592300  0.15174700  0.13360000  1
  S  S9  1  0.77407700  0.84825300  0.86640000  1
  S  S10  1  0.77407700  0.15174700  0.86640000  1
  S  S11  1  0.22592300  0.84825300  0.13360000  1
  S  S12  1  0.72592300  0.65174700  0.13360000  1
  S  S13  1  0.27407700  0.34825300  0.86640000  1
  S  S14  1  0.27407700  0.65174700  0.86640000  1
  S  S15  1  0.72592300  0.34825300  0.13360000  1
  S  S16  1  0.30031400  0.00000000  0.71677300  1
  S  S17  1  0.69968600  0.00000000  0.28322700  1
  S  S18  1  0.80031400  0.50000000  0.71677300  1
  S  S19  1  0.19968600  0.50000000  0.28322700  1
