# generated using pymatgen
data_MgScS3
_symmetry_space_group_name_H-M   'P 1'
_cell_length_a   6.85093240
_cell_length_b   6.85093240
_cell_length_c   6.79651539
_cell_angle_alpha   75.33910699
_cell_angle_beta   75.33910699
_cell_angle_gamma   119.27273035
_symmetry_Int_Tables_number   1
_chemical_formula_structural   MgScS3
_chemical_formula_sum   'Mg2 Sc2 S6'
_cell_volume   240.86843500
_cell_formula_units_Z   2
loop_
 _symmetry_equiv_pos_site_id
 _symmetry_equiv_pos_as_xyz
  1  'x, y, z'
loop_
 _atom_site_type_symbol
 _atom_site_label
 _atom_site_symmetry_multiplicity
 _atom_site_fract_x
 _atom_site_fract_y
 _atom_site_fract_z
 _atom_site_occupancy
  Mg  Mg0  1  0.65839200  0.34160800  0.00000000  1
  Mg  Mg1  1  0.34160800  0.65839200  0.00000000  1
  Sc  Sc2  1  0.91816900  0.91816900  0.29099800  1
  Sc  Sc3  1  0.08183100  0.08183100  0.70900200  1
  S  S4  1  0.61482700  0.93227400  0.17485700  1
  S  S5  1  0.38517300  0.06772600  0.82514300  1
  S  S6  1  0.06772600  0.38517300  0.82514300  1
  S  S7  1  0.93227400  0.61482700  0.17485700  1
  S  S8  1  0.71786700  0.71786700  0.71296900  1
  S  S9  1  0.28213300  0.28213300  0.28703100  1
