# generated using pymatgen
data_Ho2MgSe4
_symmetry_space_group_name_H-M   'P 1'
_cell_length_a   7.86646500
_cell_length_b   13.18903800
_cell_length_c   13.42999300
_cell_angle_alpha   90.00000000
_cell_angle_beta   90.00000000
_cell_angle_gamma   90.00000000
_symmetry_Int_Tables_number   1
_chemical_formula_structural   Ho2MgSe4
_chemical_formula_sum   'Ho16 Mg8 Se32'
_cell_volume   1393.37662478
_cell_formula_units_Z   8
loop_
 _symmetry_equiv_pos_site_id
 _symmetry_equiv_pos_as_xyz
  1  'x, y, z'
loop_
 _atom_site_type_symbol
 _atom_site_label
 _atom_site_symmetry_multiplicity
 _atom_site_fract_x
 _atom_site_fract_y
 _atom_site_fract_z
 _atom_site_occupancy
  Ho  Ho0  1  0.88269700  0.10779600  0.68595500  1
  Ho  Ho1  1  0.11730300  0.89220400  0.18595500  1
  Ho  Ho2  1  0.88269700  0.39220400  0.18595500  1
  Ho  Ho3  1  0.11730300  0.60779600  0.68595500  1
  Ho  Ho4  1  0.38128900  0.12750700  0.32639500  1
  Ho  Ho5  1  0.61871100  0.87249300  0.82639500  1
  Ho  Ho6  1  0.38128900  0.37249300  0.82639500  1
  Ho  Ho7  1  0.61871100  0.62750700  0.32639500  1
  Ho  Ho8  1  0.62873100  0.13325400  0.99034000  1
  Ho  Ho9  1  0.37126900  0.86674600  0.49034000  1
  Ho  Ho10  1  0.62873100  0.36674600  0.49034000  1
  Ho  Ho11  1  0.37126900  0.63325400  0.99034000  1
  Ho  Ho12  1  0.12902700  0.13337000  0.99103300  1
  Ho  Ho13  1  0.87097300  0.86663000  0.49103300  1
  Ho  Ho14  1  0.12902700  0.36663000  0.49103300  1
  Ho  Ho15  1  0.87097300  0.63337000  0.99103300  1
  Mg  Mg16  1  0.38250200  0.11141600  0.69060500  1
  Mg  Mg17  1  0.61749800  0.88858400  0.19060500  1
  Mg  Mg18  1  0.38250200  0.38858400  0.19060500  1
  Mg  Mg19  1  0.61749800  0.61141600  0.69060500  1
  Mg  Mg20  1  0.87906900  0.12631500  0.32108700  1
  Mg  Mg21  1  0.12093100  0.87368500  0.82108700  1
  Mg  Mg22  1  0.87906900  0.37368500  0.82108700  1
  Mg  Mg23  1  0.12093100  0.62631500  0.32108700  1
  Se  Se24  1  0.87698900  0.01326300  0.87748000  1
  Se  Se25  1  0.12301100  0.98673700  0.37748000  1
  Se  Se26  1  0.87698900  0.48673700  0.37748000  1
  Se  Se27  1  0.12301100  0.51326300  0.87748000  1
  Se  Se28  1  0.37644700  0.03473200  0.13029100  1
  Se  Se29  1  0.62355300  0.96526800  0.63029100  1
  Se  Se30  1  0.37644700  0.46526800  0.63029100  1
  Se  Se31  1  0.62355300  0.53473200  0.13029100  1
  Se  Se32  1  0.37303700  0.02132000  0.86911100  1
  Se  Se33  1  0.62696300  0.97868000  0.36911100  1
  Se  Se34  1  0.37303700  0.47868000  0.36911100  1
  Se  Se35  1  0.62696300  0.52132000  0.86911100  1
  Se  Se36  1  0.87268700  0.04189900  0.13596600  1
  Se  Se37  1  0.12731300  0.95810100  0.63596600  1
  Se  Se38  1  0.87268700  0.45810100  0.63596600  1
  Se  Se39  1  0.12731300  0.54189900  0.13596600  1
  Se  Se40  1  0.87941800  0.21178900  0.50347600  1
  Se  Se41  1  0.12058200  0.78821100  0.00347600  1
  Se  Se42  1  0.87941800  0.28821100  0.00347600  1
  Se  Se43  1  0.12058200  0.71178900  0.50347600  1
  Se  Se44  1  0.37964400  0.21253100  0.51853600  1
  Se  Se45  1  0.62035600  0.78746900  0.01853600  1
  Se  Se46  1  0.37964400  0.28746900  0.01853600  1
  Se  Se47  1  0.62035600  0.71253100  0.51853600  1
  Se  Se48  1  0.12826700  0.23135900  0.77809500  1
  Se  Se49  1  0.87173300  0.76864100  0.27809500  1
  Se  Se50  1  0.12826700  0.26864100  0.27809500  1
  Se  Se51  1  0.87173300  0.73135900  0.77809500  1
  Se  Se52  1  0.63194300  0.23066600  0.77863000  1
  Se  Se53  1  0.36805700  0.76933400  0.27863000  1
  Se  Se54  1  0.63194300  0.26933400  0.27863000  1
  Se  Se55  1  0.36805700  0.73066600  0.77863000  1
