# generated using pymatgen
data_Yb2MgS4
_symmetry_space_group_name_H-M   'P 1'
_cell_length_a   3.95259600
_cell_length_b   12.75914400
_cell_length_c   13.57123700
_cell_angle_alpha   90.00000000
_cell_angle_beta   90.00000000
_cell_angle_gamma   90.00000000
_symmetry_Int_Tables_number   1
_chemical_formula_structural   Yb2MgS4
_chemical_formula_sum   'Yb8 Mg4 S16'
_cell_volume   684.42111673
_cell_formula_units_Z   4
loop_
 _symmetry_equiv_pos_site_id
 _symmetry_equiv_pos_as_xyz
  1  'x, y, z'
loop_
 _atom_site_type_symbol
 _atom_site_label
 _atom_site_symmetry_multiplicity
 _atom_site_fract_x
 _atom_site_fract_y
 _atom_site_fract_z
 _atom_site_occupancy
  Yb  Yb0  1  0.25000000  0.05464000  0.11412900  1
  Yb  Yb1  1  0.75000000  0.94536000  0.88587100  1
  Yb  Yb2  1  0.75000000  0.55464000  0.38587100  1
  Yb  Yb3  1  0.25000000  0.44536000  0.61412900  1
  Yb  Yb4  1  0.25000000  0.72848400  0.12323600  1
  Yb  Yb5  1  0.75000000  0.27151600  0.87676400  1
  Yb  Yb6  1  0.75000000  0.22848400  0.37676400  1
  Yb  Yb7  1  0.25000000  0.77151600  0.62323600  1
  Mg  Mg8  1  0.75000000  0.43656000  0.08933900  1
  Mg  Mg9  1  0.25000000  0.56344000  0.91066100  1
  Mg  Mg10  1  0.25000000  0.93656000  0.41066100  1
  Mg  Mg11  1  0.75000000  0.06344000  0.58933900  1
  S  S12  1  0.75000000  0.61792200  0.02595300  1
  S  S13  1  0.25000000  0.38207800  0.97404700  1
  S  S14  1  0.25000000  0.11792200  0.47404700  1
  S  S15  1  0.75000000  0.88207800  0.52595300  1
  S  S16  1  0.25000000  0.88225200  0.99910900  1
  S  S17  1  0.75000000  0.11774800  0.00089100  1
  S  S18  1  0.75000000  0.38225200  0.50089100  1
  S  S19  1  0.25000000  0.61774800  0.49910900  1
  S  S20  1  0.25000000  0.27856200  0.23748600  1
  S  S21  1  0.75000000  0.72143800  0.76251400  1
  S  S22  1  0.75000000  0.77856200  0.26251400  1
  S  S23  1  0.25000000  0.22143800  0.73748600  1
  S  S24  1  0.75000000  0.94560200  0.27344800  1
  S  S25  1  0.25000000  0.05439800  0.72655200  1
  S  S26  1  0.25000000  0.44560200  0.22655200  1
  S  S27  1  0.75000000  0.55439800  0.77344800  1
