# generated using pymatgen
data_Pm2MgSe4
_symmetry_space_group_name_H-M   'P 1'
_cell_length_a   8.09105400
_cell_length_b   13.51857500
_cell_length_c   13.62382900
_cell_angle_alpha   90.00000000
_cell_angle_beta   90.00000000
_cell_angle_gamma   90.00000000
_symmetry_Int_Tables_number   1
_chemical_formula_structural   Pm2MgSe4
_chemical_formula_sum   'Pm16 Mg8 Se32'
_cell_volume   1490.16788105
_cell_formula_units_Z   8
loop_
 _symmetry_equiv_pos_site_id
 _symmetry_equiv_pos_as_xyz
  1  'x, y, z'
loop_
 _atom_site_type_symbol
 _atom_site_label
 _atom_site_symmetry_multiplicity
 _atom_site_fract_x
 _atom_site_fract_y
 _atom_site_fract_z
 _atom_site_occupancy
  Pm  Pm0  1  0.88352400  0.10806500  0.68497300  1
  Pm  Pm1  1  0.11647600  0.89193500  0.18497300  1
  Pm  Pm2  1  0.88352400  0.39193500  0.18497300  1
  Pm  Pm3  1  0.11647600  0.60806500  0.68497300  1
  Pm  Pm4  1  0.38205500  0.12744400  0.32635800  1
  Pm  Pm5  1  0.61794500  0.87255600  0.82635800  1
  Pm  Pm6  1  0.38205500  0.37255600  0.82635800  1
  Pm  Pm7  1  0.61794500  0.62744400  0.32635800  1
  Pm  Pm8  1  0.62851100  0.13362300  0.99180600  1
  Pm  Pm9  1  0.37148900  0.86637700  0.49180600  1
  Pm  Pm10  1  0.62851100  0.36637700  0.49180600  1
  Pm  Pm11  1  0.37148900  0.63362300  0.99180600  1
  Pm  Pm12  1  0.12882800  0.13453100  0.99273400  1
  Pm  Pm13  1  0.87117200  0.86546900  0.49273400  1
  Pm  Pm14  1  0.12882800  0.36546900  0.49273400  1
  Pm  Pm15  1  0.87117200  0.63453100  0.99273400  1
  Mg  Mg16  1  0.38285500  0.11135100  0.69241500  1
  Mg  Mg17  1  0.61714500  0.88864900  0.19241500  1
  Mg  Mg18  1  0.38285500  0.38864900  0.19241500  1
  Mg  Mg19  1  0.61714500  0.61135100  0.69241500  1
  Mg  Mg20  1  0.87877300  0.12638000  0.31983000  1
  Mg  Mg21  1  0.12122700  0.87362000  0.81983000  1
  Mg  Mg22  1  0.87877300  0.37362000  0.81983000  1
  Mg  Mg23  1  0.12122700  0.62638000  0.31983000  1
  Se  Se24  1  0.88039700  0.01073100  0.87936800  1
  Se  Se25  1  0.11960300  0.98926900  0.37936800  1
  Se  Se26  1  0.88039700  0.48926900  0.37936800  1
  Se  Se27  1  0.11960300  0.51073100  0.87936800  1
  Se  Se28  1  0.38034300  0.03090800  0.12861200  1
  Se  Se29  1  0.61965700  0.96909200  0.62861200  1
  Se  Se30  1  0.38034300  0.46909200  0.62861200  1
  Se  Se31  1  0.61965700  0.53090800  0.12861200  1
  Se  Se32  1  0.37106000  0.02341500  0.86714700  1
  Se  Se33  1  0.62894000  0.97658500  0.36714700  1
  Se  Se34  1  0.37106000  0.47658500  0.36714700  1
  Se  Se35  1  0.62894000  0.52341500  0.86714700  1
  Se  Se36  1  0.87154700  0.04511200  0.13866000  1
  Se  Se37  1  0.12845300  0.95488800  0.63866000  1
  Se  Se38  1  0.87154700  0.45488800  0.63866000  1
  Se  Se39  1  0.12845300  0.54511200  0.13866000  1
  Se  Se40  1  0.87912900  0.20989200  0.49841700  1
  Se  Se41  1  0.12087100  0.79010800  0.99841700  1
  Se  Se42  1  0.87912900  0.29010800  0.99841700  1
  Se  Se43  1  0.12087100  0.70989200  0.49841700  1
  Se  Se44  1  0.38017900  0.21040300  0.52239900  1
  Se  Se45  1  0.61982100  0.78959700  0.02239900  1
  Se  Se46  1  0.38017900  0.28959700  0.02239900  1
  Se  Se47  1  0.61982100  0.71040300  0.52239900  1
  Se  Se48  1  0.12865900  0.23235000  0.77613400  1
  Se  Se49  1  0.87134100  0.76765000  0.27613400  1
  Se  Se50  1  0.12865900  0.26765000  0.27613400  1
  Se  Se51  1  0.87134100  0.73235000  0.77613400  1
  Se  Se52  1  0.63251800  0.23045600  0.77814900  1
  Se  Se53  1  0.36748200  0.76954400  0.27814900  1
  Se  Se54  1  0.63251800  0.26954400  0.27814900  1
  Se  Se55  1  0.36748200  0.73045600  0.77814900  1
