# generated using pymatgen
data_Y2MgSe4
_symmetry_space_group_name_H-M   'P 1'
_cell_length_a   7.90762600
_cell_length_b   13.23445800
_cell_length_c   13.43842700
_cell_angle_alpha   90.00000000
_cell_angle_beta   90.00000000
_cell_angle_gamma   90.00000000
_symmetry_Int_Tables_number   1
_chemical_formula_structural   Y2MgSe4
_chemical_formula_sum   'Y16 Mg8 Se32'
_cell_volume   1406.37363834
_cell_formula_units_Z   8
loop_
 _symmetry_equiv_pos_site_id
 _symmetry_equiv_pos_as_xyz
  1  'x, y, z'
loop_
 _atom_site_type_symbol
 _atom_site_label
 _atom_site_symmetry_multiplicity
 _atom_site_fract_x
 _atom_site_fract_y
 _atom_site_fract_z
 _atom_site_occupancy
  Y  Y0  1  0.88172200  0.10765000  0.68572300  1
  Y  Y1  1  0.11827800  0.89235000  0.18572300  1
  Y  Y2  1  0.88172200  0.39235000  0.18572300  1
  Y  Y3  1  0.11827800  0.60765000  0.68572300  1
  Y  Y4  1  0.38041700  0.12767000  0.32689100  1
  Y  Y5  1  0.61958300  0.87233000  0.82689100  1
  Y  Y6  1  0.38041700  0.37233000  0.82689100  1
  Y  Y7  1  0.61958300  0.62767000  0.32689100  1
  Y  Y8  1  0.62778600  0.13311700  0.99012400  1
  Y  Y9  1  0.37221400  0.86688300  0.49012400  1
  Y  Y10  1  0.62778600  0.36688300  0.49012400  1
  Y  Y11  1  0.37221400  0.63311700  0.99012400  1
  Y  Y12  1  0.12842600  0.13340200  0.99109500  1
  Y  Y13  1  0.87157400  0.86659800  0.49109500  1
  Y  Y14  1  0.12842600  0.36659800  0.49109500  1
  Y  Y15  1  0.87157400  0.63340200  0.99109500  1
  Mg  Mg16  1  0.38028000  0.11017900  0.69038500  1
  Mg  Mg17  1  0.61972000  0.88982100  0.19038500  1
  Mg  Mg18  1  0.38028000  0.38982100  0.19038500  1
  Mg  Mg19  1  0.61972000  0.61017900  0.69038500  1
  Mg  Mg20  1  0.87715800  0.12667800  0.32074800  1
  Mg  Mg21  1  0.12284200  0.87332200  0.82074800  1
  Mg  Mg22  1  0.87715800  0.37332200  0.82074800  1
  Mg  Mg23  1  0.12284200  0.62667800  0.32074800  1
  Se  Se24  1  0.87766800  0.01237900  0.87788100  1
  Se  Se25  1  0.12233200  0.98762100  0.37788100  1
  Se  Se26  1  0.87766800  0.48762100  0.37788100  1
  Se  Se27  1  0.12233200  0.51237900  0.87788100  1
  Se  Se28  1  0.37732000  0.03398600  0.13014000  1
  Se  Se29  1  0.62268000  0.96601400  0.63014000  1
  Se  Se30  1  0.37732000  0.46601400  0.63014000  1
  Se  Se31  1  0.62268000  0.53398600  0.13014000  1
  Se  Se32  1  0.37308800  0.02125100  0.86868300  1
  Se  Se33  1  0.62691200  0.97874900  0.36868300  1
  Se  Se34  1  0.37308800  0.47874900  0.36868300  1
  Se  Se35  1  0.62691200  0.52125100  0.86868300  1
  Se  Se36  1  0.87211700  0.04262700  0.13682200  1
  Se  Se37  1  0.12788300  0.95737300  0.63682200  1
  Se  Se38  1  0.87211700  0.45737300  0.63682200  1
  Se  Se39  1  0.12788300  0.54262700  0.13682200  1
  Se  Se40  1  0.87885600  0.21159800  0.50333700  1
  Se  Se41  1  0.12114400  0.78840200  0.00333700  1
  Se  Se42  1  0.87885600  0.28840200  0.00333700  1
  Se  Se43  1  0.12114400  0.71159800  0.50333700  1
  Se  Se44  1  0.37927800  0.21231800  0.51920800  1
  Se  Se45  1  0.62072200  0.78768200  0.01920800  1
  Se  Se46  1  0.37927800  0.28768200  0.01920800  1
  Se  Se47  1  0.62072200  0.71231800  0.51920800  1
  Se  Se48  1  0.12777400  0.23131800  0.77759000  1
  Se  Se49  1  0.87222600  0.76868200  0.27759000  1
  Se  Se50  1  0.12777400  0.26868200  0.27759000  1
  Se  Se51  1  0.87222600  0.73131800  0.77759000  1
  Se  Se52  1  0.63152300  0.23037600  0.77837400  1
  Se  Se53  1  0.36847700  0.76962400  0.27837400  1
  Se  Se54  1  0.63152300  0.26962400  0.27837400  1
  Se  Se55  1  0.36847700  0.73037600  0.77837400  1
