# generated using pymatgen
data_Yb2MgS4
_symmetry_space_group_name_H-M   'P 1'
_cell_length_a   8.58111205
_cell_length_b   9.12020824
_cell_length_c   9.51407209
_cell_angle_alpha   71.55941395
_cell_angle_beta   78.08956458
_cell_angle_gamma   96.04033117
_symmetry_Int_Tables_number   1
_chemical_formula_structural   Yb2MgS4
_chemical_formula_sum   'Yb8 Mg4 S16'
_cell_volume   679.38507226
_cell_formula_units_Z   4
loop_
 _symmetry_equiv_pos_site_id
 _symmetry_equiv_pos_as_xyz
  1  'x, y, z'
loop_
 _atom_site_type_symbol
 _atom_site_label
 _atom_site_symmetry_multiplicity
 _atom_site_fract_x
 _atom_site_fract_y
 _atom_site_fract_z
 _atom_site_occupancy
  Yb  Yb0  1  0.10524300  0.66196200  0.67978500  1
  Yb  Yb1  1  0.89475700  0.33803800  0.32021500  1
  Yb  Yb2  1  0.25206800  0.85396000  0.99346700  1
  Yb  Yb3  1  0.74793200  0.14604000  0.00653300  1
  Yb  Yb4  1  0.36699800  0.54130300  0.34650900  1
  Yb  Yb5  1  0.63300200  0.45869700  0.65349100  1
  Yb  Yb6  1  0.36652000  0.03522800  0.36117100  1
  Yb  Yb7  1  0.63348000  0.96477200  0.63882900  1
  Mg  Mg8  1  0.11821100  0.18057200  0.63102700  1
  Mg  Mg9  1  0.88178900  0.81942800  0.36897300  1
  Mg  Mg10  1  0.24750600  0.32498100  0.95057000  1
  Mg  Mg11  1  0.75249400  0.67501900  0.04943000  1
  S  S12  1  0.11700800  0.53388000  0.01497300  1
  S  S13  1  0.88299200  0.46612000  0.98502700  1
  S  S14  1  0.06343600  0.11016000  0.92039200  1
  S  S15  1  0.93656400  0.88984000  0.07960800  1
  S  S16  1  0.18434500  0.77070600  0.34755700  1
  S  S17  1  0.81565500  0.22929400  0.65244300  1
  S  S18  1  0.19257300  0.26850900  0.35240900  1
  S  S19  1  0.80742700  0.73149100  0.64759100  1
  S  S20  1  0.28862900  0.93913800  0.67516000  1
  S  S21  1  0.71137100  0.06086200  0.32484000  1
  S  S22  1  0.29122800  0.41838300  0.66650600  1
  S  S23  1  0.70877200  0.58161700  0.33349400  1
  S  S24  1  0.41895300  0.12304900  0.04826400  1
  S  S25  1  0.58104700  0.87695100  0.95173600  1
  S  S26  1  0.47423400  0.63450700  0.02028700  1
  S  S27  1  0.52576600  0.36549300  0.97971300  1
