# generated using pymatgen
data_Ho2MgS4
_symmetry_space_group_name_H-M   'P 1'
_cell_length_a   13.47381600
_cell_length_b   7.86789000
_cell_length_c   6.51218500
_cell_angle_alpha   90.00000000
_cell_angle_beta   90.00000000
_cell_angle_gamma   90.00000000
_symmetry_Int_Tables_number   1
_chemical_formula_structural   Ho2MgS4
_chemical_formula_sum   'Ho8 Mg4 S16'
_cell_volume   690.36000206
_cell_formula_units_Z   4
loop_
 _symmetry_equiv_pos_site_id
 _symmetry_equiv_pos_as_xyz
  1  'x, y, z'
loop_
 _atom_site_type_symbol
 _atom_site_label
 _atom_site_symmetry_multiplicity
 _atom_site_fract_x
 _atom_site_fract_y
 _atom_site_fract_z
 _atom_site_occupancy
  Ho  Ho0  1  0.00000000  0.00000000  0.50000000  1
  Ho  Ho1  1  0.50000000  0.00000000  0.00000000  1
  Ho  Ho2  1  0.50000000  0.50000000  0.00000000  1
  Ho  Ho3  1  0.00000000  0.50000000  0.50000000  1
  Ho  Ho4  1  0.23219200  0.75000000  0.00072900  1
  Ho  Ho5  1  0.76780800  0.25000000  0.99927100  1
  Ho  Ho6  1  0.26780800  0.25000000  0.50072900  1
  Ho  Ho7  1  0.73219200  0.75000000  0.49927100  1
  Mg  Mg8  1  0.09246300  0.25000000  0.92529100  1
  Mg  Mg9  1  0.90753700  0.75000000  0.07470900  1
  Mg  Mg10  1  0.40753700  0.75000000  0.42529100  1
  Mg  Mg11  1  0.59246300  0.25000000  0.57470900  1
  S  S12  1  0.16827600  0.00856400  0.74332500  1
  S  S13  1  0.83172400  0.99143600  0.25667500  1
  S  S14  1  0.33172400  0.99143600  0.24332500  1
  S  S15  1  0.66827600  0.00856400  0.75667500  1
  S  S16  1  0.66827600  0.49143600  0.75667500  1
  S  S17  1  0.33172400  0.50856400  0.24332500  1
  S  S18  1  0.83172400  0.50856400  0.25667500  1
  S  S19  1  0.16827600  0.49143600  0.74332500  1
  S  S20  1  0.07113300  0.75000000  0.24872400  1
  S  S21  1  0.92886700  0.25000000  0.75127600  1
  S  S22  1  0.42886700  0.25000000  0.74872400  1
  S  S23  1  0.57113300  0.75000000  0.25127600  1
  S  S24  1  0.09211300  0.25000000  0.29299000  1
  S  S25  1  0.90788700  0.75000000  0.70701000  1
  S  S26  1  0.40788700  0.75000000  0.79299000  1
  S  S27  1  0.59211300  0.25000000  0.20701000  1
