# generated using pymatgen
data_YbMgS3
_symmetry_space_group_name_H-M   'P 1'
_cell_length_a   7.71726390
_cell_length_b   7.71726390
_cell_length_c   7.71726393
_cell_angle_alpha   45.64183035
_cell_angle_beta   45.64183035
_cell_angle_gamma   45.64183316
_symmetry_Int_Tables_number   1
_chemical_formula_structural   YbMgS3
_chemical_formula_sum   'Yb2 Mg2 S6'
_cell_volume   214.14233244
_cell_formula_units_Z   2
loop_
 _symmetry_equiv_pos_site_id
 _symmetry_equiv_pos_as_xyz
  1  'x, y, z'
loop_
 _atom_site_type_symbol
 _atom_site_label
 _atom_site_symmetry_multiplicity
 _atom_site_fract_x
 _atom_site_fract_y
 _atom_site_fract_z
 _atom_site_occupancy
  Yb  Yb0  1  0.37062700  0.37062700  0.37062700  1
  Yb  Yb1  1  0.62937300  0.62937300  0.62937300  1
  Mg  Mg2  1  0.16583500  0.16583500  0.16583500  1
  Mg  Mg3  1  0.83416500  0.83416500  0.83416500  1
  S  S4  1  0.06825000  0.58856400  0.11556300  1
  S  S5  1  0.93175000  0.41143600  0.88443700  1
  S  S6  1  0.58856400  0.11556300  0.06825000  1
  S  S7  1  0.41143600  0.88443700  0.93175000  1
  S  S8  1  0.11556300  0.06825000  0.58856400  1
  S  S9  1  0.88443700  0.93175000  0.41143600  1
