# generated using pymatgen
data_Lu2MgSe4
_symmetry_space_group_name_H-M   'P 1'
_cell_length_a   7.33265300
_cell_length_b   8.48904379
_cell_length_c   13.80886821
_cell_angle_alpha   98.91907022
_cell_angle_beta   95.18505817
_cell_angle_gamma   89.96279067
_symmetry_Int_Tables_number   1
_chemical_formula_structural   Lu2MgSe4
_chemical_formula_sum   'Lu8 Mg4 Se16'
_cell_volume   845.61718458
_cell_formula_units_Z   4
loop_
 _symmetry_equiv_pos_site_id
 _symmetry_equiv_pos_as_xyz
  1  'x, y, z'
loop_
 _atom_site_type_symbol
 _atom_site_label
 _atom_site_symmetry_multiplicity
 _atom_site_fract_x
 _atom_site_fract_y
 _atom_site_fract_z
 _atom_site_occupancy
  Lu  Lu0  1  0.86342600  0.30033000  0.70088800  1
  Lu  Lu1  1  0.13657400  0.69967000  0.29911200  1
  Lu  Lu2  1  0.75796200  0.12525100  0.00019900  1
  Lu  Lu3  1  0.24203800  0.87474900  0.99980100  1
  Lu  Lu4  1  0.63160300  0.44570300  0.29831900  1
  Lu  Lu5  1  0.36839700  0.55429700  0.70168100  1
  Lu  Lu6  1  0.63156900  0.95367500  0.30054500  1
  Lu  Lu7  1  0.36843100  0.04632500  0.69945500  1
  Mg  Mg8  1  0.86710100  0.80072600  0.70216000  1
  Mg  Mg9  1  0.13289900  0.19927400  0.29784000  1
  Mg  Mg10  1  0.75148600  0.62462500  0.99816900  1
  Mg  Mg11  1  0.24851400  0.37537500  0.00183100  1
  Se  Se12  1  0.90116300  0.35154700  0.89586300  1
  Se  Se13  1  0.09883700  0.64845300  0.10413700  1
  Se  Se14  1  0.89568000  0.84567200  0.89197400  1
  Se  Se15  1  0.10432000  0.15432800  0.10802600  1
  Se  Se16  1  0.81991300  0.21899000  0.37569000  1
  Se  Se17  1  0.18008700  0.78101000  0.62431000  1
  Se  Se18  1  0.81211500  0.71896200  0.37693200  1
  Se  Se19  1  0.18788500  0.28103800  0.62306800  1
  Se  Se20  1  0.69134300  0.02579700  0.62419300  1
  Se  Se21  1  0.30865700  0.97420300  0.37580700  1
  Se  Se22  1  0.69072800  0.53667500  0.62496000  1
  Se  Se23  1  0.30927200  0.46332500  0.37504000  1
  Se  Se24  1  0.60123300  0.89944500  0.10474000  1
  Se  Se25  1  0.39876700  0.10055500  0.89526000  1
  Se  Se26  1  0.59953700  0.40323100  0.10320000  1
  Se  Se27  1  0.40046300  0.59676900  0.89680000  1
