# generated using pymatgen
data_Lu2MgSe4
_symmetry_space_group_name_H-M   'P 1'
_cell_length_a   7.76071400
_cell_length_b   13.05308500
_cell_length_c   13.33153500
_cell_angle_alpha   90.00000000
_cell_angle_beta   90.00000000
_cell_angle_gamma   90.00000000
_symmetry_Int_Tables_number   1
_chemical_formula_structural   Lu2MgSe4
_chemical_formula_sum   'Lu16 Mg8 Se32'
_cell_volume   1350.50128660
_cell_formula_units_Z   8
loop_
 _symmetry_equiv_pos_site_id
 _symmetry_equiv_pos_as_xyz
  1  'x, y, z'
loop_
 _atom_site_type_symbol
 _atom_site_label
 _atom_site_symmetry_multiplicity
 _atom_site_fract_x
 _atom_site_fract_y
 _atom_site_fract_z
 _atom_site_occupancy
  Lu  Lu0  1  0.88223200  0.10785900  0.68641700  1
  Lu  Lu1  1  0.11776800  0.89214100  0.18641700  1
  Lu  Lu2  1  0.88223200  0.39214100  0.18641700  1
  Lu  Lu3  1  0.11776800  0.60785900  0.68641700  1
  Lu  Lu4  1  0.38040800  0.12798100  0.32606000  1
  Lu  Lu5  1  0.61959200  0.87201900  0.82606000  1
  Lu  Lu6  1  0.38040800  0.37201900  0.82606000  1
  Lu  Lu7  1  0.61959200  0.62798100  0.32606000  1
  Lu  Lu8  1  0.62860300  0.13324900  0.98912800  1
  Lu  Lu9  1  0.37139700  0.86675100  0.48912800  1
  Lu  Lu10  1  0.62860300  0.36675100  0.48912800  1
  Lu  Lu11  1  0.37139700  0.63324900  0.98912800  1
  Lu  Lu12  1  0.12910100  0.13324300  0.98976900  1
  Lu  Lu13  1  0.87089900  0.86675700  0.48976900  1
  Lu  Lu14  1  0.12910100  0.36675700  0.48976900  1
  Lu  Lu15  1  0.87089900  0.63324300  0.98976900  1
  Mg  Mg16  1  0.38074600  0.11015900  0.68937300  1
  Mg  Mg17  1  0.61925400  0.88984100  0.18937300  1
  Mg  Mg18  1  0.38074600  0.38984100  0.18937300  1
  Mg  Mg19  1  0.61925400  0.61015900  0.68937300  1
  Mg  Mg20  1  0.87823500  0.12663200  0.32156700  1
  Mg  Mg21  1  0.12176500  0.87336800  0.82156700  1
  Mg  Mg22  1  0.87823500  0.37336800  0.82156700  1
  Mg  Mg23  1  0.12176500  0.62663200  0.32156700  1
  Se  Se24  1  0.87570200  0.01417800  0.87654900  1
  Se  Se25  1  0.12429800  0.98582200  0.37654900  1
  Se  Se26  1  0.87570200  0.48582200  0.37654900  1
  Se  Se27  1  0.12429800  0.51417800  0.87654900  1
  Se  Se28  1  0.37372900  0.03697700  0.13110000  1
  Se  Se29  1  0.62627100  0.96302300  0.63110000  1
  Se  Se30  1  0.37372900  0.46302300  0.63110000  1
  Se  Se31  1  0.62627100  0.53697700  0.13110000  1
  Se  Se32  1  0.37438300  0.01976600  0.87016600  1
  Se  Se33  1  0.62561700  0.98023400  0.37016600  1
  Se  Se34  1  0.37438300  0.48023400  0.37016600  1
  Se  Se35  1  0.62561700  0.51976600  0.87016600  1
  Se  Se36  1  0.87305300  0.04041400  0.13498600  1
  Se  Se37  1  0.12694700  0.95958600  0.63498600  1
  Se  Se38  1  0.87305300  0.45958600  0.63498600  1
  Se  Se39  1  0.12694700  0.54041400  0.13498600  1
  Se  Se40  1  0.87936700  0.21360600  0.50623500  1
  Se  Se41  1  0.12063300  0.78639400  0.00623500  1
  Se  Se42  1  0.87936700  0.28639400  0.00623500  1
  Se  Se43  1  0.12063300  0.71360600  0.50623500  1
  Se  Se44  1  0.37934300  0.21403000  0.51671400  1
  Se  Se45  1  0.62065700  0.78597000  0.01671400  1
  Se  Se46  1  0.37934300  0.28597000  0.01671400  1
  Se  Se47  1  0.62065700  0.71403000  0.51671400  1
  Se  Se48  1  0.12759600  0.23049400  0.77967400  1
  Se  Se49  1  0.87240400  0.76950600  0.27967400  1
  Se  Se50  1  0.12759600  0.26950600  0.27967400  1
  Se  Se51  1  0.87240400  0.73049400  0.77967400  1
  Se  Se52  1  0.63114700  0.23032800  0.77926100  1
  Se  Se53  1  0.36885300  0.76967200  0.27926100  1
  Se  Se54  1  0.63114700  0.26967200  0.27926100  1
  Se  Se55  1  0.36885300  0.73032800  0.77926100  1
