# generated using pymatgen
data_NdMgSe3
_symmetry_space_group_name_H-M   'P 1'
_cell_length_a   7.36664233
_cell_length_b   7.36664233
_cell_length_c   6.85207978
_cell_angle_alpha   76.28043122
_cell_angle_beta   76.28043122
_cell_angle_gamma   115.81568600
_symmetry_Int_Tables_number   1
_chemical_formula_structural   NdMgSe3
_chemical_formula_sum   'Nd2 Mg2 Se6'
_cell_volume   299.52989546
_cell_formula_units_Z   2
loop_
 _symmetry_equiv_pos_site_id
 _symmetry_equiv_pos_as_xyz
  1  'x, y, z'
loop_
 _atom_site_type_symbol
 _atom_site_label
 _atom_site_symmetry_multiplicity
 _atom_site_fract_x
 _atom_site_fract_y
 _atom_site_fract_z
 _atom_site_occupancy
  Nd  Nd0  1  0.80444600  0.80444600  0.31474700  1
  Nd  Nd1  1  0.19555400  0.19555400  0.68525300  1
  Mg  Mg2  1  0.33158400  0.66841600  0.00000000  1
  Mg  Mg3  1  0.66841600  0.33158400  0.00000000  1
  Se  Se4  1  0.23827800  0.89365200  0.21880600  1
  Se  Se5  1  0.76172200  0.10634800  0.78119400  1
  Se  Se6  1  0.10634800  0.76172200  0.78119400  1
  Se  Se7  1  0.89365200  0.23827800  0.21880600  1
  Se  Se8  1  0.52667000  0.52667000  0.74945400  1
  Se  Se9  1  0.47333000  0.47333000  0.25054600  1
