# generated using pymatgen
data_Pm2MgS4
_symmetry_space_group_name_H-M   'P 1'
_cell_length_a   7.76370200
_cell_length_b   12.95121400
_cell_length_c   12.96823300
_cell_angle_alpha   90.00000000
_cell_angle_beta   90.00000000
_cell_angle_gamma   90.00000000
_symmetry_Int_Tables_number   1
_chemical_formula_structural   Pm2MgS4
_chemical_formula_sum   'Pm16 Mg8 S32'
_cell_volume   1303.94760673
_cell_formula_units_Z   8
loop_
 _symmetry_equiv_pos_site_id
 _symmetry_equiv_pos_as_xyz
  1  'x, y, z'
loop_
 _atom_site_type_symbol
 _atom_site_label
 _atom_site_symmetry_multiplicity
 _atom_site_fract_x
 _atom_site_fract_y
 _atom_site_fract_z
 _atom_site_occupancy
  Pm  Pm0  1  0.88465600  0.11004800  0.68416300  1
  Pm  Pm1  1  0.11534400  0.88995200  0.18416300  1
  Pm  Pm2  1  0.88465600  0.38995200  0.18416300  1
  Pm  Pm3  1  0.11534400  0.61004800  0.68416300  1
  Pm  Pm4  1  0.38285700  0.12749700  0.32642000  1
  Pm  Pm5  1  0.61714300  0.87250300  0.82642000  1
  Pm  Pm6  1  0.38285700  0.37250300  0.82642000  1
  Pm  Pm7  1  0.61714300  0.62749700  0.32642000  1
  Pm  Pm8  1  0.62943300  0.13430600  0.99379100  1
  Pm  Pm9  1  0.37056700  0.86569400  0.49379100  1
  Pm  Pm10  1  0.62943300  0.36569400  0.49379100  1
  Pm  Pm11  1  0.37056700  0.63430600  0.99379100  1
  Pm  Pm12  1  0.12928400  0.13521700  0.99259800  1
  Pm  Pm13  1  0.87071600  0.86478300  0.49259800  1
  Pm  Pm14  1  0.12928400  0.36478300  0.49259800  1
  Pm  Pm15  1  0.87071600  0.63521700  0.99259800  1
  Mg  Mg16  1  0.38466400  0.11068700  0.69270400  1
  Mg  Mg17  1  0.61533600  0.88931300  0.19270400  1
  Mg  Mg18  1  0.38466400  0.38931300  0.19270400  1
  Mg  Mg19  1  0.61533600  0.61068700  0.69270400  1
  Mg  Mg20  1  0.87938900  0.12576900  0.32012100  1
  Mg  Mg21  1  0.12061100  0.87423100  0.82012100  1
  Mg  Mg22  1  0.87938900  0.37423100  0.82012100  1
  Mg  Mg23  1  0.12061100  0.62576900  0.32012100  1
  S  S24  1  0.88048100  0.01148200  0.87874400  1
  S  S25  1  0.11951900  0.98851800  0.37874400  1
  S  S26  1  0.88048100  0.48851800  0.37874400  1
  S  S27  1  0.11951900  0.51148200  0.87874400  1
  S  S28  1  0.38029000  0.02975400  0.12927900  1
  S  S29  1  0.61971000  0.97024600  0.62927900  1
  S  S30  1  0.38029000  0.47024600  0.62927900  1
  S  S31  1  0.61971000  0.52975400  0.12927900  1
  S  S32  1  0.37124000  0.02354900  0.86740100  1
  S  S33  1  0.62876000  0.97645100  0.36740100  1
  S  S34  1  0.37124000  0.47645100  0.36740100  1
  S  S35  1  0.62876000  0.52354900  0.86740100  1
  S  S36  1  0.87248300  0.04478300  0.13947400  1
  S  S37  1  0.12751700  0.95521700  0.63947400  1
  S  S38  1  0.87248300  0.45521700  0.63947400  1
  S  S39  1  0.12751700  0.54478300  0.13947400  1
  S  S40  1  0.87951000  0.21086300  0.49699500  1
  S  S41  1  0.12049000  0.78913700  0.99699500  1
  S  S42  1  0.87951000  0.28913700  0.99699500  1
  S  S43  1  0.12049000  0.71086300  0.49699500  1
  S  S44  1  0.38053900  0.21109200  0.52326900  1
  S  S45  1  0.61946100  0.78890800  0.02326900  1
  S  S46  1  0.38053900  0.28890800  0.02326900  1
  S  S47  1  0.61946100  0.71109200  0.52326900  1
  S  S48  1  0.12953100  0.23337500  0.77517100  1
  S  S49  1  0.87046900  0.76662500  0.27517100  1
  S  S50  1  0.12953100  0.26662500  0.27517100  1
  S  S51  1  0.87046900  0.73337500  0.77517100  1
  S  S52  1  0.63151900  0.23071200  0.77687000  1
  S  S53  1  0.36848100  0.76928800  0.27687000  1
  S  S54  1  0.63151900  0.26928800  0.27687000  1
  S  S55  1  0.36848100  0.73071200  0.77687000  1
