# generated using pymatgen
data_Pm2MgS4
_symmetry_space_group_name_H-M   'P 1'
_cell_length_a   7.61046658
_cell_length_b   8.83965271
_cell_length_c   11.82570357
_cell_angle_alpha   79.47511534
_cell_angle_beta   83.40798968
_cell_angle_gamma   90.96303478
_symmetry_Int_Tables_number   1
_chemical_formula_structural   Pm2MgS4
_chemical_formula_sum   'Pm8 Mg4 S16'
_cell_volume   776.42362186
_cell_formula_units_Z   4
loop_
 _symmetry_equiv_pos_site_id
 _symmetry_equiv_pos_as_xyz
  1  'x, y, z'
loop_
 _atom_site_type_symbol
 _atom_site_label
 _atom_site_symmetry_multiplicity
 _atom_site_fract_x
 _atom_site_fract_y
 _atom_site_fract_z
 _atom_site_occupancy
  Pm  Pm0  1  0.13858000  0.70672100  0.65772100  1
  Pm  Pm1  1  0.86142000  0.29327900  0.34227900  1
  Pm  Pm2  1  0.24724000  0.87052300  0.99758700  1
  Pm  Pm3  1  0.75276000  0.12947700  0.00241300  1
  Pm  Pm4  1  0.36724100  0.55194500  0.33648500  1
  Pm  Pm5  1  0.63275900  0.44805500  0.66351500  1
  Pm  Pm6  1  0.36065300  0.03040800  0.34556600  1
  Pm  Pm7  1  0.63934700  0.96959200  0.65443400  1
  Mg  Mg8  1  0.13804500  0.20691500  0.68396900  1
  Mg  Mg9  1  0.86195500  0.79308500  0.31603100  1
  Mg  Mg10  1  0.25066500  0.38649500  0.99401800  1
  Mg  Mg11  1  0.74933600  0.61350500  0.00598200  1
  S  S12  1  0.10111400  0.64327800  0.88730200  1
  S  S13  1  0.89888600  0.35672200  0.11269800  1
  S  S14  1  0.11364500  0.16426400  0.89164000  1
  S  S15  1  0.88635500  0.83573600  0.10836000  1
  S  S16  1  0.15240800  0.77358100  0.39257400  1
  S  S17  1  0.84759200  0.22641900  0.60742600  1
  S  S18  1  0.19725900  0.28160700  0.37809400  1
  S  S19  1  0.80274100  0.71839300  0.62190600  1
  S  S20  1  0.29904200  0.99302500  0.60953400  1
  S  S21  1  0.70095800  0.00697500  0.39046600  1
  S  S22  1  0.30209100  0.45496400  0.60301800  1
  S  S23  1  0.69790900  0.54503600  0.39698200  1
  S  S24  1  0.39502800  0.09020600  0.11595500  1
  S  S25  1  0.60497200  0.90979400  0.88404500  1
  S  S26  1  0.40263400  0.58912600  0.10655000  1
  S  S27  1  0.59736600  0.41087400  0.89345000  1
