# generated using pymatgen
data_Tb2MgSe4
_symmetry_space_group_name_H-M   'P 1'
_cell_length_a   7.50422300
_cell_length_b   8.69980378
_cell_length_c   13.86057046
_cell_angle_alpha   99.20854041
_cell_angle_beta   95.45777204
_cell_angle_gamma   89.97574424
_symmetry_Int_Tables_number   1
_chemical_formula_structural   Tb2MgSe4
_chemical_formula_sum   'Tb8 Mg4 Se16'
_cell_volume   889.07898087
_cell_formula_units_Z   4
loop_
 _symmetry_equiv_pos_site_id
 _symmetry_equiv_pos_as_xyz
  1  'x, y, z'
loop_
 _atom_site_type_symbol
 _atom_site_label
 _atom_site_symmetry_multiplicity
 _atom_site_fract_x
 _atom_site_fract_y
 _atom_site_fract_z
 _atom_site_occupancy
  Tb  Tb0  1  0.86427400  0.30033900  0.69884000  1
  Tb  Tb1  1  0.13572600  0.69966100  0.30116000  1
  Tb  Tb2  1  0.75877500  0.12660500  0.00066000  1
  Tb  Tb3  1  0.24122500  0.87339500  0.99934000  1
  Tb  Tb4  1  0.63154700  0.44417200  0.29971000  1
  Tb  Tb5  1  0.36845300  0.55582800  0.70029000  1
  Tb  Tb6  1  0.63247500  0.95598400  0.30306800  1
  Tb  Tb7  1  0.36752500  0.04401600  0.69693200  1
  Mg  Mg8  1  0.86714800  0.80052800  0.70263000  1
  Mg  Mg9  1  0.13285200  0.19947200  0.29737000  1
  Mg  Mg10  1  0.75105200  0.62302200  0.99665600  1
  Mg  Mg11  1  0.24894800  0.37697800  0.00334400  1
  Se  Se12  1  0.90634500  0.35567100  0.89772200  1
  Se  Se13  1  0.09365500  0.64432900  0.10227800  1
  Se  Se14  1  0.89201900  0.84336400  0.89116700  1
  Se  Se15  1  0.10798100  0.15663600  0.10883300  1
  Se  Se16  1  0.82976400  0.21937000  0.37455100  1
  Se  Se17  1  0.17023600  0.78063000  0.62544900  1
  Se  Se18  1  0.81018100  0.71888400  0.37773000  1
  Se  Se19  1  0.18981900  0.28111600  0.62227000  1
  Se  Se20  1  0.69581700  0.02013700  0.62626700  1
  Se  Se21  1  0.30418300  0.97986300  0.37373300  1
  Se  Se22  1  0.69438000  0.54291100  0.62682600  1
  Se  Se23  1  0.30562000  0.45708900  0.37317400  1
  Se  Se24  1  0.60574200  0.89537000  0.10364400  1
  Se  Se25  1  0.39425800  0.10463000  0.89635600  1
  Se  Se26  1  0.59538500  0.40734500  0.10109200  1
  Se  Se27  1  0.40461500  0.59265500  0.89890800  1
