# generated using pymatgen
data_Mg(InS2)2
_symmetry_space_group_name_H-M   'P 1'
_cell_length_a   7.65770089
_cell_length_b   7.65770089
_cell_length_c   7.65770089
_cell_angle_alpha   108.55538313
_cell_angle_beta   108.55538313
_cell_angle_gamma   111.31884497
_symmetry_Int_Tables_number   1
_chemical_formula_structural   Mg(InS2)2
_chemical_formula_sum   'Mg2 In4 S8'
_cell_volume   345.40867344
_cell_formula_units_Z   2
loop_
 _symmetry_equiv_pos_site_id
 _symmetry_equiv_pos_as_xyz
  1  'x, y, z'
loop_
 _atom_site_type_symbol
 _atom_site_label
 _atom_site_symmetry_multiplicity
 _atom_site_fract_x
 _atom_site_fract_y
 _atom_site_fract_z
 _atom_site_occupancy
  Mg  Mg0  1  0.00000000  0.00000000  0.00000000  1
  Mg  Mg1  1  0.25000000  0.75000000  0.50000000  1
  In  In2  1  0.74072800  0.87500000  0.36572800  1
  In  In3  1  0.12500000  0.49072800  0.86572800  1
  In  In4  1  0.50927200  0.37500000  0.63427200  1
  In  In5  1  0.62500000  0.25927200  0.13427200  1
  S  S6  1  0.36197600  0.60596500  0.24280500  1
  S  S7  1  0.39403500  0.63684000  0.75601100  1
  S  S8  1  0.36316000  0.11917100  0.75719500  1
  S  S9  1  0.88082900  0.63802400  0.24398900  1
  S  S10  1  0.88684000  0.14403500  0.25601100  1
  S  S11  1  0.36917100  0.11316000  0.25719500  1
  S  S12  1  0.88802400  0.63082900  0.74398900  1
  S  S13  1  0.85596500  0.11197600  0.74280500  1
