# generated using pymatgen
data_YMgSe3
_symmetry_space_group_name_H-M   'P 1'
_cell_length_a   7.28271200
_cell_length_b   7.28271200
_cell_length_c   6.73251043
_cell_angle_alpha   73.02566902
_cell_angle_beta   73.02566902
_cell_angle_gamma   110.40413022
_symmetry_Int_Tables_number   1
_chemical_formula_structural   YMgSe3
_chemical_formula_sum   'Y2 Mg2 Se6'
_cell_volume   287.56634161
_cell_formula_units_Z   2
loop_
 _symmetry_equiv_pos_site_id
 _symmetry_equiv_pos_as_xyz
  1  'x, y, z'
loop_
 _atom_site_type_symbol
 _atom_site_label
 _atom_site_symmetry_multiplicity
 _atom_site_fract_x
 _atom_site_fract_y
 _atom_site_fract_z
 _atom_site_occupancy
  Y  Y0  1  0.77660400  0.77660400  0.22749700  1
  Y  Y1  1  0.22339600  0.22339600  0.77250300  1
  Mg  Mg2  1  0.33292400  0.66707600  0.00000000  1
  Mg  Mg3  1  0.66707600  0.33292400  0.00000000  1
  Se  Se4  1  0.20326300  0.89547300  0.19592800  1
  Se  Se5  1  0.79673700  0.10452700  0.80407200  1
  Se  Se6  1  0.10452700  0.79673700  0.80407200  1
  Se  Se7  1  0.89547300  0.20326300  0.19592800  1
  Se  Se8  1  0.58408300  0.58408300  0.70830900  1
  Se  Se9  1  0.41591700  0.41591700  0.29169100  1
