# generated using pymatgen
data_Y2MgSe4
_symmetry_space_group_name_H-M   'P 1'
_cell_length_a   7.63640400
_cell_length_b   8.26681400
_cell_length_c   12.04774600
_cell_angle_alpha   90.00000000
_cell_angle_beta   90.00000000
_cell_angle_gamma   90.00000000
_symmetry_Int_Tables_number   1
_chemical_formula_structural   Y2MgSe4
_chemical_formula_sum   'Y8 Mg4 Se16'
_cell_volume   760.55892238
_cell_formula_units_Z   4
loop_
 _symmetry_equiv_pos_site_id
 _symmetry_equiv_pos_as_xyz
  1  'x, y, z'
loop_
 _atom_site_type_symbol
 _atom_site_label
 _atom_site_symmetry_multiplicity
 _atom_site_fract_x
 _atom_site_fract_y
 _atom_site_fract_z
 _atom_site_occupancy
  Y  Y0  1  0.75000000  0.05207800  0.31419300  1
  Y  Y1  1  0.25000000  0.94792200  0.68580700  1
  Y  Y2  1  0.25000000  0.44792200  0.81419300  1
  Y  Y3  1  0.75000000  0.55207800  0.18580700  1
  Y  Y4  1  0.25000000  0.06636700  0.01883500  1
  Y  Y5  1  0.75000000  0.93363300  0.98116500  1
  Y  Y6  1  0.75000000  0.43363300  0.51883500  1
  Y  Y7  1  0.25000000  0.56636700  0.48116500  1
  Mg  Mg8  1  0.25000000  0.18179300  0.40746400  1
  Mg  Mg9  1  0.75000000  0.81820700  0.59253600  1
  Mg  Mg10  1  0.75000000  0.31820700  0.90746400  1
  Mg  Mg11  1  0.25000000  0.68179300  0.09253600  1
  Se  Se12  1  0.49925300  0.12704400  0.84223000  1
  Se  Se13  1  0.50074700  0.87295600  0.15777000  1
  Se  Se14  1  0.50074700  0.37295600  0.34223000  1
  Se  Se15  1  0.49925300  0.62704400  0.65777000  1
  Se  Se16  1  0.00074700  0.62704400  0.65777000  1
  Se  Se17  1  0.99925300  0.37295600  0.34223000  1
  Se  Se18  1  0.99925300  0.87295600  0.15777000  1
  Se  Se19  1  0.00074700  0.12704400  0.84223000  1
  Se  Se20  1  0.25000000  0.89154200  0.45040800  1
  Se  Se21  1  0.75000000  0.10845800  0.54959200  1
  Se  Se22  1  0.75000000  0.60845800  0.95040800  1
  Se  Se23  1  0.25000000  0.39154200  0.04959200  1
  Se  Se24  1  0.75000000  0.22767800  0.11218700  1
  Se  Se25  1  0.25000000  0.77232200  0.88781300  1
  Se  Se26  1  0.25000000  0.27232200  0.61218700  1
  Se  Se27  1  0.75000000  0.72767800  0.38781300  1
