# generated using pymatgen
data_Cd3Se4
_symmetry_space_group_name_H-M   'P 1'
_cell_length_a   8.52338500
_cell_length_b   13.58698161
_cell_length_c   8.95310392
_cell_angle_alpha   119.67189440
_cell_angle_beta   90.00000000
_cell_angle_gamma   108.27993971
_symmetry_Int_Tables_number   1
_chemical_formula_structural   Cd3Se4
_chemical_formula_sum   'Cd12 Se16'
_cell_volume   840.12903561
_cell_formula_units_Z   4
loop_
 _symmetry_equiv_pos_site_id
 _symmetry_equiv_pos_as_xyz
  1  'x, y, z'
loop_
 _atom_site_type_symbol
 _atom_site_label
 _atom_site_symmetry_multiplicity
 _atom_site_fract_x
 _atom_site_fract_y
 _atom_site_fract_z
 _atom_site_occupancy
  Cd  Cd0  1  0.17096400  0.46311800  0.32550400  1
  Cd  Cd1  1  0.07464700  0.42584700  0.78022500  1
  Cd  Cd2  1  0.35982100  0.76860900  0.29669000  1
  Cd  Cd3  1  0.25619400  0.78577500  0.81224100  1
  Cd  Cd4  1  0.53612800  0.10422200  0.28068200  1
  Cd  Cd5  1  0.46342200  0.11694600  0.81622700  1
  Cd  Cd6  1  0.62548800  0.46311800  0.32550400  1
  Cd  Cd7  1  0.68453400  0.42584700  0.78022500  1
  Cd  Cd8  1  0.90142800  0.10422200  0.28068200  1
  Cd  Cd9  1  0.98685800  0.11694600  0.81622700  1
  Cd  Cd10  1  0.74212000  0.76860900  0.29669000  1
  Cd  Cd11  1  0.86291400  0.78577500  0.81224100  1
  Se  Se12  1  0.12691200  0.22734400  0.15085700  1
  Se  Se13  1  0.12247200  0.21387900  0.63027400  1
  Se  Se14  1  0.09482200  0.55302100  0.13930200  1
  Se  Se15  1  0.23401700  0.56121000  0.65937700  1
  Se  Se16  1  0.11305600  0.89278000  0.67550600  1
  Se  Se17  1  0.43376400  0.22734400  0.15085700  1
  Se  Se18  1  0.42474000  0.21387900  0.63027400  1
  Se  Se19  1  0.44614800  0.55896500  0.16601900  1
  Se  Se20  1  0.32278600  0.88808200  0.15373200  1
  Se  Se21  1  0.45834500  0.89148700  0.65041900  1
  Se  Se22  1  0.77730200  0.22127100  0.15046700  1
  Se  Se23  1  0.77506600  0.21679700  0.62388700  1
  Se  Se24  1  0.79153200  0.55302100  0.13930200  1
  Se  Se25  1  0.66052600  0.56121000  0.65937700  1
  Se  Se26  1  0.89862900  0.88808200  0.15373200  1
  Se  Se27  1  0.76647500  0.89148700  0.65041900  1
