# generated using pymatgen
data_Sr3LaTaAl3O12
_symmetry_space_group_name_H-M   'P 1'
_cell_length_a   7.75117271
_cell_length_b   7.75117271
_cell_length_c   7.80181400
_cell_angle_alpha   90.00000000
_cell_angle_beta   90.00000000
_cell_angle_gamma   90.31557683
_symmetry_Int_Tables_number   1
_chemical_formula_structural   Sr3LaTaAl3O12
_chemical_formula_sum   'Sr6 La2 Ta2 Al6 O24'
_cell_volume   468.73116755
_cell_formula_units_Z   2
loop_
 _symmetry_equiv_pos_site_id
 _symmetry_equiv_pos_as_xyz
  1  'x, y, z'
loop_
 _atom_site_type_symbol
 _atom_site_label
 _atom_site_symmetry_multiplicity
 _atom_site_fract_x
 _atom_site_fract_y
 _atom_site_fract_z
 _atom_site_occupancy
  Sr  Sr0  1  0.50000000  0.00000000  0.26156900  1
  Sr  Sr1  1  0.50000000  0.00000000  0.73843100  1
  Sr  Sr2  1  0.00000000  0.50000000  0.26156900  1
  Sr  Sr3  1  0.00000000  0.00000000  0.26217200  1
  Sr  Sr4  1  0.00000000  0.50000000  0.73843100  1
  Sr  Sr5  1  0.00000000  0.00000000  0.73782800  1
  La  La6  1  0.50000000  0.50000000  0.26354300  1
  La  La7  1  0.50000000  0.50000000  0.73645700  1
  Ta  Ta8  1  0.75259300  0.24740700  0.00000000  1
  Ta  Ta9  1  0.24740700  0.75259300  0.00000000  1
  Al  Al10  1  0.74966100  0.74966100  0.00000000  1
  Al  Al11  1  0.75244000  0.24756000  0.50000000  1
  Al  Al12  1  0.75255900  0.75255900  0.50000000  1
  Al  Al13  1  0.25033900  0.25033900  0.00000000  1
  Al  Al14  1  0.24744100  0.24744100  0.50000000  1
  Al  Al15  1  0.24756000  0.75244000  0.50000000  1
  O  O16  1  0.50447800  0.74461000  0.00000000  1
  O  O17  1  0.49552200  0.25539000  0.00000000  1
  O  O18  1  0.49915000  0.74202300  0.50000000  1
  O  O19  1  0.50085000  0.25797700  0.50000000  1
  O  O20  1  0.99429700  0.74917800  0.00000000  1
  O  O21  1  0.00570300  0.25082200  0.00000000  1
  O  O22  1  0.00064600  0.74962600  0.50000000  1
  O  O23  1  0.99935400  0.25037400  0.50000000  1
  O  O24  1  0.74613800  0.25386200  0.25528100  1
  O  O25  1  0.74481700  0.74481700  0.24999100  1
  O  O26  1  0.74613800  0.25386200  0.74471900  1
  O  O27  1  0.74481700  0.74481700  0.75000900  1
  O  O28  1  0.25518300  0.25518300  0.24999100  1
  O  O29  1  0.25386200  0.74613800  0.25528100  1
  O  O30  1  0.25518300  0.25518300  0.75000900  1
  O  O31  1  0.25386200  0.74613800  0.74471900  1
  O  O32  1  0.74461000  0.50447800  0.00000000  1
  O  O33  1  0.74917800  0.99429700  0.00000000  1
  O  O34  1  0.74202300  0.49915000  0.50000000  1
  O  O35  1  0.74962600  0.00064600  0.50000000  1
  O  O36  1  0.25539000  0.49552200  0.00000000  1
  O  O37  1  0.25082200  0.00570300  0.00000000  1
  O  O38  1  0.25797700  0.50085000  0.50000000  1
  O  O39  1  0.25037400  0.99935400  0.50000000  1
