# generated using pymatgen
data_CuH5C6SO
_symmetry_space_group_name_H-M   'P 1'
_cell_length_a   4.06236500
_cell_length_b   5.37708500
_cell_length_c   28.56718600
_cell_angle_alpha   90.00000000
_cell_angle_beta   90.00000000
_cell_angle_gamma   90.00000000
_symmetry_Int_Tables_number   1
_chemical_formula_structural   CuH5C6SO
_chemical_formula_sum   'Cu4 H20 C24 S4 O4'
_cell_volume   624.01252393
_cell_formula_units_Z   4
loop_
 _symmetry_equiv_pos_site_id
 _symmetry_equiv_pos_as_xyz
  1  'x, y, z'
loop_
 _atom_site_type_symbol
 _atom_site_label
 _atom_site_symmetry_multiplicity
 _atom_site_fract_x
 _atom_site_fract_y
 _atom_site_fract_z
 _atom_site_occupancy
  Cu  Cu0  1  0.52034600  0.24916000  0.98589400  1
  Cu  Cu1  1  0.47965400  0.25084000  0.48589400  1
  Cu  Cu2  1  0.97965400  0.74916000  0.01410600  1
  Cu  Cu3  1  0.02034600  0.75084000  0.51410600  1
  H  H4  1  0.69914500  0.48038600  0.84413800  1
  H  H5  1  0.30085500  0.01961400  0.34413800  1
  H  H6  1  0.80085500  0.98038600  0.15586200  1
  H  H7  1  0.19914500  0.51961400  0.65586200  1
  H  H8  1  0.69283100  0.65223200  0.92572700  1
  H  H9  1  0.30716900  0.84776800  0.42572700  1
  H  H10  1  0.80716900  0.15223200  0.07427300  1
  H  H11  1  0.19283100  0.34776800  0.57427300  1
  H  H12  1  0.27072700  0.27578800  0.87840800  1
  H  H13  1  0.72927300  0.22421200  0.37840800  1
  H  H14  1  0.22927300  0.77578800  0.12159200  1
  H  H15  1  0.77072700  0.72421200  0.62159200  1
  H  H16  1  0.27261400  0.10151600  0.79687800  1
  H  H17  1  0.72738600  0.39848400  0.29687800  1
  H  H18  1  0.22738600  0.60151600  0.20312200  1
  H  H19  1  0.77261400  0.89848400  0.70312200  1
  H  H20  1  0.19197600  0.59162800  0.76465800  1
  H  H21  1  0.80802400  0.90837200  0.26465800  1
  H  H22  1  0.30802400  0.09162800  0.23534200  1
  H  H23  1  0.69197600  0.40837200  0.73534200  1
  C  C24  1  0.98857400  0.77813700  0.81656600  1
  C  C25  1  0.01142600  0.72186300  0.31656600  1
  C  C26  1  0.51142600  0.27813700  0.18343400  1
  C  C27  1  0.48857400  0.22186300  0.68343400  1
  C  C28  1  0.82291700  0.65469600  0.85242400  1
  C  C29  1  0.17708300  0.84530400  0.35242400  1
  C  C30  1  0.67708300  0.15469600  0.14757600  1
  C  C31  1  0.32291700  0.34530400  0.64757600  1
  C  C32  1  0.82654300  0.74920700  0.89797000  1
  C  C33  1  0.17345700  0.75079300  0.39797000  1
  C  C34  1  0.67345700  0.24920700  0.10203000  1
  C  C35  1  0.32654300  0.25079300  0.60203000  1
  C  C36  1  0.99738300  0.96971900  0.90774500  1
  C  C37  1  0.00261700  0.53028100  0.40774500  1
  C  C38  1  0.50261700  0.46971900  0.09225500  1
  C  C39  1  0.49738300  0.03028100  0.59225500  1
  C  C40  1  0.15152700  0.09811900  0.87108900  1
  C  C41  1  0.84847300  0.40188100  0.37108900  1
  C  C42  1  0.34847300  0.59811900  0.12891100  1
  C  C43  1  0.65152700  0.90188100  0.62891100  1
  C  C44  1  0.14816400  0.00383100  0.82537300  1
  C  C45  1  0.85183600  0.49616900  0.32537300  1
  C  C46  1  0.35183600  0.50383100  0.17462700  1
  C  C47  1  0.64816400  0.99616900  0.67462700  1
  S  S48  1  0.01530100  0.09210600  0.96606700  1
  S  S49  1  0.98469900  0.40789400  0.46606700  1
  S  S50  1  0.48469900  0.59210600  0.03393300  1
  S  S51  1  0.51530100  0.90789400  0.53393300  1
  O  O52  1  0.98164800  0.67421700  0.77143200  1
  O  O53  1  0.01835200  0.82578300  0.27143200  1
  O  O54  1  0.51835200  0.17421700  0.22856800  1
  O  O55  1  0.48164800  0.32578300  0.72856800  1
