# generated using pymatgen
data_NaAlTe2
_symmetry_space_group_name_H-M   'P 1'
_cell_length_a   8.32439929
_cell_length_b   8.32439839
_cell_length_c   15.57729665
_cell_angle_alpha   105.49751629
_cell_angle_beta   105.49751239
_cell_angle_gamma   89.99999783
_symmetry_Int_Tables_number   1
_chemical_formula_structural   NaAlTe2
_chemical_formula_sum   'Na8 Al8 Te16'
_cell_volume   999.40603946
_cell_formula_units_Z   8
loop_
 _symmetry_equiv_pos_site_id
 _symmetry_equiv_pos_as_xyz
  1  'x, y, z'
loop_
 _atom_site_type_symbol
 _atom_site_label
 _atom_site_symmetry_multiplicity
 _atom_site_fract_x
 _atom_site_fract_y
 _atom_site_fract_z
 _atom_site_occupancy
  Na  Na0  1  0.00000000  0.00000000  0.00000000  1
  Na  Na1  1  0.00000000  0.00000000  0.50000000  1
  Na  Na2  1  0.00000000  0.50000000  0.00000000  1
  Na  Na3  1  0.00000000  0.50000000  0.50000000  1
  Na  Na4  1  0.50000000  0.00000000  0.00000000  1
  Na  Na5  1  0.50000000  0.00000000  0.50000000  1
  Na  Na6  1  0.50000000  0.50000000  0.00000000  1
  Na  Na7  1  0.50000000  0.50000000  0.50000000  1
  Al  Al8  1  0.37500000  0.12500000  0.25000000  1
  Al  Al9  1  0.37500000  0.12500000  0.75000000  1
  Al  Al10  1  0.37500000  0.62500000  0.25000000  1
  Al  Al11  1  0.37500000  0.62500000  0.75000000  1
  Al  Al12  1  0.87500000  0.12500000  0.25000000  1
  Al  Al13  1  0.87500000  0.12500000  0.75000000  1
  Al  Al14  1  0.87500000  0.62500000  0.25000000  1
  Al  Al15  1  0.87500000  0.62500000  0.75000000  1
  Te  Te16  1  0.18221900  0.18222000  0.36444000  1
  Te  Te17  1  0.18221900  0.18222000  0.86444000  1
  Te  Te18  1  0.18222000  0.68222000  0.36444000  1
  Te  Te19  1  0.18222000  0.68222000  0.86443900  1
  Te  Te20  1  0.68221900  0.18222000  0.36444000  1
  Te  Te21  1  0.68221900  0.18222000  0.86444000  1
  Te  Te22  1  0.68222000  0.68222000  0.36444000  1
  Te  Te23  1  0.68222000  0.68222000  0.86443900  1
  Te  Te24  1  0.31778100  0.31778100  0.13556100  1
  Te  Te25  1  0.31778100  0.31778100  0.63556100  1
  Te  Te26  1  0.31778000  0.81778100  0.13556100  1
  Te  Te27  1  0.31778000  0.81778100  0.63556000  1
  Te  Te28  1  0.81778000  0.31778100  0.13556000  1
  Te  Te29  1  0.81778000  0.31778100  0.63556000  1
  Te  Te30  1  0.81778000  0.81778100  0.13556000  1
  Te  Te31  1  0.81778000  0.81778100  0.63556000  1
