# generated using pymatgen
data_CeMgSe3
_symmetry_space_group_name_H-M   'P 1'
_cell_length_a   7.13036800
_cell_length_b   7.13036765
_cell_length_c   18.92745600
_cell_angle_alpha   90.00000000
_cell_angle_beta   90.00000000
_cell_angle_gamma   120.00000038
_symmetry_Int_Tables_number   1
_chemical_formula_structural   CeMgSe3
_chemical_formula_sum   'Ce6 Mg6 Se18'
_cell_volume   833.38704095
_cell_formula_units_Z   6
loop_
 _symmetry_equiv_pos_site_id
 _symmetry_equiv_pos_as_xyz
  1  'x, y, z'
loop_
 _atom_site_type_symbol
 _atom_site_label
 _atom_site_symmetry_multiplicity
 _atom_site_fract_x
 _atom_site_fract_y
 _atom_site_fract_z
 _atom_site_occupancy
  Ce  Ce0  1  0.00000000  0.00000000  0.34424100  1
  Ce  Ce1  1  0.00000000  0.00000000  0.65575900  1
  Ce  Ce2  1  0.66666700  0.33333300  0.67757400  1
  Ce  Ce3  1  0.66666700  0.33333300  0.98909200  1
  Ce  Ce4  1  0.33333300  0.66666700  0.01090800  1
  Ce  Ce5  1  0.33333300  0.66666700  0.32242600  1
  Mg  Mg6  1  0.00000000  0.00000000  0.15340600  1
  Mg  Mg7  1  0.00000000  0.00000000  0.84659400  1
  Mg  Mg8  1  0.66666700  0.33333300  0.48673900  1
  Mg  Mg9  1  0.66666700  0.33333300  0.17992700  1
  Mg  Mg10  1  0.33333300  0.66666700  0.82007300  1
  Mg  Mg11  1  0.33333300  0.66666700  0.51326100  1
  Se  Se12  1  0.97881900  0.33717300  0.58024900  1
  Se  Se13  1  0.02118100  0.66282700  0.41975100  1
  Se  Se14  1  0.66282700  0.64164600  0.58024900  1
  Se  Se15  1  0.33717300  0.35835400  0.41975100  1
  Se  Se16  1  0.35835400  0.02118100  0.58024900  1
  Se  Se17  1  0.64164600  0.97881900  0.41975100  1
  Se  Se18  1  0.64548600  0.67050600  0.91358200  1
  Se  Se19  1  0.68784800  0.99616000  0.75308400  1
  Se  Se20  1  0.32949400  0.97497900  0.91358200  1
  Se  Se21  1  0.00384000  0.69168700  0.75308400  1
  Se  Se22  1  0.02502100  0.35451400  0.91358200  1
  Se  Se23  1  0.30831300  0.31215200  0.75308400  1
  Se  Se24  1  0.31215200  0.00384000  0.24691600  1
  Se  Se25  1  0.35451400  0.32949400  0.08641800  1
  Se  Se26  1  0.99616000  0.30831300  0.24691600  1
  Se  Se27  1  0.67050600  0.02502100  0.08641800  1
  Se  Se28  1  0.69168700  0.68784800  0.24691600  1
  Se  Se29  1  0.97497900  0.64548600  0.08641800  1
