# generated using pymatgen
data_La2MgS4
_symmetry_space_group_name_H-M   'P 1'
_cell_length_a   8.38269600
_cell_length_b   7.16518200
_cell_length_c   11.90874400
_cell_angle_alpha   90.00000000
_cell_angle_beta   90.00000000
_cell_angle_gamma   90.00000000
_symmetry_Int_Tables_number   1
_chemical_formula_structural   La2MgS4
_chemical_formula_sum   'La8 Mg4 S16'
_cell_volume   715.28135125
_cell_formula_units_Z   4
loop_
 _symmetry_equiv_pos_site_id
 _symmetry_equiv_pos_as_xyz
  1  'x, y, z'
loop_
 _atom_site_type_symbol
 _atom_site_label
 _atom_site_symmetry_multiplicity
 _atom_site_fract_x
 _atom_site_fract_y
 _atom_site_fract_z
 _atom_site_occupancy
  La  La0  1  0.02297700  0.75000000  0.31474700  1
  La  La1  1  0.97702300  0.25000000  0.68525300  1
  La  La2  1  0.47702300  0.25000000  0.81474700  1
  La  La3  1  0.52297700  0.75000000  0.18525300  1
  La  La4  1  0.09494800  0.25000000  0.04123400  1
  La  La5  1  0.90505200  0.75000000  0.95876600  1
  La  La6  1  0.40505200  0.75000000  0.54123400  1
  La  La7  1  0.59494800  0.25000000  0.45876600  1
  Mg  Mg8  1  0.19619100  0.25000000  0.41827000  1
  Mg  Mg9  1  0.80380900  0.75000000  0.58173000  1
  Mg  Mg10  1  0.30380900  0.75000000  0.91827000  1
  Mg  Mg11  1  0.69619100  0.25000000  0.08173000  1
  S  S12  1  0.14941800  0.49156400  0.84755800  1
  S  S13  1  0.85058200  0.50843600  0.15244200  1
  S  S14  1  0.35058200  0.50843600  0.34755800  1
  S  S15  1  0.64941800  0.49156400  0.65244200  1
  S  S16  1  0.64941800  0.00843600  0.65244200  1
  S  S17  1  0.35058200  0.99156400  0.34755800  1
  S  S18  1  0.85058200  0.99156400  0.15244200  1
  S  S19  1  0.14941800  0.00843600  0.84755800  1
  S  S20  1  0.91986700  0.25000000  0.44247300  1
  S  S21  1  0.08013300  0.75000000  0.55752700  1
  S  S22  1  0.58013300  0.75000000  0.94247300  1
  S  S23  1  0.41986700  0.25000000  0.05752700  1
  S  S24  1  0.19630300  0.75000000  0.10690000  1
  S  S25  1  0.80369700  0.25000000  0.89310000  1
  S  S26  1  0.30369700  0.25000000  0.60690000  1
  S  S27  1  0.69630300  0.75000000  0.39310000  1
