# generated using pymatgen
data_Gd2MgS4
_symmetry_space_group_name_H-M   'P 1'
_cell_length_a   3.88453800
_cell_length_b   12.72838500
_cell_length_c   13.61977500
_cell_angle_alpha   90.00000000
_cell_angle_beta   90.00000000
_cell_angle_gamma   90.00000000
_symmetry_Int_Tables_number   1
_chemical_formula_structural   Gd2MgS4
_chemical_formula_sum   'Gd8 Mg4 S16'
_cell_volume   673.41472790
_cell_formula_units_Z   4
loop_
 _symmetry_equiv_pos_site_id
 _symmetry_equiv_pos_as_xyz
  1  'x, y, z'
loop_
 _atom_site_type_symbol
 _atom_site_label
 _atom_site_symmetry_multiplicity
 _atom_site_fract_x
 _atom_site_fract_y
 _atom_site_fract_z
 _atom_site_occupancy
  Gd  Gd0  1  0.25000000  0.11895100  0.07498900  1
  Gd  Gd1  1  0.75000000  0.88104900  0.92501100  1
  Gd  Gd2  1  0.75000000  0.38104900  0.57498900  1
  Gd  Gd3  1  0.25000000  0.61895100  0.42501100  1
  Gd  Gd4  1  0.25000000  0.13537600  0.70641700  1
  Gd  Gd5  1  0.75000000  0.86462400  0.29358300  1
  Gd  Gd6  1  0.75000000  0.36462400  0.20641700  1
  Gd  Gd7  1  0.25000000  0.63537600  0.79358300  1
  Mg  Mg8  1  0.75000000  0.11014800  0.45585400  1
  Mg  Mg9  1  0.25000000  0.88985200  0.54414600  1
  Mg  Mg10  1  0.25000000  0.38985200  0.95585400  1
  Mg  Mg11  1  0.75000000  0.61014800  0.04414600  1
  S  S12  1  0.75000000  0.00589000  0.61501700  1
  S  S13  1  0.25000000  0.99411000  0.38498300  1
  S  S14  1  0.25000000  0.49411000  0.11501700  1
  S  S15  1  0.75000000  0.50589000  0.88498300  1
  S  S16  1  0.25000000  0.02666400  0.88474200  1
  S  S17  1  0.75000000  0.97333600  0.11525800  1
  S  S18  1  0.75000000  0.47333600  0.38474200  1
  S  S19  1  0.25000000  0.52666400  0.61525800  1
  S  S20  1  0.25000000  0.22800500  0.24693900  1
  S  S21  1  0.75000000  0.77199500  0.75306100  1
  S  S22  1  0.75000000  0.27199500  0.74693900  1
  S  S23  1  0.25000000  0.72800500  0.25306100  1
  S  S24  1  0.75000000  0.26507400  0.01687300  1
  S  S25  1  0.25000000  0.73492600  0.98312700  1
  S  S26  1  0.25000000  0.23492600  0.51687300  1
  S  S27  1  0.75000000  0.76507400  0.48312700  1
