# generated using pymatgen
data_YbMgSe3
_symmetry_space_group_name_H-M   'P 1'
_cell_length_a   7.47959700
_cell_length_b   7.47959674
_cell_length_c   15.82883400
_cell_angle_alpha   90.00000000
_cell_angle_beta   90.00000000
_cell_angle_gamma   119.99999673
_symmetry_Int_Tables_number   1
_chemical_formula_structural   YbMgSe3
_chemical_formula_sum   'Yb6 Mg6 Se18'
_cell_volume   766.89508247
_cell_formula_units_Z   6
loop_
 _symmetry_equiv_pos_site_id
 _symmetry_equiv_pos_as_xyz
  1  'x, y, z'
loop_
 _atom_site_type_symbol
 _atom_site_label
 _atom_site_symmetry_multiplicity
 _atom_site_fract_x
 _atom_site_fract_y
 _atom_site_fract_z
 _atom_site_occupancy
  Yb  Yb0  1  0.00000000  0.00000000  0.37041000  1
  Yb  Yb1  1  0.00000000  0.00000000  0.62959000  1
  Yb  Yb2  1  0.66666700  0.33333300  0.70374300  1
  Yb  Yb3  1  0.66666700  0.33333300  0.96292300  1
  Yb  Yb4  1  0.33333300  0.66666700  0.03707700  1
  Yb  Yb5  1  0.33333300  0.66666700  0.29625700  1
  Mg  Mg6  1  0.00000000  0.00000000  0.14966000  1
  Mg  Mg7  1  0.00000000  0.00000000  0.85034000  1
  Mg  Mg8  1  0.66666700  0.33333300  0.48299300  1
  Mg  Mg9  1  0.66666700  0.33333300  0.18367300  1
  Mg  Mg10  1  0.33333300  0.66666700  0.81632700  1
  Mg  Mg11  1  0.33333300  0.66666700  0.51700700  1
  Se  Se12  1  0.99199900  0.38336900  0.58577500  1
  Se  Se13  1  0.00800100  0.61663100  0.41422500  1
  Se  Se14  1  0.61663100  0.60862900  0.58577500  1
  Se  Se15  1  0.38336900  0.39137100  0.41422500  1
  Se  Se16  1  0.39137100  0.00800100  0.58577500  1
  Se  Se17  1  0.60862900  0.99199900  0.41422500  1
  Se  Se18  1  0.65866600  0.71670200  0.91910800  1
  Se  Se19  1  0.67466800  0.94996400  0.74755800  1
  Se  Se20  1  0.28329800  0.94196200  0.91910800  1
  Se  Se21  1  0.05003600  0.72470400  0.74755800  1
  Se  Se22  1  0.05803800  0.34133400  0.91910800  1
  Se  Se23  1  0.27529600  0.32533200  0.74755800  1
  Se  Se24  1  0.32533200  0.05003600  0.25244200  1
  Se  Se25  1  0.34133400  0.28329800  0.08089200  1
  Se  Se26  1  0.94996400  0.27529600  0.25244200  1
  Se  Se27  1  0.71670200  0.05803800  0.08089200  1
  Se  Se28  1  0.72470400  0.67466800  0.25244200  1
  Se  Se29  1  0.94196200  0.65866600  0.08089200  1
