# generated using pymatgen
data_Y2MgS4
_symmetry_space_group_name_H-M   'P 1'
_cell_length_a   7.96257900
_cell_length_b   7.29880300
_cell_length_c   11.46839600
_cell_angle_alpha   90.00000000
_cell_angle_beta   90.00000000
_cell_angle_gamma   90.00000000
_symmetry_Int_Tables_number   1
_chemical_formula_structural   Y2MgS4
_chemical_formula_sum   'Y8 Mg4 S16'
_cell_volume   666.51215916
_cell_formula_units_Z   4
loop_
 _symmetry_equiv_pos_site_id
 _symmetry_equiv_pos_as_xyz
  1  'x, y, z'
loop_
 _atom_site_type_symbol
 _atom_site_label
 _atom_site_symmetry_multiplicity
 _atom_site_fract_x
 _atom_site_fract_y
 _atom_site_fract_z
 _atom_site_occupancy
  Y  Y0  1  0.04066000  0.75000000  0.30895000  1
  Y  Y1  1  0.95934000  0.25000000  0.69105000  1
  Y  Y2  1  0.45934000  0.25000000  0.80895000  1
  Y  Y3  1  0.54066000  0.75000000  0.19105000  1
  Y  Y4  1  0.07179800  0.25000000  0.02028900  1
  Y  Y5  1  0.92820200  0.75000000  0.97971100  1
  Y  Y6  1  0.42820200  0.75000000  0.52028900  1
  Y  Y7  1  0.57179800  0.25000000  0.47971100  1
  Mg  Mg8  1  0.18083100  0.25000000  0.40752900  1
  Mg  Mg9  1  0.81916900  0.75000000  0.59247100  1
  Mg  Mg10  1  0.31916900  0.75000000  0.90752900  1
  Mg  Mg11  1  0.68083100  0.25000000  0.09247100  1
  S  S12  1  0.12969700  0.50204200  0.84250300  1
  S  S13  1  0.87030300  0.49795800  0.15749700  1
  S  S14  1  0.37030300  0.49795800  0.34250300  1
  S  S15  1  0.62969700  0.50204200  0.65749700  1
  S  S16  1  0.62969700  0.99795800  0.65749700  1
  S  S17  1  0.37030300  0.00204200  0.34250300  1
  S  S18  1  0.87030300  0.00204200  0.15749700  1
  S  S19  1  0.12969700  0.99795800  0.84250300  1
  S  S20  1  0.89558500  0.25000000  0.45644000  1
  S  S21  1  0.10441500  0.75000000  0.54356000  1
  S  S22  1  0.60441500  0.75000000  0.95644000  1
  S  S23  1  0.39558500  0.25000000  0.04356000  1
  S  S24  1  0.22099300  0.75000000  0.10969800  1
  S  S25  1  0.77900700  0.25000000  0.89030200  1
  S  S26  1  0.27900700  0.25000000  0.60969800  1
  S  S27  1  0.72099300  0.75000000  0.39030200  1
