# generated using pymatgen
data_Mg(InS2)2
_symmetry_space_group_name_H-M   'P 1'
_cell_length_a   8.32618100
_cell_length_b   7.28497400
_cell_length_c   11.08157000
_cell_angle_alpha   90.00000000
_cell_angle_beta   90.00000000
_cell_angle_gamma   90.00000000
_symmetry_Int_Tables_number   1
_chemical_formula_structural   Mg(InS2)2
_chemical_formula_sum   'Mg4 In8 S16'
_cell_volume   672.16384405
_cell_formula_units_Z   4
loop_
 _symmetry_equiv_pos_site_id
 _symmetry_equiv_pos_as_xyz
  1  'x, y, z'
loop_
 _atom_site_type_symbol
 _atom_site_label
 _atom_site_symmetry_multiplicity
 _atom_site_fract_x
 _atom_site_fract_y
 _atom_site_fract_z
 _atom_site_occupancy
  Mg  Mg0  1  0.19152400  0.25000000  0.41978700  1
  Mg  Mg1  1  0.80847600  0.75000000  0.58021300  1
  Mg  Mg2  1  0.30847600  0.75000000  0.91978700  1
  Mg  Mg3  1  0.69152400  0.25000000  0.08021300  1
  In  In4  1  0.01535300  0.75000000  0.28957100  1
  In  In5  1  0.98464700  0.25000000  0.71042900  1
  In  In6  1  0.48464700  0.25000000  0.78957100  1
  In  In7  1  0.51535300  0.75000000  0.21042900  1
  In  In8  1  0.09332300  0.25000000  0.01698200  1
  In  In9  1  0.90667700  0.75000000  0.98301800  1
  In  In10  1  0.40667700  0.75000000  0.51698200  1
  In  In11  1  0.59332300  0.25000000  0.48301800  1
  S  S12  1  0.09023000  0.52383500  0.85454100  1
  S  S13  1  0.90977000  0.47616500  0.14545900  1
  S  S14  1  0.40977000  0.47616500  0.35454100  1
  S  S15  1  0.59023000  0.52383500  0.64545900  1
  S  S16  1  0.59023000  0.97616500  0.64545900  1
  S  S17  1  0.40977000  0.02383500  0.35454100  1
  S  S18  1  0.90977000  0.02383500  0.14545900  1
  S  S19  1  0.09023000  0.97616500  0.85454100  1
  S  S20  1  0.90089900  0.25000000  0.49298300  1
  S  S21  1  0.09910100  0.75000000  0.50701700  1
  S  S22  1  0.59910100  0.75000000  0.99298300  1
  S  S23  1  0.40089900  0.25000000  0.00701700  1
  S  S24  1  0.23566900  0.75000000  0.13349000  1
  S  S25  1  0.76433100  0.25000000  0.86651000  1
  S  S26  1  0.26433100  0.25000000  0.63349000  1
  S  S27  1  0.73566900  0.75000000  0.36651000  1
