# generated using pymatgen
data_Na2RuO7
_symmetry_space_group_name_H-M   'P 1'
_cell_length_a   6.04069490
_cell_length_b   7.08897241
_cell_length_c   8.95012480
_cell_angle_alpha   82.05666034
_cell_angle_beta   99.32924324
_cell_angle_gamma   98.68469602
_symmetry_Int_Tables_number   1
_chemical_formula_structural   Na2RuO7
_chemical_formula_sum   'Na4 Ru2 O14'
_cell_volume   371.31030193
_cell_formula_units_Z   2
loop_
 _symmetry_equiv_pos_site_id
 _symmetry_equiv_pos_as_xyz
  1  'x, y, z'
loop_
 _atom_site_type_symbol
 _atom_site_label
 _atom_site_symmetry_multiplicity
 _atom_site_fract_x
 _atom_site_fract_y
 _atom_site_fract_z
 _atom_site_occupancy
  Na  Na0  1  0.24629200  0.00391200  0.72897900  1
  Na  Na1  1  0.17979600  0.53508800  0.72951000  1
  Na  Na2  1  0.82234900  0.46444900  0.27032000  1
  Na  Na3  1  0.75365100  0.99613500  0.27015300  1
  Ru  Ru4  1  0.74752300  0.75333200  0.92462800  1
  Ru  Ru5  1  0.25179400  0.24513900  0.07530700  1
  O  O6  1  0.21381200  0.24100500  0.87449400  1
  O  O7  1  0.97207700  0.73322400  0.83130400  1
  O  O8  1  0.46601400  0.75987700  0.83698900  1
  O  O9  1  0.83593100  0.06253900  0.60475100  1
  O  O10  1  0.64799300  0.42484600  0.66765800  1
  O  O11  1  0.12725000  0.80900600  0.50760900  1
  O  O12  1  0.46842500  0.32237400  0.61859100  1
  O  O13  1  0.53420400  0.67321200  0.38123900  1
  O  O14  1  0.87715800  0.18997600  0.49216100  1
  O  O15  1  0.34689800  0.57921400  0.33494400  1
  O  O16  1  0.16058800  0.94084700  0.39667000  1
  O  O17  1  0.53382400  0.24095200  0.16262800  1
  O  O18  1  0.02629900  0.26494800  0.16682400  1
  O  O19  1  0.78812300  0.75991500  0.12528400  1
