# generated using pymatgen
data_MgNb2Te4Cl10O
_symmetry_space_group_name_H-M   'P 1'
_cell_length_a   7.17990449
_cell_length_b   8.48789391
_cell_length_c   9.52468097
_cell_angle_alpha   82.45785461
_cell_angle_beta   88.96678116
_cell_angle_gamma   75.17546803
_symmetry_Int_Tables_number   1
_chemical_formula_structural   MgNb2Te4Cl10O
_chemical_formula_sum   'Mg1 Nb2 Te4 Cl10 O1'
_cell_volume   556.20671644
_cell_formula_units_Z   1
loop_
 _symmetry_equiv_pos_site_id
 _symmetry_equiv_pos_as_xyz
  1  'x, y, z'
loop_
 _atom_site_type_symbol
 _atom_site_label
 _atom_site_symmetry_multiplicity
 _atom_site_fract_x
 _atom_site_fract_y
 _atom_site_fract_z
 _atom_site_occupancy
  Mg  Mg0  1  0.42526400  0.16763500  0.79046900  1
  Nb  Nb1  1  0.51983400  0.64408900  0.62596100  1
  Nb  Nb2  1  0.49042300  0.36061900  0.35206000  1
  Te  Te3  1  0.17807000  0.89872000  0.16273300  1
  Te  Te4  1  0.08623900  0.20087100  0.98886100  1
  Te  Te5  1  0.90028100  0.80012300  0.02333500  1
  Te  Te6  1  0.86536800  0.06829700  0.81652100  1
  Cl  Cl7  1  0.44988200  0.16923900  0.19121700  1
  Cl  Cl8  1  0.39501100  0.45589200  0.82270700  1
  Cl  Cl9  1  0.79034000  0.18566300  0.42629400  1
  Cl  Cl10  1  0.16404700  0.52092800  0.29915600  1
  Cl  Cl11  1  0.61308200  0.51888500  0.17458200  1
  Cl  Cl12  1  0.32919900  0.19959800  0.54600300  1
  Cl  Cl13  1  0.82770000  0.49986700  0.72972800  1
  Cl  Cl14  1  0.65530800  0.81170600  0.46762100  1
  Cl  Cl15  1  0.19889300  0.78976000  0.59040200  1
  Cl  Cl16  1  0.51665000  0.85792800  0.81709900  1
  O  O17  1  0.51107400  0.50018100  0.49668000  1
