# generated using pymatgen
data_MgMn8(OF)8
_symmetry_space_group_name_H-M   'P 1'
_cell_length_a   4.82632979
_cell_length_b   4.95208439
_cell_length_c   12.50605456
_cell_angle_alpha   89.85259858
_cell_angle_beta   88.63379651
_cell_angle_gamma   88.97635303
_symmetry_Int_Tables_number   1
_chemical_formula_structural   MgMn8(OF)8
_chemical_formula_sum   'Mg1 Mn8 O8 F8'
_cell_volume   298.76626523
_cell_formula_units_Z   1
loop_
 _symmetry_equiv_pos_site_id
 _symmetry_equiv_pos_as_xyz
  1  'x, y, z'
loop_
 _atom_site_type_symbol
 _atom_site_label
 _atom_site_symmetry_multiplicity
 _atom_site_fract_x
 _atom_site_fract_y
 _atom_site_fract_z
 _atom_site_occupancy
  Mg  Mg0  1  0.50479000  0.01233400  0.37540100  1
  Mn  Mn1  1  0.97628100  0.94856100  0.99500600  1
  Mn  Mn2  1  0.03464300  0.01437700  0.23576800  1
  Mn  Mn3  1  0.98018200  0.94119200  0.51155800  1
  Mn  Mn4  1  0.05790300  0.02282900  0.75417300  1
  Mn  Mn5  1  0.48634600  0.53522300  0.62811500  1
  Mn  Mn6  1  0.53178100  0.44424900  0.11644000  1
  Mn  Mn7  1  0.44615300  0.51996100  0.37219400  1
  Mn  Mn8  1  0.48623400  0.52048700  0.87206400  1
  O  O9  1  0.16267600  0.80829700  0.36557500  1
  O  O10  1  0.19702700  0.81526400  0.63606300  1
  O  O11  1  0.18643300  0.79733500  0.87601600  1
  O  O12  1  0.35479800  0.27607800  0.25549900  1
  O  O13  1  0.33317500  0.33655900  0.74822800  1
  O  O14  1  0.67784000  0.66797700  0.99693300  1
  O  O15  1  0.62161800  0.72237400  0.48769200  1
  O  O16  1  0.83215500  0.17056900  0.11686900  1
  F  F17  1  0.20526200  0.73446300  0.12453800  1
  F  F18  1  0.29933000  0.24616000  0.99470000  1
  F  F19  1  0.31791000  0.24948300  0.48976700  1
  F  F20  1  0.67927700  0.76472200  0.26000700  1
  F  F21  1  0.70813500  0.74550400  0.74856700  1
  F  F22  1  0.81337500  0.24655800  0.37824800  1
  F  F23  1  0.80434600  0.24207800  0.61820000  1
  F  F24  1  0.81621700  0.21736700  0.86529900  1
