# generated using pymatgen
data_AgHg3SbO6
_symmetry_space_group_name_H-M   'P 1'
_cell_length_a   7.13292252
_cell_length_b   7.13292252
_cell_length_c   7.13292304
_cell_angle_alpha   87.87233872
_cell_angle_beta   87.87233872
_cell_angle_gamma   87.87233764
_symmetry_Int_Tables_number   1
_chemical_formula_structural   AgHg3SbO6
_chemical_formula_sum   'Ag2 Hg6 Sb2 O12'
_cell_volume   362.18052044
_cell_formula_units_Z   2
loop_
 _symmetry_equiv_pos_site_id
 _symmetry_equiv_pos_as_xyz
  1  'x, y, z'
loop_
 _atom_site_type_symbol
 _atom_site_label
 _atom_site_symmetry_multiplicity
 _atom_site_fract_x
 _atom_site_fract_y
 _atom_site_fract_z
 _atom_site_occupancy
  Ag  Ag0  1  0.25000000  0.25000000  0.25000000  1
  Ag  Ag1  1  0.75000000  0.75000000  0.75000000  1
  Hg  Hg2  1  0.40269000  0.75000000  0.09731000  1
  Hg  Hg3  1  0.09731000  0.40269000  0.75000000  1
  Hg  Hg4  1  0.59731000  0.25000000  0.90269000  1
  Hg  Hg5  1  0.90269000  0.59731000  0.25000000  1
  Hg  Hg6  1  0.75000000  0.09731000  0.40269000  1
  Hg  Hg7  1  0.25000000  0.90269000  0.59731000  1
  Sb  Sb8  1  0.00000000  0.00000000  0.00000000  1
  Sb  Sb9  1  0.50000000  0.50000000  0.50000000  1
  O  O10  1  0.50088600  0.78513500  0.49634200  1
  O  O11  1  0.49634200  0.50088600  0.78513500  1
  O  O12  1  0.78513500  0.49634200  0.50088600  1
  O  O13  1  0.99911400  0.00365800  0.71486500  1
  O  O14  1  0.71486500  0.99911400  0.00365800  1
  O  O15  1  0.00365800  0.71486500  0.99911400  1
  O  O16  1  0.49911400  0.21486500  0.50365800  1
  O  O17  1  0.50365800  0.49911400  0.21486500  1
  O  O18  1  0.21486500  0.50365800  0.49911400  1
  O  O19  1  0.00088600  0.99634200  0.28513500  1
  O  O20  1  0.99634200  0.28513500  0.00088600  1
  O  O21  1  0.28513500  0.00088600  0.99634200  1
