# generated using pymatgen
data_Na3AlSiTe4
_symmetry_space_group_name_H-M   'P 1'
_cell_length_a   4.36651200
_cell_length_b   8.84599302
_cell_length_c   9.07711877
_cell_angle_alpha   61.75016665
_cell_angle_beta   84.28180133
_cell_angle_gamma   80.59280660
_symmetry_Int_Tables_number   1
_chemical_formula_structural   Na3AlSiTe4
_chemical_formula_sum   'Na3 Al1 Si1 Te4'
_cell_volume   304.59947193
_cell_formula_units_Z   1
loop_
 _symmetry_equiv_pos_site_id
 _symmetry_equiv_pos_as_xyz
  1  'x, y, z'
loop_
 _atom_site_type_symbol
 _atom_site_label
 _atom_site_symmetry_multiplicity
 _atom_site_fract_x
 _atom_site_fract_y
 _atom_site_fract_z
 _atom_site_occupancy
  Na  Na0  1  0.49151800  0.43746500  0.59976800  1
  Na  Na1  1  0.08663300  0.11678000  0.85640200  1
  Na  Na2  1  0.73517300  0.85061200  0.19864900  1
  Al  Al3  1  0.61145600  0.95460900  0.64144200  1
  Si  Si4  1  0.89519500  0.50237600  0.92477100  1
  Te  Te5  1  0.44105900  0.75903700  0.95847800  1
  Te  Te6  1  0.07352500  0.16856300  0.50181600  1
  Te  Te7  1  0.52650600  0.25868400  0.99501400  1
  Te  Te8  1  0.88893700  0.70187400  0.57366100  1
