# generated using pymatgen
data_Dy2Mn12Ga5
_symmetry_space_group_name_H-M   'P 1'
_cell_length_a   8.54226655
_cell_length_b   8.54226655
_cell_length_c   8.45049700
_cell_angle_alpha   90.00000000
_cell_angle_beta   90.00000000
_cell_angle_gamma   120.00000428
_symmetry_Int_Tables_number   1
_chemical_formula_structural   Dy2Mn12Ga5
_chemical_formula_sum   'Dy4 Mn24 Ga10'
_cell_volume   534.02194339
_cell_formula_units_Z   2
loop_
 _symmetry_equiv_pos_site_id
 _symmetry_equiv_pos_as_xyz
  1  'x, y, z'
loop_
 _atom_site_type_symbol
 _atom_site_label
 _atom_site_symmetry_multiplicity
 _atom_site_fract_x
 _atom_site_fract_y
 _atom_site_fract_z
 _atom_site_occupancy
  Dy  Dy0  1  0.00000000  0.00000000  0.25000000  1
  Dy  Dy1  1  0.00000000  0.00000000  0.75000000  1
  Dy  Dy2  1  0.33333300  0.66666700  0.75000000  1
  Dy  Dy3  1  0.66666700  0.33333300  0.25000000  1
  Mn  Mn4  1  0.32388800  0.35361000  0.25000000  1
  Mn  Mn5  1  0.64639000  0.97027800  0.25000000  1
  Mn  Mn6  1  0.02972200  0.67611200  0.25000000  1
  Mn  Mn7  1  0.64639000  0.67611200  0.25000000  1
  Mn  Mn8  1  0.02972200  0.35361000  0.25000000  1
  Mn  Mn9  1  0.32388800  0.97027800  0.25000000  1
  Mn  Mn10  1  0.67611200  0.64639000  0.75000000  1
  Mn  Mn11  1  0.35361000  0.02972200  0.75000000  1
  Mn  Mn12  1  0.97027800  0.32388800  0.75000000  1
  Mn  Mn13  1  0.35361000  0.32388800  0.75000000  1
  Mn  Mn14  1  0.97027800  0.64639000  0.75000000  1
  Mn  Mn15  1  0.67611200  0.02972200  0.75000000  1
  Mn  Mn16  1  0.15488000  0.84512000  0.50703600  1
  Mn  Mn17  1  0.15488000  0.30976000  0.50703600  1
  Mn  Mn18  1  0.69024000  0.84512000  0.50703600  1
  Mn  Mn19  1  0.84512000  0.15488000  0.49296400  1
  Mn  Mn20  1  0.84512000  0.69024000  0.49296400  1
  Mn  Mn21  1  0.30976000  0.15488000  0.49296400  1
  Mn  Mn22  1  0.84512000  0.15488000  0.00703600  1
  Mn  Mn23  1  0.84512000  0.69024000  0.00703600  1
  Mn  Mn24  1  0.30976000  0.15488000  0.00703600  1
  Mn  Mn25  1  0.15488000  0.84512000  0.99296400  1
  Mn  Mn26  1  0.15488000  0.30976000  0.99296400  1
  Mn  Mn27  1  0.69024000  0.84512000  0.99296400  1
  Ga  Ga28  1  0.33333300  0.66666700  0.39454700  1
  Ga  Ga29  1  0.66666700  0.33333300  0.60545300  1
  Ga  Ga30  1  0.66666700  0.33333300  0.89454700  1
  Ga  Ga31  1  0.33333300  0.66666700  0.10545300  1
  Ga  Ga32  1  0.50000000  0.50000000  0.50000000  1
  Ga  Ga33  1  0.50000000  0.00000000  0.50000000  1
  Ga  Ga34  1  0.00000000  0.50000000  0.50000000  1
  Ga  Ga35  1  0.50000000  0.50000000  0.00000000  1
  Ga  Ga36  1  0.50000000  0.00000000  0.00000000  1
  Ga  Ga37  1  0.00000000  0.50000000  0.00000000  1
