# generated using pymatgen
data_Zr3MnF6
_symmetry_space_group_name_H-M   'P 1'
_cell_length_a   6.15745377
_cell_length_b   6.49932377
_cell_length_c   8.58902718
_cell_angle_alpha   48.12267895
_cell_angle_beta   128.02955388
_cell_angle_gamma   108.05965908
_symmetry_Int_Tables_number   1
_chemical_formula_structural   Zr3MnF6
_chemical_formula_sum   'Zr3 Mn1 F6'
_cell_volume   198.56851352
_cell_formula_units_Z   1
loop_
 _symmetry_equiv_pos_site_id
 _symmetry_equiv_pos_as_xyz
  1  'x, y, z'
loop_
 _atom_site_type_symbol
 _atom_site_label
 _atom_site_symmetry_multiplicity
 _atom_site_fract_x
 _atom_site_fract_y
 _atom_site_fract_z
 _atom_site_occupancy
  Zr  Zr0  1  0.00000000  0.00000000  0.50000000  1
  Zr  Zr1  1  0.50000000  0.50000000  0.00000000  1
  Zr  Zr2  1  0.00000000  0.50000000  0.00000000  1
  Mn  Mn3  1  0.00000000  0.00000000  0.00000000  1
  F  F4  1  0.75156400  0.37586000  0.77843600  1
  F  F5  1  0.24843600  0.62413900  0.22156300  1
  F  F6  1  0.89016600  0.97335100  0.71095700  1
  F  F7  1  0.10983400  0.02664900  0.28904300  1
  F  F8  1  0.72525700  0.74913600  0.10432000  1
  F  F9  1  0.27474300  0.25086400  0.89568000  1
