# generated using pymatgen
data_KDyH2S2O9
_symmetry_space_group_name_H-M   'P 1'
_cell_length_a   8.55725800
_cell_length_b   10.19591300
_cell_length_c   10.45700127
_cell_angle_alpha   60.60540333
_cell_angle_beta   90.00000000
_cell_angle_gamma   90.00000000
_symmetry_Int_Tables_number   1
_chemical_formula_structural   KDyH2S2O9
_chemical_formula_sum   'K4 Dy4 H8 S8 O36'
_cell_volume   794.90592645
_cell_formula_units_Z   4
loop_
 _symmetry_equiv_pos_site_id
 _symmetry_equiv_pos_as_xyz
  1  'x, y, z'
loop_
 _atom_site_type_symbol
 _atom_site_label
 _atom_site_symmetry_multiplicity
 _atom_site_fract_x
 _atom_site_fract_y
 _atom_site_fract_z
 _atom_site_occupancy
  K  K0  1  0.69833600  0.78661600  0.20384800  1
  K  K1  1  0.19833600  0.21338400  0.29615200  1
  K  K2  1  0.30166400  0.21338400  0.79615200  1
  K  K3  1  0.80166400  0.78661600  0.70384800  1
  Dy  Dy4  1  0.85454600  0.25202700  0.97115800  1
  Dy  Dy5  1  0.35454600  0.74797300  0.52884200  1
  Dy  Dy6  1  0.14545400  0.74797300  0.02884200  1
  Dy  Dy7  1  0.64545400  0.25202700  0.47115800  1
  H  H8  1  0.44677200  0.59051600  0.13420000  1
  H  H9  1  0.94677200  0.40948400  0.36580000  1
  H  H10  1  0.55322800  0.40948400  0.86580000  1
  H  H11  1  0.05322800  0.59051600  0.63420000  1
  H  H12  1  0.48932600  0.69792200  0.97260100  1
  H  H13  1  0.98932600  0.30207800  0.52739900  1
  H  H14  1  0.51067400  0.30207800  0.02739900  1
  H  H15  1  0.01067400  0.69792200  0.47260100  1
  S  S16  1  0.70702400  0.50874200  0.60587100  1
  S  S17  1  0.20702400  0.49125800  0.89412900  1
  S  S18  1  0.29297600  0.49125800  0.39412900  1
  S  S19  1  0.79297600  0.50874200  0.10587100  1
  S  S20  1  0.85987100  0.05232000  0.82738100  1
  S  S21  1  0.35987100  0.94768000  0.67261900  1
  S  S22  1  0.14012900  0.94768000  0.17261900  1
  S  S23  1  0.64012900  0.05232000  0.32738100  1
  O  O24  1  0.80435400  0.45437200  0.74147400  1
  O  O25  1  0.30435400  0.54562800  0.75852600  1
  O  O26  1  0.19564600  0.54562800  0.25852600  1
  O  O27  1  0.69564600  0.45437200  0.24147400  1
  O  O28  1  0.58184900  0.60340600  0.61843200  1
  O  O29  1  0.08184900  0.39659400  0.88156800  1
  O  O30  1  0.41815100  0.39659400  0.38156800  1
  O  O31  1  0.91815100  0.60340600  0.11843200  1
  O  O32  1  0.86534000  0.37547100  0.10507200  1
  O  O33  1  0.36534000  0.62452900  0.39492800  1
  O  O34  1  0.13466000  0.62452900  0.89492800  1
  O  O35  1  0.63466000  0.37547100  0.60507200  1
  O  O36  1  0.80272100  0.59548600  0.47427200  1
  O  O37  1  0.30272100  0.40451400  0.02572800  1
  O  O38  1  0.19727900  0.40451400  0.52572800  1
  O  O39  1  0.69727900  0.59548600  0.97427200  1
  O  O40  1  0.76952900  0.07540500  0.69749500  1
  O  O41  1  0.26952900  0.92459500  0.80250500  1
  O  O42  1  0.23047100  0.92459500  0.30250500  1
  O  O43  1  0.73047100  0.07540500  0.19749500  1
  O  O44  1  0.94386400  0.90626000  0.88415700  1
  O  O45  1  0.44386400  0.09374000  0.61584300  1
  O  O46  1  0.05613600  0.09374000  0.11584300  1
  O  O47  1  0.55613600  0.90626000  0.38415700  1
  O  O48  1  0.75391800  0.04756200  0.94414000  1
  O  O49  1  0.25391800  0.95243800  0.55586000  1
  O  O50  1  0.24608200  0.95243800  0.05586000  1
  O  O51  1  0.74608200  0.04756200  0.44414000  1
  O  O52  1  0.97013400  0.17891200  0.79246800  1
  O  O53  1  0.47013400  0.82108800  0.70753200  1
  O  O54  1  0.02986600  0.82108800  0.20753200  1
  O  O55  1  0.52986600  0.17891200  0.29246800  1
  O  O56  1  0.42383700  0.69133900  0.05292600  1
  O  O57  1  0.92383700  0.30866100  0.44707400  1
  O  O58  1  0.57616300  0.30866100  0.94707400  1
  O  O59  1  0.07616300  0.69133900  0.55292600  1
