# generated using pymatgen
data_Ca3SnF6
_symmetry_space_group_name_H-M   'P 1'
_cell_length_a   6.98170506
_cell_length_b   6.74533217
_cell_length_c   8.87566813
_cell_angle_alpha   85.72746268
_cell_angle_beta   134.97124481
_cell_angle_gamma   115.85464741
_symmetry_Int_Tables_number   1
_chemical_formula_structural   Ca3SnF6
_chemical_formula_sum   'Ca3 Sn1 F6'
_cell_volume   247.53362719
_cell_formula_units_Z   1
loop_
 _symmetry_equiv_pos_site_id
 _symmetry_equiv_pos_as_xyz
  1  'x, y, z'
loop_
 _atom_site_type_symbol
 _atom_site_label
 _atom_site_symmetry_multiplicity
 _atom_site_fract_x
 _atom_site_fract_y
 _atom_site_fract_z
 _atom_site_occupancy
  Ca  Ca0  1  0.00000000  0.00000000  0.50000000  1
  Ca  Ca1  1  0.50000000  0.50000000  0.00000000  1
  Ca  Ca2  1  0.00000000  0.50000000  0.00000000  1
  Sn  Sn3  1  0.00000000  0.00000000  0.00000000  1
  F  F4  1  0.08960500  0.54088700  0.79838500  1
  F  F5  1  0.91039500  0.45911300  0.20161500  1
  F  F6  1  0.07833600  0.08331300  0.77924900  1
  F  F7  1  0.92166400  0.91668700  0.22075100  1
  F  F8  1  0.46030100  0.35171500  0.73596100  1
  F  F9  1  0.53969800  0.64828500  0.26403900  1
