# generated using pymatgen
data_H7C2N7O6
_symmetry_space_group_name_H-M   'P 1'
_cell_length_a   5.16215500
_cell_length_b   7.68755261
_cell_length_c   11.54566337
_cell_angle_alpha   84.30249524
_cell_angle_beta   84.32483768
_cell_angle_gamma   79.52838718
_symmetry_Int_Tables_number   1
_chemical_formula_structural   H7C2N7O6
_chemical_formula_sum   'H14 C4 N14 O12'
_cell_volume   446.79239128
_cell_formula_units_Z   2
loop_
 _symmetry_equiv_pos_site_id
 _symmetry_equiv_pos_as_xyz
  1  'x, y, z'
loop_
 _atom_site_type_symbol
 _atom_site_label
 _atom_site_symmetry_multiplicity
 _atom_site_fract_x
 _atom_site_fract_y
 _atom_site_fract_z
 _atom_site_occupancy
  H  H0  1  0.36831000  0.41359000  0.36780600  1
  H  H1  1  0.63169000  0.58641000  0.63219400  1
  H  H2  1  0.35309500  0.41896900  0.21472300  1
  H  H3  1  0.64690500  0.58103100  0.78527700  1
  H  H4  1  0.96244800  0.14989300  0.15634000  1
  H  H5  1  0.03755200  0.85010700  0.84366000  1
  H  H6  1  0.00720800  0.13648600  0.35772800  1
  H  H7  1  0.99279200  0.86351400  0.64227200  1
  H  H8  1  0.74866200  0.24542900  0.44853700  1
  H  H9  1  0.25133800  0.75457100  0.55146300  1
  H  H10  1  0.73669500  0.36055800  0.01437700  1
  H  H11  1  0.26330500  0.63944200  0.98562300  1
  H  H12  1  0.58608000  0.18408600  0.03577800  1
  H  H13  1  0.41392000  0.81591400  0.96422200  1
  C  C14  1  0.67734600  0.78536300  0.26082000  1
  C  C15  1  0.32265400  0.21463700  0.73918000  1
  C  C16  1  0.68576700  0.27514400  0.27554500  1
  C  C17  1  0.31423300  0.72485600  0.72445500  1
  N  N18  1  0.77786500  0.22399400  0.16869400  1
  N  N19  1  0.22213500  0.77600600  0.83130600  1
  N  N20  1  0.62797000  0.28933800  0.07415400  1
  N  N21  1  0.37203000  0.71066200  0.92584600  1
  N  N22  1  0.78284100  0.70220300  0.36623600  1
  N  N23  1  0.21715900  0.29779700  0.63376400  1
  N  N24  1  0.82099000  0.74538200  0.15283100  1
  N  N25  1  0.17901000  0.25461800  0.84716900  1
  N  N26  1  0.43550600  0.90354600  0.26627800  1
  N  N27  1  0.56449400  0.09645400  0.73372200  1
  N  N28  1  0.45157100  0.38118600  0.28757200  1
  N  N29  1  0.54842900  0.61881400  0.71242800  1
  N  N30  1  0.82912100  0.21976600  0.36664400  1
  N  N31  1  0.17087900  0.78023400  0.63335600  1
  O  O32  1  0.97720100  0.59974200  0.15007300  1
  O  O33  1  0.02279900  0.40025800  0.84992700  1
  O  O34  1  0.78626300  0.85354800  0.06541400  1
  O  O35  1  0.21373700  0.14645200  0.93458600  1
  O  O36  1  0.31382300  0.94463000  0.17590100  1
  O  O37  1  0.68617700  0.05537000  0.82409900  1
  O  O38  1  0.62576900  0.66046300  0.44949400  1
  O  O39  1  0.37423100  0.33953700  0.55050600  1
  O  O40  1  0.35076300  0.96517000  0.36252700  1
  O  O41  1  0.64923700  0.03483000  0.63747300  1
  O  O42  1  0.02723600  0.67446600  0.37000800  1
  O  O43  1  0.97276400  0.32553400  0.62999200  1
