# generated using pymatgen
data_Tb7Co6Sn23
_symmetry_space_group_name_H-M   'P 1'
_cell_length_a   10.11686603
_cell_length_b   10.11686603
_cell_length_c   10.93467100
_cell_angle_alpha   90.00000000
_cell_angle_beta   90.00000000
_cell_angle_gamma   120.00000021
_symmetry_Int_Tables_number   1
_chemical_formula_structural   Tb7Co6Sn23
_chemical_formula_sum   'Tb7 Co6 Sn23'
_cell_volume   969.23335084
_cell_formula_units_Z   1
loop_
 _symmetry_equiv_pos_site_id
 _symmetry_equiv_pos_as_xyz
  1  'x, y, z'
loop_
 _atom_site_type_symbol
 _atom_site_label
 _atom_site_symmetry_multiplicity
 _atom_site_fract_x
 _atom_site_fract_y
 _atom_site_fract_z
 _atom_site_occupancy
  Tb  Tb0  1  0.00000000  0.00000000  0.00000000  1
  Tb  Tb1  1  0.95199000  0.47599500  0.70909500  1
  Tb  Tb2  1  0.52400500  0.04801000  0.70909500  1
  Tb  Tb3  1  0.52400500  0.47599500  0.70909500  1
  Tb  Tb4  1  0.04801000  0.52400500  0.29090500  1
  Tb  Tb5  1  0.47599500  0.95199000  0.29090500  1
  Tb  Tb6  1  0.47599500  0.52400500  0.29090500  1
  Co  Co7  1  0.38798500  0.19399200  0.85117600  1
  Co  Co8  1  0.80600800  0.61201500  0.85117600  1
  Co  Co9  1  0.80600800  0.19399200  0.85117600  1
  Co  Co10  1  0.61201500  0.80600800  0.14882400  1
  Co  Co11  1  0.19399200  0.38798500  0.14882400  1
  Co  Co12  1  0.19399200  0.80600800  0.14882400  1
  Sn  Sn13  1  0.66666700  0.33333300  0.20138700  1
  Sn  Sn14  1  0.33333300  0.66666700  0.79861300  1
  Sn  Sn15  1  0.45670400  0.22835200  0.44416300  1
  Sn  Sn16  1  0.77164800  0.54329600  0.44416300  1
  Sn  Sn17  1  0.77164800  0.22835200  0.44416300  1
  Sn  Sn18  1  0.54329600  0.77164800  0.55583700  1
  Sn  Sn19  1  0.22835200  0.45670400  0.55583700  1
  Sn  Sn20  1  0.22835200  0.77164800  0.55583700  1
  Sn  Sn21  1  0.23323400  0.11661700  0.67803100  1
  Sn  Sn22  1  0.88338300  0.76676600  0.67803100  1
  Sn  Sn23  1  0.88338300  0.11661700  0.67803100  1
  Sn  Sn24  1  0.76676600  0.88338300  0.32196900  1
  Sn  Sn25  1  0.11661700  0.23323400  0.32196900  1
  Sn  Sn26  1  0.11661700  0.88338300  0.32196900  1
  Sn  Sn27  1  0.00000000  0.00000000  0.50000000  1
  Sn  Sn28  1  0.34854700  0.00000000  0.00000000  1
  Sn  Sn29  1  0.65145300  0.65145300  0.00000000  1
  Sn  Sn30  1  0.00000000  0.34854700  0.00000000  1
  Sn  Sn31  1  0.34854700  0.34854700  0.00000000  1
  Sn  Sn32  1  0.00000000  0.65145300  0.00000000  1
  Sn  Sn33  1  0.65145300  0.00000000  0.00000000  1
  Sn  Sn34  1  0.66666700  0.33333300  0.89302200  1
  Sn  Sn35  1  0.33333300  0.66666700  0.10697800  1
