# generated using pymatgen
data_Na2Mo3O13
_symmetry_space_group_name_H-M   'P 1'
_cell_length_a   8.73429023
_cell_length_b   8.73429023
_cell_length_c   10.98968974
_cell_angle_alpha   58.95237385
_cell_angle_beta   58.95237385
_cell_angle_gamma   25.22225776
_symmetry_Int_Tables_number   1
_chemical_formula_structural   Na2Mo3O13
_chemical_formula_sum   'Na2 Mo3 O13'
_cell_volume   303.28914237
_cell_formula_units_Z   1
loop_
 _symmetry_equiv_pos_site_id
 _symmetry_equiv_pos_as_xyz
  1  'x, y, z'
loop_
 _atom_site_type_symbol
 _atom_site_label
 _atom_site_symmetry_multiplicity
 _atom_site_fract_x
 _atom_site_fract_y
 _atom_site_fract_z
 _atom_site_occupancy
  Na  Na0  1  0.19818100  0.19818100  0.25982400  1
  Na  Na1  1  0.80481900  0.80481900  0.71214400  1
  Mo  Mo2  1  0.90435500  0.90435500  0.96733000  1
  Mo  Mo3  1  0.11189600  0.11189600  0.98458700  1
  Mo  Mo4  1  0.42979300  0.42979300  0.22869900  1
  O  O5  1  0.41504500  0.41504500  0.00692600  1
  O  O6  1  0.57256400  0.57256400  0.02422700  1
  O  O7  1  0.79081000  0.79081000  0.12353200  1
  O  O8  1  0.22422300  0.22422300  0.83101000  1
  O  O9  1  0.88923400  0.88923400  0.82293500  1
  O  O10  1  0.13080300  0.13080300  0.12664500  1
  O  O11  1  0.95010400  0.95010400  0.16977000  1
  O  O12  1  0.03979300  0.03979300  0.88541500  1
  O  O13  1  0.01248600  0.01248600  0.49510700  1
  O  O14  1  0.59593400  0.59593400  0.42053300  1
  O  O15  1  0.46229900  0.46229900  0.35242500  1
  O  O16  1  0.31023900  0.31023900  0.33377200  1
  O  O17  1  0.65782200  0.65782200  0.68211700  1
