# generated using pymatgen
data_K3IrF6
_symmetry_space_group_name_H-M   'P 1'
_cell_length_a   6.75632485
_cell_length_b   8.08652775
_cell_length_c   6.68909875
_cell_angle_alpha   127.27634843
_cell_angle_beta   77.66622552
_cell_angle_gamma   109.62533758
_symmetry_Int_Tables_number   1
_chemical_formula_structural   K3IrF6
_chemical_formula_sum   'K3 Ir1 F6'
_cell_volume   273.88691665
_cell_formula_units_Z   1
loop_
 _symmetry_equiv_pos_site_id
 _symmetry_equiv_pos_as_xyz
  1  'x, y, z'
loop_
 _atom_site_type_symbol
 _atom_site_label
 _atom_site_symmetry_multiplicity
 _atom_site_fract_x
 _atom_site_fract_y
 _atom_site_fract_z
 _atom_site_occupancy
  K  K0  1  0.50000000  0.00000000  0.00000000  1
  K  K1  1  0.00000000  0.50000000  0.50000000  1
  K  K2  1  0.00000000  0.00000000  0.50000000  1
  Ir  Ir3  1  0.00000000  0.00000000  0.00000000  1
  F  F4  1  0.77312200  0.04757200  0.27396600  1
  F  F5  1  0.22687800  0.95242800  0.72603400  1
  F  F6  1  0.78848300  0.78732300  0.71378400  1
  F  F7  1  0.21151700  0.21267700  0.28621600  1
  F  F8  1  0.07932600  0.77133500  0.99176700  1
  F  F9  1  0.92067400  0.22866500  0.00823300  1
