# generated using pymatgen
data_Rb3CrF6
_symmetry_space_group_name_H-M   'P 1'
_cell_length_a   7.02998800
_cell_length_b   7.04755697
_cell_length_c   7.10043387
_cell_angle_alpha   101.32445164
_cell_angle_beta   101.40386174
_cell_angle_gamma   105.06279787
_symmetry_Int_Tables_number   1
_chemical_formula_structural   Rb3CrF6
_chemical_formula_sum   'Rb3 Cr1 F6'
_cell_volume   321.38461606
_cell_formula_units_Z   1
loop_
 _symmetry_equiv_pos_site_id
 _symmetry_equiv_pos_as_xyz
  1  'x, y, z'
loop_
 _atom_site_type_symbol
 _atom_site_label
 _atom_site_symmetry_multiplicity
 _atom_site_fract_x
 _atom_site_fract_y
 _atom_site_fract_z
 _atom_site_occupancy
  Rb  Rb0  1  0.00000000  0.00000000  0.50000000  1
  Rb  Rb1  1  0.50000000  0.00000000  0.00000000  1
  Rb  Rb2  1  0.00000000  0.50000000  0.00000000  1
  Cr  Cr3  1  0.00000000  0.00000000  0.00000000  1
  F  F4  1  0.96150600  0.20601500  0.20642500  1
  F  F5  1  0.03849400  0.79398500  0.79357500  1
  F  F6  1  0.19678500  0.93577000  0.19531800  1
  F  F7  1  0.80321500  0.06423000  0.80468200  1
  F  F8  1  0.21372700  0.20228500  0.94225000  1
  F  F9  1  0.78627300  0.79771500  0.05775000  1
