# generated using pymatgen
data_TbSbPd
_symmetry_space_group_name_H-M   'P 1'
_cell_length_a   4.91358462
_cell_length_b   4.91358462
_cell_length_c   7.99808898
_cell_angle_alpha   89.31248436
_cell_angle_beta   89.31248436
_cell_angle_gamma   59.51040173
_symmetry_Int_Tables_number   1
_chemical_formula_structural   TbSbPd
_chemical_formula_sum   'Tb2 Sb2 Pd2'
_cell_volume   166.38280652
_cell_formula_units_Z   2
loop_
 _symmetry_equiv_pos_site_id
 _symmetry_equiv_pos_as_xyz
  1  'x, y, z'
loop_
 _atom_site_type_symbol
 _atom_site_label
 _atom_site_symmetry_multiplicity
 _atom_site_fract_x
 _atom_site_fract_y
 _atom_site_fract_z
 _atom_site_occupancy
  Tb  Tb0  1  0.33779000  0.33779000  0.35967700  1
  Tb  Tb1  1  0.66221000  0.66221000  0.64032300  1
  Sb  Sb2  1  0.99163100  0.99163100  0.80842200  1
  Sb  Sb3  1  0.00836900  0.00836900  0.19157800  1
  Pd  Pd4  1  0.67084900  0.67084900  0.27992800  1
  Pd  Pd5  1  0.32915100  0.32915100  0.72007200  1
