# generated using pymatgen
data_Pr2P3H5WO9
_symmetry_space_group_name_H-M   'P 1'
_cell_length_a   8.67591500
_cell_length_b   9.32845700
_cell_length_c   13.70922437
_cell_angle_alpha   67.77071081
_cell_angle_beta   90.00000000
_cell_angle_gamma   90.00000000
_symmetry_Int_Tables_number   1
_chemical_formula_structural   Pr2P3H5WO9
_chemical_formula_sum   'Pr8 P12 H20 W4 O36'
_cell_volume   1027.06423783
_cell_formula_units_Z   4
loop_
 _symmetry_equiv_pos_site_id
 _symmetry_equiv_pos_as_xyz
  1  'x, y, z'
loop_
 _atom_site_type_symbol
 _atom_site_label
 _atom_site_symmetry_multiplicity
 _atom_site_fract_x
 _atom_site_fract_y
 _atom_site_fract_z
 _atom_site_occupancy
  Pr  Pr0  1  0.80233500  0.91903300  0.45968900  1
  Pr  Pr1  1  0.19766500  0.08096700  0.54031100  1
  Pr  Pr2  1  0.30233500  0.08096700  0.04031100  1
  Pr  Pr3  1  0.69766500  0.91903300  0.95968900  1
  Pr  Pr4  1  0.94088700  0.68568000  0.24614500  1
  Pr  Pr5  1  0.05911300  0.31432000  0.75385500  1
  Pr  Pr6  1  0.44088700  0.31432000  0.25385500  1
  Pr  Pr7  1  0.55911300  0.68568000  0.74614500  1
  P  P8  1  0.72962300  0.55960000  0.05376200  1
  P  P9  1  0.27037700  0.44040000  0.94623800  1
  P  P10  1  0.22962300  0.44040000  0.44623800  1
  P  P11  1  0.77037700  0.55960000  0.55376200  1
  P  P12  1  0.41364800  0.94114700  0.32686000  1
  P  P13  1  0.58635200  0.05885300  0.67314000  1
  P  P14  1  0.91364800  0.05885300  0.17314000  1
  P  P15  1  0.08635200  0.94114700  0.82686000  1
  P  P16  1  0.28453300  0.73367800  0.07859800  1
  P  P17  1  0.71546700  0.26632200  0.92140200  1
  P  P18  1  0.78453300  0.26632200  0.42140200  1
  P  P19  1  0.21546700  0.73367800  0.57859800  1
  H  H20  1  0.59260300  0.74158900  0.22797500  1
  H  H21  1  0.40739700  0.25841100  0.77202500  1
  H  H22  1  0.09260300  0.25841100  0.27202500  1
  H  H23  1  0.90739700  0.74158900  0.72797500  1
  H  H24  1  0.87397100  0.49891700  0.02736500  1
  H  H25  1  0.12602900  0.50108300  0.97263500  1
  H  H26  1  0.37397100  0.50108300  0.47263500  1
  H  H27  1  0.62602900  0.49891700  0.52736500  1
  H  H28  1  0.30200400  0.83230300  0.32547300  1
  H  H29  1  0.69799600  0.16769700  0.67452700  1
  H  H30  1  0.80200400  0.16769700  0.17452700  1
  H  H31  1  0.19799600  0.83230300  0.82547300  1
  H  H32  1  0.20592100  0.73527000  0.98880200  1
  H  H33  1  0.79407900  0.26473000  0.01119800  1
  H  H34  1  0.70592100  0.26473000  0.51119800  1
  H  H35  1  0.29407900  0.73527000  0.48880200  1
  H  H36  1  0.50046000  0.49877900  0.32222200  1
  H  H37  1  0.49954000  0.50122100  0.67777800  1
  H  H38  1  0.00046000  0.50122100  0.17777800  1
  H  H39  1  0.99954000  0.49877900  0.82222200  1
  W  W40  1  0.63124800  0.62316400  0.35875400  1
  W  W41  1  0.36875200  0.37683600  0.64124600  1
  W  W42  1  0.13124800  0.37683600  0.14124600  1
  W  W43  1  0.86875200  0.62316400  0.85875400  1
  O  O44  1  0.80673400  0.43988100  0.35479400  1
  O  O45  1  0.19326600  0.56011900  0.64520600  1
  O  O46  1  0.30673400  0.56011900  0.14520600  1
  O  O47  1  0.69326600  0.43988100  0.85479400  1
  O  O48  1  0.56078900  0.84447400  0.37932500  1
  O  O49  1  0.43921100  0.15552600  0.62067500  1
  O  O50  1  0.06078900  0.15552600  0.12067500  1
  O  O51  1  0.93921100  0.84447400  0.87932500  1
  O  O52  1  0.64051300  0.42203900  0.12535200  1
  O  O53  1  0.35948700  0.57796100  0.87464800  1
  O  O54  1  0.14051300  0.57796100  0.37464800  1
  O  O55  1  0.85948700  0.42203900  0.62535200  1
  O  O56  1  0.84738500  0.66457000  0.44630000  1
  O  O57  1  0.15261500  0.33543000  0.55370000  1
  O  O58  1  0.34738500  0.33543000  0.05370000  1
  O  O59  1  0.65261500  0.66457000  0.94630000  1
  O  O60  1  0.18182700  0.81876000  0.13221500  1
  O  O61  1  0.81817300  0.18124000  0.86778500  1
  O  O62  1  0.68182700  0.18124000  0.36778500  1
  O  O63  1  0.31817300  0.81876000  0.63221500  1
  O  O64  1  0.43024100  0.83741000  0.03851600  1
  O  O65  1  0.56975900  0.16259000  0.96148400  1
  O  O66  1  0.93024100  0.16259000  0.46148400  1
  O  O67  1  0.06975900  0.83741000  0.53851600  1
  O  O68  1  0.85742800  0.96412500  0.10893000  1
  O  O69  1  0.14257200  0.03587500  0.89107000  1
  O  O70  1  0.35742800  0.03587500  0.39107000  1
  O  O71  1  0.64257200  0.96412500  0.60893000  1
  O  O72  1  0.93714100  0.94635600  0.28907200  1
  O  O73  1  0.06285900  0.05364400  0.71092800  1
  O  O74  1  0.43714100  0.05364400  0.21092800  1
  O  O75  1  0.56285900  0.94635600  0.78907200  1
  O  O76  1  0.78202300  0.67936400  0.09994900  1
  O  O77  1  0.21797700  0.32063600  0.90005100  1
  O  O78  1  0.28202300  0.32063600  0.40005100  1
  O  O79  1  0.71797700  0.67936400  0.59994900  1
