# generated using pymatgen
data_YTc2Cl8O9
_symmetry_space_group_name_H-M   'P 1'
_cell_length_a   11.85687200
_cell_length_b   7.07811400
_cell_length_c   11.54927683
_cell_angle_alpha   83.92112987
_cell_angle_beta   90.00000000
_cell_angle_gamma   90.00000000
_symmetry_Int_Tables_number   1
_chemical_formula_structural   YTc2Cl8O9
_chemical_formula_sum   'Y2 Tc4 Cl16 O18'
_cell_volume   963.81476444
_cell_formula_units_Z   2
loop_
 _symmetry_equiv_pos_site_id
 _symmetry_equiv_pos_as_xyz
  1  'x, y, z'
loop_
 _atom_site_type_symbol
 _atom_site_label
 _atom_site_symmetry_multiplicity
 _atom_site_fract_x
 _atom_site_fract_y
 _atom_site_fract_z
 _atom_site_occupancy
  Y  Y0  1  0.15365900  0.03798400  0.80210800  1
  Y  Y1  1  0.65365900  0.96201600  0.19789200  1
  Tc  Tc2  1  0.99241400  0.44803900  0.22368800  1
  Tc  Tc3  1  0.49241400  0.55196100  0.77631200  1
  Tc  Tc4  1  0.95866900  0.75150900  0.22558600  1
  Tc  Tc5  1  0.45866900  0.24849100  0.77441400  1
  Cl  Cl6  1  0.06640800  0.36307000  0.40466000  1
  Cl  Cl7  1  0.89654300  0.35553800  0.06795400  1
  Cl  Cl8  1  0.56640800  0.63693000  0.59534000  1
  Cl  Cl9  1  0.39654300  0.64446200  0.93204600  1
  Cl  Cl10  1  0.33821400  0.72642800  0.66163600  1
  Cl  Cl11  1  0.66253300  0.55384500  0.86539800  1
  Cl  Cl12  1  0.16253300  0.44615500  0.13460200  1
  Cl  Cl13  1  0.83821400  0.27357200  0.33836400  1
  Cl  Cl14  1  0.80876300  0.75964300  0.35634800  1
  Cl  Cl15  1  0.10450600  0.91200600  0.10772200  1
  Cl  Cl16  1  0.30876300  0.24035700  0.64365200  1
  Cl  Cl17  1  0.60450600  0.08799400  0.89227800  1
  Cl  Cl18  1  0.32604300  0.17828500  0.92770200  1
  Cl  Cl19  1  0.58284800  0.16487400  0.63717500  1
  Cl  Cl20  1  0.08284800  0.83512600  0.36282500  1
  Cl  Cl21  1  0.82604300  0.82171500  0.07229800  1
  O  O22  1  0.83359400  0.00566900  0.65931900  1
  O  O23  1  0.23197300  0.79351700  0.73490200  1
  O  O24  1  0.33359400  0.99433100  0.34068100  1
  O  O25  1  0.73197300  0.20648300  0.26509800  1
  O  O26  1  0.07786800  0.95616700  0.97002200  1
  O  O27  1  0.91121700  0.99874000  0.58870200  1
  O  O28  1  0.41121700  0.00126000  0.41129800  1
  O  O29  1  0.57786800  0.04383300  0.02997800  1
  O  O30  1  0.99735800  0.71804400  0.76433200  1
  O  O31  1  0.01242000  0.60098000  0.85078100  1
  O  O32  1  0.49735800  0.28195600  0.23566800  1
  O  O33  1  0.51242000  0.39902000  0.14921900  1
  O  O34  1  0.05239000  0.25386000  0.71323100  1
  O  O35  1  0.94206500  0.35261000  0.73856100  1
  O  O36  1  0.44206500  0.64739000  0.26143900  1
  O  O37  1  0.55239000  0.74614000  0.28676900  1
  O  O38  1  0.91551300  0.47934600  0.65883500  1
  O  O39  1  0.41551300  0.52065400  0.34116500  1
