# generated using pymatgen
data_CeSe2
_symmetry_space_group_name_H-M   'P 1'
_cell_length_a   4.90519320
_cell_length_b   4.90519374
_cell_length_c   11.78866200
_cell_angle_alpha   90.00000000
_cell_angle_beta   90.00000000
_cell_angle_gamma   119.99999282
_symmetry_Int_Tables_number   1
_chemical_formula_structural   CeSe2
_chemical_formula_sum   'Ce3 Se6'
_cell_volume   245.64473579
_cell_formula_units_Z   3
loop_
 _symmetry_equiv_pos_site_id
 _symmetry_equiv_pos_as_xyz
  1  'x, y, z'
loop_
 _atom_site_type_symbol
 _atom_site_label
 _atom_site_symmetry_multiplicity
 _atom_site_fract_x
 _atom_site_fract_y
 _atom_site_fract_z
 _atom_site_occupancy
  Ce  Ce0  1  0.65980200  0.00031200  0.99981900  1
  Ce  Ce1  1  0.34051000  0.34019800  0.33315300  1
  Ce  Ce2  1  0.99968800  0.65949000  0.66648600  1
  Se  Se3  1  0.32913300  0.33338100  0.08116800  1
  Se  Se4  1  0.00424800  0.67086700  0.41450200  1
  Se  Se5  1  0.66661900  0.99575200  0.74783500  1
  Se  Se6  1  0.99582700  0.66715000  0.91904600  1
  Se  Se7  1  0.33285000  0.32867600  0.58571200  1
  Se  Se8  1  0.67132400  0.00417300  0.25237900  1
