# generated using pymatgen
data_Si(NF3)2
_symmetry_space_group_name_H-M   'P 1'
_cell_length_a   5.63729409
_cell_length_b   5.63729409
_cell_length_c   5.03552442
_cell_angle_alpha   89.14032200
_cell_angle_beta   89.14032200
_cell_angle_gamma   61.11924568
_symmetry_Int_Tables_number   1
_chemical_formula_structural   Si(NF3)2
_chemical_formula_sum   'Si1 N2 F6'
_cell_volume   140.10034647
_cell_formula_units_Z   1
loop_
 _symmetry_equiv_pos_site_id
 _symmetry_equiv_pos_as_xyz
  1  'x, y, z'
loop_
 _atom_site_type_symbol
 _atom_site_label
 _atom_site_symmetry_multiplicity
 _atom_site_fract_x
 _atom_site_fract_y
 _atom_site_fract_z
 _atom_site_occupancy
  Si  Si0  1  0.00000000  0.00000000  0.00000000  1
  N  N1  1  0.75449800  0.75449800  0.27613900  1
  N  N2  1  0.24550200  0.24550200  0.72386100  1
  F  F3  1  0.88958000  0.88958000  0.75560900  1
  F  F4  1  0.89942800  0.30828900  0.82897200  1
  F  F5  1  0.30828900  0.89942800  0.82897200  1
  F  F6  1  0.11042000  0.11042000  0.24439100  1
  F  F7  1  0.10057200  0.69171100  0.17102800  1
  F  F8  1  0.69171100  0.10057200  0.17102800  1
