# generated using pymatgen
data_As2C4S2O
_symmetry_space_group_name_H-M   'P 1'
_cell_length_a   12.20385156
_cell_length_b   12.20385156
_cell_length_c   14.02534168
_cell_angle_alpha   78.38194685
_cell_angle_beta   78.38194685
_cell_angle_gamma   26.10546382
_symmetry_Int_Tables_number   1
_chemical_formula_structural   As2C4S2O
_chemical_formula_sum   'As8 C16 S8 O4'
_cell_volume   899.29092780
_cell_formula_units_Z   4
loop_
 _symmetry_equiv_pos_site_id
 _symmetry_equiv_pos_as_xyz
  1  'x, y, z'
loop_
 _atom_site_type_symbol
 _atom_site_label
 _atom_site_symmetry_multiplicity
 _atom_site_fract_x
 _atom_site_fract_y
 _atom_site_fract_z
 _atom_site_occupancy
  As  As0  1  0.19838400  0.93789000  0.98251800  1
  As  As1  1  0.06211000  0.80161600  0.51748200  1
  As  As2  1  0.80161600  0.06211000  0.01748200  1
  As  As3  1  0.93789000  0.19838400  0.48251800  1
  As  As4  1  0.29482500  0.08061600  0.07157700  1
  As  As5  1  0.91938400  0.70517500  0.42842300  1
  As  As6  1  0.70517500  0.91938400  0.92842300  1
  As  As7  1  0.08061600  0.29482500  0.57157700  1
  C  C8  1  0.53250600  0.50080800  0.88930800  1
  C  C9  1  0.49919200  0.46749500  0.61069200  1
  C  C10  1  0.46749500  0.49919200  0.11069200  1
  C  C11  1  0.50080800  0.53250500  0.38930800  1
  C  C12  1  0.47035800  0.64882400  0.90828500  1
  C  C13  1  0.35117600  0.52964200  0.59171500  1
  C  C14  1  0.52964200  0.35117600  0.09171500  1
  C  C15  1  0.64882400  0.47035800  0.40828500  1
  C  C16  1  0.04856800  0.42565800  0.03958500  1
  C  C17  1  0.57434200  0.95143200  0.46041500  1
  C  C18  1  0.95143200  0.57434200  0.96041500  1
  C  C19  1  0.42565800  0.04856800  0.53958500  1
  C  C20  1  0.03890500  0.27191900  0.18533000  1
  C  C21  1  0.72808100  0.96109500  0.31467000  1
  C  C22  1  0.96109500  0.72808100  0.81467000  1
  C  C23  1  0.27191900  0.03890500  0.68533000  1
  S  S24  1  0.37847600  0.69988500  0.13575300  1
  S  S25  1  0.30011500  0.62152400  0.36424700  1
  S  S26  1  0.62152400  0.30011500  0.86424700  1
  S  S27  1  0.69988500  0.37847600  0.63575300  1
  S  S28  1  0.93190400  0.49914400  0.16338800  1
  S  S29  1  0.50085600  0.06809600  0.33661200  1
  S  S30  1  0.06809600  0.50085600  0.83661200  1
  S  S31  1  0.49914400  0.93190400  0.66338800  1
  O  O32  1  0.26280200  0.02839500  0.97694300  1
  O  O33  1  0.97160500  0.73719800  0.52305700  1
  O  O34  1  0.73719800  0.97160500  0.02305700  1
  O  O35  1  0.02839500  0.26280200  0.47694300  1
