# generated using pymatgen
data_H8C2N6O7
_symmetry_space_group_name_H-M   'P 1'
_cell_length_a   8.41973972
_cell_length_b   8.41973972
_cell_length_c   7.88367518
_cell_angle_alpha   84.48714554
_cell_angle_beta   84.48714554
_cell_angle_gamma   120.75887565
_symmetry_Int_Tables_number   1
_chemical_formula_structural   H8C2N6O7
_chemical_formula_sum   'H16 C4 N12 O14'
_cell_volume   471.10932719
_cell_formula_units_Z   2
loop_
 _symmetry_equiv_pos_site_id
 _symmetry_equiv_pos_as_xyz
  1  'x, y, z'
loop_
 _atom_site_type_symbol
 _atom_site_label
 _atom_site_symmetry_multiplicity
 _atom_site_fract_x
 _atom_site_fract_y
 _atom_site_fract_z
 _atom_site_occupancy
  H  H0  1  0.38256400  0.23651000  0.95732700  1
  H  H1  1  0.76349000  0.61743600  0.54267300  1
  H  H2  1  0.61743600  0.76349000  0.04267300  1
  H  H3  1  0.23651000  0.38256400  0.45732700  1
  H  H4  1  0.56884600  0.21820500  0.85659700  1
  H  H5  1  0.78179500  0.43115400  0.64340300  1
  H  H6  1  0.43115400  0.78179500  0.14340300  1
  H  H7  1  0.21820500  0.56884600  0.35659700  1
  H  H8  1  0.34297700  0.47769000  0.82954900  1
  H  H9  1  0.52231000  0.65702300  0.67045100  1
  H  H10  1  0.65702300  0.52231000  0.17045100  1
  H  H11  1  0.47769000  0.34297700  0.32954900  1
  H  H12  1  0.89328100  0.23353000  0.81173300  1
  H  H13  1  0.76647000  0.10671900  0.68826700  1
  H  H14  1  0.10671900  0.76647000  0.18826700  1
  H  H15  1  0.23353000  0.89328100  0.31173300  1
  C  C16  1  0.11518900  0.88481100  0.75000000  1
  C  C17  1  0.88481100  0.11518900  0.25000000  1
  C  C18  1  0.55938300  0.44061700  0.75000000  1
  C  C19  1  0.44061700  0.55938300  0.25000000  1
  N  N20  1  0.21601700  0.78398300  0.75000000  1
  N  N21  1  0.78398300  0.21601700  0.25000000  1
  N  N22  1  0.18599700  0.04082800  0.62420600  1
  N  N23  1  0.95917200  0.81400300  0.87579400  1
  N  N24  1  0.81400300  0.95917200  0.37579400  1
  N  N25  1  0.04082800  0.18599700  0.12420600  1
  N  N26  1  0.46769400  0.53230600  0.75000000  1
  N  N27  1  0.53230600  0.46769400  0.25000000  1
  N  N28  1  0.49159800  0.28035800  0.85944900  1
  N  N29  1  0.71964200  0.50840200  0.64055100  1
  N  N30  1  0.50840200  0.71964200  0.14055100  1
  N  N31  1  0.28035800  0.49159800  0.35944900  1
  O  O32  1  0.15139400  0.64213400  0.68155900  1
  O  O33  1  0.35786600  0.84860600  0.81844100  1
  O  O34  1  0.84860600  0.35786600  0.31844100  1
  O  O35  1  0.64213400  0.15139400  0.18155900  1
  O  O36  1  0.32371900  0.07483400  0.51249400  1
  O  O37  1  0.92516600  0.67628100  0.98750600  1
  O  O38  1  0.67628100  0.92516600  0.48750600  1
  O  O39  1  0.07483400  0.32371900  0.01249400  1
  O  O40  1  0.11748000  0.14284400  0.62293500  1
  O  O41  1  0.85715600  0.88252000  0.87706500  1
  O  O42  1  0.88252100  0.85715600  0.37706500  1
  O  O43  1  0.14284400  0.11747900  0.12293500  1
  O  O44  1  0.78993600  0.21006400  0.75000000  1
  O  O45  1  0.21006400  0.78993600  0.25000000  1
