# generated using pymatgen
data_LuMgSe3
_symmetry_space_group_name_H-M   'P 1'
_cell_length_a   7.31046167
_cell_length_b   7.31046167
_cell_length_c   6.85701455
_cell_angle_alpha   76.04081410
_cell_angle_beta   76.04081410
_cell_angle_gamma   118.98391274
_symmetry_Int_Tables_number   1
_chemical_formula_structural   LuMgSe3
_chemical_formula_sum   'Lu2 Mg2 Se6'
_cell_volume   282.05813354
_cell_formula_units_Z   2
loop_
 _symmetry_equiv_pos_site_id
 _symmetry_equiv_pos_as_xyz
  1  'x, y, z'
loop_
 _atom_site_type_symbol
 _atom_site_label
 _atom_site_symmetry_multiplicity
 _atom_site_fract_x
 _atom_site_fract_y
 _atom_site_fract_z
 _atom_site_occupancy
  Lu  Lu0  1  0.79994200  0.79994200  0.30918000  1
  Lu  Lu1  1  0.20005800  0.20005800  0.69082000  1
  Mg  Mg2  1  0.33435800  0.66564200  0.00000000  1
  Mg  Mg3  1  0.66564200  0.33435800  0.00000000  1
  Se  Se4  1  0.21639000  0.87958700  0.21714500  1
  Se  Se5  1  0.78361000  0.12041300  0.78285500  1
  Se  Se6  1  0.12041300  0.78361000  0.78285500  1
  Se  Se7  1  0.87958700  0.21639000  0.21714500  1
  Se  Se8  1  0.53718500  0.53718500  0.74194900  1
  Se  Se9  1  0.46281500  0.46281500  0.25805100  1
