# generated using pymatgen
data_SnH4SNO4F
_symmetry_space_group_name_H-M   'P 1'
_cell_length_a   14.12438700
_cell_length_b   5.05482900
_cell_length_c   9.14508062
_cell_angle_alpha   86.24432339
_cell_angle_beta   90.00000000
_cell_angle_gamma   90.00000000
_symmetry_Int_Tables_number   1
_chemical_formula_structural   SnH4SNO4F
_chemical_formula_sum   'Sn4 H16 S4 N4 O16 F4'
_cell_volume   651.52328006
_cell_formula_units_Z   4
loop_
 _symmetry_equiv_pos_site_id
 _symmetry_equiv_pos_as_xyz
  1  'x, y, z'
loop_
 _atom_site_type_symbol
 _atom_site_label
 _atom_site_symmetry_multiplicity
 _atom_site_fract_x
 _atom_site_fract_y
 _atom_site_fract_z
 _atom_site_occupancy
  Sn  Sn0  1  0.26516700  0.88567800  0.46169500  1
  Sn  Sn1  1  0.76516700  0.11432200  0.03830500  1
  Sn  Sn2  1  0.73483300  0.11432200  0.53830500  1
  Sn  Sn3  1  0.23483300  0.88567800  0.96169500  1
  H  H4  1  0.04964900  0.24764000  0.88057000  1
  H  H5  1  0.54964900  0.75236000  0.61943000  1
  H  H6  1  0.95035100  0.75236000  0.11943000  1
  H  H7  1  0.45035100  0.24764000  0.38057000  1
  H  H8  1  0.11592400  0.41491300  0.75057400  1
  H  H9  1  0.61592400  0.58508700  0.74942600  1
  H  H10  1  0.88407600  0.58508700  0.24942600  1
  H  H11  1  0.38407600  0.41491300  0.25057400  1
  H  H12  1  0.93640100  0.35960800  0.73875700  1
  H  H13  1  0.43640100  0.64039200  0.76124300  1
  H  H14  1  0.06359900  0.64039200  0.26124300  1
  H  H15  1  0.56359900  0.35960800  0.23875700  1
  H  H16  1  0.08715200  0.09560400  0.73317300  1
  H  H17  1  0.58715200  0.90439600  0.76682700  1
  H  H18  1  0.91284800  0.90439600  0.26682700  1
  H  H19  1  0.41284800  0.09560400  0.23317300  1
  S  S20  1  0.37110100  0.26984900  0.71587200  1
  S  S21  1  0.87110100  0.73015100  0.78412800  1
  S  S22  1  0.62889900  0.73015100  0.28412800  1
  S  S23  1  0.12889900  0.26984900  0.21587200  1
  N  N24  1  0.10279600  0.23535400  0.80561400  1
  N  N25  1  0.60279600  0.76464600  0.69438600  1
  N  N26  1  0.89720400  0.76464600  0.19438600  1
  N  N27  1  0.39720400  0.23535400  0.30561400  1
  O  O28  1  0.28843700  0.23975900  0.62054800  1
  O  O29  1  0.78843700  0.76024100  0.87945200  1
  O  O30  1  0.71156300  0.76024100  0.37945200  1
  O  O31  1  0.21156300  0.23975900  0.12054800  1
  O  O32  1  0.12867600  0.58761900  0.23559200  1
  O  O33  1  0.62867600  0.41238100  0.26440800  1
  O  O34  1  0.87132400  0.41238100  0.76440800  1
  O  O35  1  0.37132400  0.58761900  0.73559200  1
  O  O36  1  0.14482800  0.14674400  0.36546700  1
  O  O37  1  0.64482800  0.85325600  0.13453300  1
  O  O38  1  0.85517200  0.85325600  0.63453300  1
  O  O39  1  0.35517200  0.14674400  0.86546700  1
  O  O40  1  0.46174700  0.20354000  0.65476600  1
  O  O41  1  0.96174700  0.79646000  0.84523400  1
  O  O42  1  0.53825300  0.79646000  0.34523400  1
  O  O43  1  0.03825300  0.20354000  0.15476600  1
  F  F44  1  0.16152500  0.78210400  0.61370300  1
  F  F45  1  0.66152500  0.21789600  0.88629700  1
  F  F46  1  0.83847500  0.21789600  0.38629700  1
  F  F47  1  0.33847500  0.78210400  0.11370300  1
