# generated using pymatgen
data_YMgS3
_symmetry_space_group_name_H-M   'P 1'
_cell_length_a   6.92440926
_cell_length_b   6.92440926
_cell_length_c   6.78842989
_cell_angle_alpha   73.71084850
_cell_angle_beta   73.71084850
_cell_angle_gamma   111.76076144
_symmetry_Int_Tables_number   1
_chemical_formula_structural   YMgS3
_chemical_formula_sum   'Y2 Mg2 S6'
_cell_volume   261.78653399
_cell_formula_units_Z   2
loop_
 _symmetry_equiv_pos_site_id
 _symmetry_equiv_pos_as_xyz
  1  'x, y, z'
loop_
 _atom_site_type_symbol
 _atom_site_label
 _atom_site_symmetry_multiplicity
 _atom_site_fract_x
 _atom_site_fract_y
 _atom_site_fract_z
 _atom_site_occupancy
  Y  Y0  1  0.78138100  0.78138100  0.25166900  1
  Y  Y1  1  0.21861900  0.21861900  0.74833100  1
  Mg  Mg2  1  0.33973300  0.66026700  0.00000000  1
  Mg  Mg3  1  0.66026700  0.33973300  0.00000000  1
  S  S4  1  0.22846100  0.92659400  0.14680600  1
  S  S5  1  0.77153900  0.07340600  0.85319400  1
  S  S6  1  0.07340600  0.77153900  0.85319400  1
  S  S7  1  0.92659400  0.22846100  0.14680600  1
  S  S8  1  0.58248400  0.58248400  0.70890900  1
  S  S9  1  0.41751600  0.41751600  0.29109100  1
