# generated using pymatgen
data_InAs(H2O3)2
_symmetry_space_group_name_H-M   'P 1'
_cell_length_a   9.62859200
_cell_length_b   10.68259000
_cell_length_c   11.63110700
_cell_angle_alpha   90.00000000
_cell_angle_beta   90.00000000
_cell_angle_gamma   90.00000000
_symmetry_Int_Tables_number   1
_chemical_formula_structural   InAs(H2O3)2
_chemical_formula_sum   'In8 As8 H32 O48'
_cell_volume   1196.35590027
_cell_formula_units_Z   8
loop_
 _symmetry_equiv_pos_site_id
 _symmetry_equiv_pos_as_xyz
  1  'x, y, z'
loop_
 _atom_site_type_symbol
 _atom_site_label
 _atom_site_symmetry_multiplicity
 _atom_site_fract_x
 _atom_site_fract_y
 _atom_site_fract_z
 _atom_site_occupancy
  In  In0  1  0.78958800  0.88491500  0.07430700  1
  In  In1  1  0.71041200  0.38491500  0.92569300  1
  In  In2  1  0.28958800  0.11508500  0.42569300  1
  In  In3  1  0.21041200  0.61508500  0.57430700  1
  In  In4  1  0.21041200  0.11508500  0.92569300  1
  In  In5  1  0.28958800  0.61508500  0.07430700  1
  In  In6  1  0.71041200  0.88491500  0.57430700  1
  In  In7  1  0.78958800  0.38491500  0.42569300  1
  As  As8  1  0.62462600  0.55691400  0.17786300  1
  As  As9  1  0.87537400  0.05691400  0.82213700  1
  As  As10  1  0.12462600  0.44308600  0.32213700  1
  As  As11  1  0.37537400  0.94308600  0.67786300  1
  As  As12  1  0.37537400  0.44308600  0.82213700  1
  As  As13  1  0.12462600  0.94308600  0.17786300  1
  As  As14  1  0.87537400  0.55691400  0.67786300  1
  As  As15  1  0.62462600  0.05691400  0.32213700  1
  H  H16  1  0.78146300  0.83587700  0.31783200  1
  H  H17  1  0.71853700  0.33587700  0.68216800  1
  H  H18  1  0.28146300  0.16412300  0.18216800  1
  H  H19  1  0.21853700  0.66412300  0.81783200  1
  H  H20  1  0.21853700  0.16412300  0.68216800  1
  H  H21  1  0.28146300  0.66412300  0.31783200  1
  H  H22  1  0.71853700  0.83587700  0.81783200  1
  H  H23  1  0.78146300  0.33587700  0.18216800  1
  H  H24  1  0.94258000  0.38505000  0.81644200  1
  H  H25  1  0.55742000  0.88505000  0.18355800  1
  H  H26  1  0.44258000  0.61495000  0.68355800  1
  H  H27  1  0.05742000  0.11495000  0.31644200  1
  H  H28  1  0.05742000  0.61495000  0.18355800  1
  H  H29  1  0.44258000  0.11495000  0.81644200  1
  H  H30  1  0.55742000  0.38505000  0.31644200  1
  H  H31  1  0.94258000  0.88505000  0.68355800  1
  H  H32  1  0.93765600  0.64225700  0.32958000  1
  H  H33  1  0.56234400  0.14225700  0.67042000  1
  H  H34  1  0.43765600  0.35774300  0.17042000  1
  H  H35  1  0.06234400  0.85774300  0.82958000  1
  H  H36  1  0.06234400  0.35774300  0.67042000  1
  H  H37  1  0.43765600  0.85774300  0.32958000  1
  H  H38  1  0.56234400  0.64225700  0.82958000  1
  H  H39  1  0.93765600  0.14225700  0.17042000  1
  H  H40  1  0.11898900  0.75790300  0.96771700  1
  H  H41  1  0.38101100  0.25790300  0.03228300  1
  H  H42  1  0.61898900  0.24209700  0.53228300  1
  H  H43  1  0.88101100  0.74209700  0.46771700  1
  H  H44  1  0.88101100  0.24209700  0.03228300  1
  H  H45  1  0.61898900  0.74209700  0.96771700  1
  H  H46  1  0.38101100  0.75790300  0.46771700  1
  H  H47  1  0.11898900  0.25790300  0.53228300  1
  O  O48  1  0.81826200  0.77025700  0.25870200  1
  O  O49  1  0.68173800  0.27025700  0.74129800  1
  O  O50  1  0.31826200  0.22974300  0.24129800  1
  O  O51  1  0.18173800  0.72974300  0.75870200  1
  O  O52  1  0.18173800  0.22974300  0.74129800  1
  O  O53  1  0.31826200  0.72974300  0.25870200  1
  O  O54  1  0.68173800  0.77025700  0.75870200  1
  O  O55  1  0.81826200  0.27025700  0.24129800  1
  O  O56  1  0.95308200  0.73432200  0.30847800  1
  O  O57  1  0.54691800  0.23432200  0.69152200  1
  O  O58  1  0.45308200  0.26567800  0.19152200  1
  O  O59  1  0.04691800  0.76567800  0.80847800  1
  O  O60  1  0.04691800  0.26567800  0.69152200  1
  O  O61  1  0.45308200  0.76567800  0.30847800  1
  O  O62  1  0.54691800  0.73432200  0.80847800  1
  O  O63  1  0.95308200  0.23432200  0.19152200  1
  O  O64  1  0.66893000  0.72746200  0.04022900  1
  O  O65  1  0.83107000  0.22746200  0.95977100  1
  O  O66  1  0.16893000  0.27253800  0.45977100  1
  O  O67  1  0.33107000  0.77253800  0.54022900  1
  O  O68  1  0.33107000  0.27253800  0.95977100  1
  O  O69  1  0.16893000  0.77253800  0.04022900  1
  O  O70  1  0.83107000  0.72746200  0.54022900  1
  O  O71  1  0.66893000  0.22746200  0.45977100  1
  O  O72  1  0.95234700  0.99387200  0.13545100  1
  O  O73  1  0.54765300  0.49387200  0.86454900  1
  O  O74  1  0.45234700  0.00612800  0.36454900  1
  O  O75  1  0.04765300  0.50612800  0.63545100  1
  O  O76  1  0.04765300  0.00612800  0.86454900  1
  O  O77  1  0.45234700  0.50612800  0.13545100  1
  O  O78  1  0.54765300  0.99387200  0.63545100  1
  O  O79  1  0.95234700  0.49387200  0.36454900  1
  O  O80  1  0.61872600  0.95816700  0.17406000  1
  O  O81  1  0.88127400  0.45816700  0.82594000  1
  O  O82  1  0.11872600  0.04183300  0.32594000  1
  O  O83  1  0.38127400  0.54183300  0.67406000  1
  O  O84  1  0.38127400  0.04183300  0.82594000  1
  O  O85  1  0.11872600  0.54183300  0.17406000  1
  O  O86  1  0.88127400  0.95816700  0.67406000  1
  O  O87  1  0.61872600  0.45816700  0.32594000  1
  O  O88  1  0.78269000  0.93566600  0.89809000  1
  O  O89  1  0.71731000  0.43566600  0.10191000  1
  O  O90  1  0.28269000  0.06433400  0.60191000  1
  O  O91  1  0.21731000  0.56433400  0.39809000  1
  O  O92  1  0.21731000  0.06433400  0.10191000  1
  O  O93  1  0.28269000  0.56433400  0.89809000  1
  O  O94  1  0.71731000  0.93566600  0.39809000  1
  O  O95  1  0.78269000  0.43566600  0.60191000  1
