# generated using pymatgen
data_Cs2Zn5P6(HO2)14
_symmetry_space_group_name_H-M   'P 1'
_cell_length_a   8.84692325
_cell_length_b   10.09675857
_cell_length_c   10.05087918
_cell_angle_alpha   114.05135917
_cell_angle_beta   112.79884518
_cell_angle_gamma   95.04983720
_symmetry_Int_Tables_number   1
_chemical_formula_structural   Cs2Zn5P6(HO2)14
_chemical_formula_sum   'Cs2 Zn5 P6 H14 O28'
_cell_volume   722.82143236
_cell_formula_units_Z   1
loop_
 _symmetry_equiv_pos_site_id
 _symmetry_equiv_pos_as_xyz
  1  'x, y, z'
loop_
 _atom_site_type_symbol
 _atom_site_label
 _atom_site_symmetry_multiplicity
 _atom_site_fract_x
 _atom_site_fract_y
 _atom_site_fract_z
 _atom_site_occupancy
  Cs  Cs0  1  0.00320700  0.46188500  0.72757500  1
  Cs  Cs1  1  0.99679300  0.53811500  0.27242500  1
  Zn  Zn2  1  0.55988500  0.17207100  0.71168800  1
  Zn  Zn3  1  0.44011500  0.82792900  0.28831200  1
  Zn  Zn4  1  0.09706800  0.15925000  0.93833800  1
  Zn  Zn5  1  0.90293200  0.84075000  0.06166200  1
  Zn  Zn6  1  0.50000000  0.50000000  0.50000000  1
  P  P7  1  0.66797500  0.07117000  0.99105200  1
  P  P8  1  0.33202500  0.92883000  0.00894800  1
  P  P9  1  0.62186500  0.52013400  0.86729300  1
  P  P10  1  0.37813500  0.47986600  0.13270700  1
  P  P11  1  0.80614400  0.05328400  0.56212600  1
  P  P12  1  0.19385600  0.94671600  0.43787400  1
  H  H13  1  0.70916100  0.76797400  0.54879200  1
  H  H14  1  0.29083900  0.23202600  0.45120800  1
  H  H15  1  0.81762100  0.74331400  0.70522000  1
  H  H16  1  0.18237900  0.25668600  0.29478000  1
  H  H17  1  0.38490800  0.64450500  0.71417500  1
  H  H18  1  0.61509200  0.35549500  0.28582500  1
  H  H19  1  0.36772700  0.74302400  0.62458300  1
  H  H20  1  0.63227300  0.25697600  0.37541700  1
  H  H21  1  0.37653700  0.08003500  0.27970800  1
  H  H22  1  0.62346300  0.91996500  0.72029200  1
  H  H23  1  0.44511700  0.61071800  0.96621700  1
  H  H24  1  0.55488300  0.38928200  0.03378300  1
  H  H25  1  0.91334800  0.03274600  0.38639000  1
  H  H26  1  0.08665200  0.96725400  0.61361000  1
  O  O27  1  0.72421600  0.93757700  0.00796500  1
  O  O28  1  0.27578400  0.06242300  0.99203500  1
  O  O29  1  0.83838800  0.21084900  0.06048800  1
  O  O30  1  0.16161200  0.78915100  0.93951200  1
  O  O31  1  0.57999100  0.00150900  0.77472100  1
  O  O32  1  0.42000900  0.99849100  0.22527900  1
  O  O33  1  0.01564200  0.18890600  0.09873000  1
  O  O34  1  0.98435800  0.81109400  0.90127000  1
  O  O35  1  0.59135200  0.37298800  0.88305700  1
  O  O36  1  0.40864800  0.62701200  0.11694300  1
  O  O37  1  0.62102400  0.48423500  0.70468200  1
  O  O38  1  0.37897600  0.51576500  0.29531800  1
  O  O39  1  0.78608600  0.63656200  0.02014400  1
  O  O40  1  0.21391400  0.36343800  0.97985600  1
  O  O41  1  0.45947200  0.58287900  0.86334800  1
  O  O42  1  0.54052800  0.41712100  0.13665200  1
  O  O43  1  0.67658900  0.89338400  0.46513900  1
  O  O44  1  0.32341100  0.10661600  0.53486100  1
  O  O45  1  0.97265700  0.05337600  0.69277100  1
  O  O46  1  0.02734300  0.94662400  0.30722900  1
  O  O47  1  0.73243800  0.17971100  0.63665900  1
  O  O48  1  0.26756200  0.82028900  0.36334100  1
  O  O49  1  0.85198700  0.09591300  0.44372800  1
  O  O50  1  0.14801300  0.90408700  0.55627200  1
  O  O51  1  0.70265300  0.71124400  0.60800700  1
  O  O52  1  0.29734700  0.28875600  0.39199300  1
  O  O53  1  0.34557000  0.63856500  0.60426900  1
  O  O54  1  0.65443000  0.36143500  0.39573100  1
