# generated using pymatgen
data_K2CoH2(SO5)2
_symmetry_space_group_name_H-M   'P 1'
_cell_length_a   4.85591300
_cell_length_b   7.61409184
_cell_length_c   8.31470791
_cell_angle_alpha   106.31354439
_cell_angle_beta   95.96138936
_cell_angle_gamma   107.69987641
_symmetry_Int_Tables_number   1
_chemical_formula_structural   K2CoH2(SO5)2
_chemical_formula_sum   'K2 Co1 H2 S2 O10'
_cell_volume   274.99104090
_cell_formula_units_Z   1
loop_
 _symmetry_equiv_pos_site_id
 _symmetry_equiv_pos_as_xyz
  1  'x, y, z'
loop_
 _atom_site_type_symbol
 _atom_site_label
 _atom_site_symmetry_multiplicity
 _atom_site_fract_x
 _atom_site_fract_y
 _atom_site_fract_z
 _atom_site_occupancy
  K  K0  1  0.27912800  0.67219400  0.24933800  1
  K  K1  1  0.72087200  0.32780600  0.75066200  1
  Co  Co2  1  0.00000000  0.00000000  0.00000000  1
  H  H3  1  0.47697000  0.01908500  0.46575700  1
  H  H4  1  0.52303000  0.98091500  0.53424300  1
  S  S5  1  0.61018400  0.31749500  0.18274300  1
  S  S6  1  0.38981600  0.68250500  0.81725700  1
  O  O7  1  0.24783800  0.00685900  0.19932800  1
  O  O8  1  0.75216200  0.99314100  0.80067200  1
  O  O9  1  0.86298700  0.25428900  0.15007800  1
  O  O10  1  0.13701300  0.74571100  0.84992200  1
  O  O11  1  0.29362700  0.47766600  0.70922300  1
  O  O12  1  0.70637300  0.52233400  0.29077700  1
  O  O13  1  0.39067300  0.26777600  0.02484700  1
  O  O14  1  0.60932700  0.73222400  0.97515300  1
  O  O15  1  0.43202800  0.21110300  0.30408600  1
  O  O16  1  0.56797200  0.78889700  0.69591400  1
