# generated using pymatgen
data_BeH8(NF2)2
_symmetry_space_group_name_H-M   'P 1'
_cell_length_a   6.02407800
_cell_length_b   10.62093800
_cell_length_c   15.08398100
_cell_angle_alpha   90.00000000
_cell_angle_beta   90.00000000
_cell_angle_gamma   90.00000000
_symmetry_Int_Tables_number   1
_chemical_formula_structural   BeH8(NF2)2
_chemical_formula_sum   'Be8 H64 N16 F32'
_cell_volume   965.09360268
_cell_formula_units_Z   8
loop_
 _symmetry_equiv_pos_site_id
 _symmetry_equiv_pos_as_xyz
  1  'x, y, z'
loop_
 _atom_site_type_symbol
 _atom_site_label
 _atom_site_symmetry_multiplicity
 _atom_site_fract_x
 _atom_site_fract_y
 _atom_site_fract_z
 _atom_site_occupancy
  Be  Be0  1  0.25106800  0.07940800  0.99666100  1
  Be  Be1  1  0.74893200  0.57940800  0.00333900  1
  Be  Be2  1  0.75106800  0.57940800  0.50333900  1
  Be  Be3  1  0.24893200  0.07940800  0.49666100  1
  Be  Be4  1  0.24757300  0.41876800  0.25040200  1
  Be  Be5  1  0.75242700  0.91876800  0.74959800  1
  Be  Be6  1  0.74757300  0.91876800  0.24959800  1
  Be  Be7  1  0.25242700  0.41876800  0.75040200  1
  H  H8  1  0.22747200  0.37359400  0.03540400  1
  H  H9  1  0.77252800  0.87359400  0.96459600  1
  H  H10  1  0.72747200  0.87359400  0.46459600  1
  H  H11  1  0.27252800  0.37359400  0.53540400  1
  H  H12  1  0.21231900  0.33436600  0.92493400  1
  H  H13  1  0.78768100  0.83436600  0.07506600  1
  H  H14  1  0.71231900  0.83436600  0.57506600  1
  H  H15  1  0.28768100  0.33436600  0.42493400  1
  H  H16  1  0.40182600  0.43845500  0.96131400  1
  H  H17  1  0.59817400  0.93845500  0.03868600  1
  H  H18  1  0.90182600  0.93845500  0.53868600  1
  H  H19  1  0.09817400  0.43845500  0.46131400  1
  H  H20  1  0.13163100  0.47799300  0.95908100  1
  H  H21  1  0.86836900  0.97799300  0.04091900  1
  H  H22  1  0.63163100  0.97799300  0.54091900  1
  H  H23  1  0.36836900  0.47799300  0.45908100  1
  H  H24  1  0.26324100  0.79037200  0.11544500  1
  H  H25  1  0.73675900  0.29037200  0.88455500  1
  H  H26  1  0.76324100  0.29037200  0.38455500  1
  H  H27  1  0.23675900  0.79037200  0.61544500  1
  H  H28  1  0.28072000  0.64492500  0.16023300  1
  H  H29  1  0.71928000  0.14492500  0.83976700  1
  H  H30  1  0.78072000  0.14492500  0.33976700  1
  H  H31  1  0.21928000  0.64492500  0.66023300  1
  H  H32  1  0.37159900  0.67320800  0.05304400  1
  H  H33  1  0.62840100  0.17320800  0.94695600  1
  H  H34  1  0.87159900  0.17320800  0.44695600  1
  H  H35  1  0.12840100  0.67320800  0.55304400  1
  H  H36  1  0.09982000  0.67484800  0.07764500  1
  H  H37  1  0.90018000  0.17484800  0.92235500  1
  H  H38  1  0.59982000  0.17484800  0.42235500  1
  H  H39  1  0.40018000  0.67484800  0.57764500  1
  H  H40  1  0.23734500  0.12242400  0.28607300  1
  H  H41  1  0.76265500  0.62242400  0.71392700  1
  H  H42  1  0.73734500  0.62242400  0.21392700  1
  H  H43  1  0.26265500  0.12242400  0.78607300  1
  H  H44  1  0.22534800  0.17920900  0.17962500  1
  H  H45  1  0.77465200  0.67920900  0.82037500  1
  H  H46  1  0.72534800  0.67920900  0.32037500  1
  H  H47  1  0.27465200  0.17920900  0.67962500  1
  H  H48  1  0.41333400  0.06937600  0.20801200  1
  H  H49  1  0.58666600  0.56937600  0.79198800  1
  H  H50  1  0.91333400  0.56937600  0.29198800  1
  H  H51  1  0.08666600  0.06937600  0.70801200  1
  H  H52  1  0.14360500  0.03039600  0.20181300  1
  H  H53  1  0.85639500  0.53039600  0.79818700  1
  H  H54  1  0.64360500  0.53039600  0.29818700  1
  H  H55  1  0.35639500  0.03039600  0.70181300  1
  H  H56  1  0.26545200  0.71166400  0.36239800  1
  H  H57  1  0.73454800  0.21166400  0.63760200  1
  H  H58  1  0.76545200  0.21166400  0.13760200  1
  H  H59  1  0.23454800  0.71166400  0.86239800  1
  H  H60  1  0.27956200  0.85732700  0.40711400  1
  H  H61  1  0.72043800  0.35732700  0.59288600  1
  H  H62  1  0.77956200  0.35732700  0.09288600  1
  H  H63  1  0.22043800  0.85732700  0.90711400  1
  H  H64  1  0.35926400  0.83064300  0.29830900  1
  H  H65  1  0.64073600  0.33064300  0.70169100  1
  H  H66  1  0.85926400  0.33064300  0.20169100  1
  H  H67  1  0.14073600  0.83064300  0.79830900  1
  H  H68  1  0.08975100  0.82438400  0.32864200  1
  H  H69  1  0.91024900  0.32438400  0.67135800  1
  H  H70  1  0.58975100  0.32438400  0.17135800  1
  H  H71  1  0.41024900  0.82438400  0.82864200  1
  N  N72  1  0.24267500  0.40478900  0.97031500  1
  N  N73  1  0.75732500  0.90478900  0.02968500  1
  N  N74  1  0.74267500  0.90478900  0.52968500  1
  N  N75  1  0.25732500  0.40478900  0.47031500  1
  N  N76  1  0.25513900  0.69589700  0.10180800  1
  N  N77  1  0.74486100  0.19589700  0.89819200  1
  N  N78  1  0.75513900  0.19589700  0.39819200  1
  N  N79  1  0.24486100  0.69589700  0.60180800  1
  N  N80  1  0.25371000  0.10108800  0.21864900  1
  N  N81  1  0.74629000  0.60108800  0.78135100  1
  N  N82  1  0.75371000  0.60108800  0.28135100  1
  N  N83  1  0.24629000  0.10108800  0.71864900  1
  N  N84  1  0.25024800  0.80619500  0.34924500  1
  N  N85  1  0.74975200  0.30619500  0.65075500  1
  N  N86  1  0.75024800  0.30619500  0.15075500  1
  N  N87  1  0.24975200  0.80619500  0.84924500  1
  F  F88  1  0.24516700  0.12633600  0.89784100  1
  F  F89  1  0.75483300  0.62633600  0.10215900  1
  F  F90  1  0.74516700  0.62633600  0.60215900  1
  F  F91  1  0.25483300  0.12633600  0.39784100  1
  F  F92  1  0.24635200  0.93164600  0.00323900  1
  F  F93  1  0.75364800  0.43164600  0.99676100  1
  F  F94  1  0.74635200  0.43164600  0.49676100  1
  F  F95  1  0.25364800  0.93164600  0.50323900  1
  F  F96  1  0.47168300  0.12651700  0.03946400  1
  F  F97  1  0.52831700  0.62651700  0.96053600  1
  F  F98  1  0.97168300  0.62651700  0.46053600  1
  F  F99  1  0.02831700  0.12651700  0.53946400  1
  F  F100  1  0.03598900  0.12934600  0.04298000  1
  F  F101  1  0.96401100  0.62934600  0.95702000  1
  F  F102  1  0.53598900  0.62934600  0.45702000  1
  F  F103  1  0.46401100  0.12934600  0.54298000  1
  F  F104  1  0.25201900  0.36841300  0.15164200  1
  F  F105  1  0.74798100  0.86841300  0.84835800  1
  F  F106  1  0.75201900  0.86841300  0.34835800  1
  F  F107  1  0.24798100  0.36841300  0.65164200  1
  F  F108  1  0.25611000  0.56654100  0.25584500  1
  F  F109  1  0.74389000  0.06654100  0.74415500  1
  F  F110  1  0.75611000  0.06654100  0.24415500  1
  F  F111  1  0.24389000  0.56654100  0.75584500  1
  F  F112  1  0.02317900  0.37459200  0.29249600  1
  F  F113  1  0.97682100  0.87459200  0.70750400  1
  F  F114  1  0.52317900  0.87459200  0.20750400  1
  F  F115  1  0.47682100  0.37459200  0.79249600  1
  F  F116  1  0.45719900  0.36658200  0.29792000  1
  F  F117  1  0.54280100  0.86658200  0.70208000  1
  F  F118  1  0.95719900  0.86658200  0.20208000  1
  F  F119  1  0.04280100  0.36658200  0.79792000  1
