# generated using pymatgen
data_AlS2NO20
_symmetry_space_group_name_H-M   'P 1'
_cell_length_a   11.48642900
_cell_length_b   11.48642900
_cell_length_c   11.48642900
_cell_angle_alpha   90.00000000
_cell_angle_beta   90.00000000
_cell_angle_gamma   90.00000000
_symmetry_Int_Tables_number   1
_chemical_formula_structural   AlS2NO20
_chemical_formula_sum   'Al4 S8 N4 O80'
_cell_volume   1515.49705719
_cell_formula_units_Z   4
loop_
 _symmetry_equiv_pos_site_id
 _symmetry_equiv_pos_as_xyz
  1  'x, y, z'
loop_
 _atom_site_type_symbol
 _atom_site_label
 _atom_site_symmetry_multiplicity
 _atom_site_fract_x
 _atom_site_fract_y
 _atom_site_fract_z
 _atom_site_occupancy
  Al  Al0  1  0.50000000  0.50000000  0.00000000  1
  Al  Al1  1  0.50000000  0.00000000  0.50000000  1
  Al  Al2  1  0.00000000  0.50000000  0.50000000  1
  Al  Al3  1  0.00000000  0.00000000  0.00000000  1
  S  S4  1  0.20618200  0.79381800  0.29381800  1
  S  S5  1  0.79381800  0.29381800  0.20618200  1
  S  S6  1  0.29381800  0.20618200  0.79381800  1
  S  S7  1  0.70618200  0.70618200  0.70618200  1
  S  S8  1  0.79381800  0.20618200  0.70618200  1
  S  S9  1  0.20618200  0.70618200  0.79381800  1
  S  S10  1  0.70618200  0.79381800  0.20618200  1
  S  S11  1  0.29381800  0.29381800  0.29381800  1
  N  N12  1  0.00000000  0.00000000  0.50000000  1
  N  N13  1  0.00000000  0.50000000  0.00000000  1
  N  N14  1  0.50000000  0.00000000  0.00000000  1
  N  N15  1  0.50000000  0.50000000  0.50000000  1
  O  O16  1  0.28141900  0.71858100  0.21858100  1
  O  O17  1  0.71858100  0.21858100  0.28141900  1
  O  O18  1  0.21858100  0.28141900  0.71858100  1
  O  O19  1  0.78141900  0.78141900  0.78141900  1
  O  O20  1  0.71858100  0.28141900  0.78141900  1
  O  O21  1  0.28141900  0.78141900  0.71858100  1
  O  O22  1  0.78141900  0.71858100  0.28141900  1
  O  O23  1  0.21858100  0.21858100  0.21858100  1
  O  O24  1  0.08988200  0.80292100  0.23820500  1
  O  O25  1  0.91011800  0.30292100  0.26179500  1
  O  O26  1  0.41011800  0.19707900  0.73820500  1
  O  O27  1  0.58988200  0.69707900  0.76179500  1
  O  O28  1  0.23820500  0.08988200  0.80292100  1
  O  O29  1  0.26179500  0.91011800  0.30292100  1
  O  O30  1  0.73820500  0.41011800  0.19707900  1
  O  O31  1  0.76179500  0.58988200  0.69707900  1
  O  O32  1  0.80292100  0.23820500  0.08988200  1
  O  O33  1  0.30292100  0.26179500  0.91011800  1
  O  O34  1  0.19707900  0.73820500  0.41011800  1
  O  O35  1  0.69707900  0.76179500  0.58988200  1
  O  O36  1  0.91011800  0.19707900  0.76179500  1
  O  O37  1  0.08988200  0.69707900  0.73820500  1
  O  O38  1  0.58988200  0.80292100  0.26179500  1
  O  O39  1  0.41011800  0.30292100  0.23820500  1
  O  O40  1  0.76179500  0.91011800  0.19707900  1
  O  O41  1  0.73820500  0.08988200  0.69707900  1
  O  O42  1  0.26179500  0.58988200  0.80292100  1
  O  O43  1  0.23820500  0.41011800  0.30292100  1
  O  O44  1  0.19707900  0.76179500  0.91011800  1
  O  O45  1  0.69707900  0.73820500  0.08988200  1
  O  O46  1  0.80292100  0.26179500  0.58988200  1
  O  O47  1  0.30292100  0.23820500  0.41011800  1
  O  O48  1  0.25840600  0.51339000  0.08357400  1
  O  O49  1  0.74159400  0.01339000  0.41642600  1
  O  O50  1  0.24159400  0.48661000  0.58357400  1
  O  O51  1  0.75840600  0.98661000  0.91642600  1
  O  O52  1  0.08357400  0.25840600  0.51339000  1
  O  O53  1  0.41642600  0.74159400  0.01339000  1
  O  O54  1  0.58357400  0.24159400  0.48661000  1
  O  O55  1  0.91642600  0.75840600  0.98661000  1
  O  O56  1  0.51339000  0.08357400  0.25840600  1
  O  O57  1  0.01339000  0.41642600  0.74159400  1
  O  O58  1  0.48661000  0.58357400  0.24159400  1
  O  O59  1  0.98661000  0.91642600  0.75840600  1
  O  O60  1  0.74159400  0.48661000  0.91642600  1
  O  O61  1  0.25840600  0.98661000  0.58357400  1
  O  O62  1  0.75840600  0.51339000  0.41642600  1
  O  O63  1  0.24159400  0.01339000  0.08357400  1
  O  O64  1  0.91642600  0.74159400  0.48661000  1
  O  O65  1  0.58357400  0.25840600  0.98661000  1
  O  O66  1  0.41642600  0.75840600  0.51339000  1
  O  O67  1  0.08357400  0.24159400  0.01339000  1
  O  O68  1  0.48661000  0.91642600  0.74159400  1
  O  O69  1  0.98661000  0.58357400  0.25840600  1
  O  O70  1  0.51339000  0.41642600  0.75840600  1
  O  O71  1  0.01339000  0.08357400  0.24159400  1
  O  O72  1  0.33173300  0.48065100  0.00912500  1
  O  O73  1  0.66826700  0.98065100  0.49087500  1
  O  O74  1  0.16826700  0.51934900  0.50912500  1
  O  O75  1  0.83173300  0.01934900  0.99087500  1
  O  O76  1  0.00912500  0.33173300  0.48065100  1
  O  O77  1  0.49087500  0.66826700  0.98065100  1
  O  O78  1  0.50912500  0.16826700  0.51934900  1
  O  O79  1  0.99087500  0.83173300  0.01934900  1
  O  O80  1  0.48065100  0.00912500  0.33173300  1
  O  O81  1  0.98065100  0.49087500  0.66826700  1
  O  O82  1  0.51934900  0.50912500  0.16826700  1
  O  O83  1  0.01934900  0.99087500  0.83173300  1
  O  O84  1  0.66826700  0.51934900  0.99087500  1
  O  O85  1  0.33173300  0.01934900  0.50912500  1
  O  O86  1  0.83173300  0.48065100  0.49087500  1
  O  O87  1  0.16826700  0.98065100  0.00912500  1
  O  O88  1  0.99087500  0.66826700  0.51934900  1
  O  O89  1  0.50912500  0.33173300  0.01934900  1
  O  O90  1  0.49087500  0.83173300  0.48065100  1
  O  O91  1  0.00912500  0.16826700  0.98065100  1
  O  O92  1  0.51934900  0.99087500  0.66826700  1
  O  O93  1  0.01934900  0.50912500  0.33173300  1
  O  O94  1  0.48065100  0.49087500  0.83173300  1
  O  O95  1  0.98065100  0.00912500  0.16826700  1
