# generated using pymatgen
data_NaFe9H18(S3O22)2
_symmetry_space_group_name_H-M   'P 1'
_cell_length_a   12.04003650
_cell_length_b   12.04003650
_cell_length_c   10.29066217
_cell_angle_alpha   69.05945457
_cell_angle_beta   69.05945457
_cell_angle_gamma   35.82743669
_symmetry_Int_Tables_number   1
_chemical_formula_structural   NaFe9H18(S3O22)2
_chemical_formula_sum   'Na1 Fe9 H18 S6 O44'
_cell_volume   809.25903052
_cell_formula_units_Z   1
loop_
 _symmetry_equiv_pos_site_id
 _symmetry_equiv_pos_as_xyz
  1  'x, y, z'
loop_
 _atom_site_type_symbol
 _atom_site_label
 _atom_site_symmetry_multiplicity
 _atom_site_fract_x
 _atom_site_fract_y
 _atom_site_fract_z
 _atom_site_occupancy
  Na  Na0  1  0.00000000  0.00000000  0.00000000  1
  Fe  Fe1  1  0.00000000  0.50000000  0.50000000  1
  Fe  Fe2  1  0.66439900  0.16944500  0.82930900  1
  Fe  Fe3  1  0.33560100  0.83055500  0.17069100  1
  Fe  Fe4  1  0.83515600  0.83515600  0.15704600  1
  Fe  Fe5  1  0.50000000  0.50000000  0.50000000  1
  Fe  Fe6  1  0.16484400  0.16484400  0.84295400  1
  Fe  Fe7  1  0.83055500  0.33560100  0.17069100  1
  Fe  Fe8  1  0.50000000  0.00000000  0.50000000  1
  Fe  Fe9  1  0.16944500  0.66439900  0.82930900  1
  H  H10  1  0.85203300  0.27345200  0.42869200  1
  H  H11  1  0.52255900  0.94837700  0.76115700  1
  H  H12  1  0.19120300  0.59882000  0.09123100  1
  H  H13  1  0.99103100  0.99103100  0.70250800  1
  H  H14  1  0.66021900  0.66021900  0.04279500  1
  H  H15  1  0.32814800  0.32814800  0.36924800  1
  H  H16  1  0.27345200  0.85203300  0.42869200  1
  H  H17  1  0.94837700  0.52255900  0.76115700  1
  H  H18  1  0.59882000  0.19120400  0.09123100  1
  H  H19  1  0.14796700  0.72654800  0.57130800  1
  H  H20  1  0.80879700  0.40118000  0.90876900  1
  H  H21  1  0.47744100  0.05162300  0.23884300  1
  H  H22  1  0.00896900  0.00896900  0.29749200  1
  H  H23  1  0.67185200  0.67185200  0.63075200  1
  H  H24  1  0.33978100  0.33978100  0.95720500  1
  H  H25  1  0.72654800  0.14796700  0.57130800  1
  H  H26  1  0.40118000  0.80879700  0.90876900  1
  H  H27  1  0.05162300  0.47744100  0.23884300  1
  S  S28  1  0.12655100  0.12655100  0.56934300  1
  S  S29  1  0.79443700  0.79443700  0.89201200  1
  S  S30  1  0.45966500  0.45966500  0.22875800  1
  S  S31  1  0.87344900  0.87344900  0.43065700  1
  S  S32  1  0.54033500  0.54033500  0.77124200  1
  S  S33  1  0.20556300  0.20556300  0.10798800  1
  O  O34  1  0.06919600  0.06919600  0.53822400  1
  O  O35  1  0.73563900  0.73563900  0.86401100  1
  O  O36  1  0.40085500  0.40085500  0.20015000  1
  O  O37  1  0.93080400  0.93080400  0.46177600  1
  O  O38  1  0.59914500  0.59914500  0.79985000  1
  O  O39  1  0.26436100  0.26436100  0.13598900  1
  O  O40  1  0.74708000  0.35918800  0.37338900  1
  O  O41  1  0.41291700  0.03709700  0.70885100  1
  O  O42  1  0.08082100  0.70134700  0.03736400  1
  O  O43  1  0.95330300  0.95330300  0.78974400  1
  O  O44  1  0.61822400  0.61822400  0.11777500  1
  O  O45  1  0.28566800  0.28566800  0.44471700  1
  O  O46  1  0.35918800  0.74708000  0.37338900  1
  O  O47  1  0.03709700  0.41291700  0.70885100  1
  O  O48  1  0.70134700  0.08082100  0.03736400  1
  O  O49  1  0.25292000  0.64081200  0.62661100  1
  O  O50  1  0.91917900  0.29865300  0.96263600  1
  O  O51  1  0.58708300  0.96290300  0.29114900  1
  O  O52  1  0.04669700  0.04669700  0.21025600  1
  O  O53  1  0.71433200  0.71433200  0.55528300  1
  O  O54  1  0.38177600  0.38177600  0.88222500  1
  O  O55  1  0.64081200  0.25292000  0.62661100  1
  O  O56  1  0.29865300  0.91917900  0.96263600  1
  O  O57  1  0.96290300  0.58708300  0.29114900  1
  O  O58  1  0.99969200  0.32969800  0.50808800  1
  O  O59  1  0.66601000  0.99691500  0.83028000  1
  O  O60  1  0.33225900  0.66217000  0.16453500  1
  O  O61  1  0.10945800  0.10945800  0.72450500  1
  O  O62  1  0.77765800  0.77765800  0.04743500  1
  O  O63  1  0.44322500  0.44322500  0.38343200  1
  O  O64  1  0.32969800  0.99969200  0.50808800  1
  O  O65  1  0.99691500  0.66601000  0.83028000  1
  O  O66  1  0.66217000  0.33225900  0.16453500  1
  O  O67  1  0.00030800  0.67030200  0.49191200  1
  O  O68  1  0.66774100  0.33783000  0.83546500  1
  O  O69  1  0.33399000  0.00308500  0.16972000  1
  O  O70  1  0.89054200  0.89054200  0.27549500  1
  O  O71  1  0.55677500  0.55677500  0.61656800  1
  O  O72  1  0.22234200  0.22234200  0.95256500  1
  O  O73  1  0.67030200  0.00030800  0.49191200  1
  O  O74  1  0.33783000  0.66774100  0.83546500  1
  O  O75  1  0.00308500  0.33399000  0.16972000  1
  O  O76  1  0.30426500  0.30426500  0.67322200  1
  O  O77  1  0.69573500  0.69573500  0.32677800  1
