# generated using pymatgen
data_Fe2P2H6C2O13
_symmetry_space_group_name_H-M   'P 1'
_cell_length_a   18.14641400
_cell_length_b   5.00210000
_cell_length_c   7.58443874
_cell_angle_alpha   73.56263438
_cell_angle_beta   90.00000000
_cell_angle_gamma   90.00000000
_symmetry_Int_Tables_number   1
_chemical_formula_structural   Fe2P2H6C2O13
_chemical_formula_sum   'Fe4 P4 H12 C4 O26'
_cell_volume   660.30402519
_cell_formula_units_Z   2
loop_
 _symmetry_equiv_pos_site_id
 _symmetry_equiv_pos_as_xyz
  1  'x, y, z'
loop_
 _atom_site_type_symbol
 _atom_site_label
 _atom_site_symmetry_multiplicity
 _atom_site_fract_x
 _atom_site_fract_y
 _atom_site_fract_z
 _atom_site_occupancy
  Fe  Fe0  1  0.64007400  0.87977800  0.25747500  1
  Fe  Fe1  1  0.14007400  0.12022200  0.74252500  1
  Fe  Fe2  1  0.34428700  0.10002400  0.20790400  1
  Fe  Fe3  1  0.84428700  0.89997600  0.79209600  1
  P  P4  1  0.70354100  0.24238200  0.48597200  1
  P  P5  1  0.20354100  0.75761800  0.51402800  1
  P  P6  1  0.29508000  0.82746200  0.99518500  1
  P  P7  1  0.79508000  0.17253800  0.00481500  1
  H  H8  1  0.72784900  0.54786200  0.88208500  1
  H  H9  1  0.22784900  0.45213800  0.11791500  1
  H  H10  1  0.31259700  0.38013200  0.65155400  1
  H  H11  1  0.81259700  0.61986800  0.34844600  1
  H  H12  1  0.37640100  0.02069400  0.80243000  1
  H  H13  1  0.87640100  0.97930600  0.19757000  1
  H  H14  1  0.59079300  0.89524800  0.70782300  1
  H  H15  1  0.09079300  0.10475200  0.29217700  1
  H  H16  1  0.60622100  0.41209600  0.92456500  1
  H  H17  1  0.10622100  0.58790400  0.07543500  1
  H  H18  1  0.38756600  0.51577800  0.68280000  1
  H  H19  1  0.88756600  0.48422200  0.31720000  1
  C  C20  1  0.49974400  0.13440900  0.15775100  1
  C  C21  1  0.99974400  0.86559100  0.84224900  1
  C  C22  1  0.48652800  0.85357900  0.30709300  1
  C  C23  1  0.98652800  0.14642100  0.69290700  1
  O  O24  1  0.72605400  0.09846500  0.13091400  1
  O  O25  1  0.22605400  0.90153500  0.86908600  1
  O  O26  1  0.26622300  0.92193800  0.41377300  1
  O  O27  1  0.76622300  0.07806200  0.58622700  1
  O  O28  1  0.86381600  0.66257600  0.30895200  1
  O  O29  1  0.36381600  0.33742400  0.69104800  1
  O  O30  1  0.13725000  0.44756500  0.16729900  1
  O  O31  1  0.63725000  0.55243500  0.83270100  1
  O  O32  1  0.54159400  0.69525900  0.36233600  1
  O  O33  1  0.04159400  0.30474100  0.63766400  1
  O  O34  1  0.44445300  0.28792700  0.10442900  1
  O  O35  1  0.94445300  0.71207300  0.89557100  1
  O  O36  1  0.56572500  0.18481100  0.10069700  1
  O  O37  1  0.06572500  0.81518900  0.89930300  1
  O  O38  1  0.42060200  0.80552100  0.36200300  1
  O  O39  1  0.92060200  0.19447900  0.63799700  1
  O  O40  1  0.71141900  0.55136200  0.40775400  1
  O  O41  1  0.21141900  0.44863800  0.59224600  1
  O  O42  1  0.28304200  0.48241400  0.09493800  1
  O  O43  1  0.78304200  0.51758600  0.90506200  1
  O  O44  1  0.63194100  0.10465600  0.46945000  1
  O  O45  1  0.13194100  0.89534400  0.53055000  1
  O  O46  1  0.36526700  0.81665700  0.86866800  1
  O  O47  1  0.86526700  0.18334300  0.13133200  1
  O  O48  1  0.59963400  0.80908400  0.84017000  1
  O  O49  1  0.09963400  0.19091600  0.15983000  1
