# generated using pymatgen
data_FeH10S2(NO2)4
_symmetry_space_group_name_H-M   'P 1'
_cell_length_a   8.51289682
_cell_length_b   11.98523831
_cell_length_c   9.36252966
_cell_angle_alpha   89.05939660
_cell_angle_beta   102.58209187
_cell_angle_gamma   92.48701986
_symmetry_Int_Tables_number   1
_chemical_formula_structural   FeH10S2(NO2)4
_chemical_formula_sum   'Fe4 H40 S8 N16 O32'
_cell_volume   931.40809479
_cell_formula_units_Z   4
loop_
 _symmetry_equiv_pos_site_id
 _symmetry_equiv_pos_as_xyz
  1  'x, y, z'
loop_
 _atom_site_type_symbol
 _atom_site_label
 _atom_site_symmetry_multiplicity
 _atom_site_fract_x
 _atom_site_fract_y
 _atom_site_fract_z
 _atom_site_occupancy
  Fe  Fe0  1  0.49979400  0.74997300  0.24985500  1
  Fe  Fe1  1  0.99990400  0.50009600  0.49972500  1
  Fe  Fe2  1  0.99979800  0.00013000  0.99986700  1
  Fe  Fe3  1  0.50011800  0.25000400  0.74978100  1
  H  H4  1  0.87080200  0.35523500  0.27264200  1
  H  H5  1  0.37058700  0.60578500  0.02271400  1
  H  H6  1  0.37113600  0.10483500  0.52275000  1
  H  H7  1  0.87082600  0.85522000  0.77269400  1
  H  H8  1  0.62936200  0.89469200  0.47742200  1
  H  H9  1  0.12885400  0.14479700  0.22712900  1
  H  H10  1  0.12949500  0.64420800  0.72737500  1
  H  H11  1  0.62909400  0.39435500  0.97720800  1
  H  H12  1  0.14405900  0.12303800  0.62699300  1
  H  H13  1  0.64386600  0.37281200  0.37704000  1
  H  H14  1  0.64377900  0.87274800  0.87698400  1
  H  H15  1  0.14374900  0.62257200  0.12704300  1
  H  H16  1  0.35591300  0.12689000  0.12313700  1
  H  H17  1  0.85623900  0.37714200  0.87324700  1
  H  H18  1  0.85622100  0.87724900  0.37291100  1
  H  H19  1  0.35629600  0.62747300  0.62297900  1
  H  H20  1  0.67887200  0.24210600  0.33039200  1
  H  H21  1  0.17905400  0.49194700  0.08033400  1
  H  H22  1  0.17867100  0.99225600  0.58027100  1
  H  H23  1  0.67894700  0.74204500  0.83045500  1
  H  H24  1  0.82110600  0.00793500  0.41953700  1
  H  H25  1  0.32126700  0.25770800  0.16970900  1
  H  H26  1  0.32101000  0.75808000  0.66971200  1
  H  H27  1  0.82112400  0.50783000  0.91984800  1
  H  H28  1  0.95961300  0.28481300  0.41846100  1
  H  H29  1  0.45964300  0.53480400  0.16795100  1
  H  H30  1  0.45949800  0.03453900  0.66884900  1
  H  H31  1  0.95964600  0.78485100  0.91856700  1
  H  H32  1  0.54041500  0.96513000  0.33169200  1
  H  H33  1  0.04054100  0.21550600  0.08136700  1
  H  H34  1  0.04037200  0.71520500  0.58218300  1
  H  H35  1  0.54047900  0.46524400  0.83170300  1
  H  H36  1  0.72949700  0.28276800  0.50987400  1
  H  H37  1  0.22954100  0.53257300  0.25986100  1
  H  H38  1  0.22928000  0.03282900  0.75979200  1
  H  H39  1  0.72945000  0.78279000  0.00989300  1
  H  H40  1  0.77041200  0.96723400  0.24007900  1
  H  H41  1  0.27081000  0.21704600  0.99021900  1
  H  H42  1  0.27043300  0.71744500  0.49019600  1
  H  H43  1  0.77081300  0.46721800  0.74036000  1
  S  S44  1  0.81244800  0.10508500  0.67609600  1
  S  S45  1  0.31238400  0.35497600  0.42621000  1
  S  S46  1  0.31238600  0.85522100  0.92641400  1
  S  S47  1  0.81234000  0.60515600  0.17637700  1
  S  S48  1  0.68744100  0.14501800  0.07371100  1
  S  S49  1  0.18763400  0.39480600  0.82359400  1
  S  S50  1  0.18760200  0.89511300  0.32356600  1
  S  S51  1  0.68761300  0.64481800  0.57381200  1
  N  N52  1  0.88190300  0.34824500  0.38394300  1
  N  N53  1  0.38185500  0.59829100  0.13399100  1
  N  N54  1  0.38201900  0.09803600  0.63406600  1
  N  N55  1  0.88189600  0.84824500  0.88401000  1
  N  N56  1  0.61815400  0.90170200  0.36611300  1
  N  N57  1  0.11793200  0.15190800  0.11585000  1
  N  N58  1  0.11817400  0.65172400  0.61610700  1
  N  N59  1  0.61809700  0.40172600  0.86595200  1
  N  N60  1  0.72388400  0.30936400  0.40155400  1
  N  N61  1  0.22391600  0.55920100  0.15154700  1
  N  N62  1  0.22382500  0.05944800  0.65150500  1
  N  N63  1  0.72387500  0.80935000  0.90157000  1
  N  N64  1  0.77611200  0.94064600  0.34840700  1
  N  N65  1  0.27616600  0.19047400  0.09850200  1
  N  N66  1  0.27610100  0.69083300  0.59850200  1
  N  N67  1  0.77622200  0.44058600  0.84865100  1
  O  O68  1  0.72425700  0.21155900  0.67782300  1
  O  O69  1  0.22426400  0.46145100  0.42805700  1
  O  O70  1  0.22415300  0.96170500  0.92794100  1
  O  O71  1  0.72403500  0.71159200  0.17802800  1
  O  O72  1  0.77560900  0.03853800  0.07191900  1
  O  O73  1  0.27586500  0.28833000  0.82190000  1
  O  O74  1  0.27566100  0.78861500  0.32167100  1
  O  O75  1  0.77592000  0.53838100  0.57221300  1
  O  O76  1  0.94353800  0.10012400  0.81140000  1
  O  O77  1  0.44358700  0.35000300  0.56148500  1
  O  O78  1  0.44316700  0.85035500  0.06193400  1
  O  O79  1  0.94322800  0.60034800  0.31180500  1
  O  O80  1  0.55640900  0.15007500  0.93838600  1
  O  O81  1  0.05684100  0.39980000  0.68807800  1
  O  O82  1  0.05660900  0.90022500  0.18819400  1
  O  O83  1  0.55669800  0.64965500  0.43834100  1
  O  O84  1  0.70016400  0.00639900  0.66682100  1
  O  O85  1  0.20005700  0.25632300  0.41703900  1
  O  O86  1  0.20008300  0.75653500  0.91697300  1
  O  O87  1  0.70006500  0.50645400  0.16695100  1
  O  O88  1  0.79978500  0.24369400  0.08306300  1
  O  O89  1  0.29995300  0.49349100  0.83324000  1
  O  O90  1  0.30006000  0.99373400  0.33304100  1
  O  O91  1  0.79991200  0.74351200  0.58317700  1
  O  O92  1  0.88903600  0.11130300  0.54638700  1
  O  O93  1  0.38889800  0.36115200  0.29645500  1
  O  O94  1  0.38931700  0.86136600  0.79688300  1
  O  O95  1  0.88914200  0.61135100  0.04678300  1
  O  O96  1  0.61082500  0.13875300  0.20339700  1
  O  O97  1  0.11073100  0.38853200  0.95313800  1
  O  O98  1  0.11088700  0.88888100  0.45317400  1
  O  O99  1  0.61088000  0.63863900  0.70345400  1
