# generated using pymatgen
data_H16AuC12S2N3O4
_symmetry_space_group_name_H-M   'P 1'
_cell_length_a   5.90241200
_cell_length_b   9.18816796
_cell_length_c   16.72562708
_cell_angle_alpha   102.97764618
_cell_angle_beta   96.54125887
_cell_angle_gamma   99.52530925
_symmetry_Int_Tables_number   1
_chemical_formula_structural   H16AuC12S2N3O4
_chemical_formula_sum   'H32 Au2 C24 S4 N6 O8'
_cell_volume   860.87533396
_cell_formula_units_Z   2
loop_
 _symmetry_equiv_pos_site_id
 _symmetry_equiv_pos_as_xyz
  1  'x, y, z'
loop_
 _atom_site_type_symbol
 _atom_site_label
 _atom_site_symmetry_multiplicity
 _atom_site_fract_x
 _atom_site_fract_y
 _atom_site_fract_z
 _atom_site_occupancy
  H  H0  1  0.93333600  0.91429000  0.29230900  1
  H  H1  1  0.06666400  0.08571000  0.70769100  1
  H  H2  1  0.89067300  0.94963900  0.39687800  1
  H  H3  1  0.10932700  0.05036100  0.60312200  1
  H  H4  1  0.27674000  0.77584400  0.93488600  1
  H  H5  1  0.72326000  0.22415600  0.06511400  1
  H  H6  1  0.07739600  0.62765300  0.95243400  1
  H  H7  1  0.92260400  0.37234700  0.04756600  1
  H  H8  1  0.37889700  0.39971500  0.35360800  1
  H  H9  1  0.62110300  0.60028500  0.64639200  1
  H  H10  1  0.32580200  0.53936700  0.44091200  1
  H  H11  1  0.67419800  0.46063300  0.55908800  1
  H  H12  1  0.13125800  0.35728600  0.40412000  1
  H  H13  1  0.86874200  0.64271400  0.59588000  1
  H  H14  1  0.11178200  0.34481400  0.21809800  1
  H  H15  1  0.88821800  0.65518600  0.78190200  1
  H  H16  1  0.88059800  0.29550000  0.27473700  1
  H  H17  1  0.11940200  0.70450000  0.72526300  1
  H  H18  1  0.86505700  0.43617400  0.21570300  1
  H  H19  1  0.13494300  0.56382600  0.78429700  1
  H  H20  1  0.81414400  0.49084300  0.39301000  1
  H  H21  1  0.18585600  0.50915700  0.60699000  1
  H  H22  1  0.01295100  0.67131500  0.42798100  1
  H  H23  1  0.98704900  0.32868500  0.57201900  1
  H  H24  1  0.81896600  0.62831000  0.33060100  1
  H  H25  1  0.18103400  0.37169000  0.66939900  1
  H  H26  1  0.14772300  0.68770600  0.26459300  1
  H  H27  1  0.85227700  0.31229400  0.73540700  1
  H  H28  1  0.35850300  0.71631100  0.35668900  1
  H  H29  1  0.64149700  0.28368900  0.64331100  1
  H  H30  1  0.37289100  0.57849200  0.26280100  1
  H  H31  1  0.62710900  0.42150800  0.73719900  1
  Au  Au32  1  0.11576100  0.98289200  0.14963400  1
  Au  Au33  1  0.88423900  0.01710800  0.85036600  1
  C  C34  1  0.40475000  0.08352100  0.33773100  1
  C  C35  1  0.59525000  0.91647900  0.66226900  1
  C  C36  1  0.21389000  0.03894300  0.37813500  1
  C  C37  1  0.78611000  0.96105700  0.62186500  1
  C  C38  1  0.60867500  0.77607600  0.07334800  1
  C  C39  1  0.39132500  0.22392400  0.92665200  1
  C  C40  1  0.38713800  0.68981800  0.03153000  1
  C  C41  1  0.61286200  0.31018200  0.96847000  1
  C  C42  1  0.54899900  0.16701300  0.41814100  1
  C  C43  1  0.45100100  0.83298700  0.58185900  1
  C  C44  1  0.34892800  0.11619300  0.46091500  1
  C  C45  1  0.65107200  0.88380700  0.53908500  1
  C  C46  1  0.61014900  0.68758300  0.13691300  1
  C  C47  1  0.38985100  0.31241700  0.86308700  1
  C  C48  1  0.37601200  0.59262400  0.09106000  1
  C  C49  1  0.62398800  0.40737600  0.90894000  1
  C  C50  1  0.24600400  0.44699500  0.38611200  1
  C  C51  1  0.75399600  0.55300500  0.61388800  1
  C  C52  1  0.98090100  0.38743400  0.25368700  1
  C  C53  1  0.01909900  0.61256600  0.74631300  1
  C  C54  1  0.92267200  0.58142300  0.37346500  1
  C  C55  1  0.07732800  0.41857700  0.62653500  1
  C  C56  1  0.25719100  0.63315300  0.30127900  1
  C  C57  1  0.74280900  0.36684700  0.69872100  1
  S  S58  1  0.46383200  0.06118300  0.23956000  1
  S  S59  1  0.53616800  0.93881700  0.76044000  1
  S  S60  1  0.78353900  0.92283700  0.05202300  1
  S  S61  1  0.21646100  0.07716300  0.94797700  1
  N  N62  1  0.99779100  0.96235500  0.35368400  1
  N  N63  1  0.00220900  0.03764500  0.64631600  1
  N  N64  1  0.24314500  0.69216200  0.96529700  1
  N  N65  1  0.75685500  0.30783800  0.03470300  1
  N  N66  1  0.10167900  0.51215900  0.32843200  1
  N  N67  1  0.89832100  0.48784100  0.67156800  1
  O  O68  1  0.74483300  0.25002100  0.44063800  1
  O  O69  1  0.25516700  0.74997900  0.55936200  1
  O  O70  1  0.31157500  0.13426000  0.53370600  1
  O  O71  1  0.68842500  0.86574000  0.46629400  1
  O  O72  1  0.74278600  0.69217700  0.20073100  1
  O  O73  1  0.25721400  0.30782300  0.79926900  1
  O  O74  1  0.23561600  0.48304400  0.09894000  1
  O  O75  1  0.76438400  0.51695600  0.90106000  1
