# generated using pymatgen
data_Cr2AgS4
_symmetry_space_group_name_H-M   'P 1'
_cell_length_a   6.42829134
_cell_length_b   7.55535788
_cell_length_c   12.45837797
_cell_angle_alpha   82.05847494
_cell_angle_beta   84.94637161
_cell_angle_gamma   89.95003109
_symmetry_Int_Tables_number   1
_chemical_formula_structural   Cr2AgS4
_chemical_formula_sum   'Cr8 Ag4 S16'
_cell_volume   596.90734131
_cell_formula_units_Z   4
loop_
 _symmetry_equiv_pos_site_id
 _symmetry_equiv_pos_as_xyz
  1  'x, y, z'
loop_
 _atom_site_type_symbol
 _atom_site_label
 _atom_site_symmetry_multiplicity
 _atom_site_fract_x
 _atom_site_fract_y
 _atom_site_fract_z
 _atom_site_occupancy
  Cr  Cr0  1  0.15283000  0.70404400  0.71106800  1
  Cr  Cr1  1  0.84717000  0.29595600  0.28893200  1
  Cr  Cr2  1  0.24382200  0.88845300  0.99877900  1
  Cr  Cr3  1  0.75617800  0.11154700  0.00122100  1
  Cr  Cr4  1  0.35866200  0.55208400  0.28783400  1
  Cr  Cr5  1  0.64133800  0.44791600  0.71216600  1
  Cr  Cr6  1  0.37735100  0.05711400  0.28991400  1
  Cr  Cr7  1  0.62264900  0.94288600  0.71008600  1
  Ag  Ag8  1  0.11158300  0.20987400  0.70016400  1
  Ag  Ag9  1  0.88841700  0.79012600  0.29983600  1
  Ag  Ag10  1  0.24934200  0.37537200  0.00076200  1
  Ag  Ag11  1  0.75065800  0.62462800  0.99923800  1
  S  S12  1  0.12395800  0.67629800  0.88680100  1
  S  S13  1  0.87604200  0.32370200  0.11319900  1
  S  S14  1  0.08773100  0.13595800  0.90450500  1
  S  S15  1  0.91226900  0.86404200  0.09549500  1
  S  S16  1  0.24336500  0.78844100  0.36330400  1
  S  S17  1  0.75663500  0.21155900  0.63669600  1
  S  S18  1  0.17719100  0.28891000  0.34498100  1
  S  S19  1  0.82280900  0.71109000  0.65501900  1
  S  S20  1  0.31821000  0.95176700  0.63683300  1
  S  S21  1  0.68179000  0.04823300  0.36316700  1
  S  S22  1  0.33116900  0.48653000  0.64466000  1
  S  S23  1  0.66883100  0.51347000  0.35534000  1
  S  S24  1  0.41467900  0.07904300  0.10756700  1
  S  S25  1  0.58532100  0.92095700  0.89243300  1
  S  S26  1  0.37591600  0.61841400  0.11052400  1
  S  S27  1  0.62408400  0.38158600  0.88947600  1
