# generated using pymatgen
data_TiCrCuS4
_symmetry_space_group_name_H-M   'P 1'
_cell_length_a   6.64981489
_cell_length_b   6.64981489
_cell_length_c   5.91427620
_cell_angle_alpha   64.34272587
_cell_angle_beta   64.34272587
_cell_angle_gamma   29.97461879
_symmetry_Int_Tables_number   1
_chemical_formula_structural   TiCrCuS4
_chemical_formula_sum   'Ti1 Cr1 Cu1 S4'
_cell_volume   116.80300789
_cell_formula_units_Z   1
loop_
 _symmetry_equiv_pos_site_id
 _symmetry_equiv_pos_as_xyz
  1  'x, y, z'
loop_
 _atom_site_type_symbol
 _atom_site_label
 _atom_site_symmetry_multiplicity
 _atom_site_fract_x
 _atom_site_fract_y
 _atom_site_fract_z
 _atom_site_occupancy
  Ti  Ti0  1  0.24450000  0.24450000  0.78639800  1
  Cr  Cr1  1  0.75618200  0.75618200  0.22294700  1
  Cu  Cu2  1  0.49781900  0.49781900  0.50394900  1
  S  S3  1  0.38067300  0.38067300  0.95469000  1
  S  S4  1  0.61828500  0.61828500  0.04984400  1
  S  S5  1  0.86322500  0.86322500  0.46915300  1
  S  S6  1  0.13931600  0.13931600  0.51301800  1
