# generated using pymatgen
data_K(CrS2)2
_symmetry_space_group_name_H-M   'P 1'
_cell_length_a   6.57323110
_cell_length_b   8.63271857
_cell_length_c   12.35058392
_cell_angle_alpha   80.28338570
_cell_angle_beta   86.84508643
_cell_angle_gamma   89.86719805
_symmetry_Int_Tables_number   1
_chemical_formula_structural   K(CrS2)2
_chemical_formula_sum   'K4 Cr8 S16'
_cell_volume   689.71408756
_cell_formula_units_Z   4
loop_
 _symmetry_equiv_pos_site_id
 _symmetry_equiv_pos_as_xyz
  1  'x, y, z'
loop_
 _atom_site_type_symbol
 _atom_site_label
 _atom_site_symmetry_multiplicity
 _atom_site_fract_x
 _atom_site_fract_y
 _atom_site_fract_z
 _atom_site_occupancy
  K  K0  1  0.15395000  0.20720000  0.66167400  1
  K  K1  1  0.84605000  0.79280000  0.33832600  1
  K  K2  1  0.25023600  0.35275000  0.01942500  1
  K  K3  1  0.74976400  0.64725000  0.98057500  1
  Cr  Cr4  1  0.15862000  0.71046100  0.71023200  1
  Cr  Cr5  1  0.84138000  0.28953900  0.28976800  1
  Cr  Cr6  1  0.28838400  0.87244300  0.00116600  1
  Cr  Cr7  1  0.71161600  0.12755700  0.99883400  1
  Cr  Cr8  1  0.35184800  0.55108700  0.30087500  1
  Cr  Cr9  1  0.64815200  0.44891300  0.69912500  1
  Cr  Cr10  1  0.36803700  0.04680100  0.30119000  1
  Cr  Cr11  1  0.63196300  0.95319900  0.69881000  1
  S  S12  1  0.19720000  0.69261100  0.88365500  1
  S  S13  1  0.80280000  0.30738900  0.11634500  1
  S  S14  1  0.05147400  0.07392900  0.92672500  1
  S  S15  1  0.94852600  0.92607100  0.07327500  1
  S  S16  1  0.30982400  0.78424200  0.36247900  1
  S  S17  1  0.69017600  0.21575800  0.63752100  1
  S  S18  1  0.18640600  0.28743700  0.32841800  1
  S  S19  1  0.81359400  0.71256300  0.67158200  1
  S  S20  1  0.33650900  0.90836400  0.62224900  1
  S  S21  1  0.66349100  0.09163600  0.37775100  1
  S  S22  1  0.33081200  0.52193100  0.65087700  1
  S  S23  1  0.66918800  0.47806900  0.34912300  1
  S  S24  1  0.43381500  0.03262000  0.11824400  1
  S  S25  1  0.56618500  0.96738000  0.88175600  1
  S  S26  1  0.32525500  0.64100300  0.12569800  1
  S  S27  1  0.67474500  0.35899700  0.87430200  1
