# generated using pymatgen
data_Cr2HgS4
_symmetry_space_group_name_H-M   'P 1'
_cell_length_a   3.52385300
_cell_length_b   11.20465600
_cell_length_c   12.85376900
_cell_angle_alpha   90.00000000
_cell_angle_beta   90.00000000
_cell_angle_gamma   90.00000000
_symmetry_Int_Tables_number   1
_chemical_formula_structural   Cr2HgS4
_chemical_formula_sum   'Cr8 Hg4 S16'
_cell_volume   507.51256802
_cell_formula_units_Z   4
loop_
 _symmetry_equiv_pos_site_id
 _symmetry_equiv_pos_as_xyz
  1  'x, y, z'
loop_
 _atom_site_type_symbol
 _atom_site_label
 _atom_site_symmetry_multiplicity
 _atom_site_fract_x
 _atom_site_fract_y
 _atom_site_fract_z
 _atom_site_occupancy
  Cr  Cr0  1  0.25000000  0.05425500  0.11262400  1
  Cr  Cr1  1  0.75000000  0.94574500  0.88737600  1
  Cr  Cr2  1  0.75000000  0.44574500  0.61262400  1
  Cr  Cr3  1  0.25000000  0.55425500  0.38737600  1
  Cr  Cr4  1  0.25000000  0.08816800  0.59365600  1
  Cr  Cr5  1  0.75000000  0.91183200  0.40634400  1
  Cr  Cr6  1  0.75000000  0.41183200  0.09365600  1
  Cr  Cr7  1  0.25000000  0.58816800  0.90634400  1
  Hg  Hg8  1  0.25000000  0.24125300  0.32027000  1
  Hg  Hg9  1  0.75000000  0.75874700  0.67973000  1
  Hg  Hg10  1  0.75000000  0.25874700  0.82027000  1
  Hg  Hg11  1  0.25000000  0.74125300  0.17973000  1
  S  S12  1  0.75000000  0.04757400  0.71324800  1
  S  S13  1  0.25000000  0.95242600  0.28675200  1
  S  S14  1  0.25000000  0.45242600  0.21324800  1
  S  S15  1  0.75000000  0.54757400  0.78675200  1
  S  S16  1  0.25000000  0.08214700  0.93215500  1
  S  S17  1  0.75000000  0.91785300  0.06784500  1
  S  S18  1  0.75000000  0.41785300  0.43215500  1
  S  S19  1  0.25000000  0.58214700  0.56784500  1
  S  S20  1  0.75000000  0.11317600  0.46362800  1
  S  S21  1  0.25000000  0.88682400  0.53637200  1
  S  S22  1  0.25000000  0.38682400  0.96362800  1
  S  S23  1  0.75000000  0.61317600  0.03637200  1
  S  S24  1  0.75000000  0.19871900  0.14803400  1
  S  S25  1  0.25000000  0.80128100  0.85196600  1
  S  S26  1  0.25000000  0.30128100  0.64803400  1
  S  S27  1  0.75000000  0.69871900  0.35196600  1
