# generated using pymatgen
data_TiCrAgS4
_symmetry_space_group_name_H-M   'P 1'
_cell_length_a   5.78491700
_cell_length_b   8.45036000
_cell_length_c   12.62183600
_cell_angle_alpha   90.00000000
_cell_angle_beta   90.00000000
_cell_angle_gamma   90.00000000
_symmetry_Int_Tables_number   1
_chemical_formula_structural   TiCrAgS4
_chemical_formula_sum   'Ti4 Cr4 Ag4 S16'
_cell_volume   617.01379818
_cell_formula_units_Z   4
loop_
 _symmetry_equiv_pos_site_id
 _symmetry_equiv_pos_as_xyz
  1  'x, y, z'
loop_
 _atom_site_type_symbol
 _atom_site_label
 _atom_site_symmetry_multiplicity
 _atom_site_fract_x
 _atom_site_fract_y
 _atom_site_fract_z
 _atom_site_occupancy
  Ti  Ti0  1  0.73534400  0.50000000  0.73095700  1
  Ti  Ti1  1  0.26465600  0.00000000  0.23095700  1
  Ti  Ti2  1  0.60966900  0.50000000  0.95362100  1
  Ti  Ti3  1  0.39033100  0.00000000  0.45362100  1
  Cr  Cr4  1  0.75345700  0.00000000  0.26150900  1
  Cr  Cr5  1  0.24654300  0.50000000  0.76150900  1
  Cr  Cr6  1  0.90720700  0.00000000  0.06242600  1
  Cr  Cr7  1  0.09279300  0.50000000  0.56242600  1
  Ag  Ag8  1  0.95145600  0.00000000  0.61389000  1
  Ag  Ag9  1  0.58801000  0.50000000  0.31802500  1
  Ag  Ag10  1  0.04854400  0.50000000  0.11389000  1
  Ag  Ag11  1  0.41199000  0.00000000  0.81802500  1
  S  S12  1  0.99013400  0.19535400  0.17604600  1
  S  S13  1  0.49527000  0.30596400  0.83666700  1
  S  S14  1  0.00986600  0.30464600  0.67604600  1
  S  S15  1  0.50473000  0.19403600  0.33666700  1
  S  S16  1  0.50473000  0.80596400  0.33666700  1
  S  S17  1  0.00986600  0.69535400  0.67604600  1
  S  S18  1  0.49527000  0.69403600  0.83666700  1
  S  S19  1  0.99013400  0.80464600  0.17604600  1
  S  S20  1  0.50440500  0.00000000  0.62243600  1
  S  S21  1  0.98447200  0.50000000  0.40518600  1
  S  S22  1  0.49559500  0.50000000  0.12243600  1
  S  S23  1  0.01552800  0.00000000  0.90518600  1
  S  S24  1  0.98845800  0.50000000  0.90912100  1
  S  S25  1  0.53423100  0.00000000  0.09740300  1
  S  S26  1  0.01154200  0.00000000  0.40912100  1
  S  S27  1  0.46576900  0.50000000  0.59740300  1
