# generated using pymatgen
data_CuCl2
_symmetry_space_group_name_H-M   'P 1'
_cell_length_a   6.89296034
_cell_length_b   6.89296034
_cell_length_c   6.89296036
_cell_angle_alpha   29.73320603
_cell_angle_beta   29.73320603
_cell_angle_gamma   29.73320397
_symmetry_Int_Tables_number   1
_chemical_formula_structural   CuCl2
_chemical_formula_sum   'Cu1 Cl2'
_cell_volume   71.32962166
_cell_formula_units_Z   1
loop_
 _symmetry_equiv_pos_site_id
 _symmetry_equiv_pos_as_xyz
  1  'x, y, z'
loop_
 _atom_site_type_symbol
 _atom_site_label
 _atom_site_symmetry_multiplicity
 _atom_site_fract_x
 _atom_site_fract_y
 _atom_site_fract_z
 _atom_site_occupancy
  Cu  Cu0  1  0.00000000  0.00000000  0.00000000  1
  Cl  Cl1  1  0.73473200  0.73473200  0.73473200  1
  Cl  Cl2  1  0.26526800  0.26526800  0.26526800  1
