# generated using pymatgen
data_TiCrAgS4
_symmetry_space_group_name_H-M   'P 1'
_cell_length_a   7.26497019
_cell_length_b   7.26497019
_cell_length_c   7.26497019
_cell_angle_alpha   120.16547328
_cell_angle_beta   119.11249714
_cell_angle_gamma   90.62883428
_symmetry_Int_Tables_number   1
_chemical_formula_structural   TiCrAgS4
_chemical_formula_sum   'Ti2 Cr2 Ag2 S8'
_cell_volume   272.56893102
_cell_formula_units_Z   2
loop_
 _symmetry_equiv_pos_site_id
 _symmetry_equiv_pos_as_xyz
  1  'x, y, z'
loop_
 _atom_site_type_symbol
 _atom_site_label
 _atom_site_symmetry_multiplicity
 _atom_site_fract_x
 _atom_site_fract_y
 _atom_site_fract_z
 _atom_site_occupancy
  Ti  Ti0  1  0.99310500  0.71884400  0.22573800  1
  Ti  Ti1  1  0.00689500  0.23263300  0.72573800  1
  Cr  Cr2  1  0.50000000  0.25573600  0.75573600  1
  Cr  Cr3  1  0.00000000  0.25573600  0.25573600  1
  Ag  Ag4  1  0.37220600  0.88643100  0.01422400  1
  Ag  Ag5  1  0.62779400  0.64201800  0.51422400  1
  S  S6  1  0.75900200  0.48512900  0.22612700  1
  S  S7  1  0.75971400  0.48176100  0.76688200  1
  S  S8  1  0.21487800  0.48176000  0.22204600  1
  S  S9  1  0.76587100  0.05559600  0.78972500  1
  S  S10  1  0.23412900  0.02385400  0.28972500  1
  S  S11  1  0.24099800  0.46712500  0.72612700  1
  S  S12  1  0.78512200  0.00716800  0.26688200  1
  S  S13  1  0.24028600  0.00716800  0.72204600  1
