# generated using pymatgen
data_ZrCrCuS4
_symmetry_space_group_name_H-M   'P 1'
_cell_length_a   7.15543779
_cell_length_b   6.08156160
_cell_length_c   5.95362075
_cell_angle_alpha   92.72278084
_cell_angle_beta   89.99806957
_cell_angle_gamma   90.00046963
_symmetry_Int_Tables_number   1
_chemical_formula_structural   ZrCrCuS4
_chemical_formula_sum   'Zr2 Cr2 Cu2 S8'
_cell_volume   258.78668009
_cell_formula_units_Z   2
loop_
 _symmetry_equiv_pos_site_id
 _symmetry_equiv_pos_as_xyz
  1  'x, y, z'
loop_
 _atom_site_type_symbol
 _atom_site_label
 _atom_site_symmetry_multiplicity
 _atom_site_fract_x
 _atom_site_fract_y
 _atom_site_fract_z
 _atom_site_occupancy
  Zr  Zr0  1  0.24999900  0.49999400  0.49999700  1
  Zr  Zr1  1  0.75000200  0.49999300  0.49999800  1
  Cr  Cr2  1  0.99997600  0.00004600  0.49995400  1
  Cr  Cr3  1  0.49999600  0.99995700  0.50007300  1
  Cu  Cu4  1  0.99999800  0.99998300  0.99999700  1
  Cu  Cu5  1  0.50000200  0.99998500  0.00002200  1
  S  S6  1  0.00000500  0.30899500  0.25321900  1
  S  S7  1  0.50000800  0.30889400  0.25326500  1
  S  S8  1  0.25004600  0.84084000  0.26174000  1
  S  S9  1  0.74997200  0.84083600  0.26174600  1
  S  S10  1  0.25003700  0.15918000  0.73827300  1
  S  S11  1  0.74996500  0.15918200  0.73827300  1
  S  S12  1  0.50000000  0.69106900  0.74674200  1
  S  S13  1  0.99999500  0.69104700  0.74670200  1
