# generated using pymatgen
data_Mn3Zn2AsO12
_symmetry_space_group_name_H-M   'P 1'
_cell_length_a   12.90638494
_cell_length_b   12.90638494
_cell_length_c   7.48910725
_cell_angle_alpha   73.56162690
_cell_angle_beta   73.56162690
_cell_angle_gamma   13.41344146
_symmetry_Int_Tables_number   1
_chemical_formula_structural   Mn3Zn2AsO12
_chemical_formula_sum   'Mn3 Zn2 As1 O12'
_cell_volume   277.39335442
_cell_formula_units_Z   1
loop_
 _symmetry_equiv_pos_site_id
 _symmetry_equiv_pos_as_xyz
  1  'x, y, z'
loop_
 _atom_site_type_symbol
 _atom_site_label
 _atom_site_symmetry_multiplicity
 _atom_site_fract_x
 _atom_site_fract_y
 _atom_site_fract_z
 _atom_site_occupancy
  Mn  Mn0  1  0.00231900  0.00231900  0.93177600  1
  Mn  Mn1  1  0.41538800  0.41538800  0.82745100  1
  Mn  Mn2  1  0.58947400  0.58947400  0.10489800  1
  Zn  Zn3  1  0.80605300  0.80605300  0.13559300  1
  Zn  Zn4  1  0.20993500  0.20993500  0.06209700  1
  As  As5  1  0.61312500  0.61312500  0.58214800  1
  O  O6  1  0.59610300  0.59610300  0.38582700  1
  O  O7  1  0.38663700  0.38663700  0.64335200  1
  O  O8  1  0.25884400  0.25884400  0.20235800  1
  O  O9  1  0.74915800  0.74915800  0.82548400  1
  O  O10  1  0.96633100  0.96633100  0.73696900  1
  O  O11  1  0.03927200  0.03927200  0.12391500  1
  O  O12  1  0.87343400  0.87343400  0.95846000  1
  O  O13  1  0.14147400  0.14147400  0.03243400  1
  O  O14  1  0.45829700  0.45829700  0.02212000  1
  O  O15  1  0.56344600  0.56344600  0.79245400  1
  O  O16  1  0.15317700  0.15317700  0.59170400  1
  O  O17  1  0.79523200  0.79523200  0.70086000  1
