# generated using pymatgen
data_TbSiRh
_symmetry_space_group_name_H-M   'P 1'
_cell_length_a   4.03409700
_cell_length_b   5.33744200
_cell_length_c   10.28297900
_cell_angle_alpha   90.00000000
_cell_angle_beta   90.00000000
_cell_angle_gamma   90.00000000
_symmetry_Int_Tables_number   1
_chemical_formula_structural   TbSiRh
_chemical_formula_sum   'Tb4 Si4 Rh4'
_cell_volume   221.41062316
_cell_formula_units_Z   4
loop_
 _symmetry_equiv_pos_site_id
 _symmetry_equiv_pos_as_xyz
  1  'x, y, z'
loop_
 _atom_site_type_symbol
 _atom_site_label
 _atom_site_symmetry_multiplicity
 _atom_site_fract_x
 _atom_site_fract_y
 _atom_site_fract_z
 _atom_site_occupancy
  Tb  Tb0  1  0.25000000  0.75214500  0.46230900  1
  Tb  Tb1  1  0.25000000  0.25214500  0.03769100  1
  Tb  Tb2  1  0.75000000  0.24785500  0.53769100  1
  Tb  Tb3  1  0.75000000  0.74785500  0.96230900  1
  Si  Si4  1  0.25000000  0.99692900  0.74455800  1
  Si  Si5  1  0.25000000  0.49692900  0.75544200  1
  Si  Si6  1  0.75000000  0.00307100  0.25544200  1
  Si  Si7  1  0.75000000  0.50307100  0.24455800  1
  Rh  Rh8  1  0.25000000  0.26252300  0.32304300  1
  Rh  Rh9  1  0.25000000  0.76252300  0.17695700  1
  Rh  Rh10  1  0.75000000  0.73747700  0.67695700  1
  Rh  Rh11  1  0.75000000  0.23747700  0.82304300  1
