# generated using pymatgen
data_HfCrCuS4
_symmetry_space_group_name_H-M   'P 1'
_cell_length_a   6.06148900
_cell_length_b   7.04935531
_cell_length_c   12.40193391
_cell_angle_alpha   90.73049234
_cell_angle_beta   90.12817942
_cell_angle_gamma   90.14734100
_symmetry_Int_Tables_number   1
_chemical_formula_structural   HfCrCuS4
_chemical_formula_sum   'Hf4 Cr4 Cu4 S16'
_cell_volume   529.88335998
_cell_formula_units_Z   4
loop_
 _symmetry_equiv_pos_site_id
 _symmetry_equiv_pos_as_xyz
  1  'x, y, z'
loop_
 _atom_site_type_symbol
 _atom_site_label
 _atom_site_symmetry_multiplicity
 _atom_site_fract_x
 _atom_site_fract_y
 _atom_site_fract_z
 _atom_site_occupancy
  Hf  Hf0  1  0.00686700  0.51672400  0.74569000  1
  Hf  Hf1  1  0.50001500  0.25060200  0.25010200  1
  Hf  Hf2  1  0.49965700  0.74988000  0.24997100  1
  Hf  Hf3  1  0.50339500  0.23269000  0.75187300  1
  Cr  Cr4  1  0.99507100  0.99943200  0.24583100  1
  Cr  Cr5  1  0.99885200  0.00191700  0.75524300  1
  Cr  Cr6  1  0.00246900  0.49990700  0.25370000  1
  Cr  Cr7  1  0.49983000  0.75011100  0.74987100  1
  Cu  Cu8  1  0.36183000  0.99970900  0.99909200  1
  Cu  Cu9  1  0.63700500  0.50160300  0.49328800  1
  Cu  Cu10  1  0.03094400  0.99589700  0.49967800  1
  Cu  Cu11  1  0.96470300  0.50207900  0.99687400  1
  S  S12  1  0.84589000  0.25433900  0.36644500  1
  S  S13  1  0.82206900  0.76281500  0.63482400  1
  S  S14  1  0.14886100  0.74664100  0.13517800  1
  S  S15  1  0.15878600  0.24760800  0.86994100  1
  S  S16  1  0.14998500  0.24695800  0.13608100  1
  S  S17  1  0.18089300  0.76814900  0.86705700  1
  S  S18  1  0.84662600  0.74953600  0.36688400  1
  S  S19  1  0.84583200  0.23988800  0.63332300  1
  S  S20  1  0.66621500  0.99837200  0.13040500  1
  S  S21  1  0.66906700  0.98343700  0.86488000  1
  S  S22  1  0.32814500  0.50184700  0.36818400  1
  S  S23  1  0.35578300  0.50577700  0.63331800  1
  S  S24  1  0.31401200  0.00155700  0.36424100  1
  S  S25  1  0.31459900  0.98551700  0.63925100  1
  S  S26  1  0.68397500  0.49847500  0.13491400  1
  S  S27  1  0.66862200  0.50853400  0.86386400  1
