# generated using pymatgen
data_ZrCrCuS4
_symmetry_space_group_name_H-M   'P 1'
_cell_length_a   6.78192790
_cell_length_b   6.78192790
_cell_length_c   6.07903110
_cell_angle_alpha   63.80255487
_cell_angle_beta   63.80255487
_cell_angle_gamma   30.67226579
_symmetry_Int_Tables_number   1
_chemical_formula_structural   ZrCrCuS4
_chemical_formula_sum   'Zr1 Cr1 Cu1 S4'
_cell_volume   126.81068736
_cell_formula_units_Z   1
loop_
 _symmetry_equiv_pos_site_id
 _symmetry_equiv_pos_as_xyz
  1  'x, y, z'
loop_
 _atom_site_type_symbol
 _atom_site_label
 _atom_site_symmetry_multiplicity
 _atom_site_fract_x
 _atom_site_fract_y
 _atom_site_fract_z
 _atom_site_occupancy
  Zr  Zr0  1  0.75911300  0.75911300  0.21886100  1
  Cr  Cr1  1  0.24158500  0.24158500  0.77438800  1
  Cu  Cu2  1  0.50127500  0.50127500  0.49047000  1
  S  S3  1  0.38517900  0.38517900  0.93377200  1
  S  S4  1  0.61904500  0.61904500  0.04173000  1
  S  S5  1  0.86102600  0.86102600  0.50173700  1
  S  S6  1  0.13277700  0.13277700  0.53904200  1
