# generated using pymatgen
data_TaCr3(CuS4)2
_symmetry_space_group_name_H-M   'P 1'
_cell_length_a   3.44876000
_cell_length_b   11.06346700
_cell_length_c   12.55341500
_cell_angle_alpha   90.00000000
_cell_angle_beta   90.00000000
_cell_angle_gamma   90.00000000
_symmetry_Int_Tables_number   1
_chemical_formula_structural   TaCr3(CuS4)2
_chemical_formula_sum   'Ta2 Cr6 Cu4 S16'
_cell_volume   478.97859291
_cell_formula_units_Z   2
loop_
 _symmetry_equiv_pos_site_id
 _symmetry_equiv_pos_as_xyz
  1  'x, y, z'
loop_
 _atom_site_type_symbol
 _atom_site_label
 _atom_site_symmetry_multiplicity
 _atom_site_fract_x
 _atom_site_fract_y
 _atom_site_fract_z
 _atom_site_occupancy
  Ta  Ta0  1  0.50000000  0.71328300  0.88395600  1
  Ta  Ta1  1  0.00000000  0.28671700  0.38395600  1
  Cr  Cr2  1  0.00000000  0.79372900  0.12880100  1
  Cr  Cr3  1  0.50000000  0.20627100  0.62880100  1
  Cr  Cr4  1  0.50000000  0.65606800  0.41431200  1
  Cr  Cr5  1  0.00000000  0.84983100  0.58828500  1
  Cr  Cr6  1  0.00000000  0.34393200  0.91431200  1
  Cr  Cr7  1  0.50000000  0.15016900  0.08828500  1
  Cu  Cu8  1  0.50000000  0.49319600  0.62727700  1
  Cu  Cu9  1  0.00000000  0.95668100  0.30090200  1
  Cu  Cu10  1  0.00000000  0.50680400  0.12727700  1
  Cu  Cu11  1  0.50000000  0.04331900  0.80090200  1
  S  S12  1  0.00000000  0.67607600  0.28888400  1
  S  S13  1  0.50000000  0.81451800  0.71728100  1
  S  S14  1  0.50000000  0.32392400  0.78888400  1
  S  S15  1  0.00000000  0.18548200  0.21728100  1
  S  S16  1  0.50000000  0.65168400  0.07468000  1
  S  S17  1  0.00000000  0.85603300  0.94697000  1
  S  S18  1  0.00000000  0.34831600  0.57468000  1
  S  S19  1  0.50000000  0.14396700  0.44697000  1
  S  S20  1  0.00000000  0.63631600  0.55367300  1
  S  S21  1  0.50000000  0.86547200  0.45530200  1
  S  S22  1  0.50000000  0.36368400  0.05367300  1
  S  S23  1  0.00000000  0.13452800  0.95530200  1
  S  S24  1  0.00000000  0.56126200  0.84917900  1
  S  S25  1  0.50000000  0.94050700  0.17049800  1
  S  S26  1  0.50000000  0.43873800  0.34917900  1
  S  S27  1  0.00000000  0.05949300  0.67049800  1
