# generated using pymatgen
data_MoS3
_symmetry_space_group_name_H-M   'P 1'
_cell_length_a   3.87488512
_cell_length_b   7.43499879
_cell_length_c   10.93549625
_cell_angle_alpha   80.20946304
_cell_angle_beta   87.13664612
_cell_angle_gamma   63.46876188
_symmetry_Int_Tables_number   1
_chemical_formula_structural   MoS3
_chemical_formula_sum   'Mo1 S3'
_cell_volume   277.64555746
_cell_formula_units_Z   1
loop_
 _symmetry_equiv_pos_site_id
 _symmetry_equiv_pos_as_xyz
  1  'x, y, z'
loop_
 _atom_site_type_symbol
 _atom_site_label
 _atom_site_symmetry_multiplicity
 _atom_site_fract_x
 _atom_site_fract_y
 _atom_site_fract_z
 _atom_site_occupancy
  Mo  Mo0  1  0.62487000  0.96065100  0.23597100  1
  S  S1  1  0.27453100  0.79258700  0.20498700  1
  S  S2  1  0.71201600  0.74363200  0.69993800  1
  S  S3  1  0.35158300  0.25412900  0.28610400  1
