# generated using pymatgen
data_TaCr3(AgS4)2
_symmetry_space_group_name_H-M   'P 1'
_cell_length_a   11.54065777
_cell_length_b   7.40714900
_cell_length_c   12.21603859
_cell_angle_alpha   90.00000000
_cell_angle_beta   89.58809031
_cell_angle_gamma   90.00000000
_symmetry_Int_Tables_number   1
_chemical_formula_structural   TaCr3(AgS4)2
_chemical_formula_sum   'Ta4 Cr12 Ag8 S32'
_cell_volume   1044.24118117
_cell_formula_units_Z   4
loop_
 _symmetry_equiv_pos_site_id
 _symmetry_equiv_pos_as_xyz
  1  'x, y, z'
loop_
 _atom_site_type_symbol
 _atom_site_label
 _atom_site_symmetry_multiplicity
 _atom_site_fract_x
 _atom_site_fract_y
 _atom_site_fract_z
 _atom_site_occupancy
  Ta  Ta0  1  0.88781400  0.10508700  0.19110900  1
  Ta  Ta1  1  0.38781400  0.89491300  0.19110900  1
  Ta  Ta2  1  0.86273800  0.61912300  0.82262200  1
  Ta  Ta3  1  0.36273800  0.38087700  0.82262200  1
  Cr  Cr4  1  0.10903000  0.87967200  0.69267700  1
  Cr  Cr5  1  0.60903000  0.12032800  0.69267700  1
  Cr  Cr6  1  0.12666900  0.36721900  0.32502700  1
  Cr  Cr7  1  0.62666900  0.63278100  0.32502700  1
  Cr  Cr8  1  0.16310400  0.62076900  0.93643600  1
  Cr  Cr9  1  0.84202800  0.37685200  0.44366400  1
  Cr  Cr10  1  0.34202800  0.62314800  0.44366400  1
  Cr  Cr11  1  0.66310400  0.37923100  0.93643600  1
  Cr  Cr12  1  0.13625700  0.13278800  0.00027600  1
  Cr  Cr13  1  0.85531900  0.87711100  0.50780800  1
  Cr  Cr14  1  0.35531900  0.12288900  0.50780800  1
  Cr  Cr15  1  0.63625700  0.86721200  0.00027600  1
  Ag  Ag16  1  0.09157000  0.37052400  0.66383000  1
  Ag  Ag17  1  0.90161700  0.62083800  0.17947200  1
  Ag  Ag18  1  0.40161700  0.37916200  0.17947200  1
  Ag  Ag19  1  0.59157000  0.62947600  0.66383000  1
  Ag  Ag20  1  0.11283900  0.88066200  0.33958000  1
  Ag  Ag21  1  0.88624400  0.11407500  0.82787500  1
  Ag  Ag22  1  0.38624400  0.88592500  0.82787500  1
  Ag  Ag23  1  0.61283900  0.11933800  0.33958000  1
  S  S24  1  0.02860000  0.83745500  0.87367400  1
  S  S25  1  0.98015600  0.16140300  0.37859500  1
  S  S26  1  0.48015600  0.83859700  0.37859500  1
  S  S27  1  0.52860000  0.16254500  0.87367400  1
  S  S28  1  0.04161100  0.32656500  0.14491300  1
  S  S29  1  0.95721900  0.67726000  0.64121400  1
  S  S30  1  0.45721900  0.32274000  0.64121400  1
  S  S31  1  0.54161100  0.67343500  0.14491300  1
  S  S32  1  0.01390500  0.41646100  0.88502800  1
  S  S33  1  0.98737900  0.57681900  0.38031600  1
  S  S34  1  0.48737900  0.42318100  0.38031600  1
  S  S35  1  0.51390500  0.58353900  0.88502800  1
  S  S36  1  0.02644100  0.90429500  0.12542200  1
  S  S37  1  0.97506100  0.07828700  0.63060200  1
  S  S38  1  0.47506100  0.92171300  0.63060200  1
  S  S39  1  0.52644100  0.09570500  0.12542200  1
  S  S40  1  0.22817300  0.86999000  0.52879500  1
  S  S41  1  0.77466000  0.13331800  0.02803900  1
  S  S42  1  0.27466000  0.86668200  0.02803900  1
  S  S43  1  0.72817300  0.13001000  0.52879500  1
  S  S44  1  0.22513100  0.37668600  0.49715500  1
  S  S45  1  0.77547400  0.62499700  0.00602500  1
  S  S46  1  0.27547400  0.37500300  0.00602500  1
  S  S47  1  0.72513100  0.62331400  0.49715500  1
  S  S48  1  0.21970200  0.12525800  0.80640900  1
  S  S49  1  0.78824500  0.88143300  0.30697100  1
  S  S50  1  0.28824500  0.11856700  0.30697100  1
  S  S51  1  0.71970200  0.87474200  0.80640900  1
  S  S52  1  0.24508700  0.62216800  0.75827300  1
  S  S53  1  0.75792600  0.37654600  0.27219400  1
  S  S54  1  0.25792600  0.62345400  0.27219400  1
  S  S55  1  0.74508700  0.37783200  0.75827300  1
