# generated using pymatgen
data_TaCr3(AgS4)2
_symmetry_space_group_name_H-M   'P 1'
_cell_length_a   11.84574100
_cell_length_b   3.47819000
_cell_length_c   12.24351000
_cell_angle_alpha   90.00000000
_cell_angle_beta   90.00000000
_cell_angle_gamma   90.00000000
_symmetry_Int_Tables_number   1
_chemical_formula_structural   TaCr3(AgS4)2
_chemical_formula_sum   'Ta2 Cr6 Ag4 S16'
_cell_volume   504.45388986
_cell_formula_units_Z   2
loop_
 _symmetry_equiv_pos_site_id
 _symmetry_equiv_pos_as_xyz
  1  'x, y, z'
loop_
 _atom_site_type_symbol
 _atom_site_label
 _atom_site_symmetry_multiplicity
 _atom_site_fract_x
 _atom_site_fract_y
 _atom_site_fract_z
 _atom_site_occupancy
  Ta  Ta0  1  0.15403200  0.25000000  0.71448600  1
  Ta  Ta1  1  0.65403200  0.25000000  0.78551400  1
  Cr  Cr2  1  0.10444000  0.25000000  0.08286200  1
  Cr  Cr3  1  0.89515400  0.75000000  0.93073400  1
  Cr  Cr4  1  0.39515400  0.75000000  0.56926600  1
  Cr  Cr5  1  0.60444000  0.25000000  0.41713800  1
  Cr  Cr6  1  0.84529600  0.75000000  0.29430000  1
  Cr  Cr7  1  0.34529600  0.75000000  0.20570000  1
  Ag  Ag8  1  0.12997800  0.75000000  0.39827700  1
  Ag  Ag9  1  0.85903900  0.25000000  0.57298500  1
  Ag  Ag10  1  0.35903900  0.25000000  0.92701500  1
  Ag  Ag11  1  0.62997800  0.75000000  0.10172300  1
  S  S12  1  0.04889200  0.75000000  0.62158800  1
  S  S13  1  0.95175600  0.25000000  0.37673800  1
  S  S14  1  0.45175600  0.25000000  0.12326200  1
  S  S15  1  0.54889200  0.75000000  0.87841200  1
  S  S16  1  0.03630100  0.25000000  0.88087800  1
  S  S17  1  0.96606200  0.75000000  0.11590400  1
  S  S18  1  0.46606200  0.75000000  0.38409600  1
  S  S19  1  0.53630100  0.25000000  0.61912200  1
  S  S20  1  0.21095500  0.25000000  0.24801700  1
  S  S21  1  0.79829700  0.75000000  0.74469800  1
  S  S22  1  0.29829700  0.75000000  0.75530200  1
  S  S23  1  0.71095500  0.25000000  0.25198300  1
  S  S24  1  0.23274900  0.75000000  0.04291400  1
  S  S25  1  0.76704900  0.25000000  0.96652300  1
  S  S26  1  0.26704900  0.25000000  0.53347700  1
  S  S27  1  0.73274900  0.75000000  0.45708600  1
