# generated using pymatgen
data_NbCr3(CuS4)2
_symmetry_space_group_name_H-M   'P 1'
_cell_length_a   11.45196395
_cell_length_b   3.41761100
_cell_length_c   12.05825805
_cell_angle_alpha   90.00000000
_cell_angle_beta   90.61633397
_cell_angle_gamma   90.00000000
_symmetry_Int_Tables_number   1
_chemical_formula_structural   NbCr3(CuS4)2
_chemical_formula_sum   'Nb2 Cr6 Cu4 S16'
_cell_volume   471.91311493
_cell_formula_units_Z   2
loop_
 _symmetry_equiv_pos_site_id
 _symmetry_equiv_pos_as_xyz
  1  'x, y, z'
loop_
 _atom_site_type_symbol
 _atom_site_label
 _atom_site_symmetry_multiplicity
 _atom_site_fract_x
 _atom_site_fract_y
 _atom_site_fract_z
 _atom_site_occupancy
  Nb  Nb0  1  0.14647200  0.25000000  0.71415600  1
  Nb  Nb1  1  0.85352800  0.75000000  0.28584400  1
  Cr  Cr2  1  0.11867800  0.25000000  0.07421800  1
  Cr  Cr3  1  0.88132200  0.75000000  0.92578200  1
  Cr  Cr4  1  0.39048700  0.75000000  0.56776900  1
  Cr  Cr5  1  0.60951300  0.25000000  0.43223100  1
  Cr  Cr6  1  0.35392200  0.75000000  0.20565700  1
  Cr  Cr7  1  0.64607800  0.25000000  0.79434300  1
  Cu  Cu8  1  0.13179800  0.75000000  0.41592700  1
  Cu  Cu9  1  0.86820200  0.25000000  0.58407300  1
  Cu  Cu10  1  0.38755200  0.25000000  0.93752100  1
  Cu  Cu11  1  0.61244800  0.75000000  0.06247900  1
  S  S12  1  0.03308400  0.75000000  0.61033000  1
  S  S13  1  0.96691600  0.25000000  0.38967000  1
  S  S14  1  0.46888200  0.25000000  0.11890900  1
  S  S15  1  0.53111800  0.75000000  0.88109100  1
  S  S16  1  0.02532800  0.25000000  0.88071700  1
  S  S17  1  0.97467200  0.75000000  0.11928300  1
  S  S18  1  0.47101300  0.75000000  0.38408400  1
  S  S19  1  0.52898700  0.25000000  0.61591600  1
  S  S20  1  0.21530000  0.25000000  0.25091300  1
  S  S21  1  0.78470000  0.75000000  0.74908700  1
  S  S22  1  0.29750800  0.75000000  0.75046000  1
  S  S23  1  0.70249200  0.25000000  0.24954000  1
  S  S24  1  0.25174200  0.75000000  0.03021300  1
  S  S25  1  0.74825800  0.25000000  0.96978700  1
  S  S26  1  0.25004800  0.25000000  0.52314400  1
  S  S27  1  0.74995200  0.75000000  0.47685600  1
