# generated using pymatgen
data_HfCrCuS4
_symmetry_space_group_name_H-M   'P 1'
_cell_length_a   6.05698000
_cell_length_b   7.09940300
_cell_length_c   12.39538900
_cell_angle_alpha   90.00000000
_cell_angle_beta   90.00000000
_cell_angle_gamma   90.00000000
_symmetry_Int_Tables_number   1
_chemical_formula_structural   HfCrCuS4
_chemical_formula_sum   'Hf4 Cr4 Cu4 S16'
_cell_volume   533.01340324
_cell_formula_units_Z   4
loop_
 _symmetry_equiv_pos_site_id
 _symmetry_equiv_pos_as_xyz
  1  'x, y, z'
loop_
 _atom_site_type_symbol
 _atom_site_label
 _atom_site_symmetry_multiplicity
 _atom_site_fract_x
 _atom_site_fract_y
 _atom_site_fract_z
 _atom_site_occupancy
  Hf  Hf0  1  0.50000000  0.25000000  0.25000000  1
  Hf  Hf1  1  0.50000000  0.75000000  0.75000000  1
  Hf  Hf2  1  0.50000000  0.75000000  0.25000000  1
  Hf  Hf3  1  0.50000000  0.25000000  0.75000000  1
  Cr  Cr4  1  0.99665600  0.00000000  0.24395000  1
  Cr  Cr5  1  0.99665600  0.00000000  0.75605000  1
  Cr  Cr6  1  0.00334400  0.50000000  0.25605000  1
  Cr  Cr7  1  0.00334400  0.50000000  0.74395000  1
  Cu  Cu8  1  0.35717000  0.00000000  0.00000000  1
  Cu  Cu9  1  0.64283000  0.50000000  0.50000000  1
  Cu  Cu10  1  0.02915800  0.00000000  0.50000000  1
  Cu  Cu11  1  0.97084200  0.50000000  0.00000000  1
  S  S12  1  0.84768100  0.24941100  0.36534500  1
  S  S13  1  0.84768100  0.75058900  0.63465500  1
  S  S14  1  0.15231900  0.74941100  0.13465500  1
  S  S15  1  0.15231900  0.25058900  0.86534500  1
  S  S16  1  0.15231900  0.25058900  0.13465500  1
  S  S17  1  0.15231900  0.74941100  0.86534500  1
  S  S18  1  0.84768100  0.75058900  0.36534500  1
  S  S19  1  0.84768100  0.24941100  0.63465500  1
  S  S20  1  0.66671800  0.00000000  0.13105900  1
  S  S21  1  0.66671800  0.00000000  0.86894100  1
  S  S22  1  0.33328200  0.50000000  0.36894100  1
  S  S23  1  0.33328200  0.50000000  0.63105900  1
  S  S24  1  0.31287400  0.00000000  0.36326300  1
  S  S25  1  0.31287400  0.00000000  0.63673700  1
  S  S26  1  0.68712600  0.50000000  0.13673700  1
  S  S27  1  0.68712600  0.50000000  0.86326300  1
