# generated using pymatgen
data_TaCr3(CuS4)2
_symmetry_space_group_name_H-M   'P 1'
_cell_length_a   7.04755100
_cell_length_b   5.70635400
_cell_length_c   12.01727405
_cell_angle_alpha   89.38155382
_cell_angle_beta   90.00000000
_cell_angle_gamma   90.00000000
_symmetry_Int_Tables_number   1
_chemical_formula_structural   TaCr3(CuS4)2
_chemical_formula_sum   'Ta2 Cr6 Cu4 S16'
_cell_volume   483.25638708
_cell_formula_units_Z   2
loop_
 _symmetry_equiv_pos_site_id
 _symmetry_equiv_pos_as_xyz
  1  'x, y, z'
loop_
 _atom_site_type_symbol
 _atom_site_label
 _atom_site_symmetry_multiplicity
 _atom_site_fract_x
 _atom_site_fract_y
 _atom_site_fract_z
 _atom_site_occupancy
  Ta  Ta0  1  0.75000000  0.47917200  0.74884600  1
  Ta  Ta1  1  0.25000000  0.52082800  0.25115400  1
  Cr  Cr2  1  0.00000000  0.50000000  0.00000000  1
  Cr  Cr3  1  0.00000000  0.00000000  0.50000000  1
  Cr  Cr4  1  0.50000000  0.00000000  0.50000000  1
  Cr  Cr5  1  0.50000000  0.50000000  0.00000000  1
  Cr  Cr6  1  0.25000000  0.98144700  0.75626700  1
  Cr  Cr7  1  0.75000000  0.01855300  0.24373300  1
  Cu  Cu8  1  0.75000000  0.10761300  0.90674100  1
  Cu  Cu9  1  0.25000000  0.89238700  0.09325900  1
  Cu  Cu10  1  0.25000000  0.59000600  0.59269300  1
  Cu  Cu11  1  0.75000000  0.40999400  0.40730700  1
  S  S12  1  0.01200600  0.26071200  0.83082200  1
  S  S13  1  0.98799400  0.73928800  0.16917800  1
  S  S14  1  0.99327300  0.76540100  0.66881700  1
  S  S15  1  0.00672700  0.23459900  0.33118300  1
  S  S16  1  0.49327300  0.23459900  0.33118300  1
  S  S17  1  0.50672700  0.76540100  0.66881700  1
  S  S18  1  0.51200600  0.73928800  0.16917800  1
  S  S19  1  0.48799400  0.26071200  0.83082200  1
  S  S20  1  0.25000000  0.73613000  0.91827600  1
  S  S21  1  0.75000000  0.26387000  0.08172400  1
  S  S22  1  0.75000000  0.24221500  0.58297800  1
  S  S23  1  0.25000000  0.75778500  0.41702200  1
  S  S24  1  0.75000000  0.71713700  0.91790200  1
  S  S25  1  0.25000000  0.28286300  0.08209800  1
  S  S26  1  0.25000000  0.20149900  0.58736700  1
  S  S27  1  0.75000000  0.79850100  0.41263300  1
