# generated using pymatgen
data_HfCrCuS4
_symmetry_space_group_name_H-M   'P 1'
_cell_length_a   6.98261900
_cell_length_b   7.06326700
_cell_length_c   12.27250600
_cell_angle_alpha   90.00000000
_cell_angle_beta   90.00000000
_cell_angle_gamma   90.00000000
_symmetry_Int_Tables_number   1
_chemical_formula_structural   HfCrCuS4
_chemical_formula_sum   'Hf4 Cr4 Cu4 S16'
_cell_volume   605.28125209
_cell_formula_units_Z   4
loop_
 _symmetry_equiv_pos_site_id
 _symmetry_equiv_pos_as_xyz
  1  'x, y, z'
loop_
 _atom_site_type_symbol
 _atom_site_label
 _atom_site_symmetry_multiplicity
 _atom_site_fract_x
 _atom_site_fract_y
 _atom_site_fract_z
 _atom_site_occupancy
  Hf  Hf0  1  0.97089600  0.75000000  0.32015400  1
  Hf  Hf1  1  0.02910400  0.25000000  0.67984600  1
  Hf  Hf2  1  0.52910400  0.25000000  0.82015400  1
  Hf  Hf3  1  0.47089600  0.75000000  0.17984600  1
  Cr  Cr4  1  0.15244200  0.25000000  0.92588300  1
  Cr  Cr5  1  0.84755800  0.75000000  0.07411700  1
  Cr  Cr6  1  0.34755800  0.75000000  0.42588300  1
  Cr  Cr7  1  0.65244200  0.25000000  0.57411700  1
  Cu  Cu8  1  0.22772000  0.25000000  0.39879300  1
  Cu  Cu9  1  0.77228000  0.75000000  0.60120700  1
  Cu  Cu10  1  0.27228000  0.75000000  0.89879300  1
  Cu  Cu11  1  0.72772000  0.25000000  0.10120700  1
  S  S12  1  0.23463000  0.47806900  0.80089000  1
  S  S13  1  0.76537000  0.52193100  0.19911000  1
  S  S14  1  0.26537000  0.52193100  0.30089000  1
  S  S15  1  0.73463000  0.47806900  0.69911000  1
  S  S16  1  0.73463000  0.02193100  0.69911000  1
  S  S17  1  0.26537000  0.97806900  0.30089000  1
  S  S18  1  0.76537000  0.97806900  0.19911000  1
  S  S19  1  0.23463000  0.02193100  0.80089000  1
  S  S20  1  0.92331200  0.25000000  0.48145100  1
  S  S21  1  0.07668800  0.75000000  0.51854900  1
  S  S22  1  0.57668800  0.75000000  0.98145100  1
  S  S23  1  0.42331200  0.25000000  0.01854900  1
  S  S24  1  0.16232300  0.75000000  0.07524900  1
  S  S25  1  0.83767700  0.25000000  0.92475100  1
  S  S26  1  0.33767700  0.25000000  0.57524900  1
  S  S27  1  0.66232300  0.75000000  0.42475100  1
