# generated using pymatgen
data_HfCrCuS4
_symmetry_space_group_name_H-M   'P 1'
_cell_length_a   7.16223143
_cell_length_b   7.16223143
_cell_length_c   7.16223143
_cell_angle_alpha   119.51857254
_cell_angle_beta   119.27525909
_cell_angle_gamma   91.04791233
_symmetry_Int_Tables_number   1
_chemical_formula_structural   HfCrCuS4
_chemical_formula_sum   'Hf2 Cr2 Cu2 S8'
_cell_volume   262.11384626
_cell_formula_units_Z   2
loop_
 _symmetry_equiv_pos_site_id
 _symmetry_equiv_pos_as_xyz
  1  'x, y, z'
loop_
 _atom_site_type_symbol
 _atom_site_label
 _atom_site_symmetry_multiplicity
 _atom_site_fract_x
 _atom_site_fract_y
 _atom_site_fract_z
 _atom_site_occupancy
  Hf  Hf0  1  0.26322500  0.75000000  0.01322500  1
  Hf  Hf1  1  0.23677500  0.25000000  0.48677500  1
  Cr  Cr2  1  0.25000000  0.75228700  0.50228700  1
  Cr  Cr3  1  0.75000000  0.74771300  0.99771300  1
  Cu  Cu4  1  0.87701000  0.12701000  0.75000000  1
  Cu  Cu5  1  0.62299000  0.37299000  0.25000000  1
  S  S6  1  0.50345600  0.97976700  0.97906200  1
  S  S7  1  0.01204600  0.51496800  0.51289100  1
  S  S8  1  0.50070500  0.52439400  0.52093800  1
  S  S9  1  0.50207700  0.49915500  0.98710900  1
  S  S10  1  0.99929500  0.52023300  0.02368900  1
  S  S11  1  0.99792300  0.98503200  0.99707800  1
  S  S12  1  0.99654400  0.97560600  0.47631100  1
  S  S13  1  0.48795400  0.00084500  0.50292200  1
