# generated using pymatgen
data_ZrCrCuS4
_symmetry_space_group_name_H-M   'P 1'
_cell_length_a   6.67892100
_cell_length_b   7.25947900
_cell_length_c   11.62942600
_cell_angle_alpha   90.00000000
_cell_angle_beta   90.00000000
_cell_angle_gamma   90.00000000
_symmetry_Int_Tables_number   1
_chemical_formula_structural   ZrCrCuS4
_chemical_formula_sum   'Zr4 Cr4 Cu4 S16'
_cell_volume   563.85838014
_cell_formula_units_Z   4
loop_
 _symmetry_equiv_pos_site_id
 _symmetry_equiv_pos_as_xyz
  1  'x, y, z'
loop_
 _atom_site_type_symbol
 _atom_site_label
 _atom_site_symmetry_multiplicity
 _atom_site_fract_x
 _atom_site_fract_y
 _atom_site_fract_z
 _atom_site_occupancy
  Zr  Zr0  1  0.70488900  0.00000000  0.30977900  1
  Zr  Zr1  1  0.29511100  0.50000000  0.80977900  1
  Zr  Zr2  1  0.81834900  0.00000000  0.00830200  1
  Zr  Zr3  1  0.18165100  0.50000000  0.50830200  1
  Cr  Cr4  1  0.80755200  0.50000000  0.72951800  1
  Cr  Cr5  1  0.19244800  0.00000000  0.22951800  1
  Cr  Cr6  1  0.64915300  0.50000000  0.96441400  1
  Cr  Cr7  1  0.35084700  0.00000000  0.46441400  1
  Cu  Cu8  1  0.95978200  0.00000000  0.62808200  1
  Cu  Cu9  1  0.58025700  0.50000000  0.40932300  1
  Cu  Cu10  1  0.04021800  0.50000000  0.12808200  1
  Cu  Cu11  1  0.41974300  0.00000000  0.90932300  1
  S  S12  1  0.94175700  0.21055300  0.16641300  1
  S  S13  1  0.59452500  0.26186600  0.83648200  1
  S  S14  1  0.05824300  0.28944700  0.66641300  1
  S  S15  1  0.40547500  0.23813400  0.33648200  1
  S  S16  1  0.40547500  0.76186600  0.33648200  1
  S  S17  1  0.05824300  0.71055300  0.66641300  1
  S  S18  1  0.59452500  0.73813400  0.83648200  1
  S  S19  1  0.94175700  0.78944700  0.16641300  1
  S  S20  1  0.64344100  0.00000000  0.54270500  1
  S  S21  1  0.90840000  0.50000000  0.38229000  1
  S  S22  1  0.35655900  0.50000000  0.04270500  1
  S  S23  1  0.09160000  0.00000000  0.88229000  1
  S  S24  1  0.97668500  0.50000000  0.91473600  1
  S  S25  1  0.47358600  0.00000000  0.10506100  1
  S  S26  1  0.02331500  0.00000000  0.41473600  1
  S  S27  1  0.52641400  0.50000000  0.60506100  1
