# generated using pymatgen
data_NbCr3(AgS4)2
_symmetry_space_group_name_H-M   'P 1'
_cell_length_a   11.85070700
_cell_length_b   3.46963500
_cell_length_c   12.20349000
_cell_angle_alpha   90.00000000
_cell_angle_beta   90.00000000
_cell_angle_gamma   90.00000000
_symmetry_Int_Tables_number   1
_chemical_formula_structural   NbCr3(AgS4)2
_chemical_formula_sum   'Nb2 Cr6 Ag4 S16'
_cell_volume   501.77855946
_cell_formula_units_Z   2
loop_
 _symmetry_equiv_pos_site_id
 _symmetry_equiv_pos_as_xyz
  1  'x, y, z'
loop_
 _atom_site_type_symbol
 _atom_site_label
 _atom_site_symmetry_multiplicity
 _atom_site_fract_x
 _atom_site_fract_y
 _atom_site_fract_z
 _atom_site_occupancy
  Nb  Nb0  1  0.15073200  0.25000000  0.71897600  1
  Nb  Nb1  1  0.65073200  0.25000000  0.78102400  1
  Cr  Cr2  1  0.10472600  0.25000000  0.08653100  1
  Cr  Cr3  1  0.89538300  0.75000000  0.93301700  1
  Cr  Cr4  1  0.39538300  0.75000000  0.56698300  1
  Cr  Cr5  1  0.60472600  0.25000000  0.41346900  1
  Cr  Cr6  1  0.84653000  0.75000000  0.29372700  1
  Cr  Cr7  1  0.34653000  0.75000000  0.20627300  1
  Ag  Ag8  1  0.13182100  0.75000000  0.40473600  1
  Ag  Ag9  1  0.86296700  0.25000000  0.57886800  1
  Ag  Ag10  1  0.36296700  0.25000000  0.92113200  1
  Ag  Ag11  1  0.63182100  0.75000000  0.09526400  1
  S  S12  1  0.04854700  0.75000000  0.61730500  1
  S  S13  1  0.94969000  0.25000000  0.37721800  1
  S  S14  1  0.44969000  0.25000000  0.12278200  1
  S  S15  1  0.54854700  0.75000000  0.88269500  1
  S  S16  1  0.03382700  0.25000000  0.88590500  1
  S  S17  1  0.96626500  0.75000000  0.11991100  1
  S  S18  1  0.46626500  0.75000000  0.38008900  1
  S  S19  1  0.53382700  0.25000000  0.61409500  1
  S  S20  1  0.21104700  0.25000000  0.25107100  1
  S  S21  1  0.79982900  0.75000000  0.74958700  1
  S  S22  1  0.29982900  0.75000000  0.75041300  1
  S  S23  1  0.71104700  0.25000000  0.24892900  1
  S  S24  1  0.23267500  0.75000000  0.04171900  1
  S  S25  1  0.76596300  0.25000000  0.96603300  1
  S  S26  1  0.26596300  0.25000000  0.53396700  1
  S  S27  1  0.73267500  0.75000000  0.45828100  1
