# generated using pymatgen
data_NbCr3(AgS4)2
_symmetry_space_group_name_H-M   'P 1'
_cell_length_a   7.28656900
_cell_length_b   7.35063500
_cell_length_c   10.19011600
_cell_angle_alpha   90.00000000
_cell_angle_beta   90.00000000
_cell_angle_gamma   90.00000000
_symmetry_Int_Tables_number   1
_chemical_formula_structural   NbCr3(AgS4)2
_chemical_formula_sum   'Nb2 Cr6 Ag4 S16'
_cell_volume   545.79187701
_cell_formula_units_Z   2
loop_
 _symmetry_equiv_pos_site_id
 _symmetry_equiv_pos_as_xyz
  1  'x, y, z'
loop_
 _atom_site_type_symbol
 _atom_site_label
 _atom_site_symmetry_multiplicity
 _atom_site_fract_x
 _atom_site_fract_y
 _atom_site_fract_z
 _atom_site_occupancy
  Nb  Nb0  1  0.00000000  0.45956200  0.50000000  1
  Nb  Nb1  1  0.50000000  0.54043800  0.50000000  1
  Cr  Cr2  1  0.25624000  0.75345600  0.24796200  1
  Cr  Cr3  1  0.74376000  0.75345600  0.75203800  1
  Cr  Cr4  1  0.24376000  0.24654400  0.24796200  1
  Cr  Cr5  1  0.75624000  0.24654400  0.75203800  1
  Cr  Cr6  1  0.00000000  0.99601900  0.00000000  1
  Cr  Cr7  1  0.50000000  0.00398100  0.00000000  1
  Ag  Ag8  1  0.75000000  0.00000000  0.35966900  1
  Ag  Ag9  1  0.75000000  0.50000000  0.11537100  1
  Ag  Ag10  1  0.25000000  0.00000000  0.64033100  1
  Ag  Ag11  1  0.25000000  0.50000000  0.88462900  1
  S  S12  1  0.74655600  0.78376600  0.98521700  1
  S  S13  1  0.23793100  0.73298600  0.49071700  1
  S  S14  1  0.73793100  0.26701400  0.50928300  1
  S  S15  1  0.24655600  0.21623400  0.01478300  1
  S  S16  1  0.03609900  0.99539500  0.23488800  1
  S  S17  1  0.97061400  0.50494000  0.73997800  1
  S  S18  1  0.53609900  0.00460500  0.76511200  1
  S  S19  1  0.47061400  0.49506000  0.26002200  1
  S  S20  1  0.26206900  0.26701400  0.49071700  1
  S  S21  1  0.75344400  0.21623400  0.98521700  1
  S  S22  1  0.25344400  0.78376600  0.01478300  1
  S  S23  1  0.76206900  0.73298600  0.50928300  1
  S  S24  1  0.52938600  0.49506000  0.73997800  1
  S  S25  1  0.46390100  0.00460500  0.23488800  1
  S  S26  1  0.02938600  0.50494000  0.26002200  1
  S  S27  1  0.96390100  0.99539500  0.76511200  1
