# generated using pymatgen
data_NbCr3(AgS4)2
_symmetry_space_group_name_H-M   'P 1'
_cell_length_a   11.88273500
_cell_length_b   3.47413700
_cell_length_c   12.23939900
_cell_angle_alpha   90.00000000
_cell_angle_beta   90.00000000
_cell_angle_gamma   90.00000000
_symmetry_Int_Tables_number   1
_chemical_formula_structural   NbCr3(AgS4)2
_chemical_formula_sum   'Nb2 Cr6 Ag4 S16'
_cell_volume   505.26992110
_cell_formula_units_Z   2
loop_
 _symmetry_equiv_pos_site_id
 _symmetry_equiv_pos_as_xyz
  1  'x, y, z'
loop_
 _atom_site_type_symbol
 _atom_site_label
 _atom_site_symmetry_multiplicity
 _atom_site_fract_x
 _atom_site_fract_y
 _atom_site_fract_z
 _atom_site_occupancy
  Nb  Nb0  1  0.85244200  0.75000000  0.28020700  1
  Nb  Nb1  1  0.64755800  0.25000000  0.78020700  1
  Cr  Cr2  1  0.10989800  0.25000000  0.07663300  1
  Cr  Cr3  1  0.89964000  0.75000000  0.92336600  1
  Cr  Cr4  1  0.39010200  0.75000000  0.57663300  1
  Cr  Cr5  1  0.60036000  0.25000000  0.42336600  1
  Cr  Cr6  1  0.15398100  0.25000000  0.70754700  1
  Cr  Cr7  1  0.34601900  0.75000000  0.20754700  1
  Ag  Ag8  1  0.14407400  0.75000000  0.41298800  1
  Ag  Ag9  1  0.87159500  0.25000000  0.58797000  1
  Ag  Ag10  1  0.35592600  0.25000000  0.91298800  1
  Ag  Ag11  1  0.62840500  0.75000000  0.08797000  1
  S  S12  1  0.05093900  0.75000000  0.62138600  1
  S  S13  1  0.95355900  0.25000000  0.38072100  1
  S  S14  1  0.44906100  0.25000000  0.12138600  1
  S  S15  1  0.54644100  0.75000000  0.88072100  1
  S  S16  1  0.03606800  0.25000000  0.88520700  1
  S  S17  1  0.96874500  0.75000000  0.11472900  1
  S  S18  1  0.46393200  0.75000000  0.38520700  1
  S  S19  1  0.53125500  0.25000000  0.61472900  1
  S  S20  1  0.20922800  0.25000000  0.25060600  1
  S  S21  1  0.79812000  0.75000000  0.75179900  1
  S  S22  1  0.29077200  0.75000000  0.75060600  1
  S  S23  1  0.70188000  0.25000000  0.25179900  1
  S  S24  1  0.23759700  0.75000000  0.04281800  1
  S  S25  1  0.76605600  0.25000000  0.96402300  1
  S  S26  1  0.26240300  0.25000000  0.54281800  1
  S  S27  1  0.73394400  0.75000000  0.46402300  1
