# generated using pymatgen
data_H6PbCBr3N
_symmetry_space_group_name_H-M   'P 1'
_cell_length_a   8.42167000
_cell_length_b   8.54700200
_cell_length_c   12.18399300
_cell_angle_alpha   90.00000000
_cell_angle_beta   90.00000000
_cell_angle_gamma   90.00000000
_symmetry_Int_Tables_number   1
_chemical_formula_structural   H6PbCBr3N
_chemical_formula_sum   'H24 Pb4 C4 Br12 N4'
_cell_volume   877.00418572
_cell_formula_units_Z   4
loop_
 _symmetry_equiv_pos_site_id
 _symmetry_equiv_pos_as_xyz
  1  'x, y, z'
loop_
 _atom_site_type_symbol
 _atom_site_label
 _atom_site_symmetry_multiplicity
 _atom_site_fract_x
 _atom_site_fract_y
 _atom_site_fract_z
 _atom_site_occupancy
  H  H0  1  0.89115400  0.08155100  0.18191900  1
  H  H1  1  0.10884600  0.91844900  0.81808100  1
  H  H2  1  0.39115400  0.41844900  0.81808100  1
  H  H3  1  0.60884600  0.58155100  0.18191900  1
  H  H4  1  0.60884600  0.58155100  0.31808100  1
  H  H5  1  0.39115400  0.41844900  0.68191900  1
  H  H6  1  0.10884600  0.91844900  0.68191900  1
  H  H7  1  0.89115400  0.08155100  0.31808100  1
  H  H8  1  0.88272000  0.09225500  0.67585700  1
  H  H9  1  0.11728000  0.90774500  0.32414300  1
  H  H10  1  0.38272000  0.40774500  0.32414300  1
  H  H11  1  0.61728000  0.59225500  0.67585700  1
  H  H12  1  0.61728000  0.59225500  0.82414300  1
  H  H13  1  0.38272000  0.40774500  0.17585700  1
  H  H14  1  0.11728000  0.90774500  0.17585700  1
  H  H15  1  0.88272000  0.09225500  0.82414300  1
  H  H16  1  0.04160300  0.16223700  0.25000000  1
  H  H17  1  0.95839700  0.83776300  0.75000000  1
  H  H18  1  0.54160300  0.33776300  0.75000000  1
  H  H19  1  0.45839700  0.66223700  0.25000000  1
  H  H20  1  0.04620500  0.17620300  0.75000000  1
  H  H21  1  0.95379500  0.82379700  0.25000000  1
  H  H22  1  0.54620500  0.32379700  0.25000000  1
  H  H23  1  0.45379500  0.67620300  0.75000000  1
  Pb  Pb24  1  0.50000000  0.00000000  0.00000000  1
  Pb  Pb25  1  0.00000000  0.50000000  0.00000000  1
  Pb  Pb26  1  0.00000000  0.50000000  0.50000000  1
  Pb  Pb27  1  0.50000000  0.00000000  0.50000000  1
  C  C28  1  0.95557100  0.08458700  0.75000000  1
  C  C29  1  0.04442900  0.91541300  0.25000000  1
  C  C30  1  0.45557100  0.41541300  0.25000000  1
  C  C31  1  0.54442900  0.58458700  0.75000000  1
  Br  Br32  1  0.19902400  0.20047100  0.01757100  1
  Br  Br33  1  0.80097600  0.79952900  0.98242900  1
  Br  Br34  1  0.69902400  0.29952900  0.98242900  1
  Br  Br35  1  0.30097600  0.70047100  0.01757100  1
  Br  Br36  1  0.30097600  0.70047100  0.48242900  1
  Br  Br37  1  0.69902400  0.29952900  0.51757100  1
  Br  Br38  1  0.80097600  0.79952900  0.51757100  1
  Br  Br39  1  0.19902400  0.20047100  0.48242900  1
  Br  Br40  1  0.43870700  0.02426100  0.75000000  1
  Br  Br41  1  0.56129300  0.97573900  0.25000000  1
  Br  Br42  1  0.93870700  0.47573900  0.25000000  1
  Br  Br43  1  0.06129300  0.52426100  0.75000000  1
  N  N44  1  0.96305100  0.06995100  0.25000000  1
  N  N45  1  0.03694900  0.93004900  0.75000000  1
  N  N46  1  0.46305100  0.43004900  0.75000000  1
  N  N47  1  0.53694900  0.56995100  0.25000000  1
