# generated using pymatgen
data_NbCr3(AgS4)2
_symmetry_space_group_name_H-M   'P 1'
_cell_length_a   7.00711300
_cell_length_b   5.98511200
_cell_length_c   6.47521921
_cell_angle_alpha   88.01560832
_cell_angle_beta   90.00000000
_cell_angle_gamma   90.00000000
_symmetry_Int_Tables_number   1
_chemical_formula_structural   NbCr3(AgS4)2
_chemical_formula_sum   'Nb1 Cr3 Ag2 S8'
_cell_volume   271.39719362
_cell_formula_units_Z   1
loop_
 _symmetry_equiv_pos_site_id
 _symmetry_equiv_pos_as_xyz
  1  'x, y, z'
loop_
 _atom_site_type_symbol
 _atom_site_label
 _atom_site_symmetry_multiplicity
 _atom_site_fract_x
 _atom_site_fract_y
 _atom_site_fract_z
 _atom_site_occupancy
  Nb  Nb0  1  0.50000000  0.00000000  0.50000000  1
  Cr  Cr1  1  0.24932600  0.50000000  0.50000000  1
  Cr  Cr2  1  0.75067400  0.50000000  0.50000000  1
  Cr  Cr3  1  0.00000000  0.00000000  0.50000000  1
  Ag  Ag4  1  0.00000000  0.00000000  0.00000000  1
  Ag  Ag5  1  0.50000000  0.00000000  0.00000000  1
  S  S6  1  0.00000000  0.32879600  0.69996200  1
  S  S7  1  0.50000000  0.33681900  0.71526000  1
  S  S8  1  0.24353000  0.82160500  0.71638600  1
  S  S9  1  0.75647000  0.82160500  0.71638600  1
  S  S10  1  0.24353000  0.17839500  0.28361400  1
  S  S11  1  0.75647000  0.17839500  0.28361400  1
  S  S12  1  0.50000000  0.66318100  0.28474000  1
  S  S13  1  0.00000000  0.67120400  0.30003800  1
