# generated using pymatgen
data_HfCrAgS4
_symmetry_space_group_name_H-M   'P 1'
_cell_length_a   3.59892800
_cell_length_b   6.10996700
_cell_length_c   6.55493057
_cell_angle_alpha   88.47405749
_cell_angle_beta   90.00000000
_cell_angle_gamma   90.00000000
_symmetry_Int_Tables_number   1
_chemical_formula_structural   HfCrAgS4
_chemical_formula_sum   'Hf1 Cr1 Ag1 S4'
_cell_volume   144.08742431
_cell_formula_units_Z   1
loop_
 _symmetry_equiv_pos_site_id
 _symmetry_equiv_pos_as_xyz
  1  'x, y, z'
loop_
 _atom_site_type_symbol
 _atom_site_label
 _atom_site_symmetry_multiplicity
 _atom_site_fract_x
 _atom_site_fract_y
 _atom_site_fract_z
 _atom_site_occupancy
  Hf  Hf0  1  0.50000000  0.00000000  0.00000000  1
  Cr  Cr1  1  0.00000000  0.50000000  0.00000000  1
  Ag  Ag2  1  0.00000000  0.50000000  0.50000000  1
  S  S3  1  0.00000000  0.82010200  0.21840000  1
  S  S4  1  0.50000000  0.34124400  0.21078800  1
  S  S5  1  0.50000000  0.65875600  0.78921200  1
  S  S6  1  0.00000000  0.17989800  0.78160000  1
