# generated using pymatgen
data_CaCo3O7
_symmetry_space_group_name_H-M   'P 1'
_cell_length_a   5.27412800
_cell_length_b   10.27847300
_cell_length_c   10.78586100
_cell_angle_alpha   90.00000000
_cell_angle_beta   90.00000000
_cell_angle_gamma   90.00000000
_symmetry_Int_Tables_number   1
_chemical_formula_structural   CaCo3O7
_chemical_formula_sum   'Ca4 Co12 O28'
_cell_volume   584.70133332
_cell_formula_units_Z   4
loop_
 _symmetry_equiv_pos_site_id
 _symmetry_equiv_pos_as_xyz
  1  'x, y, z'
loop_
 _atom_site_type_symbol
 _atom_site_label
 _atom_site_symmetry_multiplicity
 _atom_site_fract_x
 _atom_site_fract_y
 _atom_site_fract_z
 _atom_site_occupancy
  Ca  Ca0  1  0.67794600  0.75000000  0.92919400  1
  Ca  Ca1  1  0.17794600  0.25000000  0.57080600  1
  Ca  Ca2  1  0.32205400  0.25000000  0.07080600  1
  Ca  Ca3  1  0.82205400  0.75000000  0.42919400  1
  Co  Co4  1  0.30360500  0.02214300  0.30274600  1
  Co  Co5  1  0.80360500  0.97785700  0.19725400  1
  Co  Co6  1  0.69639500  0.52214300  0.69725400  1
  Co  Co7  1  0.19639500  0.47785700  0.80274600  1
  Co  Co8  1  0.30900600  0.75000000  0.21939800  1
  Co  Co9  1  0.80900600  0.25000000  0.28060200  1
  Co  Co10  1  0.69099400  0.25000000  0.78060200  1
  Co  Co11  1  0.19099400  0.75000000  0.71939800  1
  Co  Co12  1  0.80360500  0.52214300  0.19725400  1
  Co  Co13  1  0.30360500  0.47785700  0.30274600  1
  Co  Co14  1  0.19639500  0.02214300  0.80274600  1
  Co  Co15  1  0.69639500  0.97785700  0.69725400  1
  O  O16  1  0.93375000  0.11733100  0.72185700  1
  O  O17  1  0.43375000  0.88266900  0.77814300  1
  O  O18  1  0.06625000  0.61733100  0.27814300  1
  O  O19  1  0.56625000  0.38266900  0.22185700  1
  O  O20  1  0.06625000  0.88266900  0.27814300  1
  O  O21  1  0.56625000  0.11733100  0.22185700  1
  O  O22  1  0.93375000  0.38266900  0.72185700  1
  O  O23  1  0.43375000  0.61733100  0.77814300  1
  O  O24  1  0.45529600  0.11662300  0.71681100  1
  O  O25  1  0.95529600  0.88337700  0.78318900  1
  O  O26  1  0.54470400  0.61662300  0.28318900  1
  O  O27  1  0.04470400  0.38337700  0.21681100  1
  O  O28  1  0.54470400  0.88337700  0.28318900  1
  O  O29  1  0.04470400  0.11662300  0.21681100  1
  O  O30  1  0.45529600  0.38337700  0.71681100  1
  O  O31  1  0.95529600  0.61662300  0.78318900  1
  O  O32  1  0.17431200  0.75000000  0.56454200  1
  O  O33  1  0.67431200  0.25000000  0.93545800  1
  O  O34  1  0.82568800  0.25000000  0.43545700  1
  O  O35  1  0.32568800  0.75000000  0.06454300  1
  O  O36  1  0.21284900  0.42644200  0.94843800  1
  O  O37  1  0.71284900  0.57355800  0.55156200  1
  O  O38  1  0.78715100  0.92644200  0.05156200  1
  O  O39  1  0.28715100  0.07355800  0.44843800  1
  O  O40  1  0.78715100  0.57355800  0.05156200  1
  O  O41  1  0.28715100  0.42644200  0.44843800  1
  O  O42  1  0.21284900  0.07355800  0.94843800  1
  O  O43  1  0.71284900  0.92644200  0.55156200  1
