# generated using pymatgen
data_Li4Co3O7
_symmetry_space_group_name_H-M   'P 1'
_cell_length_a   5.86511679
_cell_length_b   7.73293281
_cell_length_c   6.56506518
_cell_angle_alpha   104.37615232
_cell_angle_beta   76.02166842
_cell_angle_gamma   67.56834511
_symmetry_Int_Tables_number   1
_chemical_formula_structural   Li4Co3O7
_chemical_formula_sum   'Li8 Co6 O14'
_cell_volume   247.08875419
_cell_formula_units_Z   2
loop_
 _symmetry_equiv_pos_site_id
 _symmetry_equiv_pos_as_xyz
  1  'x, y, z'
loop_
 _atom_site_type_symbol
 _atom_site_label
 _atom_site_symmetry_multiplicity
 _atom_site_fract_x
 _atom_site_fract_y
 _atom_site_fract_z
 _atom_site_occupancy
  Li  Li0  1  0.35714300  0.71428600  0.14285700  1
  Li  Li1  1  0.20866500  0.43413300  0.28099500  1
  Li  Li2  1  0.64488000  0.28245700  0.85235400  1
  Li  Li3  1  0.50562100  0.99443800  0.00471900  1
  Li  Li4  1  0.93238700  0.84747500  0.56151200  1
  Li  Li5  1  0.78189800  0.58109700  0.72420300  1
  Li  Li6  1  0.06940600  0.14611400  0.43336000  1
  Li  Li7  1  0.85714300  0.71428600  0.14285700  1
  Co  Co8  1  0.00174200  0.99601200  0.00508900  1
  Co  Co9  1  0.71254400  0.43255900  0.28062500  1
  Co  Co10  1  0.56820600  0.14163100  0.42711300  1
  Co  Co11  1  0.44230000  0.84881100  0.56158800  1
  Co  Co12  1  0.27198500  0.57976100  0.72412700  1
  Co  Co13  1  0.14608000  0.28694000  0.85860100  1
  O  O14  1  0.93336100  0.95411700  0.29072900  1
  O  O15  1  0.80013500  0.64605000  0.43832800  1
  O  O16  1  0.24547500  0.47952100  0.97847300  1
  O  O17  1  0.10263800  0.21967600  0.12371000  1
  O  O18  1  0.51365400  0.08554200  0.70291100  1
  O  O19  1  0.38522900  0.78275800  0.85933400  1
  O  O20  1  0.65762900  0.35163500  0.55283100  1
  O  O21  1  0.78092500  0.47445400  0.99498500  1
  O  O22  1  0.61164700  0.20889600  0.16200500  1
  O  O23  1  0.05665700  0.07693700  0.73288300  1
  O  O24  1  0.91415100  0.78252100  0.84738600  1
  O  O25  1  0.32905700  0.64581300  0.42638000  1
  O  O26  1  0.20063200  0.34302900  0.58280300  1
  O  O27  1  0.46881000  0.94905100  0.30724200  1
