# generated using pymatgen
data_CaTiSb(PO4)3
_symmetry_space_group_name_H-M   'P 1'
_cell_length_a   9.02540054
_cell_length_b   9.02540006
_cell_length_c   9.02540035
_cell_angle_alpha   59.85672116
_cell_angle_beta   59.85672268
_cell_angle_gamma   59.85672739
_symmetry_Int_Tables_number   1
_chemical_formula_structural   CaTiSb(PO4)3
_chemical_formula_sum   'Ca2 Ti2 Sb2 P6 O24'
_cell_volume   518.16739402
_cell_formula_units_Z   2
loop_
 _symmetry_equiv_pos_site_id
 _symmetry_equiv_pos_as_xyz
  1  'x, y, z'
loop_
 _atom_site_type_symbol
 _atom_site_label
 _atom_site_symmetry_multiplicity
 _atom_site_fract_x
 _atom_site_fract_y
 _atom_site_fract_z
 _atom_site_occupancy
  Ca  Ca0  1  0.99710800  0.99710800  0.99710800  1
  Ca  Ca1  1  0.49710800  0.49710800  0.49710800  1
  Ti  Ti2  1  0.15067900  0.15067900  0.15067900  1
  Ti  Ti3  1  0.65067900  0.65067900  0.65067900  1
  Sb  Sb4  1  0.34901000  0.34901000  0.34901000  1
  Sb  Sb5  1  0.84901000  0.84901000  0.84901000  1
  P  P6  1  0.03954700  0.44258800  0.76736900  1
  P  P7  1  0.44258800  0.76736900  0.03954700  1
  P  P8  1  0.76736900  0.03954700  0.44258800  1
  P  P9  1  0.26736900  0.94258800  0.53954700  1
  P  P10  1  0.53954700  0.26736900  0.94258800  1
  P  P11  1  0.94258800  0.53954700  0.26736900  1
  O  O12  1  0.08639000  0.51477900  0.32689000  1
  O  O13  1  0.32689000  0.08639000  0.51477900  1
  O  O14  1  0.04505300  0.26143000  0.93073800  1
  O  O15  1  0.51477900  0.32689000  0.08639000  1
  O  O16  1  0.01477900  0.58639000  0.82689000  1
  O  O17  1  0.22200200  0.42145300  0.61024100  1
  O  O18  1  0.26143000  0.93073800  0.04505300  1
  O  O19  1  0.42145300  0.61024100  0.22200200  1
  O  O20  1  0.21100000  0.00363800  0.37008100  1
  O  O21  1  0.61024100  0.22200200  0.42145300  1
  O  O22  1  0.11024100  0.92145400  0.72200200  1
  O  O23  1  0.37008100  0.21100000  0.00363800  1
  O  O24  1  0.58639000  0.82689000  0.01477900  1
  O  O25  1  0.93073800  0.04505300  0.26143000  1
  O  O26  1  0.43073800  0.76143000  0.54505300  1
  O  O27  1  0.82689000  0.01477900  0.58639000  1
  O  O28  1  0.54505300  0.43073800  0.76143000  1
  O  O29  1  0.72200200  0.11024100  0.92145400  1
  O  O30  1  0.76143000  0.54505300  0.43073800  1
  O  O31  1  0.00363800  0.37008100  0.21100000  1
  O  O32  1  0.50363800  0.71100000  0.87008100  1
  O  O33  1  0.92145400  0.72200200  0.11024100  1
  O  O34  1  0.71100000  0.87008100  0.50363800  1
  O  O35  1  0.87008100  0.50363800  0.71100000  1
