# generated using pymatgen
data_CaTaBiO5
_symmetry_space_group_name_H-M   'P 1'
_cell_length_a   5.88198988
_cell_length_b   8.62475505
_cell_length_c   12.14292000
_cell_angle_alpha   90.00000000
_cell_angle_beta   90.00000000
_cell_angle_gamma   109.72838321
_symmetry_Int_Tables_number   1
_chemical_formula_structural   CaTaBiO5
_chemical_formula_sum   'Ca4 Ta4 Bi4 O20'
_cell_volume   579.86089531
_cell_formula_units_Z   4
loop_
 _symmetry_equiv_pos_site_id
 _symmetry_equiv_pos_as_xyz
  1  'x, y, z'
loop_
 _atom_site_type_symbol
 _atom_site_label
 _atom_site_symmetry_multiplicity
 _atom_site_fract_x
 _atom_site_fract_y
 _atom_site_fract_z
 _atom_site_occupancy
  Ca  Ca0  1  0.63474700  0.17878800  0.91521600  1
  Ca  Ca1  1  0.36525300  0.82121200  0.08478400  1
  Ca  Ca2  1  0.86525300  0.32121200  0.41521600  1
  Ca  Ca3  1  0.13474700  0.67878800  0.58478400  1
  Ta  Ta4  1  0.80561800  0.96703200  0.64108800  1
  Ta  Ta5  1  0.19438200  0.03296800  0.35891200  1
  Ta  Ta6  1  0.69438200  0.53296800  0.14108800  1
  Ta  Ta7  1  0.30561800  0.46703200  0.85891200  1
  Bi  Bi8  1  0.12504300  0.15950200  0.09037900  1
  Bi  Bi9  1  0.87495700  0.84049800  0.90962100  1
  Bi  Bi10  1  0.62504300  0.65950200  0.40962100  1
  Bi  Bi11  1  0.37495700  0.34049800  0.59037900  1
  O  O12  1  0.53566800  0.33276200  0.06667400  1
  O  O13  1  0.05625500  0.31942000  0.94653000  1
  O  O14  1  0.47735000  0.63264700  0.18315200  1
  O  O15  1  0.74136300  0.51306100  0.52576900  1
  O  O16  1  0.80428700  0.49499600  0.27942500  1
  O  O17  1  0.30428700  0.99499600  0.22057500  1
  O  O18  1  0.55625500  0.81942000  0.55347000  1
  O  O19  1  0.44374500  0.18058000  0.44653000  1
  O  O20  1  0.25863700  0.48693900  0.47423100  1
  O  O21  1  0.96433200  0.16723800  0.56667400  1
  O  O22  1  0.19571300  0.50500400  0.72057500  1
  O  O23  1  0.46433200  0.66723800  0.93332600  1
  O  O24  1  0.03566800  0.83276200  0.43332600  1
  O  O25  1  0.69571300  0.00500400  0.77942500  1
  O  O26  1  0.75863700  0.98693900  0.02576900  1
  O  O27  1  0.24136300  0.01306100  0.97423100  1
  O  O28  1  0.52265000  0.36735300  0.81684800  1
  O  O29  1  0.94374500  0.68058000  0.05347000  1
  O  O30  1  0.02265000  0.86735300  0.68315200  1
  O  O31  1  0.97735000  0.13264700  0.31684800  1
