# generated using pymatgen
data_MgCrBiO5
_symmetry_space_group_name_H-M   'P 1'
_cell_length_a   5.39550971
_cell_length_b   7.74111036
_cell_length_c   11.71206400
_cell_angle_alpha   90.00000000
_cell_angle_beta   90.00000000
_cell_angle_gamma   108.09475725
_symmetry_Int_Tables_number   1
_chemical_formula_structural   MgCrBiO5
_chemical_formula_sum   'Mg4 Cr4 Bi4 O20'
_cell_volume   464.98770606
_cell_formula_units_Z   4
loop_
 _symmetry_equiv_pos_site_id
 _symmetry_equiv_pos_as_xyz
  1  'x, y, z'
loop_
 _atom_site_type_symbol
 _atom_site_label
 _atom_site_symmetry_multiplicity
 _atom_site_fract_x
 _atom_site_fract_y
 _atom_site_fract_z
 _atom_site_occupancy
  Mg  Mg0  1  0.62890700  0.17672000  0.92071400  1
  Mg  Mg1  1  0.37109300  0.82328000  0.07928600  1
  Mg  Mg2  1  0.87109300  0.32328000  0.42071400  1
  Mg  Mg3  1  0.12890700  0.67672000  0.57928600  1
  Cr  Cr4  1  0.78472900  0.96988200  0.64768800  1
  Cr  Cr5  1  0.21527100  0.03011800  0.35231200  1
  Cr  Cr6  1  0.71527100  0.53011800  0.14768800  1
  Cr  Cr7  1  0.28472900  0.46988200  0.85231200  1
  Bi  Bi8  1  0.12021000  0.17420400  0.09715000  1
  Bi  Bi9  1  0.87979000  0.82579600  0.90285000  1
  Bi  Bi10  1  0.62021000  0.67420400  0.40285000  1
  Bi  Bi11  1  0.37979000  0.32579600  0.59715000  1
  O  O12  1  0.58015200  0.33032300  0.07301000  1
  O  O13  1  0.03367800  0.32626200  0.93237200  1
  O  O14  1  0.49723500  0.64505300  0.17468400  1
  O  O15  1  0.75721700  0.51353100  0.52562600  1
  O  O16  1  0.79904900  0.48289700  0.28518400  1
  O  O17  1  0.29904900  0.98289700  0.21481600  1
  O  O18  1  0.53367800  0.82626200  0.56762800  1
  O  O19  1  0.46632200  0.17373800  0.43237200  1
  O  O20  1  0.24278300  0.48646900  0.47437400  1
  O  O21  1  0.91984800  0.16967700  0.57301000  1
  O  O22  1  0.20095100  0.51710300  0.71481600  1
  O  O23  1  0.41984800  0.66967700  0.92699000  1
  O  O24  1  0.08015200  0.83032300  0.42699000  1
  O  O25  1  0.70095100  0.01710300  0.78518400  1
  O  O26  1  0.74278300  0.98646900  0.02562600  1
  O  O27  1  0.25721700  0.01353100  0.97437400  1
  O  O28  1  0.50276500  0.35494700  0.82531600  1
  O  O29  1  0.96632200  0.67373800  0.06762800  1
  O  O30  1  0.00276500  0.85494700  0.67468400  1
  O  O31  1  0.99723500  0.14505300  0.32531600  1
