# generated using pymatgen
data_MgMn2(CuO4)2
_symmetry_space_group_name_H-M   'P 1'
_cell_length_a   6.42437163
_cell_length_b   8.27989700
_cell_length_c   11.89926957
_cell_angle_alpha   90.00000000
_cell_angle_beta   90.16562257
_cell_angle_gamma   90.00000000
_symmetry_Int_Tables_number   1
_chemical_formula_structural   MgMn2(CuO4)2
_chemical_formula_sum   'Mg4 Mn8 Cu8 O32'
_cell_volume   632.95681230
_cell_formula_units_Z   4
loop_
 _symmetry_equiv_pos_site_id
 _symmetry_equiv_pos_as_xyz
  1  'x, y, z'
loop_
 _atom_site_type_symbol
 _atom_site_label
 _atom_site_symmetry_multiplicity
 _atom_site_fract_x
 _atom_site_fract_y
 _atom_site_fract_z
 _atom_site_occupancy
  Mg  Mg0  1  0.11316600  0.16513300  0.04871300  1
  Mg  Mg1  1  0.88683400  0.83486700  0.95128700  1
  Mg  Mg2  1  0.88683400  0.66513300  0.45128700  1
  Mg  Mg3  1  0.11316600  0.33486700  0.54871300  1
  Mn  Mn4  1  0.09897800  0.46213600  0.84482600  1
  Mn  Mn5  1  0.09897800  0.03786400  0.34482600  1
  Mn  Mn6  1  0.61246200  0.09011300  0.13150100  1
  Mn  Mn7  1  0.90102200  0.96213600  0.65517400  1
  Mn  Mn8  1  0.38753800  0.90988700  0.86849900  1
  Mn  Mn9  1  0.38753800  0.59011300  0.36849900  1
  Mn  Mn10  1  0.61246200  0.40988700  0.63150100  1
  Mn  Mn11  1  0.90102200  0.53786400  0.15517400  1
  Cu  Cu12  1  0.76446900  0.17567400  0.86455200  1
  Cu  Cu13  1  0.38668600  0.05634700  0.63365000  1
  Cu  Cu14  1  0.61331400  0.94365300  0.36635000  1
  Cu  Cu15  1  0.23553100  0.82432600  0.13544800  1
  Cu  Cu16  1  0.76446900  0.32432600  0.36455200  1
  Cu  Cu17  1  0.38668600  0.44365300  0.13365000  1
  Cu  Cu18  1  0.23553100  0.67567400  0.63544800  1
  Cu  Cu19  1  0.61331400  0.55634700  0.86635000  1
  O  O20  1  0.03375100  0.22933800  0.39399700  1
  O  O21  1  0.67063700  0.01322000  0.59320300  1
  O  O22  1  0.18860300  0.57407900  0.47016100  1
  O  O23  1  0.81139700  0.07407900  0.02983900  1
  O  O24  1  0.03375100  0.27066200  0.89399700  1
  O  O25  1  0.96624900  0.77066200  0.60600300  1
  O  O26  1  0.08747600  0.10380900  0.61691800  1
  O  O27  1  0.51301800  0.89885400  0.14003000  1
  O  O28  1  0.51301800  0.60114600  0.64003000  1
  O  O29  1  0.31971000  0.86911800  0.72896600  1
  O  O30  1  0.68029000  0.36911800  0.77103400  1
  O  O31  1  0.48698200  0.10114600  0.85997000  1
  O  O32  1  0.91252400  0.89619100  0.38308200  1
  O  O33  1  0.87720900  0.53493200  0.29876800  1
  O  O34  1  0.41875100  0.28159500  0.58551900  1
  O  O35  1  0.41875100  0.21840500  0.08551900  1
  O  O36  1  0.12279100  0.03493200  0.20123200  1
  O  O37  1  0.48698200  0.39885400  0.35997000  1
  O  O38  1  0.12279100  0.46506800  0.70123200  1
  O  O39  1  0.81139700  0.42592200  0.52983900  1
  O  O40  1  0.67063700  0.48678000  0.09320300  1
  O  O41  1  0.68029000  0.13088200  0.27103400  1
  O  O42  1  0.96624900  0.72933800  0.10600300  1
  O  O43  1  0.08747600  0.39619100  0.11691800  1
  O  O44  1  0.18860300  0.92592100  0.97016100  1
  O  O45  1  0.58124900  0.78159500  0.91448100  1
  O  O46  1  0.32936300  0.98678000  0.40679700  1
  O  O47  1  0.32936300  0.51322000  0.90679700  1
  O  O48  1  0.91252400  0.60380900  0.88308200  1
  O  O49  1  0.58124900  0.71840500  0.41448100  1
  O  O50  1  0.31971000  0.63088200  0.22896600  1
  O  O51  1  0.87720900  0.96506800  0.79876800  1
