# generated using pymatgen
data_CaBi2O5
_symmetry_space_group_name_H-M   'P 1'
_cell_length_a   5.95086048
_cell_length_b   8.90367680
_cell_length_c   12.16086800
_cell_angle_alpha   90.00000000
_cell_angle_beta   90.00000000
_cell_angle_gamma   109.57432226
_symmetry_Int_Tables_number   1
_chemical_formula_structural   CaBi2O5
_chemical_formula_sum   'Ca4 Bi8 O20'
_cell_volume   607.10020002
_cell_formula_units_Z   4
loop_
 _symmetry_equiv_pos_site_id
 _symmetry_equiv_pos_as_xyz
  1  'x, y, z'
loop_
 _atom_site_type_symbol
 _atom_site_label
 _atom_site_symmetry_multiplicity
 _atom_site_fract_x
 _atom_site_fract_y
 _atom_site_fract_z
 _atom_site_occupancy
  Ca  Ca0  1  0.62745900  0.17217000  0.91202300  1
  Ca  Ca1  1  0.37254100  0.82783000  0.08797700  1
  Ca  Ca2  1  0.87254100  0.32783000  0.41202300  1
  Ca  Ca3  1  0.12745900  0.67217000  0.58797700  1
  Bi  Bi4  1  0.81636200  0.95665100  0.63138300  1
  Bi  Bi5  1  0.18363800  0.04334900  0.36861700  1
  Bi  Bi6  1  0.68363800  0.54334900  0.13138300  1
  Bi  Bi7  1  0.31636200  0.45665100  0.86861700  1
  Bi  Bi8  1  0.10982600  0.14892700  0.09616400  1
  Bi  Bi9  1  0.89017400  0.85107300  0.90383600  1
  Bi  Bi10  1  0.60982600  0.64892700  0.40383600  1
  Bi  Bi11  1  0.39017400  0.35107300  0.59616400  1
  O  O12  1  0.50814900  0.33545600  0.04768500  1
  O  O13  1  0.02920800  0.31393200  0.95495400  1
  O  O14  1  0.46602200  0.65023000  0.20148700  1
  O  O15  1  0.74164000  0.51412200  0.52508100  1
  O  O16  1  0.78368300  0.49490800  0.28650300  1
  O  O17  1  0.28368300  0.99490800  0.21349700  1
  O  O18  1  0.52920800  0.81393200  0.54504600  1
  O  O19  1  0.47079200  0.18606800  0.45495400  1
  O  O20  1  0.25836000  0.48587800  0.47491900  1
  O  O21  1  0.99185100  0.16454400  0.54768500  1
  O  O22  1  0.21631700  0.50509200  0.71349700  1
  O  O23  1  0.49185100  0.66454400  0.95231500  1
  O  O24  1  0.00814900  0.83545600  0.45231500  1
  O  O25  1  0.71631700  0.00509200  0.78650300  1
  O  O26  1  0.75836000  0.98587800  0.02508100  1
  O  O27  1  0.24164000  0.01412200  0.97491900  1
  O  O28  1  0.53397800  0.34977000  0.79851300  1
  O  O29  1  0.97079200  0.68606800  0.04504600  1
  O  O30  1  0.03397800  0.84977000  0.70148700  1
  O  O31  1  0.96602200  0.15023000  0.29851300  1
