# generated using pymatgen
data_MgTiSb(PO4)3
_symmetry_space_group_name_H-M   'P 1'
_cell_length_a   8.38961198
_cell_length_b   8.38961220
_cell_length_c   8.38961202
_cell_angle_alpha   63.98503850
_cell_angle_beta   63.98503989
_cell_angle_gamma   63.98504327
_symmetry_Int_Tables_number   1
_chemical_formula_structural   MgTiSb(PO4)3
_chemical_formula_sum   'Mg2 Ti2 Sb2 P6 O24'
_cell_volume   454.20318509
_cell_formula_units_Z   2
loop_
 _symmetry_equiv_pos_site_id
 _symmetry_equiv_pos_as_xyz
  1  'x, y, z'
loop_
 _atom_site_type_symbol
 _atom_site_label
 _atom_site_symmetry_multiplicity
 _atom_site_fract_x
 _atom_site_fract_y
 _atom_site_fract_z
 _atom_site_occupancy
  Mg  Mg0  1  0.99597200  0.99597200  0.99597200  1
  Mg  Mg1  1  0.49597200  0.49597200  0.49597200  1
  Ti  Ti2  1  0.15041700  0.15041700  0.15041700  1
  Ti  Ti3  1  0.65041700  0.65041700  0.65041700  1
  Sb  Sb4  1  0.33640400  0.33640400  0.33640400  1
  Sb  Sb5  1  0.83640400  0.83640400  0.83640400  1
  P  P6  1  0.06666800  0.43161300  0.75483300  1
  P  P7  1  0.43161300  0.75483300  0.06666800  1
  P  P8  1  0.75483300  0.06666800  0.43161300  1
  P  P9  1  0.25483300  0.93161300  0.56666800  1
  P  P10  1  0.56666800  0.25483300  0.93161300  1
  P  P11  1  0.93161300  0.56666800  0.25483300  1
  O  O12  1  0.06661800  0.56759500  0.32862300  1
  O  O13  1  0.32862300  0.06661800  0.56759500  1
  O  O14  1  0.07028000  0.23873600  0.90668400  1
  O  O15  1  0.56759500  0.32862300  0.06661800  1
  O  O16  1  0.06759500  0.56661800  0.82862300  1
  O  O17  1  0.24636600  0.41711400  0.58473100  1
  O  O18  1  0.23873600  0.90668400  0.07028000  1
  O  O19  1  0.41711400  0.58473100  0.24636600  1
  O  O20  1  0.20206300  0.00355000  0.38172900  1
  O  O21  1  0.58473100  0.24636600  0.41711400  1
  O  O22  1  0.08473100  0.91711400  0.74636600  1
  O  O23  1  0.38172900  0.20206300  0.00355000  1
  O  O24  1  0.56661800  0.82862300  0.06759500  1
  O  O25  1  0.90668400  0.07028000  0.23873600  1
  O  O26  1  0.40668400  0.73873600  0.57028000  1
  O  O27  1  0.82862300  0.06759500  0.56661800  1
  O  O28  1  0.57028000  0.40668400  0.73873600  1
  O  O29  1  0.74636600  0.08473100  0.91711400  1
  O  O30  1  0.73873600  0.57028000  0.40668400  1
  O  O31  1  0.00355000  0.38172900  0.20206300  1
  O  O32  1  0.50355000  0.70206300  0.88172900  1
  O  O33  1  0.91711400  0.74636600  0.08473100  1
  O  O34  1  0.70206300  0.88172900  0.50355000  1
  O  O35  1  0.88172900  0.50355000  0.70206300  1
