# generated using pymatgen
data_Ga2O3
_symmetry_space_group_name_H-M   'P 1'
_cell_length_a   5.39991201
_cell_length_b   5.39991201
_cell_length_c   5.39991174
_cell_angle_alpha   55.87160696
_cell_angle_beta   55.87160696
_cell_angle_gamma   55.87159589
_symmetry_Int_Tables_number   1
_chemical_formula_structural   Ga2O3
_chemical_formula_sum   'Ga4 O6'
_cell_volume   100.68355303
_cell_formula_units_Z   2
loop_
 _symmetry_equiv_pos_site_id
 _symmetry_equiv_pos_as_xyz
  1  'x, y, z'
loop_
 _atom_site_type_symbol
 _atom_site_label
 _atom_site_symmetry_multiplicity
 _atom_site_fract_x
 _atom_site_fract_y
 _atom_site_fract_z
 _atom_site_occupancy
  Ga  Ga0  1  0.85591100  0.85591100  0.85591100  1
  Ga  Ga1  1  0.64408900  0.64408900  0.64408900  1
  Ga  Ga2  1  0.14408900  0.14408900  0.14408900  1
  Ga  Ga3  1  0.35591100  0.35591100  0.35591100  1
  O  O4  1  0.44687100  0.75000000  0.05312900  1
  O  O5  1  0.05312900  0.44687100  0.75000000  1
  O  O6  1  0.75000000  0.05312900  0.44687100  1
  O  O7  1  0.55312900  0.25000000  0.94687100  1
  O  O8  1  0.25000000  0.94687100  0.55312900  1
  O  O9  1  0.94687100  0.55312900  0.25000000  1
