# generated using pymatgen
data_MgTi2O5
_symmetry_space_group_name_H-M   'P 1'
_cell_length_a   3.72746600
_cell_length_b   5.40723032
_cell_length_c   11.47812600
_cell_angle_alpha   90.00000000
_cell_angle_beta   90.00000000
_cell_angle_gamma   110.16191145
_symmetry_Int_Tables_number   1
_chemical_formula_structural   MgTi2O5
_chemical_formula_sum   'Mg2 Ti4 O10'
_cell_volume   217.16843885
_cell_formula_units_Z   2
loop_
 _symmetry_equiv_pos_site_id
 _symmetry_equiv_pos_as_xyz
  1  'x, y, z'
loop_
 _atom_site_type_symbol
 _atom_site_label
 _atom_site_symmetry_multiplicity
 _atom_site_fract_x
 _atom_site_fract_y
 _atom_site_fract_z
 _atom_site_occupancy
  Mg  Mg0  1  0.89922800  0.79845400  0.75000000  1
  Mg  Mg1  1  0.10077300  0.20154700  0.25000000  1
  Ti  Ti2  1  0.20400900  0.40801600  0.59872200  1
  Ti  Ti3  1  0.79599200  0.59198500  0.40127700  1
  Ti  Ti4  1  0.79599200  0.59198500  0.09872300  1
  Ti  Ti5  1  0.20400900  0.40801600  0.90127800  1
  O  O6  1  0.69903900  0.39807900  0.25000000  1
  O  O7  1  0.30096200  0.60192200  0.75000000  1
  O  O8  1  0.23805500  0.47610700  0.07674100  1
  O  O9  1  0.76194900  0.52389400  0.92325900  1
  O  O10  1  0.76194900  0.52389400  0.57674100  1
  O  O11  1  0.23805500  0.47610700  0.42325800  1
  O  O12  1  0.04151500  0.08302900  0.63016500  1
  O  O13  1  0.95848500  0.91697000  0.36983500  1
  O  O14  1  0.04151500  0.08302900  0.86983500  1
  O  O15  1  0.95848500  0.91697000  0.13016600  1
