# generated using pymatgen
data_Mo3O7
_symmetry_space_group_name_H-M   'P 1'
_cell_length_a   5.70110000
_cell_length_b   11.49470200
_cell_length_c   11.05113300
_cell_angle_alpha   90.00000000
_cell_angle_beta   90.00000000
_cell_angle_gamma   90.00000000
_symmetry_Int_Tables_number   1
_chemical_formula_structural   Mo3O7
_chemical_formula_sum   'Mo12 O28'
_cell_volume   724.20777183
_cell_formula_units_Z   4
loop_
 _symmetry_equiv_pos_site_id
 _symmetry_equiv_pos_as_xyz
  1  'x, y, z'
loop_
 _atom_site_type_symbol
 _atom_site_label
 _atom_site_symmetry_multiplicity
 _atom_site_fract_x
 _atom_site_fract_y
 _atom_site_fract_z
 _atom_site_occupancy
  Mo  Mo0  1  0.28946000  0.02169300  0.31151600  1
  Mo  Mo1  1  0.78946000  0.97830700  0.18848400  1
  Mo  Mo2  1  0.71054000  0.52169300  0.68848400  1
  Mo  Mo3  1  0.21054000  0.47830700  0.81151600  1
  Mo  Mo4  1  0.29305900  0.75000000  0.23109700  1
  Mo  Mo5  1  0.79305900  0.25000000  0.26890300  1
  Mo  Mo6  1  0.70694100  0.25000000  0.76890300  1
  Mo  Mo7  1  0.20694100  0.75000000  0.73109700  1
  Mo  Mo8  1  0.78946000  0.52169300  0.18848400  1
  Mo  Mo9  1  0.28946000  0.47830700  0.31151600  1
  Mo  Mo10  1  0.21054000  0.02169300  0.81151600  1
  Mo  Mo11  1  0.71054000  0.97830700  0.68848400  1
  O  O12  1  0.93918000  0.10905500  0.73302100  1
  O  O13  1  0.43918000  0.89094500  0.76697900  1
  O  O14  1  0.06082000  0.60905500  0.26697900  1
  O  O15  1  0.56082000  0.39094500  0.23302100  1
  O  O16  1  0.06082000  0.89094500  0.26697900  1
  O  O17  1  0.56082000  0.10905500  0.23302100  1
  O  O18  1  0.93918000  0.39094500  0.73302100  1
  O  O19  1  0.43918000  0.60905500  0.76697900  1
  O  O20  1  0.47697700  0.10899700  0.72911800  1
  O  O21  1  0.97697700  0.89100300  0.77088200  1
  O  O22  1  0.52302300  0.60899700  0.27088200  1
  O  O23  1  0.02302300  0.39100300  0.22911800  1
  O  O24  1  0.52302300  0.89100300  0.27088200  1
  O  O25  1  0.02302300  0.10899700  0.22911800  1
  O  O26  1  0.47697700  0.39100300  0.72911800  1
  O  O27  1  0.97697700  0.60899700  0.77088200  1
  O  O28  1  0.20306300  0.75000000  0.57187800  1
  O  O29  1  0.70306300  0.25000000  0.92812200  1
  O  O30  1  0.79693700  0.25000000  0.42812200  1
  O  O31  1  0.29693700  0.75000000  0.07187800  1
  O  O32  1  0.22122400  0.44405700  0.96099400  1
  O  O33  1  0.72122400  0.55594300  0.53900600  1
  O  O34  1  0.77877600  0.94405700  0.03900600  1
  O  O35  1  0.27877600  0.05594300  0.46099400  1
  O  O36  1  0.77877600  0.55594300  0.03900600  1
  O  O37  1  0.27877600  0.44405700  0.46099400  1
  O  O38  1  0.22122400  0.05594300  0.96099400  1
  O  O39  1  0.72122400  0.94405700  0.53900600  1
