# generated using pymatgen
data_CaTiO2
_symmetry_space_group_name_H-M   'P 1'
_cell_length_a   3.02736843
_cell_length_b   8.33859761
_cell_length_c   8.38385360
_cell_angle_alpha   86.93629371
_cell_angle_beta   89.25788510
_cell_angle_gamma   100.08376608
_symmetry_Int_Tables_number   1
_chemical_formula_structural   CaTiO2
_chemical_formula_sum   'Ca4 Ti4 O8'
_cell_volume   208.02138775
_cell_formula_units_Z   4
loop_
 _symmetry_equiv_pos_site_id
 _symmetry_equiv_pos_as_xyz
  1  'x, y, z'
loop_
 _atom_site_type_symbol
 _atom_site_label
 _atom_site_symmetry_multiplicity
 _atom_site_fract_x
 _atom_site_fract_y
 _atom_site_fract_z
 _atom_site_occupancy
  Ca  Ca0  1  0.27529200  0.03203500  0.33789300  1
  Ca  Ca1  1  0.72079100  0.94790200  0.69031300  1
  Ca  Ca2  1  0.13905200  0.72892200  0.08372500  1
  Ca  Ca3  1  0.85696400  0.25100600  0.94448200  1
  Ti  Ti4  1  0.40663100  0.32596900  0.60715200  1
  Ti  Ti5  1  0.96593700  0.38773500  0.29163000  1
  Ti  Ti6  1  0.03003600  0.59218900  0.73655700  1
  Ti  Ti7  1  0.58936100  0.65392500  0.42102200  1
  O  O8  1  0.14267300  0.77953700  0.55401200  1
  O  O9  1  0.44921300  0.43618300  0.81801400  1
  O  O10  1  0.54676500  0.54372900  0.21020000  1
  O  O11  1  0.85334000  0.20034500  0.47417900  1
  O  O12  1  0.30327800  0.12511200  0.77485700  1
  O  O13  1  0.35924800  0.24827300  0.16709400  1
  O  O14  1  0.69277300  0.85478700  0.25336100  1
  O  O15  1  0.63692300  0.73168900  0.86112900  1
