# generated using pymatgen
data_CaTiBi(PO4)3
_symmetry_space_group_name_H-M   'P 1'
_cell_length_a   9.08497427
_cell_length_b   9.08497506
_cell_length_c   9.08497465
_cell_angle_alpha   59.87919901
_cell_angle_beta   59.87919978
_cell_angle_gamma   59.87920316
_symmetry_Int_Tables_number   1
_chemical_formula_structural   CaTiBi(PO4)3
_chemical_formula_sum   'Ca2 Ti2 Bi2 P6 O24'
_cell_volume   528.76679170
_cell_formula_units_Z   2
loop_
 _symmetry_equiv_pos_site_id
 _symmetry_equiv_pos_as_xyz
  1  'x, y, z'
loop_
 _atom_site_type_symbol
 _atom_site_label
 _atom_site_symmetry_multiplicity
 _atom_site_fract_x
 _atom_site_fract_y
 _atom_site_fract_z
 _atom_site_occupancy
  Ca  Ca0  1  0.99769600  0.99769600  0.99769600  1
  Ca  Ca1  1  0.49769600  0.49769600  0.49769600  1
  Ti  Ti2  1  0.15228500  0.15228500  0.15228500  1
  Ti  Ti3  1  0.65228500  0.65228500  0.65228500  1
  Bi  Bi4  1  0.34821800  0.34821800  0.34821800  1
  Bi  Bi5  1  0.84821800  0.84821800  0.84821800  1
  P  P6  1  0.04097300  0.43961900  0.76860300  1
  P  P7  1  0.43961900  0.76860300  0.04097300  1
  P  P8  1  0.76860300  0.04097300  0.43961900  1
  P  P9  1  0.26860300  0.93961900  0.54097300  1
  P  P10  1  0.54097300  0.26860300  0.93961900  1
  P  P11  1  0.93961900  0.54097300  0.26860300  1
  O  O12  1  0.07399300  0.52033600  0.33533200  1
  O  O13  1  0.33533200  0.07399300  0.52033600  1
  O  O14  1  0.04687800  0.25742200  0.92710600  1
  O  O15  1  0.52033600  0.33533200  0.07399300  1
  O  O16  1  0.02033600  0.57399300  0.83533200  1
  O  O17  1  0.22062500  0.42380300  0.60968700  1
  O  O18  1  0.25742200  0.92710600  0.04687800  1
  O  O19  1  0.42380300  0.60968700  0.22062500  1
  O  O20  1  0.21196700  0.00613900  0.36931600  1
  O  O21  1  0.60968700  0.22062500  0.42380300  1
  O  O22  1  0.10968700  0.92380300  0.72062500  1
  O  O23  1  0.36931600  0.21196700  0.00613900  1
  O  O24  1  0.57399300  0.83533200  0.02033600  1
  O  O25  1  0.92710600  0.04687800  0.25742200  1
  O  O26  1  0.42710600  0.75742200  0.54687800  1
  O  O27  1  0.83533200  0.02033600  0.57399300  1
  O  O28  1  0.54687800  0.42710600  0.75742200  1
  O  O29  1  0.72062500  0.10968700  0.92380300  1
  O  O30  1  0.75742200  0.54687800  0.42710600  1
  O  O31  1  0.00613900  0.36931600  0.21196700  1
  O  O32  1  0.50613900  0.71196700  0.86931600  1
  O  O33  1  0.92380300  0.72062500  0.10968700  1
  O  O34  1  0.71196700  0.86931600  0.50613900  1
  O  O35  1  0.86931600  0.50613900  0.71196700  1
