# generated using pymatgen
data_CaCr3O7
_symmetry_space_group_name_H-M   'P 1'
_cell_length_a   5.38858000
_cell_length_b   10.51218500
_cell_length_c   10.76402800
_cell_angle_alpha   90.00000000
_cell_angle_beta   90.00000000
_cell_angle_gamma   90.00000000
_symmetry_Int_Tables_number   1
_chemical_formula_structural   CaCr3O7
_chemical_formula_sum   'Ca4 Cr12 O28'
_cell_volume   609.73643744
_cell_formula_units_Z   4
loop_
 _symmetry_equiv_pos_site_id
 _symmetry_equiv_pos_as_xyz
  1  'x, y, z'
loop_
 _atom_site_type_symbol
 _atom_site_label
 _atom_site_symmetry_multiplicity
 _atom_site_fract_x
 _atom_site_fract_y
 _atom_site_fract_z
 _atom_site_occupancy
  Ca  Ca0  1  0.68098200  0.75000000  0.93042200  1
  Ca  Ca1  1  0.18098200  0.25000000  0.56957800  1
  Ca  Ca2  1  0.31901800  0.25000000  0.06957700  1
  Ca  Ca3  1  0.81901800  0.75000000  0.43042200  1
  Cr  Cr4  1  0.30430400  0.02002300  0.30328900  1
  Cr  Cr5  1  0.80430400  0.97997700  0.19671100  1
  Cr  Cr6  1  0.69569600  0.52002300  0.69671100  1
  Cr  Cr7  1  0.19569600  0.47997700  0.80328900  1
  Cr  Cr8  1  0.31048900  0.75000000  0.22307500  1
  Cr  Cr9  1  0.81048900  0.25000000  0.27692500  1
  Cr  Cr10  1  0.68951100  0.25000000  0.77692500  1
  Cr  Cr11  1  0.18951100  0.75000000  0.72307500  1
  Cr  Cr12  1  0.80430400  0.52002300  0.19671100  1
  Cr  Cr13  1  0.30430400  0.47997700  0.30328900  1
  Cr  Cr14  1  0.19569600  0.02002300  0.80328900  1
  Cr  Cr15  1  0.69569600  0.97997700  0.69671100  1
  O  O16  1  0.93382300  0.11665100  0.72296900  1
  O  O17  1  0.43382300  0.88334900  0.77703100  1
  O  O18  1  0.06617700  0.61665100  0.27703100  1
  O  O19  1  0.56617700  0.38334900  0.22296900  1
  O  O20  1  0.06617700  0.88334900  0.27703100  1
  O  O21  1  0.56617700  0.11665100  0.22296900  1
  O  O22  1  0.93382300  0.38334900  0.72296900  1
  O  O23  1  0.43382300  0.61665100  0.77703100  1
  O  O24  1  0.45633000  0.12005700  0.71733000  1
  O  O25  1  0.95633000  0.87994300  0.78267000  1
  O  O26  1  0.54367000  0.62005700  0.28267000  1
  O  O27  1  0.04367000  0.37994300  0.21733000  1
  O  O28  1  0.54367000  0.87994300  0.28267000  1
  O  O29  1  0.04367000  0.12005700  0.21733000  1
  O  O30  1  0.45633000  0.37994300  0.71733000  1
  O  O31  1  0.95633000  0.62005700  0.78267000  1
  O  O32  1  0.16296800  0.75000000  0.56475800  1
  O  O33  1  0.66296800  0.25000000  0.93524200  1
  O  O34  1  0.83703200  0.25000000  0.43524200  1
  O  O35  1  0.33703200  0.75000000  0.06475800  1
  O  O36  1  0.22017400  0.42323000  0.94792400  1
  O  O37  1  0.72017400  0.57677000  0.55207600  1
  O  O38  1  0.77982600  0.92323000  0.05207600  1
  O  O39  1  0.27982600  0.07677000  0.44792400  1
  O  O40  1  0.77982600  0.57677000  0.05207600  1
  O  O41  1  0.27982600  0.42323000  0.44792400  1
  O  O42  1  0.22017400  0.07677000  0.94792400  1
  O  O43  1  0.72017400  0.92323000  0.55207600  1
