# generated using pymatgen
data_LaMgCrAgO6
_symmetry_space_group_name_H-M   'P 1'
_cell_length_a   5.51599710
_cell_length_b   5.64061043
_cell_length_c   7.82057962
_cell_angle_alpha   90.07098621
_cell_angle_beta   89.36809956
_cell_angle_gamma   90.10534879
_symmetry_Int_Tables_number   1
_chemical_formula_structural   LaMgCrAgO6
_chemical_formula_sum   'La2 Mg2 Cr2 Ag2 O12'
_cell_volume   243.31092376
_cell_formula_units_Z   2
loop_
 _symmetry_equiv_pos_site_id
 _symmetry_equiv_pos_as_xyz
  1  'x, y, z'
loop_
 _atom_site_type_symbol
 _atom_site_label
 _atom_site_symmetry_multiplicity
 _atom_site_fract_x
 _atom_site_fract_y
 _atom_site_fract_z
 _atom_site_occupancy
  La  La0  1  0.00250100  0.93957400  0.74942200  1
  La  La1  1  0.50309100  0.56036500  0.25034100  1
  Mg  Mg2  1  0.47491200  0.44752500  0.75892500  1
  Mg  Mg3  1  0.97492800  0.05279000  0.25883900  1
  Cr  Cr4  1  0.48878400  0.01342100  0.50450900  1
  Cr  Cr5  1  0.98874000  0.48639200  0.00422400  1
  Ag  Ag6  1  0.48719000  0.00216800  0.00096300  1
  Ag  Ag7  1  0.98629200  0.49682200  0.50097900  1
  O  O8  1  0.10747100  0.40785300  0.22812900  1
  O  O9  1  0.18060900  0.27059700  0.90789100  1
  O  O10  1  0.23452500  0.20877400  0.56455800  1
  O  O11  1  0.30995500  0.67536400  0.93909100  1
  O  O12  1  0.37649900  0.72574800  0.57122100  1
  O  O13  1  0.33896900  0.94830800  0.27328300  1
  O  O14  1  0.60794500  0.09190100  0.72992100  1
  O  O15  1  0.68075900  0.23126200  0.40840200  1
  O  O16  1  0.73228600  0.28995600  0.06383300  1
  O  O17  1  0.80892200  0.82634000  0.43861300  1
  O  O18  1  0.87745800  0.77324000  0.07176700  1
  O  O19  1  0.83815800  0.55159800  0.77509200  1
