# generated using pymatgen
data_Sr2Y2Sn2O7
_symmetry_space_group_name_H-M   'P 1'
_cell_length_a   11.91755355
_cell_length_b   11.91755355
_cell_length_c   11.91755355
_cell_angle_alpha   46.54074575
_cell_angle_beta   146.32237085
_cell_angle_gamma   148.83359541
_symmetry_Int_Tables_number   1
_chemical_formula_structural   Sr2Y2Sn2O7
_chemical_formula_sum   'Sr4 Y4 Sn4 O14'
_cell_volume   484.01320568
_cell_formula_units_Z   2
loop_
 _symmetry_equiv_pos_site_id
 _symmetry_equiv_pos_as_xyz
  1  'x, y, z'
loop_
 _atom_site_type_symbol
 _atom_site_label
 _atom_site_symmetry_multiplicity
 _atom_site_fract_x
 _atom_site_fract_y
 _atom_site_fract_z
 _atom_site_occupancy
  Sr  Sr0  1  0.04710400  0.81511600  0.92380600  1
  Sr  Sr1  1  0.89131100  0.12329800  0.07619400  1
  Sr  Sr2  1  0.04710400  0.62329800  0.73198800  1
  Sr  Sr3  1  0.89131100  0.31511600  0.26801200  1
  Y  Y4  1  0.01122400  0.51122400  0.50000000  1
  Y  Y5  1  0.01122400  0.01122400  0.00000000  1
  Y  Y6  1  0.55155000  0.70202000  0.34953000  1
  Y  Y7  1  0.35249000  0.20202000  0.65047000  1
  Sn  Sn8  1  0.48908900  0.44276700  0.89683200  1
  Sn  Sn9  1  0.54593400  0.59225700  0.10316800  1
  Sn  Sn10  1  0.48908900  0.09225700  0.54632300  1
  Sn  Sn11  1  0.54593400  0.94276700  0.45367700  1
  O  O12  1  0.99318100  0.85406800  0.63911200  1
  O  O13  1  0.21495600  0.35406800  0.36088800  1
  O  O14  1  0.34452900  0.15359200  0.05535100  1
  O  O15  1  0.09824100  0.28918000  0.94464900  1
  O  O16  1  0.34452900  0.78918000  0.69093900  1
  O  O17  1  0.09824100  0.65359200  0.30906100  1
  O  O18  1  0.71977100  0.82685700  0.73139200  1
  O  O19  1  0.09546600  0.98837900  0.26860800  1
  O  O20  1  0.71977100  0.48837900  0.39291500  1
  O  O21  1  0.09546600  0.32685700  0.60708500  1
  O  O22  1  0.49317400  0.88587700  0.25780900  1
  O  O23  1  0.62806900  0.23536400  0.74219100  1
  O  O24  1  0.49317400  0.73536400  0.10729700  1
  O  O25  1  0.62806900  0.38587700  0.89270300  1
