# generated using pymatgen
data_Y4V13Si2(SbO14)2
_symmetry_space_group_name_H-M   'P 1'
_cell_length_a   5.90669997
_cell_length_b   9.09731262
_cell_length_c   12.41875853
_cell_angle_alpha   87.73415565
_cell_angle_beta   76.21691232
_cell_angle_gamma   79.98629994
_symmetry_Int_Tables_number   1
_chemical_formula_structural   Y4V13Si2(SbO14)2
_chemical_formula_sum   'Y4 V13 Si2 Sb2 O28'
_cell_volume   638.23299355
_cell_formula_units_Z   1
loop_
 _symmetry_equiv_pos_site_id
 _symmetry_equiv_pos_as_xyz
  1  'x, y, z'
loop_
 _atom_site_type_symbol
 _atom_site_label
 _atom_site_symmetry_multiplicity
 _atom_site_fract_x
 _atom_site_fract_y
 _atom_site_fract_z
 _atom_site_occupancy
  Y  Y0  1  0.08493100  0.65881300  0.41093400  1
  Y  Y1  1  0.50311600  0.34015900  0.41269700  1
  Y  Y2  1  0.91486800  0.34079600  0.58816700  1
  Y  Y3  1  0.49770900  0.65939900  0.58755400  1
  V  V4  1  0.90324000  0.64320200  0.73586400  1
  V  V5  1  0.64407200  0.34235700  0.12027300  1
  V  V6  1  0.35695800  0.35808400  0.73572800  1
  V  V7  1  0.09281600  0.35715300  0.26483600  1
  V  V8  1  0.35345000  0.65754000  0.88104000  1
  V  V9  1  0.28866800  0.99953100  0.42364800  1
  V  V10  1  0.23523600  0.65615700  0.12271900  1
  V  V11  1  0.99900900  0.00024500  0.00004100  1
  V  V12  1  0.42562900  0.00037000  0.14528500  1
  V  V13  1  0.76317000  0.34292800  0.88052300  1
  V  V14  1  0.63901000  0.64482200  0.26368000  1
  V  V15  1  0.57607900  0.99818400  0.85246900  1
  V  V16  1  0.71235400  0.99958400  0.57579200  1
  Si  Si17  1  0.23339000  0.30952700  0.00053500  1
  Si  Si18  1  0.76559800  0.69119700  0.00035700  1
  Sb  Sb19  1  0.86214900  0.00098800  0.28226700  1
  Sb  Sb20  1  0.14795900  0.00024100  0.71683200  1
  O  O21  1  0.74433100  0.38592400  0.25819500  1
  O  O22  1  0.12331400  0.39142500  0.41981100  1
  O  O23  1  0.95285100  0.35134400  0.00044700  1
  O  O24  1  0.30901100  0.12769100  0.00081400  1
  O  O25  1  0.87841200  0.60843500  0.57925700  1
  O  O26  1  0.25510000  0.61161800  0.74171100  1
  O  O27  1  0.02363300  0.10547500  0.57332100  1
  O  O28  1  0.97814500  0.89437400  0.42537200  1
  O  O29  1  0.68817300  0.87324200  0.99949500  1
  O  O30  1  0.17647800  0.88328300  0.12843300  1
  O  O31  1  0.29307100  0.39036400  0.10728600  1
  O  O32  1  0.98632200  0.61095300  0.26037400  1
  O  O33  1  0.40478400  0.89499800  0.57224400  1
  O  O34  1  0.69280000  0.11781800  0.12805300  1
  O  O35  1  0.60236500  0.61125400  0.10906600  1
  O  O36  1  0.04510900  0.64980500  0.00045200  1
  O  O37  1  0.30487800  0.88341300  0.87195000  1
  O  O38  1  0.82151300  0.11745600  0.87152600  1
  O  O39  1  0.59629200  0.10508700  0.42630800  1
  O  O40  1  0.18474000  0.12392700  0.27436000  1
  O  O41  1  0.80688400  0.87478800  0.72542000  1
  O  O42  1  0.39975400  0.38865100  0.89317000  1
  O  O43  1  0.44766800  0.12481400  0.72362800  1
  O  O44  1  0.54190500  0.39230700  0.58041200  1
  O  O45  1  0.70382900  0.61013900  0.89442500  1
  O  O46  1  0.54390600  0.87314700  0.27390700  1
  O  O47  1  0.00189800  0.38907200  0.74220600  1
  O  O48  1  0.46027400  0.60736600  0.41848300  1
