# generated using pymatgen
data_Sr2YBi2O7
_symmetry_space_group_name_H-M   'P 1'
_cell_length_a   15.44874953
_cell_length_b   15.44874953
_cell_length_c   15.44874953
_cell_angle_alpha   30.46071270
_cell_angle_beta   158.91437126
_cell_angle_gamma   158.26912194
_symmetry_Int_Tables_number   1
_chemical_formula_structural   Sr2YBi2O7
_chemical_formula_sum   'Sr4 Y2 Bi4 O14'
_cell_volume   490.80729339
_cell_formula_units_Z   2
loop_
 _symmetry_equiv_pos_site_id
 _symmetry_equiv_pos_as_xyz
  1  'x, y, z'
loop_
 _atom_site_type_symbol
 _atom_site_label
 _atom_site_symmetry_multiplicity
 _atom_site_fract_x
 _atom_site_fract_y
 _atom_site_fract_z
 _atom_site_occupancy
  Sr  Sr0  1  0.87124200  0.78034200  0.70829900  1
  Sr  Sr1  1  0.07204200  0.16294300  0.29170100  1
  Sr  Sr2  1  0.87124200  0.66294300  0.59090000  1
  Sr  Sr3  1  0.07204200  0.28034200  0.40910000  1
  Y  Y4  1  0.00405200  0.50405200  0.50000000  1
  Y  Y5  1  0.00405200  0.00405200  0.00000000  1
  Bi  Bi6  1  0.51219200  0.43298300  0.91765100  1
  Bi  Bi7  1  0.51533100  0.59454000  0.08234900  1
  Bi  Bi8  1  0.51219200  0.09454000  0.57921000  1
  Bi  Bi9  1  0.51533100  0.93298300  0.42079000  1
  O  O10  1  0.03772400  0.99781300  0.53991000  1
  O  O11  1  0.45790500  0.49781300  0.46009000  1
  O  O12  1  0.49357400  0.19968500  0.20421500  1
  O  O13  1  0.99546900  0.28936000  0.79578500  1
  O  O14  1  0.49357400  0.78935900  0.79389000  1
  O  O15  1  0.99546900  0.69968500  0.20611000  1
  O  O16  1  0.51221600  0.71003500  0.71019000  1
  O  O17  1  0.99984500  0.80202400  0.28981000  1
  O  O18  1  0.51221600  0.30202400  0.30218100  1
  O  O19  1  0.99984500  0.21003500  0.69781900  1
  O  O20  1  0.65049300  0.94759100  0.39709500  1
  O  O21  1  0.55049600  0.25339500  0.60290500  1
  O  O22  1  0.65049300  0.75339500  0.20290100  1
  O  O23  1  0.55049600  0.44759100  0.79709900  1
