# generated using pymatgen
data_Al2O3
_symmetry_space_group_name_H-M   'P 1'
_cell_length_a   10.34532106
_cell_length_b   10.36452554
_cell_length_c   10.09534562
_cell_angle_alpha   91.55687022
_cell_angle_beta   94.66861017
_cell_angle_gamma   87.87624207
_symmetry_Int_Tables_number   1
_chemical_formula_structural   Al2O3
_chemical_formula_sum   'Al40 O60'
_cell_volume   1077.81721324
_cell_formula_units_Z   20
loop_
 _symmetry_equiv_pos_site_id
 _symmetry_equiv_pos_as_xyz
  1  'x, y, z'
loop_
 _atom_site_type_symbol
 _atom_site_label
 _atom_site_symmetry_multiplicity
 _atom_site_fract_x
 _atom_site_fract_y
 _atom_site_fract_z
 _atom_site_occupancy
  Al  Al0  1  0.77469900  0.42165300  0.58587300  1
  Al  Al1  1  0.73793000  0.92773500  0.37984600  1
  Al  Al2  1  0.54753000  0.36793700  0.73456300  1
  Al  Al3  1  0.18592700  0.67916200  0.41884900  1
  Al  Al4  1  0.81009100  0.34631700  0.27074900  1
  Al  Al5  1  0.27282800  0.00638600  0.53084500  1
  Al  Al6  1  0.13586600  0.80276700  0.78312600  1
  Al  Al7  1  0.08388900  0.19717500  0.43641400  1
  Al  Al8  1  0.58977900  0.19784500  0.09656900  1
  Al  Al9  1  0.78379900  0.40938500  0.92573200  1
  Al  Al10  1  0.46645800  0.58784600  0.63006200  1
  Al  Al11  1  0.07475600  0.50635800  0.90223400  1
  Al  Al12  1  0.64435100  0.17535000  0.39433700  1
  Al  Al13  1  0.94340500  0.71605300  0.55780200  1
  Al  Al14  1  0.24068700  0.04491700  0.80534900  1
  Al  Al15  1  0.67565300  0.79068100  0.67994700  1
  Al  Al16  1  0.29892500  0.21140200  0.04381200  1
  Al  Al17  1  0.71054700  0.91343200  0.93578500  1
  Al  Al18  1  0.30310400  0.27740600  0.35010100  1
  Al  Al19  1  0.49018900  0.95317500  0.16773500  1
  Al  Al20  1  0.55247000  0.08353500  0.80002100  1
  Al  Al21  1  0.36075200  0.71275100  0.99067400  1
  Al  Al22  1  0.90212200  0.69227800  0.93143400  1
  Al  Al23  1  0.03478000  0.92020300  0.35938900  1
  Al  Al24  1  0.23862600  0.85023600  0.21418600  1
  Al  Al25  1  0.50769700  0.41502000  0.29691100  1
  Al  Al26  1  0.03028200  0.29917300  0.13610500  1
  Al  Al27  1  0.46378700  0.46235800  0.99578100  1
  Al  Al28  1  0.01368800  0.06277700  0.91156800  1
  Al  Al29  1  0.89750100  0.00041000  0.60501200  1
  Al  Al30  1  0.93982800  0.63338100  0.25252200  1
  Al  Al31  1  0.71166600  0.62371900  0.41014800  1
  Al  Al32  1  0.45565000  0.78894000  0.44992000  1
  Al  Al33  1  0.27793400  0.32048900  0.75580300  1
  Al  Al34  1  0.39654700  0.85057400  0.72824800  1
  Al  Al35  1  0.59121500  0.71353800  0.18426300  1
  Al  Al36  1  0.21676900  0.52082100  0.17650900  1
  Al  Al37  1  0.97195600  0.28606100  0.71688700  1
  Al  Al38  1  0.93162600  0.00594600  0.13444200  1
  Al  Al39  1  0.05460400  0.45509700  0.46314100  1
  O  O40  1  0.08948700  0.94223600  0.19520000  1
  O  O41  1  0.21117200  0.25290200  0.18390500  1
  O  O42  1  0.64331900  0.10882200  0.95777000  1
  O  O43  1  0.02915800  0.04374600  0.49269800  1
  O  O44  1  0.52822900  0.36154000  0.12828600  1
  O  O45  1  0.95419000  0.34860900  0.55389200  1
  O  O46  1  0.30272500  0.74319500  0.82527100  1
  O  O47  1  0.21435700  0.86636900  0.40445000  1
  O  O48  1  0.60954600  0.42154900  0.89734800  1
  O  O49  1  0.99788500  0.84012200  0.66920200  1
  O  O50  1  0.24782000  0.16365800  0.67440100  1
  O  O51  1  0.18425000  0.33823000  0.46915600  1
  O  O52  1  0.97779400  0.27340000  0.30363000  1
  O  O53  1  0.43789400  0.11438900  0.11207500  1
  O  O54  1  0.51756500  0.63339600  0.03806600  1
  O  O55  1  0.65412900  0.95004400  0.75975400  1
  O  O56  1  0.46117500  0.80933000  0.27797200  1
  O  O57  1  0.84456800  0.36819000  0.09161100  1
  O  O58  1  0.90961800  0.70100700  0.10257600  1
  O  O59  1  0.22999100  0.91453000  0.67069300  1
  O  O60  1  0.24358000  0.11847000  0.40048400  1
  O  O61  1  0.89732900  0.52273200  0.89084500  1
  O  O62  1  0.29864900  0.55388400  0.01987900  1
  O  O63  1  0.95610800  0.11529500  0.74393800  1
  O  O64  1  0.82325400  0.59132600  0.56405800  1
  O  O65  1  0.17846300  0.16045200  0.92260100  1
  O  O66  1  0.06576500  0.67684800  0.87359600  1
  O  O67  1  0.09579700  0.43866800  0.06226500  1
  O  O68  1  0.35282400  0.66140200  0.50320200  1
  O  O69  1  0.11023100  0.38169700  0.78156700  1
  O  O70  1  0.59013100  0.01287900  0.31866500  1
  O  O71  1  0.38625000  0.45049700  0.70951900  1
  O  O72  1  0.72606300  0.75956400  0.30302800  1
  O  O73  1  0.08376900  0.52695300  0.30573500  1
  O  O74  1  0.87159700  0.96939500  0.28456400  1
  O  O75  1  0.87928300  0.95026300  0.97282900  1
  O  O76  1  0.97696500  0.15063200  0.05903400  1
  O  O77  1  0.71694500  0.34565000  0.42761600  1
  O  O78  1  0.33656100  0.44479600  0.28997300  1
  O  O79  1  0.99317300  0.75425000  0.38609400  1
  O  O80  1  0.70993800  0.20516900  0.23039900  1
  O  O81  1  0.76273000  0.08074600  0.49994300  1
  O  O82  1  0.21819000  0.68644000  0.23725400  1
  O  O83  1  0.60191500  0.71309700  0.51942200  1
  O  O84  1  0.60612300  0.47474300  0.62110100  1
  O  O85  1  0.53042700  0.20927200  0.69550400  1
  O  O86  1  0.80928800  0.33990200  0.75135200  1
  O  O87  1  0.61320700  0.86767800  0.07398200  1
  O  O88  1  0.58201900  0.56583700  0.29788300  1
  O  O89  1  0.79737500  0.85110300  0.54617200  1
  O  O90  1  0.52011800  0.72426400  0.73465600  1
  O  O91  1  0.76546200  0.75777700  0.84163500  1
  O  O92  1  0.09265100  0.60546900  0.55205200  1
  O  O93  1  0.36596400  0.31793200  0.92404000  1
  O  O94  1  0.48204900  0.26416500  0.38008000  1
  O  O95  1  0.83945800  0.52062000  0.32167300  1
  O  O96  1  0.41203100  0.99705600  0.83272100  1
  O  O97  1  0.12924500  0.93971700  0.88744600  1
  O  O98  1  0.33571100  0.86689000  0.07849100  1
  O  O99  1  0.43252800  0.92314200  0.55958000  1
