# generated using pymatgen
data_HfO2
_symmetry_space_group_name_H-M   'P 1'
_cell_length_a   10.99487724
_cell_length_b   10.86933980
_cell_length_c   11.13548015
_cell_angle_alpha   92.29869497
_cell_angle_beta   90.80401809
_cell_angle_gamma   93.76473825
_symmetry_Int_Tables_number   1
_chemical_formula_structural   HfO2
_chemical_formula_sum   'Hf34 O68'
_cell_volume   1326.64282961
_cell_formula_units_Z   34
loop_
 _symmetry_equiv_pos_site_id
 _symmetry_equiv_pos_as_xyz
  1  'x, y, z'
loop_
 _atom_site_type_symbol
 _atom_site_label
 _atom_site_symmetry_multiplicity
 _atom_site_fract_x
 _atom_site_fract_y
 _atom_site_fract_z
 _atom_site_occupancy
  Hf  Hf0  1  0.64909227  0.50495241  0.01081502  1
  Hf  Hf1  1  0.39760746  0.39881175  0.04428893  1
  Hf  Hf2  1  0.64252639  0.74276625  0.48964949  1
  Hf  Hf3  1  0.15829817  0.53218912  0.40652434  1
  Hf  Hf4  1  0.54861306  0.01726244  0.15091291  1
  Hf  Hf5  1  0.65908666  0.68509202  0.75545398  1
  Hf  Hf6  1  0.50022934  0.95948070  0.65869269  1
  Hf  Hf7  1  0.40963626  0.69859164  0.90597408  1
  Hf  Hf8  1  0.90698895  0.48967334  0.87432000  1
  Hf  Hf9  1  0.13667759  0.32832386  0.62594578  1
  Hf  Hf10  1  0.01306784  0.02913448  0.11474761  1
  Hf  Hf11  1  0.07182364  0.80898427  0.31128402  1
  Hf  Hf12  1  0.86133654  0.56157939  0.28677666  1
  Hf  Hf13  1  0.41658088  0.22011424  0.60556401  1
  Hf  Hf14  1  0.98630805  0.28564030  0.28859426  1
  Hf  Hf15  1  0.26690712  0.21558188  0.29518555  1
  Hf  Hf16  1  0.28540793  0.91521036  0.13463926  1
  Hf  Hf17  1  0.69385218  0.44308214  0.54326815  1
  Hf  Hf18  1  0.11895393  0.63463586  0.07144977  1
  Hf  Hf19  1  0.37561617  0.75332720  0.35466576  1
  Hf  Hf20  1  0.66071454  0.77153934  0.21730508  1
  Hf  Hf21  1  0.61787792  0.22977256  0.81667538  1
  Hf  Hf22  1  0.54598335  0.33473218  0.31549832  1
  Hf  Hf23  1  0.20269629  0.98659461  0.63993644  1
  Hf  Hf24  1  0.97809980  0.84442466  0.84334492  1
  Hf  Hf25  1  0.72071598  0.94099518  0.90908835  1
  Hf  Hf26  1  0.69531766  0.09639437  0.42409342  1
  Hf  Hf27  1  0.38690259  0.56378588  0.64472560  1
  Hf  Hf28  1  0.95122961  0.61787584  0.59163719  1
  Hf  Hf29  1  0.96683774  0.04387191  0.45092540  1
  Hf  Hf30  1  0.74699490  0.25709451  0.11447844  1
  Hf  Hf31  1  0.12217165  0.32383616  0.99017043  1
  Hf  Hf32  1  0.30030448  0.07205893  0.89279469  1
  Hf  Hf33  1  0.94811913  0.16120756  0.78218241  1
  O  O34  1  0.24547244  0.49086711  0.01873372  1
  O  O35  1  0.37460216  0.35376272  0.21713582  1
  O  O36  1  0.10545594  0.85024556  0.13298260  1
  O  O37  1  0.37130404  0.08448650  0.22497939  1
  O  O38  1  0.87440918  0.99505598  0.79308257  1
  O  O39  1  0.58064384  0.33060063  0.66784874  1
  O  O40  1  0.48212146  0.57867392  0.03370020  1
  O  O41  1  0.87846798  0.48465579  0.69735528  1
  O  O42  1  0.12457409  0.99141599  0.80973484  1
  O  O43  1  0.03398543  0.67015307  0.43129344  1
  O  O44  1  0.89700535  0.16785532  0.15804525  1
  O  O45  1  0.44977720  0.84574851  0.19221979  1
  O  O46  1  0.13621290  0.28040061  0.16623699  1
  O  O47  1  0.64173914  0.94734433  0.30731546  1
  O  O48  1  0.87096158  0.18787662  0.39816065  1
  O  O49  1  0.30448835  0.66925612  0.75809772  1
  O  O50  1  0.73165176  0.61193089  0.14633515  1
  O  O51  1  0.62712387  0.03659963  0.79174146  1
  O  O52  1  0.33998431  0.93190239  0.75808553  1
  O  O53  1  0.18857718  0.04369475  0.04461862  1
  O  O54  1  0.32185691  0.38801345  0.64235353  1
  O  O55  1  0.10298799  0.50810352  0.58535847  1
  O  O56  1  0.44294658  0.15455891  0.77693150  1
  O  O57  1  0.09320557  0.92569254  0.50006246  1
  O  O58  1  0.66039160  0.11536718  0.01262213  1
  O  O59  1  0.79857884  0.24467545  0.78085094  1
  O  O60  1  0.01565926  0.46467151  0.02535285  1
  O  O61  1  0.80382116  0.97944672  0.49842410  1
  O  O62  1  0.98230548  0.66994238  0.19454259  1
  O  O63  1  0.23298547  0.17542212  0.67374346  1
  O  O64  1  0.41452161  0.99787290  0.00711845  1
  O  O65  1  0.79803200  0.78774282  0.84083872  1
  O  O66  1  0.90441655  0.93337448  0.00669448  1
  O  O67  1  0.82271308  0.37840360  0.23982585  1
  O  O68  1  0.01288809  0.17128725  0.60548137  1
  O  O69  1  0.85112899  0.49796825  0.45949490  1
  O  O70  1  0.27188222  0.75063943  0.01715297  1
  O  O71  1  0.09786830  0.12916214  0.32428292  1
  O  O72  1  0.53601450  0.35546961  0.92611105  1
  O  O73  1  0.16067170  0.33866339  0.42918869  1
  O  O74  1  0.35530442  0.03663447  0.55583696  1
  O  O75  1  0.21909664  0.64531789  0.26338307  1
  O  O76  1  0.74365266  0.56772652  0.87231631  1
  O  O77  1  0.00797951  0.66579774  0.92019243  1
  O  O78  1  0.46565368  0.82708291  0.50324135  1
  O  O79  1  0.40471323  0.26216429  0.42444756  1
  O  O80  1  0.78485479  0.37735399  0.98351099  1
  O  O81  1  0.66587009  0.28399845  0.45096266  1
  O  O82  1  0.63094151  0.83470350  0.65163659  1
  O  O83  1  0.66289498  0.88807145  0.07812645  1
  O  O84  1  0.25028754  0.87968432  0.31840478  1
  O  O85  1  0.56242762  0.80250186  0.87251646  1
  O  O86  1  0.29285084  0.25821344  0.95318525  1
  O  O87  1  0.77298846  0.66932882  0.60050650  1
  O  O88  1  0.32497507  0.60936303  0.47429048  1
  O  O89  1  0.54113666  0.69166914  0.32695758  1
  O  O90  1  0.01456372  0.76672525  0.68832880  1
  O  O91  1  0.62778702  0.17168861  0.24792620  1
  O  O92  1  0.02677267  0.46861814  0.29015958  1
  O  O93  1  0.06190209  0.34852737  0.79949411  1
  O  O94  1  0.00967827  0.17257870  0.95563019  1
  O  O95  1  0.61019106  0.48875087  0.39277374  1
  O  O96  1  0.56542163  0.59334164  0.58821631  1
  O  O97  1  0.50324108  0.57565955  0.79883691  1
  O  O98  1  0.59422086  0.37816550  0.14198764  1
  O  O99  1  0.57408824  0.09556198  0.55852887  1
  O  O100  1  0.77539752  0.72923563  0.35427653  1
  O  O101  1  0.95552097  0.94111448  0.28532570  1
