# generated using pymatgen
data_GaN
_symmetry_space_group_name_H-M   'P 1'
_cell_length_a   11.57365976
_cell_length_b   11.73537533
_cell_length_c   11.34170599
_cell_angle_alpha   86.68693531
_cell_angle_beta   86.70375329
_cell_angle_gamma   85.74618056
_symmetry_Int_Tables_number   1
_chemical_formula_structural   GaN
_chemical_formula_sum   'Ga50 N50'
_cell_volume   1531.44138319
_cell_formula_units_Z   50
loop_
 _symmetry_equiv_pos_site_id
 _symmetry_equiv_pos_as_xyz
  1  'x, y, z'
loop_
 _atom_site_type_symbol
 _atom_site_label
 _atom_site_symmetry_multiplicity
 _atom_site_fract_x
 _atom_site_fract_y
 _atom_site_fract_z
 _atom_site_occupancy
  Ga  Ga0  1  0.21929601  0.59749845  0.33751075  1
  Ga  Ga1  1  0.18824885  0.39850991  0.51287593  1
  Ga  Ga2  1  0.89422964  0.84939941  0.96259521  1
  Ga  Ga3  1  0.07663582  0.35345608  0.98127860  1
  Ga  Ga4  1  0.43731832  0.27131285  0.36851227  1
  Ga  Ga5  1  0.50906935  0.07406077  0.81858213  1
  Ga  Ga6  1  0.67970836  0.91208034  0.71474434  1
  Ga  Ga7  1  0.92865499  0.19206399  0.44105665  1
  Ga  Ga8  1  0.42957200  0.28201089  0.64556486  1
  Ga  Ga9  1  0.64092798  0.93737956  0.16037293  1
  Ga  Ga10  1  0.33619521  0.70135062  0.18288306  1
  Ga  Ga11  1  0.29587576  0.91354472  0.32911676  1
  Ga  Ga12  1  0.55966193  0.45190275  0.27835524  1
  Ga  Ga13  1  0.67457808  0.35639911  0.52019346  1
  Ga  Ga14  1  0.00842881  0.29468516  0.62013945  1
  Ga  Ga15  1  0.76624851  0.05623767  0.91570236  1
  Ga  Ga16  1  0.11471942  0.40888381  0.30010067  1
  Ga  Ga17  1  0.28443042  0.41521403  0.14387219  1
  Ga  Ga18  1  0.92330729  0.48374336  0.70958376  1
  Ga  Ga19  1  0.38527034  0.66096647  0.96755082  1
  Ga  Ga20  1  0.65423621  0.15293600  0.33640924  1
  Ga  Ga21  1  0.32088401  0.48517366  0.86042856  1
  Ga  Ga22  1  0.03826130  0.69669883  0.45762651  1
  Ga  Ga23  1  0.03672859  0.12731258  0.92857698  1
  Ga  Ga24  1  0.40347771  0.50000820  0.53188721  1
  Ga  Ga25  1  0.14250612  0.92774095  0.68441012  1
  Ga  Ga26  1  0.80799046  0.52676029  0.97453843  1
  Ga  Ga27  1  0.45269772  0.89551810  0.08740927  1
  Ga  Ga28  1  0.64195910  0.80216451  0.91212582  1
  Ga  Ga29  1  0.88827961  0.98913029  0.17265434  1
  Ga  Ga30  1  0.84147915  0.31284334  0.84704021  1
  Ga  Ga31  1  0.94683127  0.06406402  0.69887914  1
  Ga  Ga32  1  0.84700647  0.64219843  0.53662542  1
  Ga  Ga33  1  0.49428864  0.77696061  0.63084468  1
  Ga  Ga34  1  0.00974906  0.87895994  0.35150046  1
  Ga  Ga35  1  0.94418872  0.29129104  0.21892442  1
  Ga  Ga36  1  0.58365516  0.46152414  0.71260544  1
  Ga  Ga37  1  0.72601380  0.86100226  0.41830765  1
  Ga  Ga38  1  0.73196769  0.61634619  0.75334112  1
  Ga  Ga39  1  0.79992347  0.71055935  0.24658196  1
  Ga  Ga40  1  0.65357573  0.57401408  0.50678417  1
  Ga  Ga41  1  0.74097863  0.52396510  0.18389328  1
  Ga  Ga42  1  0.15709147  0.93984314  0.09427553  1
  Ga  Ga43  1  0.52256026  0.04059101  0.51953831  1
  Ga  Ga44  1  0.58383126  0.26977564  0.89879992  1
  Ga  Ga45  1  0.28421250  0.79742365  0.54630052  1
  Ga  Ga46  1  0.39366004  0.88867440  0.81231822  1
  Ga  Ga47  1  0.50431198  0.71213393  0.31324503  1
  Ga  Ga48  1  0.70382570  0.17147350  0.63452351  1
  Ga  Ga49  1  0.79157595  0.20625926  0.10668001  1
  N  N50  1  0.10288665  0.71282119  0.81084424  1
  N  N51  1  0.22001644  0.94186895  0.83854068  1
  N  N52  1  0.63591083  0.80534427  0.29397832  1
  N  N53  1  0.93079037  0.01133519  0.44824214  1
  N  N54  1  0.61105664  0.89559172  0.55814170  1
  N  N55  1  0.59036186  0.63178929  0.66585273  1
  N  N56  1  0.35671157  0.33918958  0.50624215  1
  N  N57  1  0.29762679  0.87669897  0.15873289  1
  N  N58  1  0.93575276  0.60473479  0.34473819  1
  N  N59  1  0.49712305  0.20661102  0.08296895  1
  N  N60  1  0.72582189  0.07533145  0.20116256  1
  N  N61  1  0.72600975  0.43998467  0.79548212  1
  N  N62  1  0.24217452  0.55173544  0.55066002  1
  N  N63  1  0.87748559  0.44636324  0.26025834  1
  N  N64  1  0.27720131  0.22905100  0.76983519  1
  N  N65  1  0.76195148  0.11106026  0.47151870  1
  N  N66  1  0.04837003  0.97477091  0.21416156  1
  N  N67  1  0.18869603  0.12495507  0.57854416  1
  N  N68  1  0.51626821  0.56746371  0.41473578  1
  N  N69  1  0.74553162  0.66860177  0.90323602  1
  N  N70  1  0.01829009  0.68613039  0.10581110  1
  N  N71  1  0.05842676  0.60283339  0.07465579  1
  N  N72  1  0.15063286  0.98111948  0.92508735  1
  N  N73  1  0.47101155  0.80059625  0.94849136  1
  N  N74  1  0.52458303  0.53226953  0.99322928  1
  N  N75  1  0.23833185  0.40219221  0.98424823  1
  N  N76  1  0.96795997  0.20538126  0.77675594  1
  N  N77  1  0.72157094  0.90968003  0.99932634  1
  N  N78  1  0.55846015  0.43939451  0.00955179  1
  N  N79  1  0.20975704  0.14217007  0.14413194  1
  N  N80  1  0.25129640  0.11163894  0.50031859  1
  N  N81  1  0.42209809  0.43154735  0.71843177  1
  N  N82  1  0.95364923  0.50101257  0.31149185  1
  N  N83  1  0.19340119  0.65847378  0.51733596  1
  N  N84  1  0.52335836  0.13968116  0.65142931  1
  N  N85  1  0.85813696  0.85257331  0.28590948  1
  N  N86  1  0.44139424  0.13241125  0.10053830  1
  N  N87  1  0.22687811  0.18460465  0.22672323  1
  N  N88  1  0.94650586  0.81133308  0.67093823  1
  N  N89  1  0.94107576  0.43755155  0.89160172  1
  N  N90  1  0.61339722  0.31232844  0.37583986  1
  N  N91  1  0.12412683  0.61878791  0.80596447  1
  N  N92  1  0.49259671  0.10770976  0.37042145  1
  N  N93  1  0.27864138  0.16150554  0.84530531  1
  N  N94  1  0.82031550  0.00745315  0.45853334  1
  N  N95  1  0.91045389  0.03965393  0.00203373  1
  N  N96  1  0.77529626  0.04665699  0.73674102  1
  N  N97  1  0.87540760  0.81901004  0.74454531  1
  N  N98  1  0.41801957  0.38355685  0.23446889  1
  N  N99  1  0.73728233  0.22029174  0.94846371  1
