# generated using pymatgen
data_V2O5
_symmetry_space_group_name_H-M   'P 1'
_cell_length_a   12.26715038
_cell_length_b   12.33833595
_cell_length_c   12.05964012
_cell_angle_alpha   87.95297023
_cell_angle_beta   91.73438333
_cell_angle_gamma   86.86226406
_symmetry_Int_Tables_number   1
_chemical_formula_structural   V2O5
_chemical_formula_sum   'V30 O75'
_cell_volume   1820.45226763
_cell_formula_units_Z   15
loop_
 _symmetry_equiv_pos_site_id
 _symmetry_equiv_pos_as_xyz
  1  'x, y, z'
loop_
 _atom_site_type_symbol
 _atom_site_label
 _atom_site_symmetry_multiplicity
 _atom_site_fract_x
 _atom_site_fract_y
 _atom_site_fract_z
 _atom_site_occupancy
  V  V0  1  0.06265532  0.49422303  0.83872852  1
  V  V1  1  0.96056094  0.85733283  0.11197052  1
  V  V2  1  0.45624027  0.99921768  0.50433467  1
  V  V3  1  0.61475911  0.34591729  0.82620069  1
  V  V4  1  0.66832235  0.51937033  0.58753904  1
  V  V5  1  0.50284158  0.95119720  0.78593031  1
  V  V6  1  0.29694072  0.99352755  0.96065242  1
  V  V7  1  0.89465086  0.35296189  0.50290068  1
  V  V8  1  0.94676527  0.06645384  0.92288074  1
  V  V9  1  0.41826752  0.61999476  0.00462471  1
  V  V10  1  0.33775312  0.12038021  0.34172650  1
  V  V11  1  0.39278267  0.63537202  0.71660778  1
  V  V12  1  0.64757006  0.73554512  0.71639434  1
  V  V13  1  0.76533012  0.92631210  0.76057313  1
  V  V14  1  0.10344135  0.37819499  0.30382043  1
  V  V15  1  0.11231923  0.97147223  0.34419650  1
  V  V16  1  0.96551809  0.86888479  0.58134624  1
  V  V17  1  0.74762361  0.96947793  0.27964861  1
  V  V18  1  0.93716080  0.60009078  0.08263040  1
  V  V19  1  0.47001243  0.54811213  0.37961494  1
  V  V20  1  0.18882284  0.81111441  0.77447041  1
  V  V21  1  0.55115417  0.17433961  0.21312367  1
  V  V22  1  0.77873462  0.73016072  0.43109986  1
  V  V23  1  0.90382907  0.18461792  0.29453624  1
  V  V24  1  0.04569764  0.23936640  0.73579894  1
  V  V25  1  0.28276976  0.77885300  0.12736792  1
  V  V26  1  0.34973590  0.79637901  0.38272986  1
  V  V27  1  0.10043420  0.66623265  0.29994111  1
  V  V28  1  0.31733519  0.44842848  0.16802288  1
  V  V29  1  0.68397135  0.50372085  0.05505486  1
  O  O30  1  0.79245983  0.59639888  0.05086221  1
  O  O31  1  0.38936414  0.45723049  0.29951101  1
  O  O32  1  0.83810678  0.17517444  0.17800028  1
  O  O33  1  0.44275520  0.85297600  0.47989722  1
  O  O34  1  0.02690289  0.93927802  0.47905251  1
  O  O35  1  0.16495123  0.77465307  0.06288330  1
  O  O36  1  0.00538859  0.56712863  0.96467183  1
  O  O37  1  0.52601376  0.65615063  0.66580118  1
  O  O38  1  0.66811471  0.22317413  0.80703657  1
  O  O39  1  0.23011249  0.72309727  0.26443544  1
  O  O40  1  0.36154637  0.12543005  0.48796728  1
  O  O41  1  0.22931913  0.88144032  0.40942108  1
  O  O42  1  0.86386788  0.94840559  0.65157088  1
  O  O43  1  0.78752193  0.45311546  0.53815511  1
  O  O44  1  0.30528769  0.76079007  0.70269314  1
  O  O45  1  0.68206640  0.42503505  0.93838467  1
  O  O46  1  0.88923761  0.76573530  0.53244368  1
  O  O47  1  0.06698584  0.83102252  0.68365018  1
  O  O48  1  0.29307439  0.92582548  0.09480055  1
  O  O49  1  0.72757472  0.61800284  0.70052009  1
  O  O50  1  0.55580867  0.48995977  0.49344018  1
  O  O51  1  0.39157104  0.38823585  0.07802625  1
  O  O52  1  0.43433493  0.99845994  0.90290563  1
  O  O53  1  0.21234730  0.06729346  0.29687909  1
  O  O54  1  0.84034075  0.65892203  0.33924925  1
  O  O55  1  0.63636597  0.00053610  0.76844459  1
  O  O56  1  0.12828970  0.52773635  0.32445657  1
  O  O57  1  0.56691701  0.22003092  0.08635898  1
  O  O58  1  0.67801262  0.83352243  0.62509087  1
  O  O59  1  0.74796147  0.79956247  0.82128940  1
  O  O60  1  0.89378588  0.17498283  0.97230268  1
  O  O61  1  0.63083477  0.03175705  0.21984816  1
  O  O62  1  0.00088962  0.70680411  0.18202802  1
  O  O63  1  0.90795713  0.78532786  0.01333927  1
  O  O64  1  0.02646667  0.10640881  0.80992181  1
  O  O65  1  0.80919899  0.05702596  0.36040788  1
  O  O66  1  0.39461120  0.75806895  0.01638603  1
  O  O67  1  0.54931935  0.58656706  0.05159021  1
  O  O68  1  0.16611878  0.23113117  0.68634707  1
  O  O69  1  0.01035888  0.07957703  0.32379577  1
  O  O70  1  0.40498754  0.59178492  0.86432552  1
  O  O71  1  0.31486886  0.59270265  0.10515315  1
  O  O72  1  0.58133361  0.03082325  0.51003269  1
  O  O73  1  0.68530277  0.65100443  0.49419556  1
  O  O74  1  0.43065270  0.97930585  0.66312656  1
  O  O75  1  0.22057824  0.92773397  0.85421455  1
  O  O76  1  0.43141264  0.01152068  0.34055653  1
  O  O77  1  0.03225752  0.34540438  0.82563433  1
  O  O78  1  0.40011056  0.81445239  0.25541404  1
  O  O79  1  0.54700927  0.60711695  0.29323485  1
  O  O80  1  0.94702190  0.27253379  0.61893593  1
  O  O81  1  0.07542907  0.89383467  0.23961015  1
  O  O82  1  0.61794754  0.24765832  0.29894863  1
  O  O83  1  0.19587632  0.49978386  0.84288394  1
  O  O84  1  0.19210004  0.30393734  0.38010111  1
  O  O85  1  0.18982198  0.38897731  0.17626457  1
  O  O86  1  0.00655627  0.97336490  0.03281770  1
  O  O87  1  0.96403897  0.49679666  0.16924721  1
  O  O88  1  0.48241740  0.34478788  0.83735978  1
  O  O89  1  0.34104936  0.54390612  0.64410900  1
  O  O90  1  0.71737174  0.85451340  0.36506558  1
  O  O91  1  0.83686913  0.98797800  0.86521573  1
  O  O92  1  0.99555054  0.40933815  0.43497907  1
  O  O93  1  0.00123689  0.28785302  0.26129254  1
  O  O94  1  0.84142802  0.26724743  0.40780545  1
  O  O95  1  0.06992912  0.71846768  0.41675986  1
  O  O96  1  0.37721519  0.65438921  0.42759407  1
  O  O97  1  0.84574471  0.91161327  0.18153716  1
  O  O98  1  0.01200834  0.55646811  0.72442358  1
  O  O99  1  0.69624507  0.42837485  0.16652331  1
  O  O100  1  0.39718784  0.20770956  0.24968971  1
  O  O101  1  0.53154730  0.81343016  0.80479258  1
  O  O102  1  0.63703986  0.43156846  0.69288641  1
  O  O103  1  0.16284574  0.71722830  0.86300603  1
  O  O104  1  0.24561443  0.11455590  0.97449827  1
