# generated using pymatgen
data_Cr3FeO6
_symmetry_space_group_name_H-M   'P 1'
_cell_length_a   9.18816068
_cell_length_b   10.24053189
_cell_length_c   10.36012458
_cell_angle_alpha   84.20469233
_cell_angle_beta   93.08655689
_cell_angle_gamma   92.57152704
_symmetry_Int_Tables_number   1
_chemical_formula_structural   Cr3FeO6
_chemical_formula_sum   'Cr24 Fe8 O48'
_cell_volume   967.64906943
_cell_formula_units_Z   8
loop_
 _symmetry_equiv_pos_site_id
 _symmetry_equiv_pos_as_xyz
  1  'x, y, z'
loop_
 _atom_site_type_symbol
 _atom_site_label
 _atom_site_symmetry_multiplicity
 _atom_site_fract_x
 _atom_site_fract_y
 _atom_site_fract_z
 _atom_site_occupancy
  Cr  Cr0  1  0.49004100  0.03378300  0.32357500  1
  Cr  Cr1  1  0.27227000  0.84314200  0.20964200  1
  Cr  Cr2  1  0.08324400  0.31233000  0.53080900  1
  Cr  Cr3  1  0.75506600  0.09032600  0.07702700  1
  Cr  Cr4  1  0.63655100  0.52847200  0.22240900  1
  Cr  Cr5  1  0.25261600  0.56742200  0.48789700  1
  Cr  Cr6  1  0.89031000  0.93653200  0.54804600  1
  Cr  Cr7  1  0.58183800  0.87036200  0.87112300  1
  Cr  Cr8  1  0.91881000  0.40658700  0.28842800  1
  Cr  Cr9  1  0.22947800  0.07094800  0.47280300  1
  Cr  Cr10  1  0.15158800  0.16063700  0.05521000  1
  Cr  Cr11  1  0.83867500  0.70871100  0.79637100  1
  Cr  Cr12  1  0.56996400  0.59592100  0.78454500  1
  Cr  Cr13  1  0.50367000  0.84527900  0.60839400  1
  Cr  Cr14  1  0.71088800  0.21369000  0.42056800  1
  Cr  Cr15  1  0.45531300  0.33382600  0.58369200  1
  Cr  Cr16  1  0.78769000  0.42219500  0.64964800  1
  Cr  Cr17  1  0.58938500  0.13083300  0.79930700  1
  Cr  Cr18  1  0.26390800  0.04908400  0.75520600  1
  Cr  Cr19  1  0.95404900  0.64343400  0.41708500  1
  Cr  Cr20  1  0.67741800  0.84861600  0.28878600  1
  Cr  Cr21  1  0.97012500  0.00274300  0.87189300  1
  Cr  Cr22  1  0.21729600  0.41971600  0.79323700  1
  Cr  Cr23  1  0.42198900  0.34065200  0.01493000  1
  Fe  Fe24  1  0.03265800  0.64194500  0.12748500  1
  Fe  Fe25  1  0.93773400  0.46064700  0.94719700  1
  Fe  Fe26  1  0.37074900  0.32303700  0.30348400  1
  Fe  Fe27  1  0.21944900  0.76022300  0.68319200  1
  Fe  Fe28  1  0.58306000  0.61500100  0.49052100  1
  Fe  Fe29  1  0.30986800  0.64424600  0.94444300  1
  Fe  Fe30  1  0.46250100  0.06843200  0.05383300  1
  Fe  Fe31  1  0.99538800  0.91667200  0.27362400  1
  O  O32  1  0.17005200  0.59917500  0.79337900  1
  O  O33  1  0.08783600  0.74915600  0.28135700  1
  O  O34  1  0.20947700  0.34065100  0.97200200  1
  O  O35  1  0.78496400  0.50616600  0.80666700  1
  O  O36  1  0.41162000  0.20887100  0.73250700  1
  O  O37  1  0.31565200  0.94081800  0.61018400  1
  O  O38  1  0.41762200  0.48560900  0.87943600  1
  O  O39  1  0.24371500  0.70410300  0.09929700  1
  O  O40  1  0.70890900  0.36511100  0.27957500  1
  O  O41  1  0.25702600  0.41014600  0.61079900  1
  O  O42  1  0.67473100  0.27360200  0.60652900  1
  O  O43  1  0.58793500  0.67704500  0.29927100  1
  O  O44  1  0.04362400  0.98500400  0.43974600  1
  O  O45  1  0.35573800  0.19227200  0.14987700  1
  O  O46  1  0.41769400  0.45953700  0.41958600  1
  O  O47  1  0.14384600  0.11880800  0.87774500  1
  O  O48  1  0.91661000  0.26186400  0.41643000  1
  O  O49  1  0.97931100  0.36612800  0.68241500  1
  O  O50  1  0.84827300  0.81498800  0.41291700  1
  O  O51  1  0.74343000  0.01072500  0.91072000  1
  O  O52  1  0.15011700  0.13879000  0.62126000  1
  O  O53  1  0.38539700  0.70045400  0.54007700  1
  O  O54  1  0.85461400  0.59279700  0.24584400  1
  O  O55  1  0.19987400  0.24843500  0.38410900  1
  O  O56  1  0.45299000  0.44393900  0.15890200  1
  O  O57  1  0.56857700  0.90202300  0.43285200  1
  O  O58  1  0.67287800  0.72125000  0.65333300  1
  O  O59  1  0.10071200  0.68681000  0.55028800  1
  O  O60  1  0.48109200  0.18721500  0.42436500  1
  O  O61  1  0.77559200  0.05883600  0.53104000  1
  O  O62  1  0.01715600  0.44865300  0.12654700  1
  O  O63  1  0.82139300  0.92046500  0.16552400  1
  O  O64  1  0.67374100  0.10701400  0.26114900  1
  O  O65  1  0.67673300  0.70952000  0.90796700  1
  O  O66  1  0.13271400  0.97635700  0.13964800  1
  O  O67  1  0.90284500  0.88610700  0.72992400  1
  O  O68  1  0.43633200  0.00657400  0.88493400  1
  O  O69  1  0.48534900  0.91207900  0.17973500  1
  O  O70  1  0.07419600  0.48485400  0.40943200  1
  O  O71  1  0.79980100  0.53834100  0.50884200  1
  O  O72  1  0.42991700  0.75024000  0.78745200  1
  O  O73  1  0.59724800  0.21877800  0.97836000  1
  O  O74  1  0.30330800  0.97520300  0.34073700  1
  O  O75  1  0.56173600  0.47834100  0.64940700  1
  O  O76  1  0.96104100  0.66437600  0.95504800  1
  O  O77  1  0.94079200  0.14704300  0.00987800  1
  O  O78  1  0.15762500  0.89763000  0.80764900  1
  O  O79  1  0.60085800  0.97332800  0.70805100  1
