# generated using pymatgen
data_Al2O3
_symmetry_space_group_name_H-M   'P 1'
_cell_length_a   10.53287227
_cell_length_b   10.30228396
_cell_length_c   10.36690122
_cell_angle_alpha   87.30611125
_cell_angle_beta   93.54363346
_cell_angle_gamma   83.96976239
_symmetry_Int_Tables_number   1
_chemical_formula_structural   Al2O3
_chemical_formula_sum   'Al40 O60'
_cell_volume   1114.95336630
_cell_formula_units_Z   20
loop_
 _symmetry_equiv_pos_site_id
 _symmetry_equiv_pos_as_xyz
  1  'x, y, z'
loop_
 _atom_site_type_symbol
 _atom_site_label
 _atom_site_symmetry_multiplicity
 _atom_site_fract_x
 _atom_site_fract_y
 _atom_site_fract_z
 _atom_site_occupancy
  Al  Al0  1  0.10694400  0.32413100  0.57036400  1
  Al  Al1  1  0.86502300  0.20788600  0.44415900  1
  Al  Al2  1  0.12458600  0.74058700  0.61110500  1
  Al  Al3  1  0.00849300  0.58076400  0.82678600  1
  Al  Al4  1  0.69202200  0.79181800  0.41553600  1
  Al  Al5  1  0.30905300  0.32966600  0.74447800  1
  Al  Al6  1  0.37226900  0.14473200  0.50535900  1
  Al  Al7  1  0.08765200  0.92459600  0.82344500  1
  Al  Al8  1  0.19890100  0.42379900  0.07322300  1
  Al  Al9  1  0.74401800  0.59525300  0.89141800  1
  Al  Al10  1  0.47475100  0.69025800  0.36658300  1
  Al  Al11  1  0.54444900  0.19893100  0.88870200  1
  Al  Al12  1  0.62916800  0.12916300  0.39162600  1
  Al  Al13  1  0.77667000  0.07124000  0.69969100  1
  Al  Al14  1  0.27013000  0.65933100  0.94860900  1
  Al  Al15  1  0.89079800  0.08626000  0.97948500  1
  Al  Al16  1  0.36574600  0.02604300  0.75999200  1
  Al  Al17  1  0.17598900  0.92304400  0.11506100  1
  Al  Al18  1  0.43064300  0.91257900  0.99648700  1
  Al  Al19  1  0.55260300  0.82691300  0.69746600  1
  Al  Al20  1  0.60434600  0.31409200  0.58976900  1
  Al  Al21  1  0.96946500  0.76833100  0.29183100  1
  Al  Al22  1  0.95119500  0.43329000  0.27635800  1
  Al  Al23  1  0.98519400  0.10724300  0.25313500  1
  Al  Al24  1  0.31678100  0.85747700  0.49864400  1
  Al  Al25  1  0.08170500  0.07111000  0.52060600  1
  Al  Al26  1  0.71247900  0.98178000  0.13408100  1
  Al  Al27  1  0.50456700  0.47034300  0.95119600  1
  Al  Al28  1  0.75923900  0.33104200  0.80362000  1
  Al  Al29  1  0.65322000  0.57787400  0.61063800  1
  Al  Al30  1  0.40121800  0.45100000  0.21969200  1
  Al  Al31  1  0.81363000  0.85689700  0.83801600  1
  Al  Al32  1  0.47212200  0.97339200  0.25732900  1
  Al  Al33  1  0.94215700  0.59698500  0.51032100  1
  Al  Al34  1  0.12816800  0.19475300  0.89391900  1
  Al  Al35  1  0.68135200  0.28511000  0.16102200  1
  Al  Al36  1  0.27562200  0.16582400  0.18749000  1
  Al  Al37  1  0.92754000  0.37962000  0.03314500  1
  Al  Al38  1  0.74169200  0.68060700  0.18871100  1
  Al  Al39  1  0.35662800  0.52836300  0.52933100  1
  O  O40  1  0.22859600  0.25513200  0.01719000  1
  O  O41  1  0.51533300  0.47712400  0.59336500  1
  O  O42  1  0.88222500  0.69727500  0.86643100  1
  O  O43  1  0.65412800  0.67499500  0.74956300  1
  O  O44  1  0.88958100  0.45765400  0.87290300  1
  O  O45  1  0.00824300  0.44692600  0.45502300  1
  O  O46  1  0.96720800  0.26308700  0.31761300  1
  O  O47  1  0.19927900  0.18249100  0.49853400  1
  O  O48  1  0.60567500  0.11070600  0.21524300  1
  O  O49  1  0.62256900  0.67884300  0.30247000  1
  O  O50  1  0.42816900  0.34259900  0.87119100  1
  O  O51  1  0.40899700  0.96251400  0.59153800  1
  O  O52  1  0.98254300  0.20934200  0.58026800  1
  O  O53  1  0.25977500  0.41760800  0.59017400  1
  O  O54  1  0.92450900  0.94231200  0.74381900  1
  O  O55  1  0.29301600  0.33326700  0.22796300  1
  O  O56  1  0.44348400  0.86300500  0.81986800  1
  O  O57  1  0.34235400  0.00941500  0.12097600  1
  O  O58  1  0.65718700  0.45149100  0.88275500  1
  O  O59  1  0.28582800  0.69087600  0.55191200  1
  O  O60  1  0.37515400  0.09549000  0.33934200  1
  O  O61  1  0.14838200  0.76596900  0.78620400  1
  O  O62  1  0.13849200  0.07523100  0.20647100  1
  O  O63  1  0.85070800  0.16959700  0.81531900  1
  O  O64  1  0.62767800  0.22151000  0.74203400  1
  O  O65  1  0.54561000  0.72983800  0.52930700  1
  O  O66  1  0.77872300  0.65711500  0.51847800  1
  O  O67  1  0.01578400  0.73686700  0.45904400  1
  O  O68  1  0.16221900  0.91236400  0.55531600  1
  O  O69  1  0.45290600  0.07032800  0.90960200  1
  O  O70  1  0.61004200  0.95089200  0.40298900  1
  O  O71  1  0.30317800  0.55126000  0.10388700  1
  O  O72  1  0.53719600  0.40963000  0.12795700  1
  O  O73  1  0.78254400  0.95059300  0.97381400  1
  O  O74  1  0.89457300  0.60961700  0.27104300  1
  O  O75  1  0.81022000  0.39557500  0.14533900  1
  O  O76  1  0.79551600  0.83648400  0.25949400  1
  O  O77  1  0.40301400  0.54358200  0.36286300  1
  O  O78  1  0.14229000  0.30942000  0.75773700  1
  O  O79  1  0.56463600  0.89219000  0.12318200  1
  O  O80  1  0.14788200  0.53822000  0.92551300  1
  O  O81  1  0.98931600  0.22483900  0.99257900  1
  O  O82  1  0.51145600  0.23127100  0.47709100  1
  O  O83  1  0.71953800  0.26755400  0.34100000  1
  O  O84  1  0.74519400  0.13608500  0.53989100  1
  O  O85  1  0.08457800  0.82138400  0.20301700  1
  O  O86  1  0.37746300  0.83803000  0.34003700  1
  O  O87  1  0.95373100  0.03970400  0.40794600  1
  O  O88  1  0.04510400  0.44136900  0.13608000  1
  O  O89  1  0.05034100  0.98103500  0.97722800  1
  O  O90  1  0.03165400  0.59769400  0.66125500  1
  O  O91  1  0.28273200  0.81891900  0.01438700  1
  O  O92  1  0.67523900  0.21601900  0.99997000  1
  O  O93  1  0.68461900  0.92869400  0.72095600  1
  O  O94  1  0.19473900  0.04930500  0.80113300  1
  O  O95  1  0.70119200  0.66235600  0.03243900  1
  O  O96  1  0.41181200  0.60540600  0.88321200  1
  O  O97  1  0.74307200  0.40829900  0.63556300  1
  O  O98  1  0.37827000  0.18331100  0.68073600  1
  O  O99  1  0.85429900  0.07976900  0.15059300  1
