# generated using pymatgen
data_Fe2O3
_symmetry_space_group_name_H-M   'P 1'
_cell_length_a   8.64756113
_cell_length_b   10.93536279
_cell_length_c   10.37500232
_cell_angle_alpha   89.30778347
_cell_angle_beta   91.84781313
_cell_angle_gamma   93.81732083
_symmetry_Int_Tables_number   1
_chemical_formula_structural   Fe2O3
_chemical_formula_sum   'Fe32 O48'
_cell_volume   978.36970455
_cell_formula_units_Z   16
loop_
 _symmetry_equiv_pos_site_id
 _symmetry_equiv_pos_as_xyz
  1  'x, y, z'
loop_
 _atom_site_type_symbol
 _atom_site_label
 _atom_site_symmetry_multiplicity
 _atom_site_fract_x
 _atom_site_fract_y
 _atom_site_fract_z
 _atom_site_occupancy
  Fe  Fe0  1  0.63697200  0.93143700  0.04951600  1
  Fe  Fe1  1  0.30062200  0.92826000  0.52864100  1
  Fe  Fe2  1  0.94264300  0.75960200  0.59500500  1
  Fe  Fe3  1  0.53679400  0.17606900  0.54465500  1
  Fe  Fe4  1  0.67800600  0.38322500  0.23254100  1
  Fe  Fe5  1  0.28754000  0.42515600  0.56957500  1
  Fe  Fe6  1  0.41733500  0.19352000  0.79181000  1
  Fe  Fe7  1  0.61664800  0.59665100  0.04937800  1
  Fe  Fe8  1  0.06802700  0.04833000  0.66429400  1
  Fe  Fe9  1  0.34785900  0.42624700  0.90226500  1
  Fe  Fe10  1  0.92583700  0.08179600  0.07284900  1
  Fe  Fe11  1  0.72415900  0.99345800  0.80523900  1
  Fe  Fe12  1  0.63799700  0.53879200  0.78561800  1
  Fe  Fe13  1  0.17149900  0.19122300  0.36553400  1
  Fe  Fe14  1  0.30200300  0.47748300  0.24420200  1
  Fe  Fe15  1  0.30151000  0.96789800  0.91929000  1
  Fe  Fe16  1  0.22982200  0.20689400  0.03144600  1
  Fe  Fe17  1  0.68731100  0.47279000  0.53443200  1
  Fe  Fe18  1  0.41602100  0.68268400  0.49879700  1
  Fe  Fe19  1  0.01679300  0.43791400  0.06695100  1
  Fe  Fe20  1  0.80486300  0.79788000  0.27435900  1
  Fe  Fe21  1  0.00129000  0.50722400  0.41879500  1
  Fe  Fe22  1  0.12828200  0.70303300  0.28440900  1
  Fe  Fe23  1  0.46732800  0.09440800  0.27007500  1
  Fe  Fe24  1  0.76110300  0.29130700  0.93806900  1
  Fe  Fe25  1  0.23871600  0.66447100  0.85617600  1
  Fe  Fe26  1  0.94934700  0.75552400  0.97256600  1
  Fe  Fe27  1  0.89864800  0.26152000  0.63868700  1
  Fe  Fe28  1  0.83566000  0.06856200  0.36088700  1
  Fe  Fe29  1  0.44878000  0.78615900  0.24197700  1
  Fe  Fe30  1  0.00314700  0.51185100  0.74176700  1
  Fe  Fe31  1  0.65732200  0.88333800  0.52338600  1
  O  O32  1  0.71009500  0.29884000  0.54628100  1
  O  O33  1  0.86281900  0.36864200  0.78848400  1
  O  O34  1  0.49859400  0.53716100  0.58978200  1
  O  O35  1  0.97353000  0.26547600  0.02686600  1
  O  O36  1  0.78130600  0.47568000  0.37145300  1
  O  O37  1  0.78865100  0.97280700  0.19718700  1
  O  O38  1  0.34195100  0.08692000  0.43928200  1
  O  O39  1  0.27314400  0.04081800  0.73951400  1
  O  O40  1  0.30233200  0.65798800  0.18544700  1
  O  O41  1  0.24243200  0.49412200  0.74867300  1
  O  O42  1  0.63322800  0.21738200  0.26708000  1
  O  O43  1  0.72741600  0.11472200  0.97253300  1
  O  O44  1  0.44227500  0.59761200  0.91865200  1
  O  O45  1  0.01430400  0.15331100  0.51253800  1
  O  O46  1  0.23197600  0.27164900  0.86069400  1
  O  O47  1  0.90326400  0.11235500  0.74705000  1
  O  O48  1  0.41074900  0.13048200  0.97261100  1
  O  O49  1  0.24806000  0.39512200  0.07382000  1
  O  O50  1  0.81320200  0.58312100  0.64413200  1
  O  O51  1  0.58552500  0.10765000  0.71027500  1
  O  O52  1  0.28941400  0.81549700  0.37730600  1
  O  O53  1  0.06450700  0.50218400  0.24103200  1
  O  O54  1  0.63064600  0.04462100  0.44482400  1
  O  O55  1  0.24485000  0.57203100  0.44329200  1
  O  O56  1  0.96993700  0.75502200  0.16326800  1
  O  O57  1  0.78444600  0.86317400  0.67582800  1
  O  O58  1  0.09729800  0.89808700  0.58089600  1
  O  O59  1  0.38819900  0.27898500  0.62317600  1
  O  O60  1  0.08835600  0.68246500  0.70831000  1
  O  O61  1  0.51736600  0.91403600  0.89284900  1
  O  O62  1  0.77581400  0.43033800  0.07169700  1
  O  O63  1  0.27377200  0.35203300  0.38588900  1
  O  O64  1  0.55407100  0.36498100  0.86565700  1
  O  O65  1  0.85404300  0.89658400  0.42624000  1
  O  O66  1  0.12263400  0.04737300  0.00632600  1
  O  O67  1  0.83974700  0.90694200  0.95170200  1
  O  O68  1  0.98878500  0.15010700  0.25777600  1
  O  O69  1  0.05911200  0.56732900  0.93629700  1
  O  O70  1  0.29049800  0.17441700  0.20596400  1
  O  O71  1  0.59465200  0.74656400  0.39224200  1
  O  O72  1  0.45898600  0.94839200  0.16854900  1
  O  O73  1  0.96859200  0.68356600  0.41932600  1
  O  O74  1  0.03731100  0.40817600  0.57427200  1
  O  O75  1  0.45356800  0.82758200  0.60315200  1
  O  O76  1  0.63384300  0.75510400  0.13755000  1
  O  O77  1  0.52100400  0.49333500  0.19442700  1
  O  O78  1  0.17410600  0.81040400  0.93031500  1
  O  O79  1  0.76575400  0.64594900  0.92323900  1
