# generated using pymatgen
data_Al2O3
_symmetry_space_group_name_H-M   'P 1'
_cell_length_a   10.15232663
_cell_length_b   10.43683794
_cell_length_c   9.95050307
_cell_angle_alpha   85.76547149
_cell_angle_beta   90.89077056
_cell_angle_gamma   91.01527079
_symmetry_Int_Tables_number   1
_chemical_formula_structural   Al2O3
_chemical_formula_sum   'Al40 O60'
_cell_volume   1051.18684902
_cell_formula_units_Z   20
loop_
 _symmetry_equiv_pos_site_id
 _symmetry_equiv_pos_as_xyz
  1  'x, y, z'
loop_
 _atom_site_type_symbol
 _atom_site_label
 _atom_site_symmetry_multiplicity
 _atom_site_fract_x
 _atom_site_fract_y
 _atom_site_fract_z
 _atom_site_occupancy
  Al  Al0  1  0.59326200  0.12527400  0.96874100  1
  Al  Al1  1  0.91149900  0.93761900  0.54509400  1
  Al  Al2  1  0.43156100  0.31784700  0.16833700  1
  Al  Al3  1  0.16082600  0.38752900  0.46596300  1
  Al  Al4  1  0.85720800  0.95698400  0.24269400  1
  Al  Al5  1  0.34691700  0.70686800  0.09485000  1
  Al  Al6  1  0.17028700  0.08548500  0.57511100  1
  Al  Al7  1  0.21969500  0.43574800  0.75945800  1
  Al  Al8  1  0.27204700  0.12902200  0.83659300  1
  Al  Al9  1  0.44116400  0.40138500  0.89148000  1
  Al  Al10  1  0.50089900  0.57617500  0.62383300  1
  Al  Al11  1  0.17910000  0.84876800  0.82305200  1
  Al  Al12  1  0.64463500  0.87074900  0.59199200  1
  Al  Al13  1  0.93456400  0.90306100  0.79996200  1
  Al  Al14  1  0.57479900  0.07396600  0.38284300  1
  Al  Al15  1  0.76745400  0.66835600  0.73235500  1
  Al  Al16  1  0.91695000  0.26202600  0.09911900  1
  Al  Al17  1  0.77438400  0.68834100  0.40300300  1
  Al  Al18  1  0.26908500  0.14083200  0.31644000  1
  Al  Al19  1  0.39952900  0.01089600  0.12035400  1
  Al  Al20  1  0.99783000  0.17374700  0.82569300  1
  Al  Al21  1  0.43036700  0.78350000  0.78518000  1
  Al  Al22  1  0.59601800  0.82892600  0.14685200  1
  Al  Al23  1  0.09448900  0.70845800  0.25025700  1
  Al  Al24  1  0.08773800  0.03076300  0.08577400  1
  Al  Al25  1  0.49766500  0.07351300  0.67023300  1
  Al  Al26  1  0.94509800  0.45069200  0.85101800  1
  Al  Al27  1  0.55215900  0.56570300  0.22208500  1
  Al  Al28  1  0.63019700  0.60080800  0.95138500  1
  Al  Al29  1  0.89951200  0.74848800  0.05640000  1
  Al  Al30  1  0.76357400  0.15725100  0.68662500  1
  Al  Al31  1  0.44224500  0.33544200  0.47762900  1
  Al  Al32  1  0.29855100  0.60937800  0.39932300  1
  Al  Al33  1  0.32461100  0.84687900  0.49102700  1
  Al  Al34  1  0.69786400  0.38587100  0.41910100  1
  Al  Al35  1  0.95202600  0.46563900  0.29079500  1
  Al  Al36  1  0.18542400  0.45391900  0.09061700  1
  Al  Al37  1  0.92056900  0.40663700  0.58974300  1
  Al  Al38  1  0.88472400  0.19010500  0.38050900  1
  Al  Al39  1  0.69187300  0.36052200  0.01355400  1
  O  O40  1  0.01962100  0.87270100  0.16052500  1
  O  O41  1  0.03498200  0.38570500  0.16379100  1
  O  O42  1  0.52375800  0.27817400  0.02596200  1
  O  O43  1  0.99446400  0.33509700  0.43578400  1
  O  O44  1  0.61241900  0.45002700  0.86747200  1
  O  O45  1  0.90167700  0.30398100  0.75469700  1
  O  O46  1  0.31756700  0.77563900  0.92168900  1
  O  O47  1  0.25020800  0.00084100  0.44440200  1
  O  O48  1  0.36503100  0.45894100  0.03949700  1
  O  O49  1  0.05879900  0.92073600  0.67095000  1
  O  O50  1  0.32915200  0.06913600  0.68575000  1
  O  O51  1  0.12031400  0.53705900  0.35854800  1
  O  O52  1  0.74111600  0.06930500  0.32583900  1
  O  O53  1  0.58168300  0.99563500  0.09565300  1
  O  O54  1  0.77704500  0.85518500  0.12115600  1
  O  O55  1  0.12648200  0.17650300  0.71734500  1
  O  O56  1  0.01294100  0.78991600  0.90969800  1
  O  O57  1  0.68267900  0.69972700  0.55837500  1
  O  O58  1  0.44891800  0.13381400  0.26090900  1
  O  O59  1  0.54321000  0.91059100  0.73063100  1
  O  O60  1  0.23535200  0.05221300  0.17106000  1
  O  O61  1  0.10129500  0.44097000  0.62752200  1
  O  O62  1  0.64237000  0.69748600  0.28580400  1
  O  O63  1  0.75264600  0.19882300  0.02357300  1
  O  O64  1  0.78734500  0.67524500  0.92180400  1
  O  O65  1  0.24566400  0.23311100  0.46764000  1
  O  O66  1  0.15583400  0.99723300  0.91305600  1
  O  O67  1  0.85906400  0.41089900  0.99366600  1
  O  O68  1  0.57412900  0.44150300  0.54686600  1
  O  O69  1  0.28840900  0.81515000  0.67769600  1
  O  O70  1  0.40830600  0.84621100  0.17957800  1
  O  O71  1  0.20989400  0.75933500  0.37730700  1
  O  O72  1  0.82581000  0.51971200  0.43200100  1
  O  O73  1  0.38876000  0.59722100  0.24966000  1
  O  O74  1  0.95550700  0.10959200  0.21565800  1
  O  O75  1  0.87145200  0.05799800  0.80592700  1
  O  O76  1  0.31547400  0.29900400  0.82598300  1
  O  O77  1  0.61299300  0.15351300  0.78115800  1
  O  O78  1  0.41266900  0.68766100  0.51286700  1
  O  O79  1  0.92847000  0.63949900  0.21126000  1
  O  O80  1  0.53372000  0.38292700  0.31225800  1
  O  O81  1  0.78221200  0.27388200  0.53889700  1
  O  O82  1  0.18041700  0.63693100  0.11379300  1
  O  O83  1  0.65151600  0.49547600  0.10835100  1
  O  O84  1  0.40635900  0.07851700  0.94848300  1
  O  O85  1  0.74201900  0.02054300  0.57966400  1
  O  O86  1  0.80705700  0.32983000  0.27639200  1
  O  O87  1  0.51592900  0.92651600  0.46871600  1
  O  O88  1  0.53143100  0.69905900  0.04618000  1
  O  O89  1  0.82714900  0.82673200  0.68889300  1
  O  O90  1  0.87466700  0.53990300  0.70673600  1
  O  O91  1  0.99015100  0.08384500  0.48666700  1
  O  O92  1  0.52265500  0.18106100  0.51361400  1
  O  O93  1  0.37593900  0.52114900  0.75183400  1
  O  O94  1  0.32403600  0.45480000  0.49009400  1
  O  O95  1  0.26687700  0.30517500  0.21612700  1
  O  O96  1  0.57175100  0.67152800  0.77258500  1
  O  O97  1  0.03608200  0.18567300  0.99434500  1
  O  O98  1  0.11606600  0.46363900  0.90028000  1
  O  O99  1  0.86820100  0.84144900  0.40319200  1
