# generated using pymatgen
data_CaO
_symmetry_space_group_name_H-M   'P 1'
_cell_length_a   11.45770671
_cell_length_b   12.55290998
_cell_length_c   11.68367069
_cell_angle_alpha   84.80702766
_cell_angle_beta   82.59485791
_cell_angle_gamma   92.61410986
_symmetry_Int_Tables_number   1
_chemical_formula_structural   CaO
_chemical_formula_sum   'Ca50 O50'
_cell_volume   1656.78536730
_cell_formula_units_Z   50
loop_
 _symmetry_equiv_pos_site_id
 _symmetry_equiv_pos_as_xyz
  1  'x, y, z'
loop_
 _atom_site_type_symbol
 _atom_site_label
 _atom_site_symmetry_multiplicity
 _atom_site_fract_x
 _atom_site_fract_y
 _atom_site_fract_z
 _atom_site_occupancy
  Ca  Ca0  1  0.55130402  0.02935745  0.26703626  1
  Ca  Ca1  1  0.22596994  0.95707127  0.70355455  1
  Ca  Ca2  1  0.29426707  0.06098664  0.93221893  1
  Ca  Ca3  1  0.18817142  0.46800035  0.83733859  1
  Ca  Ca4  1  0.50773818  0.83082012  0.08275162  1
  Ca  Ca5  1  0.59871980  0.87304129  0.48824174  1
  Ca  Ca6  1  0.22559218  0.17556675  0.41058825  1
  Ca  Ca7  1  0.29751919  0.92117025  0.44572025  1
  Ca  Ca8  1  0.47946606  0.52122130  0.79800034  1
  Ca  Ca9  1  0.90910422  0.78949177  0.00150046  1
  Ca  Ca10  1  0.44740688  0.56503454  0.06762829  1
  Ca  Ca11  1  0.41049228  0.70492439  0.31301373  1
  Ca  Ca12  1  0.31898719  0.39570954  0.54865946  1
  Ca  Ca13  1  0.68597878  0.38556225  0.52994472  1
  Ca  Ca14  1  0.49241052  0.11280656  0.53053351  1
  Ca  Ca15  1  0.99207788  0.57743900  0.98379293  1
  Ca  Ca16  1  0.12120164  0.69677120  0.47251486  1
  Ca  Ca17  1  0.74000990  0.18151020  0.71562075  1
  Ca  Ca18  1  0.50257590  0.91048761  0.76277074  1
  Ca  Ca19  1  0.99680559  0.93924028  0.52849405  1
  Ca  Ca20  1  0.95566705  0.34194619  0.09065061  1
  Ca  Ca21  1  0.36020383  0.73667702  0.64582056  1
  Ca  Ca22  1  0.48344738  0.40335392  0.32912740  1
  Ca  Ca23  1  0.02417290  0.74429959  0.74202709  1
  Ca  Ca24  1  0.27265110  0.36243561  0.08188490  1
  Ca  Ca25  1  0.70319824  0.54010314  0.10500966  1
  Ca  Ca26  1  0.71029349  0.76598799  0.22780854  1
  Ca  Ca27  1  0.79668528  0.08182030  0.08518950  1
  Ca  Ca28  1  0.76339507  0.48944744  0.81577561  1
  Ca  Ca29  1  0.98765450  0.41309263  0.57256355  1
  Ca  Ca30  1  0.57363904  0.07056641  0.94694080  1
  Ca  Ca31  1  0.06167424  0.37625389  0.32946019  1
  Ca  Ca32  1  0.45558349  0.26508852  0.76982732  1
  Ca  Ca33  1  0.24285431  0.87150963  0.13103118  1
  Ca  Ca34  1  0.64928545  0.72107382  0.84420793  1
  Ca  Ca35  1  0.14977683  0.62731129  0.19862470  1
  Ca  Ca36  1  0.83810900  0.11179737  0.42041191  1
  Ca  Ca37  1  0.05154833  0.16415827  0.65271311  1
  Ca  Ca38  1  0.98061749  0.86509230  0.23400285  1
  Ca  Ca39  1  0.79703941  0.94779808  0.77494718  1
  Ca  Ca40  1  0.70732034  0.28472765  0.24050631  1
  Ca  Ca41  1  0.87505364  0.27522656  0.89020406  1
  Ca  Ca42  1  0.57997891  0.59357924  0.46540117  1
  Ca  Ca43  1  0.37650645  0.15067953  0.15827583  1
  Ca  Ca44  1  0.03007602  0.03454702  0.92909482  1
  Ca  Ca45  1  0.28221086  0.71789927  0.92105054  1
  Ca  Ca46  1  0.78165117  0.70374335  0.58234010  1
  Ca  Ca47  1  0.57711920  0.32663528  0.00404818  1
  Ca  Ca48  1  0.04706203  0.12302350  0.19165266  1
  Ca  Ca49  1  0.85706760  0.55583334  0.33299367  1
  O  O50  1  0.38707354  0.09059872  0.35539623  1
  O  O51  1  0.07885240  0.76178476  0.09291795  1
  O  O52  1  0.16006394  0.03998698  0.53882667  1
  O  O53  1  0.84892423  0.65804457  0.86499893  1
  O  O54  1  0.32386126  0.50338017  0.95206508  1
  O  O55  1  0.76197311  0.37110705  0.06295610  1
  O  O56  1  0.97160652  0.99892504  0.34700427  1
  O  O57  1  0.45851667  0.70060598  0.79979065  1
  O  O58  1  0.97192305  0.89555449  0.82723098  1
  O  O59  1  0.98939348  0.42418354  0.90226367  1
  O  O60  1  0.64062961  0.32586941  0.80385881  1
  O  O61  1  0.44855684  0.38652283  0.15046834  1
  O  O62  1  0.19141045  0.23644480  0.23207885  1
  O  O63  1  0.31421091  0.89783514  0.86041733  1
  O  O64  1  0.14217900  0.31196439  0.50878089  1
  O  O65  1  0.47481759  0.73068917  0.48729715  1
  O  O66  1  0.77548770  0.10014204  0.88753811  1
  O  O67  1  0.54693469  0.85778327  0.27158624  1
  O  O68  1  0.53903240  0.10116502  0.74659251  1
  O  O69  1  0.68463342  0.83612983  0.66466306  1
  O  O70  1  0.64992697  0.06295523  0.41736446  1
  O  O71  1  0.42431584  0.93494007  0.58876019  1
  O  O72  1  0.39923320  0.22220920  0.96716207  1
  O  O73  1  0.91008494  0.28713280  0.70187491  1
  O  O74  1  0.57127716  0.66002666  0.16489451  1
  O  O75  1  0.17046642  0.10570289  0.79213667  1
  O  O76  1  0.87530385  0.06644883  0.61182246  1
  O  O77  1  0.62281645  0.88488172  0.91480811  1
  O  O78  1  0.34686602  0.41760040  0.72261660  1
  O  O79  1  0.67034152  0.45425429  0.33580315  1
  O  O80  1  0.22138712  0.79929322  0.32394593  1
  O  O81  1  0.14032257  0.01111619  0.07944336  1
  O  O82  1  0.14108886  0.63844538  0.83519328  1
  O  O83  1  0.87191539  0.37952503  0.44629566  1
  O  O84  1  0.09149561  0.46086447  0.14281477  1
  O  O85  1  0.68164947  0.53723987  0.63203632  1
  O  O86  1  0.96626256  0.17721603  0.02044117  1
  O  O87  1  0.60752699  0.53557376  0.93359320  1
  O  O88  1  0.33797881  0.71104161  0.10831766  1
  O  O89  1  0.96303019  0.75709567  0.56377028  1
  O  O90  1  0.39300274  0.53033445  0.41275790  1
  O  O91  1  0.05551070  0.55584727  0.38246340  1
  O  O92  1  0.48971889  0.29951288  0.51566875  1
  O  O93  1  0.61332897  0.16017041  0.12248169  1
  O  O94  1  0.19538146  0.80361093  0.60228170  1
  O  O95  1  0.84042126  0.90807534  0.12586137  1
  O  O96  1  0.75065275  0.70048219  0.39994777  1
  O  O97  1  0.88018968  0.22108957  0.25110986  1
  O  O98  1  0.41545444  0.99139424  0.08370000  1
  O  O99  1  0.85313302  0.63804631  0.14572202  1
