# generated using pymatgen
data_V2O5
_symmetry_space_group_name_H-M   'P 1'
_cell_length_a   12.55415622
_cell_length_b   11.98431383
_cell_length_c   12.69277054
_cell_angle_alpha   91.00975774
_cell_angle_beta   86.28722487
_cell_angle_gamma   97.59474907
_symmetry_Int_Tables_number   1
_chemical_formula_structural   V2O5
_chemical_formula_sum   'V30 O75'
_cell_volume   1888.86036210
_cell_formula_units_Z   15
loop_
 _symmetry_equiv_pos_site_id
 _symmetry_equiv_pos_as_xyz
  1  'x, y, z'
loop_
 _atom_site_type_symbol
 _atom_site_label
 _atom_site_symmetry_multiplicity
 _atom_site_fract_x
 _atom_site_fract_y
 _atom_site_fract_z
 _atom_site_occupancy
  V  V0  1  0.80168698  0.11599681  0.61445880  1
  V  V1  1  0.95641629  0.79572164  0.89191007  1
  V  V2  1  0.58858555  0.49187196  0.82145318  1
  V  V3  1  0.96884511  0.03423646  0.42496846  1
  V  V4  1  0.59176560  0.11253111  0.11554317  1
  V  V5  1  0.29636513  0.65789389  0.43835673  1
  V  V6  1  0.66767160  0.70730549  0.36095160  1
  V  V7  1  0.52132959  0.07253753  0.56021671  1
  V  V8  1  0.83391850  0.37413141  0.49857872  1
  V  V9  1  0.27959929  0.58385405  0.18104657  1
  V  V10  1  0.37649049  0.22662719  0.44873878  1
  V  V11  1  0.04186839  0.65941015  0.11384430  1
  V  V12  1  0.95599396  0.06342822  0.99550825  1
  V  V13  1  0.33354385  0.08668765  0.71144679  1
  V  V14  1  0.14751510  0.10286389  0.54308256  1
  V  V15  1  0.30629038  0.80190540  0.05331281  1
  V  V16  1  0.87170065  0.78481192  0.29340821  1
  V  V17  1  0.36763983  0.29143298  0.88560261  1
  V  V18  1  0.67822562  0.70930004  0.90583154  1
  V  V19  1  0.70296569  0.32721691  0.95547118  1
  V  V20  1  0.07610661  0.17931424  0.19254050  1
  V  V21  1  0.02214957  0.60124154  0.50745880  1
  V  V22  1  0.00957863  0.69725181  0.70481603  1
  V  V23  1  0.63641654  0.28031551  0.34764046  1
  V  V24  1  0.38465481  0.03841784  0.95856450  1
  V  V25  1  0.31134775  0.33205342  0.21629569  1
  V  V26  1  0.98912581  0.35810748  0.00371771  1
  V  V27  1  0.57061403  0.82592212  0.14414668  1
  V  V28  1  0.41583764  0.49010912  0.60795727  1
  V  V29  1  0.50986150  0.49603223  0.06275907  1
  O  O30  1  0.41667232  0.36197467  0.12590079  1
  O  O31  1  0.98820979  0.94106122  0.90965031  1
  O  O32  1  0.65968553  0.36786805  0.82933373  1
  O  O33  1  0.43097826  0.80324976  0.11844497  1
  O  O34  1  0.70738993  0.59504683  0.81063531  1
  O  O35  1  0.25739995  0.29432234  0.95995956  1
  O  O36  1  0.84889898  0.95669191  0.62019416  1
  O  O37  1  0.00270488  0.52290766  0.08542730  1
  O  O38  1  0.45425617  0.01795636  0.68664792  1
  O  O39  1  0.30376752  0.02708295  0.85029938  1
  O  O40  1  0.61940088  0.97143968  0.13922130  1
  O  O41  1  0.84465290  0.07009507  0.45118682  1
  O  O42  1  0.22150449  0.20644000  0.19600728  1
  O  O43  1  0.42551357  0.37688447  0.52746022  1
  O  O44  1  0.13014526  0.00612480  0.44504609  1
  O  O45  1  0.31099561  0.46242050  0.68893288  1
  O  O46  1  0.19817869  0.05155165  0.65844666  1
  O  O47  1  0.54700100  0.21172003  0.44783372  1
  O  O48  1  0.83820101  0.36105275  0.96862515  1
  O  O49  1  0.81132793  0.11599486  0.74129916  1
  O  O50  1  0.96154804  0.46066128  0.47031406  1
  O  O51  1  0.74770463  0.44609078  0.55771323  1
  O  O52  1  0.19756650  0.68893889  0.12841580  1
  O  O53  1  0.22430106  0.44479518  0.20997114  1
  O  O54  1  0.46279251  0.41980771  0.90065163  1
  O  O55  1  0.43860461  0.18745769  0.93441638  1
  O  O56  1  0.64280580  0.80294260  0.83216252  1
  O  O57  1  0.83991929  0.83903506  0.18652859  1
  O  O58  1  0.01864829  0.14543844  0.31738986  1
  O  O59  1  0.02940205  0.29296214  0.14132145  1
  O  O60  1  0.39328637  0.14249779  0.56718444  1
  O  O61  1  0.01550144  0.13212850  0.55204594  1
  O  O62  1  0.60593973  0.63705980  0.46056183  1
  O  O63  1  0.94457479  0.57811147  0.64457358  1
  O  O64  1  0.98389067  0.69875778  0.23170659  1
  O  O65  1  0.96040016  0.68398786  0.44039116  1
  O  O66  1  0.33940717  0.63618823  0.29369694  1
  O  O67  1  0.77383960  0.30973536  0.38251824  1
  O  O68  1  0.35949616  0.34187360  0.33731591  1
  O  O69  1  0.83361761  0.04265731  0.04648642  1
  O  O70  1  0.45928565  0.09902271  0.10899213  1
  O  O71  1  0.04521148  0.06508338  0.10738151  1
  O  O72  1  0.62972216  0.19328130  0.22569833  1
  O  O73  1  0.07620603  0.41204363  0.91417634  1
  O  O74  1  0.64468424  0.76499820  0.04818488  1
  O  O75  1  0.38025634  0.60555468  0.52719257  1
  O  O76  1  0.31712712  0.75734245  0.93368140  1
  O  O77  1  0.77337526  0.64594135  0.29465824  1
  O  O78  1  0.82616531  0.74731765  0.93423413  1
  O  O79  1  0.98074734  0.19805030  0.95000415  1
  O  O80  1  0.16049351  0.59144460  0.45037726  1
  O  O81  1  0.65748498  0.18489076  0.00068218  1
  O  O82  1  0.95817232  0.91059556  0.34738287  1
  O  O83  1  0.37100937  0.57101313  0.08217069  1
  O  O84  1  0.56039690  0.56736997  0.16156742  1
  O  O85  1  0.34319204  0.23489305  0.75696452  1
  O  O86  1  0.63761276  0.41163353  0.03688830  1
  O  O87  1  0.92007377  0.92275465  0.55173766  1
  O  O88  1  0.01627709  0.75341342  0.02068881  1
  O  O89  1  0.51075018  0.96737763  0.47981760  1
  O  O90  1  0.10143236  0.72702985  0.60170308  1
  O  O91  1  0.84966754  0.26115649  0.58271836  1
  O  O92  1  0.59452839  0.39705251  0.32055375  1
  O  O93  1  0.28566086  0.94180967  0.05250919  1
  O  O94  1  0.53191410  0.50333312  0.70289700  1
  O  O95  1  0.23428472  0.22385633  0.49577982  1
  O  O96  1  0.05083850  0.69181326  0.83468882  1
  O  O97  1  0.37029243  0.13088693  0.35626820  1
  O  O98  1  0.76167084  0.82075194  0.39750516  1
  O  O99  1  0.55926212  0.59720146  0.93589987  1
  O  O100  1  0.66127665  0.09976760  0.59600220  1
  O  O101  1  0.48389701  0.96843155  0.92657241  1
  O  O102  1  0.92866428  0.80162516  0.74952846  1
  O  O103  1  0.58135917  0.77629984  0.26864621  1
  O  O104  1  0.29970655  0.79124835  0.45592131  1
