# generated using pymatgen
data_BN
_symmetry_space_group_name_H-M   'P 1'
_cell_length_a   11.52731072
_cell_length_b   10.99309038
_cell_length_c   10.37006881
_cell_angle_alpha   91.27067093
_cell_angle_beta   81.60684069
_cell_angle_gamma   93.44757538
_symmetry_Int_Tables_number   1
_chemical_formula_structural   BN
_chemical_formula_sum   'B50 N50'
_cell_volume   1297.55655573
_cell_formula_units_Z   50
loop_
 _symmetry_equiv_pos_site_id
 _symmetry_equiv_pos_as_xyz
  1  'x, y, z'
loop_
 _atom_site_type_symbol
 _atom_site_label
 _atom_site_symmetry_multiplicity
 _atom_site_fract_x
 _atom_site_fract_y
 _atom_site_fract_z
 _atom_site_occupancy
  B  B0  1  0.19046700  0.32453200  0.50963700  1
  B  B1  1  0.80797700  0.86321300  0.18700500  1
  B  B2  1  0.61067000  0.82200000  0.07343300  1
  B  B3  1  0.98467000  0.88041300  0.28984500  1
  B  B4  1  0.05475600  0.02951900  0.09691100  1
  B  B5  1  0.55558700  0.05653100  0.49855700  1
  B  B6  1  0.33069000  0.45272900  0.32631200  1
  B  B7  1  0.73925900  0.20127700  0.70028400  1
  B  B8  1  0.09918400  0.06838100  0.84569900  1
  B  B9  1  0.50122300  0.50631300  0.65596800  1
  B  B10  1  0.79767000  0.64806000  0.54790100  1
  B  B11  1  0.03780700  0.00841100  0.62130700  1
  B  B12  1  0.44175200  0.59598400  0.46431800  1
  B  B13  1  0.43149700  0.68175300  0.69387100  1
  B  B14  1  0.50908400  0.12600700  0.69037100  1
  B  B15  1  0.73428800  0.84130400  0.62583400  1
  B  B16  1  0.79847500  0.99522900  0.80124600  1
  B  B17  1  0.53233200  0.61320800  0.95094000  1
  B  B18  1  0.13140400  0.39483100  0.30712900  1
  B  B19  1  0.12655600  0.40400000  0.14871600  1
  B  B20  1  0.66528500  0.66109100  0.45794000  1
  B  B21  1  0.91079600  0.17992000  0.88877600  1
  B  B22  1  0.76516300  0.31910900  0.80710700  1
  B  B23  1  0.44404000  0.90944900  0.69658100  1
  B  B24  1  0.58924700  0.17553300  0.88476300  1
  B  B25  1  0.21112300  0.44109200  0.68837000  1
  B  B26  1  0.98545700  0.30080800  0.45843600  1
  B  B27  1  0.08835900  0.55004600  0.73684200  1
  B  B28  1  0.88840400  0.07001500  0.25402100  1
  B  B29  1  0.04460400  0.17591000  0.64298400  1
  B  B30  1  0.28293800  0.80084300  0.58869500  1
  B  B31  1  0.70168700  0.07374200  0.18779200  1
  B  B32  1  0.67103500  0.46689500  0.99079900  1
  B  B33  1  0.33832600  0.26041400  0.66067600  1
  B  B34  1  0.60567300  0.05716800  0.07837900  1
  B  B35  1  0.09325400  0.90178500  0.51126900  1
  B  B36  1  0.12127000  0.74838100  0.42572100  1
  B  B37  1  0.88238400  0.61463300  0.74112700  1
  B  B38  1  0.00258700  0.54056200  0.42173700  1
  B  B39  1  0.65326700  0.59110500  0.73153200  1
  B  B40  1  0.78349900  0.54900500  0.40716400  1
  B  B41  1  0.84948400  0.15147500  0.57719800  1
  B  B42  1  0.21180100  0.57275100  0.48512600  1
  B  B43  1  0.67543600  0.66958000  0.10270500  1
  B  B44  1  0.75502200  0.50033600  0.19756300  1
  B  B45  1  0.50075800  0.92781500  0.93334000  1
  B  B46  1  0.06956800  0.36884100  0.90945000  1
  B  B47  1  0.71360700  0.15535900  0.32564300  1
  B  B48  1  0.52670100  0.65537400  0.79973300  1
  B  B49  1  0.47242500  0.45299000  0.10565600  1
  N  N50  1  0.71131300  0.79381600  0.13713700  1
  N  N51  1  0.13134100  0.44996600  0.80696100  1
  N  N52  1  0.34362800  0.00497300  0.28745900  1
  N  N53  1  0.76448000  0.46139400  0.31113700  1
  N  N54  1  0.41835900  0.57348500  0.61386500  1
  N  N55  1  0.79979400  0.99879800  0.19147500  1
  N  N56  1  0.09293400  0.39045100  0.03831800  1
  N  N57  1  0.57162000  0.69757900  0.04308600  1
  N  N58  1  0.75469700  0.90920000  0.72709800  1
  N  N59  1  0.62051900  0.13635600  0.42829100  1
  N  N60  1  0.45212200  0.91926600  0.82995700  1
  N  N61  1  0.22183800  0.71876800  0.94329300  1
  N  N62  1  0.94495400  0.08791400  0.61869400  1
  N  N63  1  0.73933000  0.39239900  0.90328200  1
  N  N64  1  0.54273200  0.48063700  0.98876100  1
  N  N65  1  0.01569300  0.41262400  0.38411000  1
  N  N66  1  0.55533000  0.64005200  0.42378200  1
  N  N67  1  0.19219700  0.81883100  0.52481100  1
  N  N68  1  0.99064400  0.26949600  0.87930300  1
  N  N69  1  0.98920000  0.61650000  0.76341000  1
  N  N70  1  0.83580200  0.08157500  0.87899200  1
  N  N71  1  0.37929300  0.79517200  0.65150100  1
  N  N72  1  0.21433600  0.74160700  0.04910200  1
  N  N73  1  0.72851800  0.76277900  0.52451700  1
  N  N74  1  0.26609000  0.33740200  0.61569300  1
  N  N75  1  0.00989000  0.02214700  0.22601300  1
  N  N76  1  0.22519400  0.36703400  0.37750700  1
  N  N77  1  0.77900500  0.61950700  0.69331300  1
  N  N78  1  0.06037600  0.85368200  0.39073800  1
  N  N79  1  0.33178400  0.56170300  0.40946600  1
  N  N80  1  0.88973400  0.21272600  0.45097200  1
  N  N81  1  0.56273400  0.93286800  0.03953200  1
  N  N82  1  0.61600100  0.16816600  0.74833900  1
  N  N83  1  0.57045700  0.15401800  0.00756400  1
  N  N84  1  0.07154200  0.27379200  0.55061500  1
  N  N85  1  0.09250900  0.03657800  0.96922900  1
  N  N86  1  0.41360400  0.19699000  0.70391900  1
  N  N87  1  0.40518900  0.42802300  0.21222000  1
  N  N88  1  0.88793500  0.58767700  0.45897400  1
  N  N89  1  0.18274300  0.54843900  0.62064900  1
  N  N90  1  0.30114400  0.16678800  0.06239600  1
  N  N91  1  0.59801300  0.47654600  0.69720900  1
  N  N92  1  0.72317000  0.54921100  0.08736900  1
  N  N93  1  0.89602000  0.81161200  0.24713000  1
  N  N94  1  0.11359400  0.61998100  0.41914100  1
  N  N95  1  0.30290300  0.06850700  0.36348000  1
  N  N96  1  0.10957400  0.08496600  0.71232200  1
  N  N97  1  0.31518800  0.24688200  0.99713000  1
  N  N98  1  0.84037900  0.17284200  0.33627200  1
  N  N99  1  0.49817300  0.00666000  0.61322700  1
