# generated using pymatgen
data_Si3N4
_symmetry_space_group_name_H-M   'P 1'
_cell_length_a   10.70520786
_cell_length_b   10.98399501
_cell_length_c   10.42801463
_cell_angle_alpha   87.22928824
_cell_angle_beta   90.10721833
_cell_angle_gamma   91.19420939
_symmetry_Int_Tables_number   1
_chemical_formula_structural   Si3N4
_chemical_formula_sum   'Si45 N60'
_cell_volume   1224.48808240
_cell_formula_units_Z   15
loop_
 _symmetry_equiv_pos_site_id
 _symmetry_equiv_pos_as_xyz
  1  'x, y, z'
loop_
 _atom_site_type_symbol
 _atom_site_label
 _atom_site_symmetry_multiplicity
 _atom_site_fract_x
 _atom_site_fract_y
 _atom_site_fract_z
 _atom_site_occupancy
  Si  Si0  1  0.26211000  0.98616800  0.91299400  1
  Si  Si1  1  0.51796400  0.58424600  0.18828700  1
  Si  Si2  1  0.87536300  0.84249700  0.74301600  1
  Si  Si3  1  0.01690900  0.42138200  0.41290700  1
  Si  Si4  1  0.37734100  0.36334600  0.64065000  1
  Si  Si5  1  0.47318100  0.61890300  0.64159900  1
  Si  Si6  1  0.14506400  0.61671300  0.09660000  1
  Si  Si7  1  0.02091100  0.05140200  0.62462100  1
  Si  Si8  1  0.30885300  0.58480100  0.90998700  1
  Si  Si9  1  0.06164700  0.15184100  0.36060700  1
  Si  Si10  1  0.32729100  0.71372300  0.15419300  1
  Si  Si11  1  0.53182100  0.60632100  0.91149100  1
  Si  Si12  1  0.73715300  0.32492700  0.96339000  1
  Si  Si13  1  0.57062000  0.34895000  0.19242800  1
  Si  Si14  1  0.66075100  0.44475400  0.57840200  1
  Si  Si15  1  0.34822600  0.27442600  0.34791700  1
  Si  Si16  1  0.17820300  0.40569900  0.15337100  1
  Si  Si17  1  0.51046500  0.95480300  0.55807500  1
  Si  Si18  1  0.08240000  0.73508700  0.33458200  1
  Si  Si19  1  0.89628800  0.91255900  0.97154900  1
  Si  Si20  1  0.94863400  0.89430700  0.44833800  1
  Si  Si21  1  0.17801400  0.33171000  0.89646900  1
  Si  Si22  1  0.72462400  0.80225600  0.24446700  1
  Si  Si23  1  0.23972600  0.15920500  0.78232700  1
  Si  Si24  1  0.62742200  0.87461500  0.84538800  1
  Si  Si25  1  0.18498700  0.52199400  0.63854800  1
  Si  Si26  1  0.82939200  0.59902600  0.39799300  1
  Si  Si27  1  0.83420200  0.19090600  0.20534600  1
  Si  Si28  1  0.63042500  0.21851800  0.44376800  1
  Si  Si29  1  0.86739800  0.20661400  0.51976400  1
  Si  Si30  1  0.70653200  0.02614500  0.36237700  1
  Si  Si31  1  0.11594800  0.75619100  0.82710500  1
  Si  Si32  1  0.07636200  0.12319300  0.07182000  1
  Si  Si33  1  0.28130200  0.12034600  0.52384600  1
  Si  Si34  1  0.81283200  0.47727800  0.17250200  1
  Si  Si35  1  0.78902200  0.58711300  0.87836400  1
  Si  Si36  1  0.35602200  0.97572200  0.14220300  1
  Si  Si37  1  0.62874300  0.75244700  0.60157800  1
  Si  Si38  1  0.84388900  0.10392700  0.83376200  1
  Si  Si39  1  0.97994500  0.62278300  0.61291200  1
  Si  Si40  1  0.23299600  0.57342900  0.35542800  1
  Si  Si41  1  0.46177300  0.38472900  0.96731000  1
  Si  Si42  1  0.57119800  0.14467500  0.95234600  1
  Si  Si43  1  0.45354700  0.75155100  0.36436600  1
  Si  Si44  1  0.89120700  0.70326600  0.12178400  1
  N  N45  1  0.78563400  0.94594900  0.84099700  1
  N  N46  1  0.58451100  0.88083400  0.69010200  1
  N  N47  1  0.28512500  0.57172100  0.51122500  1
  N  N48  1  0.34796100  0.84318000  0.24053300  1
  N  N49  1  0.96224200  0.06344400  0.95659500  1
  N  N50  1  0.69906700  0.07827100  0.18961000  1
  N  N51  1  0.41163900  0.96506900  0.98109200  1
  N  N52  1  0.38138200  0.61351600  0.28407300  1
  N  N53  1  0.96237100  0.79868400  0.88014200  1
  N  N54  1  0.64979700  0.48592100  0.19407000  1
  N  N55  1  0.12208000  0.28439800  0.04822600  1
  N  N56  1  0.59042900  0.29350300  0.04004400  1
  N  N57  1  0.04101500  0.70353100  0.17240400  1
  N  N58  1  0.53604800  0.98294700  0.92773200  1
  N  N59  1  0.52224000  0.27088200  0.33115100  1
  N  N60  1  0.84827500  0.63476600  0.71614900  1
  N  N61  1  0.74302900  0.44197400  0.85497200  1
  N  N62  1  0.16632700  0.64165100  0.93483100  1
  N  N63  1  0.66001300  0.70324300  0.89337200  1
  N  N64  1  0.43540500  0.41965800  0.14492300  1
  N  N65  1  0.41180800  0.63293900  0.79339900  1
  N  N66  1  0.79138200  0.89788700  0.36423300  1
  N  N67  1  0.37929200  0.66974900  0.51607900  1
  N  N68  1  0.57419700  0.73183900  0.24314700  1
  N  N69  1  0.72642300  0.18074600  0.89926400  1
  N  N70  1  0.71690000  0.30369500  0.55053700  1
  N  N71  1  0.97107900  0.05959900  0.46548700  1
  N  N72  1  0.94858600  0.69440400  0.46133000  1
  N  N73  1  0.20972100  0.02779200  0.07333400  1
  N  N74  1  0.30153500  0.42884400  0.93353600  1
  N  N75  1  0.38348000  0.24253800  0.76089000  1
  N  N76  1  0.58461300  0.08017300  0.13478800  1
  N  N77  1  0.99882800  0.27238700  0.44509500  1
  N  N78  1  0.89994800  0.14475400  0.68228600  1
  N  N79  1  0.49689800  0.03868700  0.20879500  1
  N  N80  1  0.81837500  0.84327200  0.09746400  1
  N  N81  1  0.16265400  0.12569600  0.64175000  1
  N  N82  1  0.77919100  0.17891000  0.36815200  1
  N  N83  1  0.45554200  0.24742400  0.87651100  1
  N  N84  1  0.20180400  0.88168000  0.82571400  1
  N  N85  1  0.55107200  0.83080900  0.46663500  1
  N  N86  1  0.42649900  0.64735400  0.03663600  1
  N  N87  1  0.80326700  0.67166300  0.25613800  1
  N  N88  1  0.97189100  0.89879600  0.62716900  1
  N  N89  1  0.88870400  0.47217500  0.32472400  1
  N  N90  1  0.07811000  0.88236100  0.35942000  1
  N  N91  1  0.35070600  0.27395100  0.51401500  1
  N  N92  1  0.50911000  0.45924200  0.63067900  1
  N  N93  1  0.32879600  0.36603300  0.20696900  1
  N  N94  1  0.04060800  0.48582600  0.56142500  1
  N  N95  1  0.22614200  0.15542300  0.36107700  1
  N  N96  1  0.77932400  0.74321300  0.66900100  1
  N  N97  1  0.98658600  0.13628600  0.21111500  1
  N  N98  1  0.36868000  0.00494400  0.56039400  1
  N  N99  1  0.14863500  0.43950400  0.31986500  1
  N  N100  1  0.11337700  0.65774500  0.69653000  1
  N  N101  1  0.70761100  0.57144200  0.49891200  1
  N  N102  1  0.82280300  0.32601300  0.11298900  1
  N  N103  1  0.86137300  0.57652300  0.03489800  1
  N  N104  1  0.61473800  0.06625800  0.48823700  1
