# generated using pymatgen
data_Al2O3
_symmetry_space_group_name_H-M   'P 1'
_cell_length_a   10.26337433
_cell_length_b   10.84910447
_cell_length_c   10.12835022
_cell_angle_alpha   86.46946461
_cell_angle_beta   91.11685014
_cell_angle_gamma   89.04250114
_symmetry_Int_Tables_number   1
_chemical_formula_structural   Al2O3
_chemical_formula_sum   'Al40 O60'
_cell_volume   1125.24027961
_cell_formula_units_Z   20
loop_
 _symmetry_equiv_pos_site_id
 _symmetry_equiv_pos_as_xyz
  1  'x, y, z'
loop_
 _atom_site_type_symbol
 _atom_site_label
 _atom_site_symmetry_multiplicity
 _atom_site_fract_x
 _atom_site_fract_y
 _atom_site_fract_z
 _atom_site_occupancy
  Al  Al0  1  0.94421800  0.28136200  0.60058300  1
  Al  Al1  1  0.67675100  0.40620500  0.61318700  1
  Al  Al2  1  0.02734200  0.73726800  0.69777600  1
  Al  Al3  1  0.88806900  0.48668300  0.80528800  1
  Al  Al4  1  0.68411000  0.64409900  0.44048100  1
  Al  Al5  1  0.15150900  0.53938200  0.84630000  1
  Al  Al6  1  0.35110200  0.39612200  0.31042700  1
  Al  Al7  1  0.05934300  0.22590700  0.88548100  1
  Al  Al8  1  0.32860900  0.36576000  0.98739300  1
  Al  Al9  1  0.75987300  0.77798700  0.71980200  1
  Al  Al10  1  0.34460300  0.70358800  0.25121100  1
  Al  Al11  1  0.43260700  0.14160000  0.81601600  1
  Al  Al12  1  0.60417000  0.15050000  0.30300700  1
  Al  Al13  1  0.63746300  0.09159200  0.64146100  1
  Al  Al14  1  0.43001400  0.63452900  0.79356800  1
  Al  Al15  1  0.95619100  0.68313900  0.96306500  1
  Al  Al16  1  0.21561900  0.09003700  0.64488900  1
  Al  Al17  1  0.11384200  0.88357600  0.16983800  1
  Al  Al18  1  0.21814500  0.97691300  0.89186400  1
  Al  Al19  1  0.57306100  0.85715800  0.51410400  1
  Al  Al20  1  0.45786800  0.25286300  0.51266100  1
  Al  Al21  1  0.13716800  0.72193600  0.40111900  1
  Al  Al22  1  0.07905700  0.51204700  0.51490400  1
  Al  Al23  1  0.04074400  0.05260400  0.42965000  1
  Al  Al24  1  0.33354100  0.97407200  0.37357400  1
  Al  Al25  1  0.92272100  0.02219300  0.68298200  1
  Al  Al26  1  0.83451100  0.95099700  0.34518100  1
  Al  Al27  1  0.64774200  0.30515300  0.08057400  1
  Al  Al28  1  0.77946900  0.14497600  0.86125200  1
  Al  Al29  1  0.41015100  0.56191500  0.50928100  1
  Al  Al30  1  0.70366000  0.41047200  0.35477900  1
  Al  Al31  1  0.51339600  0.85262300  0.97778600  1
  Al  Al32  1  0.58502000  0.87545400  0.21396100  1
  Al  Al33  1  0.55152300  0.39720000  0.82416200  1
  Al  Al34  1  0.18645400  0.18535000  0.21243500  1
  Al  Al35  1  0.88537900  0.21431900  0.18031000  1
  Al  Al36  1  0.40346800  0.08609400  0.11603100  1
  Al  Al37  1  0.08133700  0.41105600  0.08292500  1
  Al  Al38  1  0.92016900  0.59430300  0.24811800  1
  Al  Al39  1  0.28449000  0.83652000  0.59183400  1
  O  O40  1  0.31387400  0.22713500  0.33011400  1
  O  O41  1  0.35045300  0.69403100  0.65032200  1
  O  O42  1  0.83252300  0.65808200  0.83577100  1
  O  O43  1  0.52522500  0.71270000  0.45386800  1
  O  O44  1  0.95316200  0.32655100  0.77243400  1
  O  O45  1  0.80406900  0.35400300  0.50870900  1
  O  O46  1  0.06925000  0.35740500  0.52112600  1
  O  O47  1  0.04240500  0.12929000  0.60663200  1
  O  O48  1  0.54618000  0.18064900  0.13090000  1
  O  O49  1  0.99455700  0.45580100  0.21503400  1
  O  O50  1  0.42173600  0.29206500  0.86216100  1
  O  O51  1  0.20518600  0.02493900  0.47835700  1
  O  O52  1  0.57942100  0.11191500  0.47619000  1
  O  O53  1  0.03174700  0.55902000  0.68812100  1
  O  O54  1  0.11253000  0.79369600  0.55907000  1
  O  O55  1  0.55483000  0.31173200  0.34428300  1
  O  O56  1  0.42239800  0.93044400  0.53076800  1
  O  O57  1  0.29005000  0.20306000  0.06574000  1
  O  O58  1  0.72827500  0.42662700  0.77910100  1
  O  O59  1  0.22525700  0.58552100  0.47344800  1
  O  O60  1  0.48167100  0.00155400  0.26871700  1
  O  O61  1  0.11548500  0.91263000  0.00339300  1
  O  O62  1  0.23910300  0.01277900  0.21365100  1
  O  O63  1  0.79756200  0.14350800  0.67467000  1
  O  O64  1  0.60606900  0.09604100  0.82040000  1
  O  O65  1  0.69107400  0.85762000  0.35792800  1
  O  O66  1  0.61048300  0.49805700  0.48064700  1
  O  O67  1  0.76471900  0.69346900  0.57961200  1
  O  O68  1  0.29265900  0.80986900  0.38616600  1
  O  O69  1  0.39560400  0.99815500  0.95200900  1
  O  O70  1  0.64763700  0.91051600  0.05992500  1
  O  O71  1  0.55586300  0.42205000  0.99803900  1
  O  O72  1  0.76220800  0.33214000  0.21417900  1
  O  O73  1  0.91379300  0.86066200  0.73219800  1
  O  O74  1  0.99186100  0.62928200  0.40534500  1
  O  O75  1  0.03015800  0.24654400  0.06889500  1
  O  O76  1  0.00003800  0.91912400  0.29599600  1
  O  O77  1  0.40366200  0.55644100  0.30320200  1
  O  O78  1  0.16480800  0.37288500  0.90791000  1
  O  O79  1  0.75584800  0.57110600  0.30453000  1
  O  O80  1  0.32023700  0.54321500  0.89484700  1
  O  O81  1  0.99243200  0.51412600  0.95350000  1
  O  O82  1  0.50443100  0.51581100  0.70517800  1
  O  O83  1  0.77266700  0.09259700  0.26464100  1
  O  O84  1  0.37618000  0.15012400  0.64428900  1
  O  O85  1  0.17154400  0.72750800  0.21391400  1
  O  O86  1  0.45256400  0.78715300  0.14393500  1
  O  O87  1  0.89380300  0.99259300  0.50000900  1
  O  O88  1  0.25429400  0.41454200  0.14615500  1
  O  O89  1  0.94448900  0.08637600  0.85887800  1
  O  O90  1  0.10024200  0.70422500  0.85883300  1
  O  O91  1  0.23751900  0.93220900  0.72777600  1
  O  O92  1  0.77738200  0.22484200  0.00541900  1
  O  O93  1  0.66224200  0.91276600  0.65114600  1
  O  O94  1  0.19727900  0.13465900  0.82484900  1
  O  O95  1  0.92043700  0.71421600  0.12162000  1
  O  O96  1  0.52747500  0.75013000  0.85650500  1
  O  O97  1  0.57607200  0.28012200  0.64803700  1
  O  O98  1  0.37088500  0.39607500  0.49277200  1
  O  O99  1  0.02749000  0.17001800  0.29838300  1
