# generated using pymatgen
data_V2O5
_symmetry_space_group_name_H-M   'P 1'
_cell_length_a   12.43938620
_cell_length_b   12.92360499
_cell_length_c   12.08848097
_cell_angle_alpha   92.84918619
_cell_angle_beta   95.87938547
_cell_angle_gamma   89.39223676
_symmetry_Int_Tables_number   1
_chemical_formula_structural   V2O5
_chemical_formula_sum   'V30 O75'
_cell_volume   1930.72286628
_cell_formula_units_Z   15
loop_
 _symmetry_equiv_pos_site_id
 _symmetry_equiv_pos_as_xyz
  1  'x, y, z'
loop_
 _atom_site_type_symbol
 _atom_site_label
 _atom_site_symmetry_multiplicity
 _atom_site_fract_x
 _atom_site_fract_y
 _atom_site_fract_z
 _atom_site_occupancy
  V  V0  1  0.77821606  0.86753165  0.02581334  1
  V  V1  1  0.80499748  0.83617266  0.30412467  1
  V  V2  1  0.88450595  0.65447380  0.71447095  1
  V  V3  1  0.48821313  0.61130718  0.06097399  1
  V  V4  1  0.77877586  0.03051962  0.65371470  1
  V  V5  1  0.41227759  0.20699508  0.76089549  1
  V  V6  1  0.31660485  0.65755804  0.86435763  1
  V  V7  1  0.41164322  0.81490188  0.46783037  1
  V  V8  1  0.84535374  0.07482658  0.18581511  1
  V  V9  1  0.33877132  0.76001031  0.23687235  1
  V  V10  1  0.25964823  0.01484805  0.16391181  1
  V  V11  1  0.32791436  0.59136057  0.58765143  1
  V  V12  1  0.74322444  0.62589803  0.44395636  1
  V  V13  1  0.06324753  0.78591813  0.80778769  1
  V  V14  1  0.03261122  0.95557456  0.04129651  1
  V  V15  1  0.97556870  0.88408651  0.55750096  1
  V  V16  1  0.18769582  0.31936674  0.65413813  1
  V  V17  1  0.09404631  0.44053041  0.19746001  1
  V  V18  1  0.01986125  0.43797189  0.81739855  1
  V  V19  1  0.63671698  0.20216384  0.03415149  1
  V  V20  1  0.72524582  0.24479018  0.82574542  1
  V  V21  1  0.50841764  0.00254889  0.59326154  1
  V  V22  1  0.63138508  0.40982852  0.27328599  1
  V  V23  1  0.24385835  0.45124153  0.97991696  1
  V  V24  1  0.01846740  0.38245027  0.46100419  1
  V  V25  1  0.37005662  0.48648855  0.33855875  1
  V  V26  1  0.80101369  0.23819639  0.40756371  1
  V  V27  1  0.41711888  0.07610095  0.00721206  1
  V  V28  1  0.64960213  0.68905422  0.85837702  1
  V  V29  1  0.82510164  0.40522788  0.06531618  1
  O  O30  1  0.29073917  0.79464054  0.38081807  1
  O  O31  1  0.83831317  0.62552643  0.56501130  1
  O  O32  1  0.29003306  0.35616188  0.90751811  1
  O  O33  1  0.52102796  0.85585603  0.61909868  1
  O  O34  1  0.08059939  0.33288746  0.74443571  1
  O  O35  1  0.49023181  0.41178635  0.30005019  1
  O  O36  1  0.18130892  0.39534650  0.08429148  1
  O  O37  1  0.40719800  0.74264009  0.90897874  1
  O  O38  1  0.88043722  0.34404441  0.47148654  1
  O  O39  1  0.16415109  0.02002892  0.04195381  1
  O  O40  1  0.47428469  0.12396365  0.65981754  1
  O  O41  1  0.06096747  0.87944518  0.14216623  1
  O  O42  1  0.75069596  0.99003937  0.06622239  1
  O  O43  1  0.55826496  0.69438281  0.75581923  1
  O  O44  1  0.38533065  0.15744880  0.89162517  1
  O  O45  1  0.98221412  0.70128296  0.85901307  1
  O  O46  1  0.69462733  0.33565247  0.74116015  1
  O  O47  1  0.34814539  0.56378302  0.98652395  1
  O  O48  1  0.47445049  0.92189298  0.70383757  1
  O  O49  1  0.49183269  0.78995862  0.37087758  1
  O  O50  1  0.77143514  0.64931197  0.78763239  1
  O  O51  1  0.13472920  0.50658722  0.89452024  1
  O  O52  1  0.45884326  0.32315631  0.76496106  1
  O  O53  1  0.37032108  0.49240022  0.48652872  1
  O  O54  1  0.56111051  0.29326029  0.08602533  1
  O  O55  1  0.73934546  0.17449434  0.13929732  1
  O  O56  1  0.90620688  0.00077309  0.59603245  1
  O  O57  1  0.64643578  0.02300035  0.57092748  1
  O  O58  1  0.25411384  0.42767837  0.65133671  1
  O  O59  1  0.55964600  0.08340676  0.03734531  1
  O  O60  1  0.76420559  0.29300117  0.97185762  1
  O  O61  1  0.19470498  0.72615016  0.82067081  1
  O  O62  1  0.38378608  0.95721852  0.97299774  1
  O  O63  1  0.95016516  0.52671326  0.73163707  1
  O  O64  1  0.67830579  0.81543237  0.91546214  1
  O  O65  1  0.63936851  0.68448010  0.48654859  1
  O  O66  1  0.79411610  0.69571260  0.33983539  1
  O  O67  1  0.80707668  0.51536489  0.00856869  1
  O  O68  1  0.05066213  0.39143762  0.32479390  1
  O  O69  1  0.10115916  0.91248915  0.55374262  1
  O  O70  1  0.90129050  0.87833946  0.97774395  1
  O  O71  1  0.11574015  0.28984155  0.52200943  1
  O  O72  1  0.07536826  0.56303750  0.19433235  1
  O  O73  1  0.96187359  0.39168697  0.12426081  1
  O  O74  1  0.97563594  0.78189817  0.67121852  1
  O  O75  1  0.45519911  0.71699800  0.14223604  1
  O  O76  1  0.59206325  0.62388489  0.96832369  1
  O  O77  1  0.27608475  0.21551098  0.69012807  1
  O  O78  1  0.79281680  0.13914361  0.75391358  1
  O  O79  1  0.67351761  0.29613065  0.33962412  1
  O  O80  1  0.40122471  0.69822950  0.55200598  1
  O  O81  1  0.20449896  0.62607098  0.55612451  1
  O  O82  1  0.37843813  0.60893297  0.30081012  1
  O  O83  1  0.95607856  0.06228259  0.09299597  1
  O  O84  1  0.68881604  0.50182892  0.36884025  1
  O  O85  1  0.23622829  0.70882543  0.16247616  1
  O  O86  1  0.24788022  0.43807273  0.28231748  1
  O  O87  1  0.03291518  0.49390547  0.52620709  1
  O  O88  1  0.60789799  0.19128923  0.86969626  1
  O  O89  1  0.41564079  0.96639850  0.48052299  1
  O  O90  1  0.91562690  0.84277400  0.42714119  1
  O  O91  1  0.32838551  0.89211826  0.19771877  1
  O  O92  1  0.53941330  0.52079295  0.14257739  1
  O  O93  1  0.77130930  0.93015823  0.72768373  1
  O  O94  1  0.93987173  0.38444135  0.89665210  1
  O  O95  1  0.73481353  0.41051944  0.17377204  1
  O  O96  1  0.35747383  0.11060894  0.13403041  1
  O  O97  1  0.20271560  0.06019777  0.27011849  1
  O  O98  1  0.69320337  0.88178337  0.34153867  1
  O  O99  1  0.87611906  0.17443499  0.31272293  1
  O  O100  1  0.77643841  0.16092407  0.50566101  1
  O  O101  1  0.78816052  0.79988876  0.15024504  1
  O  O102  1  0.86138341  0.96711520  0.26545214  1
  O  O103  1  0.06818708  0.89888342  0.88361968  1
  O  O104  1  0.35617746  0.59562899  0.74516560  1
