# generated using pymatgen
data_Ti
_symmetry_space_group_name_H-M   'P 1'
_cell_length_a   12.49990441
_cell_length_b   11.45705503
_cell_length_c   12.33946894
_cell_angle_alpha   93.00327260
_cell_angle_beta   87.91287175
_cell_angle_gamma   88.32714176
_symmetry_Int_Tables_number   1
_chemical_formula_structural   Ti
_chemical_formula_sum   Ti100
_cell_volume   1762.70672182
_cell_formula_units_Z   100
loop_
 _symmetry_equiv_pos_site_id
 _symmetry_equiv_pos_as_xyz
  1  'x, y, z'
loop_
 _atom_site_type_symbol
 _atom_site_label
 _atom_site_symmetry_multiplicity
 _atom_site_fract_x
 _atom_site_fract_y
 _atom_site_fract_z
 _atom_site_occupancy
  Ti  Ti0  1  0.99081943  0.96553572  0.72859043  1
  Ti  Ti1  1  0.58788243  0.92005664  0.18634622  1
  Ti  Ti2  1  0.40817869  0.61565645  0.31591571  1
  Ti  Ti3  1  0.26624178  0.50417370  0.42342374  1
  Ti  Ti4  1  0.52628855  0.21800845  0.64103139  1
  Ti  Ti5  1  0.60376805  0.70835337  0.31882142  1
  Ti  Ti6  1  0.28635457  0.77274941  0.81330812  1
  Ti  Ti7  1  0.16538675  0.46478884  0.75214215  1
  Ti  Ti8  1  0.94053249  0.61223507  0.92822827  1
  Ti  Ti9  1  0.79949632  0.82094021  0.22658298  1
  Ti  Ti10  1  0.02330549  0.99301768  0.08863515  1
  Ti  Ti11  1  0.88153196  0.49781127  0.50623099  1
  Ti  Ti12  1  0.07384678  0.85872404  0.52030139  1
  Ti  Ti13  1  0.62123275  0.46696684  0.42749145  1
  Ti  Ti14  1  0.27422442  0.78278250  0.49802333  1
  Ti  Ti15  1  0.58898340  0.23879928  0.40986030  1
  Ti  Ti16  1  0.89388156  0.05791749  0.25883938  1
  Ti  Ti17  1  0.25548765  0.18009624  0.92474748  1
  Ti  Ti18  1  0.42018158  0.78517297  0.97415639  1
  Ti  Ti19  1  0.88426624  0.25683717  0.41520678  1
  Ti  Ti20  1  0.71704500  0.34625219  0.24185580  1
  Ti  Ti21  1  0.62863961  0.60210388  0.91419008  1
  Ti  Ti22  1  0.59200175  0.98861059  0.72772829  1
  Ti  Ti23  1  0.21979393  0.07626584  0.14301922  1
  Ti  Ti24  1  0.01913334  0.14155504  0.93811976  1
  Ti  Ti25  1  0.68749084  0.58153626  0.64641472  1
  Ti  Ti26  1  0.56471448  0.20530599  0.16368749  1
  Ti  Ti27  1  0.75261046  0.87940853  0.41417708  1
  Ti  Ti28  1  0.43629007  0.48366725  0.96664185  1
  Ti  Ti29  1  0.28305238  0.60516981  0.63470709  1
  Ti  Ti30  1  0.17060203  0.62784655  0.92716066  1
  Ti  Ti31  1  0.89022628  0.73613117  0.54808043  1
  Ti  Ti32  1  0.70733485  0.40582099  0.01532109  1
  Ti  Ti33  1  0.20190216  0.40610903  0.98689543  1
  Ti  Ti34  1  0.44755653  0.58133610  0.76709092  1
  Ti  Ti35  1  0.08185337  0.28221071  0.14631106  1
  Ti  Ti36  1  0.44191214  0.36896763  0.32775552  1
  Ti  Ti37  1  0.76225074  0.63009599  0.39804478  1
  Ti  Ti38  1  0.43605448  0.80537402  0.65211284  1
  Ti  Ti39  1  0.44365208  0.07605483  0.29166181  1
  Ti  Ti40  1  0.54022024  0.46729720  0.16485819  1
  Ti  Ti41  1  0.25383625  0.24403023  0.31372206  1
  Ti  Ti42  1  0.69331631  0.07833746  0.29533923  1
  Ti  Ti43  1  0.76788071  0.58693924  0.16925875  1
  Ti  Ti44  1  0.42052095  0.04039453  0.05681342  1
  Ti  Ti45  1  0.55697460  0.69436201  0.10791280  1
  Ti  Ti46  1  0.79729195  0.93898323  0.63410828  1
  Ti  Ti47  1  0.37616199  0.83341377  0.20997005  1
  Ti  Ti48  1  0.47654329  0.19011384  0.87864473  1
  Ti  Ti49  1  0.48427240  0.62826837  0.52286299  1
  Ti  Ti50  1  0.96646505  0.58012401  0.71063219  1
  Ti  Ti51  1  0.81497759  0.00744158  0.86452316  1
  Ti  Ti52  1  0.42868422  0.41109724  0.57028209  1
  Ti  Ti53  1  0.18613477  0.96434431  0.92024415  1
  Ti  Ti54  1  0.79147966  0.99258392  0.07683747  1
  Ti  Ti55  1  0.76413657  0.76198988  0.00739772  1
  Ti  Ti56  1  0.07698160  0.13051225  0.32554015  1
  Ti  Ti57  1  0.08315435  0.40312837  0.36771512  1
  Ti  Ti58  1  0.84823408  0.25606992  0.86083672  1
  Ti  Ti59  1  0.45409875  0.85593258  0.41143550  1
  Ti  Ti60  1  0.13758551  0.11473145  0.54153054  1
  Ti  Ti61  1  0.58934571  0.76821698  0.78660705  1
  Ti  Ti62  1  0.08528729  0.59371158  0.52483852  1
  Ti  Ti63  1  0.81614937  0.75889403  0.78227686  1
  Ti  Ti64  1  0.20716559  0.95711724  0.69600790  1
  Ti  Ti65  1  0.85717463  0.21842227  0.09403086  1
  Ti  Ti66  1  0.19664176  0.34907023  0.55403968  1
  Ti  Ti67  1  0.19387983  0.82497156  0.08882378  1
  Ti  Ti68  1  0.25446591  0.98206637  0.36516963  1
  Ti  Ti69  1  0.37321126  0.27607721  0.08645650  1
  Ti  Ti70  1  0.79983936  0.48520161  0.80165267  1
  Ti  Ti71  1  0.40074607  0.96915005  0.83177194  1
  Ti  Ti72  1  0.73653239  0.34865358  0.61054003  1
  Ti  Ti73  1  0.69920823  0.17461384  0.74628778  1
  Ti  Ti74  1  0.31987562  0.62863554  0.10694526  1
  Ti  Ti75  1  0.64324902  0.78510929  0.56086287  1
  Ti  Ti76  1  0.19964492  0.69276359  0.29768896  1
  Ti  Ti77  1  0.01583371  0.38211873  0.88050663  1
  Ti  Ti78  1  0.97089896  0.75735453  0.11171697  1
  Ti  Ti79  1  0.39395107  0.00385069  0.59134357  1
  Ti  Ti80  1  0.09865771  0.74872735  0.71770667  1
  Ti  Ti81  1  0.06215837  0.88260446  0.28751670  1
  Ti  Ti82  1  0.60522850  0.93337077  0.95514073  1
  Ti  Ti83  1  0.93200255  0.00621411  0.45943264  1
  Ti  Ti84  1  0.91353458  0.42704240  0.27331371  1
  Ti  Ti85  1  0.30818066  0.18206364  0.68922000  1
  Ti  Ti86  1  0.36219111  0.36718780  0.79331439  1
  Ti  Ti87  1  0.08943789  0.55737442  0.13769944  1
  Ti  Ti88  1  0.96045285  0.66878653  0.33366461  1
  Ti  Ti89  1  0.98641769  0.36402195  0.64717027  1
  Ti  Ti90  1  0.67009198  0.16467456  0.97164010  1
  Ti  Ti91  1  0.57939889  0.01786273  0.49747073  1
  Ti  Ti92  1  0.59256308  0.38677771  0.81315844  1
  Ti  Ti93  1  0.99726329  0.83473753  0.90928799  1
  Ti  Ti94  1  0.25857930  0.43876031  0.20483096  1
  Ti  Ti95  1  0.92105489  0.43846221  0.06484318  1
  Ti  Ti96  1  0.91624957  0.15949625  0.63977695  1
  Ti  Ti97  1  0.74716025  0.12557147  0.51450098  1
  Ti  Ti98  1  0.36948986  0.18963924  0.47787106  1
  Ti  Ti99  1  0.11273901  0.20948550  0.75327466  1
