# generated using pymatgen
data_BeO
_symmetry_space_group_name_H-M   'P 1'
_cell_length_a   9.41109968
_cell_length_b   9.84070876
_cell_length_c   8.98206648
_cell_angle_alpha   90.96041302
_cell_angle_beta   91.76899099
_cell_angle_gamma   96.06589201
_symmetry_Int_Tables_number   1
_chemical_formula_structural   BeO
_chemical_formula_sum   'Be50 O50'
_cell_volume   826.62665174
_cell_formula_units_Z   50
loop_
 _symmetry_equiv_pos_site_id
 _symmetry_equiv_pos_as_xyz
  1  'x, y, z'
loop_
 _atom_site_type_symbol
 _atom_site_label
 _atom_site_symmetry_multiplicity
 _atom_site_fract_x
 _atom_site_fract_y
 _atom_site_fract_z
 _atom_site_occupancy
  Be  Be0  1  0.05925100  0.04046700  0.42245600  1
  Be  Be1  1  0.21017500  0.34099100  0.92932300  1
  Be  Be2  1  0.83891500  0.11913600  0.28694900  1
  Be  Be3  1  0.89132600  0.39068100  0.82711900  1
  Be  Be4  1  0.09165600  0.22454600  0.18149700  1
  Be  Be5  1  0.97973800  0.95001000  0.73602400  1
  Be  Be6  1  0.75007200  0.36002700  0.36374800  1
  Be  Be7  1  0.47883000  0.44035800  0.84541600  1
  Be  Be8  1  0.08525900  0.79095300  0.64177400  1
  Be  Be9  1  0.21056100  0.98180900  0.15452000  1
  Be  Be10  1  0.30114300  0.21106600  0.40459000  1
  Be  Be11  1  0.98499300  0.07184700  0.02340200  1
  Be  Be12  1  0.01606700  0.30107800  0.44189300  1
  Be  Be13  1  0.73710000  0.22783100  0.55797900  1
  Be  Be14  1  0.54925400  0.65472300  0.62079800  1
  Be  Be15  1  0.82285100  0.85796200  0.94696800  1
  Be  Be16  1  0.42633200  0.60062600  0.30341300  1
  Be  Be17  1  0.72650700  0.46167600  0.08455000  1
  Be  Be18  1  0.87801700  0.82193900  0.41343000  1
  Be  Be19  1  0.49282200  0.35204500  0.56373600  1
  Be  Be20  1  0.64601600  0.23154800  0.78273500  1
  Be  Be21  1  0.19300400  0.49576600  0.24478300  1
  Be  Be22  1  0.90861200  0.69089900  0.14495200  1
  Be  Be23  1  0.10997700  0.19327800  0.68803500  1
  Be  Be24  1  0.32969400  0.60292500  0.83854300  1
  Be  Be25  1  0.64961000  0.60803700  0.83638400  1
  Be  Be26  1  0.46997400  0.51561800  0.07870800  1
  Be  Be27  1  0.61170100  0.95314000  0.73125900  1
  Be  Be28  1  0.94491900  0.66423400  0.84629500  1
  Be  Be29  1  0.50274700  0.07636300  0.52385600  1
  Be  Be30  1  0.80698500  0.48816600  0.61278000  1
  Be  Be31  1  0.13505900  0.75955400  0.96960400  1
  Be  Be32  1  0.51935800  0.31247400  0.27143600  1
  Be  Be33  1  0.13203300  0.79313400  0.27239300  1
  Be  Be34  1  0.29797900  0.94043200  0.48274500  1
  Be  Be35  1  0.08058300  0.46766400  0.71566400  1
  Be  Be36  1  0.67619400  0.70310700  0.19713500  1
  Be  Be37  1  0.20980200  0.42866800  0.53582200  1
  Be  Be38  1  0.48270200  0.02394500  0.25321300  1
  Be  Be39  1  0.35503600  0.20193700  0.71268300  1
  Be  Be40  1  0.30184500  0.67561700  0.56334500  1
  Be  Be41  1  0.62392300  0.04875600  0.01574000  1
  Be  Be42  1  0.35608800  0.74547500  0.13126300  1
  Be  Be43  1  0.57015800  0.82183900  0.45647800  1
  Be  Be44  1  0.77191800  0.74371200  0.66408600  1
  Be  Be45  1  0.41531800  0.87702800  0.96274500  1
  Be  Be46  1  0.01832800  0.45829400  0.02164600  1
  Be  Be47  1  0.75580900  0.91549100  0.24171500  1
  Be  Be48  1  0.97249100  0.56345400  0.38596000  1
  Be  Be49  1  0.77776400  0.25719700  0.06664300  1
  O  O50  1  0.06709200  0.39314700  0.86777300  1
  O  O51  1  0.60544500  0.49345100  0.96153500  1
  O  O52  1  0.55400800  0.93805500  0.89319800  1
  O  O53  1  0.07694900  0.32921900  0.60641000  1
  O  O54  1  0.91645000  0.80867000  0.58870600  1
  O  O55  1  0.84119700  0.48420200  0.44461000  1
  O  O56  1  0.84676300  0.23048200  0.41844100  1
  O  O57  1  0.14223800  0.10575200  0.08150400  1
  O  O58  1  0.65483900  0.03099800  0.19448800  1
  O  O59  1  0.62773600  0.82422800  0.63119000  1
  O  O60  1  0.77431800  0.58986500  0.17573400  1
  O  O61  1  0.13152900  0.38318500  0.12818500  1
  O  O62  1  0.22844400  0.55791400  0.66726100  1
  O  O63  1  0.68215600  0.33154800  0.19768100  1
  O  O64  1  0.44926800  0.66435100  0.47482300  1
  O  O65  1  0.25989500  0.65509200  0.24585900  1
  O  O66  1  0.78679700  0.72709700  0.84676000  1
  O  O67  1  0.34849900  0.10099000  0.57054900  1
  O  O68  1  0.63156400  0.09660500  0.64578100  1
  O  O69  1  0.04983700  0.05239100  0.61918500  1
  O  O70  1  0.47522500  0.94395700  0.42059900  1
  O  O71  1  0.18361700  0.94821900  0.35046000  1
  O  O72  1  0.68910900  0.58394900  0.64477400  1
  O  O73  1  0.80272200  0.82670200  0.10872000  1
  O  O74  1  0.42010500  0.17056600  0.28843500  1
  O  O75  1  0.12039600  0.19816800  0.36217800  1
  O  O76  1  0.34221500  0.46328200  0.94088200  1
  O  O77  1  0.10618000  0.47425400  0.39245100  1
  O  O78  1  0.06409100  0.79868500  0.81028300  1
  O  O79  1  0.11686100  0.84589800  0.10908900  1
  O  O80  1  0.89886300  0.98122100  0.34854100  1
  O  O81  1  0.90416700  0.99050500  0.88524400  1
  O  O82  1  0.61019800  0.30881700  0.46654500  1
  O  O83  1  0.78080900  0.32100600  0.70439400  1
  O  O84  1  0.38279900  0.92727100  0.12650000  1
  O  O85  1  0.23585600  0.80890000  0.57372600  1
  O  O86  1  0.48307200  0.61185500  0.77245800  1
  O  O87  1  0.66819600  0.18325200  0.94479400  1
  O  O88  1  0.49671900  0.31063500  0.73841700  1
  O  O89  1  0.34111900  0.35443800  0.50015700  1
  O  O90  1  0.50625800  0.67869400  0.15408600  1
  O  O91  1  0.90577000  0.17062800  0.13368200  1
  O  O92  1  0.70098600  0.79376900  0.35499100  1
  O  O93  1  0.43882200  0.44874600  0.23735900  1
  O  O94  1  0.23220500  0.21694300  0.81114400  1
  O  O95  1  0.30795600  0.73798000  0.94423500  1
  O  O96  1  0.01011500  0.62565800  0.01092900  1
  O  O97  1  0.93768800  0.54092600  0.72761300  1
  O  O98  1  0.85155800  0.39661700  0.99698400  1
  O  O99  1  0.98415200  0.71486500  0.32464600  1
