# generated using pymatgen
data_Al2O3
_symmetry_space_group_name_H-M   'P 1'
_cell_length_a   10.22490558
_cell_length_b   10.65380582
_cell_length_c   9.91364646
_cell_angle_alpha   90.93939558
_cell_angle_beta   91.27180654
_cell_angle_gamma   92.12404362
_symmetry_Int_Tables_number   1
_chemical_formula_structural   Al2O3
_chemical_formula_sum   'Al40 O60'
_cell_volume   1078.76665722
_cell_formula_units_Z   20
loop_
 _symmetry_equiv_pos_site_id
 _symmetry_equiv_pos_as_xyz
  1  'x, y, z'
loop_
 _atom_site_type_symbol
 _atom_site_label
 _atom_site_symmetry_multiplicity
 _atom_site_fract_x
 _atom_site_fract_y
 _atom_site_fract_z
 _atom_site_occupancy
  Al  Al0  1  0.95331000  0.35931000  0.41656900  1
  Al  Al1  1  0.82660400  0.11345300  0.73281700  1
  Al  Al2  1  0.16665400  0.80019400  0.57835600  1
  Al  Al3  1  0.13230300  0.43287200  0.86423900  1
  Al  Al4  1  0.65116000  0.88634100  0.54471100  1
  Al  Al5  1  0.08992300  0.23569200  0.64665600  1
  Al  Al6  1  0.35255700  0.15899600  0.51070600  1
  Al  Al7  1  0.41128000  0.93197700  0.73988700  1
  Al  Al8  1  0.10559400  0.35894100  0.16717600  1
  Al  Al9  1  0.82542800  0.58641500  0.86842100  1
  Al  Al10  1  0.49867400  0.62054800  0.05741600  1
  Al  Al11  1  0.58940800  0.11294800  0.02194300  1
  Al  Al12  1  0.69392000  0.16588300  0.45761800  1
  Al  Al13  1  0.61360600  0.80632600  0.86092300  1
  Al  Al14  1  0.24335000  0.64840300  0.06359400  1
  Al  Al15  1  0.84697600  0.27271900  0.98516400  1
  Al  Al16  1  0.33519600  0.18135800  0.82035600  1
  Al  Al17  1  0.08504100  0.84454200  0.13807000  1
  Al  Al18  1  0.35126300  0.94756300  0.03248200  1
  Al  Al19  1  0.33927200  0.64687700  0.75506800  1
  Al  Al20  1  0.52038200  0.36215900  0.50820700  1
  Al  Al21  1  0.10695400  0.63519900  0.36284100  1
  Al  Al22  1  0.77119000  0.67361400  0.36573400  1
  Al  Al23  1  0.00602400  0.09583300  0.23278200  1
  Al  Al24  1  0.35374200  0.91537400  0.34860700  1
  Al  Al25  1  0.03652000  0.02386900  0.51580200  1
  Al  Al26  1  0.82966300  0.00034800  0.00076300  1
  Al  Al27  1  0.59267700  0.36737300  0.95236000  1
  Al  Al28  1  0.77821000  0.36164900  0.69033400  1
  Al  Al29  1  0.60467200  0.60854200  0.63390800  1
  Al  Al30  1  0.36822600  0.48463900  0.28788500  1
  Al  Al31  1  0.90712900  0.86790200  0.75269600  1
  Al  Al32  1  0.60539900  0.92054900  0.26888100  1
  Al  Al33  1  0.98323800  0.56989200  0.65574500  1
  Al  Al34  1  0.09942000  0.08718000  0.97158300  1
  Al  Al35  1  0.66410000  0.38881900  0.24046500  1
  Al  Al36  1  0.29958200  0.18129700  0.18904800  1
  Al  Al37  1  0.91675200  0.54609100  0.18113400  1
  Al  Al38  1  0.77343500  0.77657000  0.08799200  1
  Al  Al39  1  0.25099200  0.46466300  0.56292100  1
  O  O40  1  0.16575500  0.22640100  0.06333600  1
  O  O41  1  0.43269600  0.59031500  0.62472700  1
  O  O42  1  0.90898500  0.69901400  0.74577300  1
  O  O43  1  0.66385100  0.64507100  0.80036200  1
  O  O44  1  0.97844100  0.49799500  0.81885100  1
  O  O45  1  0.87794000  0.45304800  0.56803600  1
  O  O46  1  0.03328600  0.24716100  0.30194000  1
  O  O47  1  0.18276800  0.12150500  0.55839200  1
  O  O48  1  0.67819000  0.00020900  0.12038500  1
  O  O49  1  0.70456500  0.78392500  0.25630900  1
  O  O50  1  0.47880200  0.26095700  0.88184300  1
  O  O51  1  0.39828900  0.08635000  0.67736100  1
  O  O52  1  0.94809700  0.14390200  0.59519500  1
  O  O53  1  0.09670600  0.37164600  0.54688700  1
  O  O54  1  0.78546800  0.95253600  0.66052400  1
  O  O55  1  0.28457700  0.34304600  0.24024200  1
  O  O56  1  0.28985900  0.80367600  0.70885600  1
  O  O57  1  0.42591200  0.11589000  0.09123700  1
  O  O58  1  0.73644600  0.41756200  0.86569100  1
  O  O59  1  0.26272000  0.54795400  0.40798800  1
  O  O60  1  0.31809800  0.08492700  0.34338700  1
  O  O61  1  0.04012700  0.89462200  0.62772600  1
  O  O62  1  0.13859200  0.01068400  0.13930700  1
  O  O63  1  0.90701300  0.26063600  0.80967000  1
  O  O64  1  0.72803400  0.11374700  0.90024800  1
  O  O65  1  0.50273600  0.88688500  0.43254300  1
  O  O66  1  0.69107300  0.71092100  0.51794900  1
  O  O67  1  0.09568600  0.64701500  0.55071100  1
  O  O68  1  0.21891800  0.82775600  0.41330200  1
  O  O69  1  0.48138600  0.93260500  0.90946500  1
  O  O70  1  0.70236400  0.00695300  0.41065600  1
  O  O71  1  0.37746500  0.61566700  0.18100200  1
  O  O72  1  0.56274400  0.47338800  0.08111400  1
  O  O73  1  0.77733700  0.85791900  0.90404500  1
  O  O74  1  0.93744200  0.68433100  0.33836400  1
  O  O75  1  0.76218100  0.52635700  0.26860700  1
  O  O76  1  0.91954000  0.87981300  0.10452600  1
  O  O77  1  0.52490100  0.43395500  0.34573200  1
  O  O78  1  0.18687700  0.27698400  0.79742600  1
  O  O79  1  0.60616600  0.74304400  0.02821300  1
  O  O80  1  0.17466000  0.48769800  0.02898000  1
  O  O81  1  0.93631500  0.39200100  0.08498400  1
  O  O82  1  0.52502600  0.20210600  0.45616700  1
  O  O83  1  0.76972100  0.29300800  0.36290600  1
  O  O84  1  0.71806000  0.20952500  0.63299800  1
  O  O85  1  0.11659100  0.68428400  0.18585900  1
  O  O86  1  0.42904900  0.89428500  0.19004400  1
  O  O87  1  0.98823500  0.98605400  0.35450800  1
  O  O88  1  0.03414500  0.47628100  0.30065200  1
  O  O89  1  0.96831300  0.00897300  0.86097300  1
  O  O90  1  0.21820500  0.52239900  0.73612200  1
  O  O91  1  0.22231600  0.81637200  0.02163900  1
  O  O92  1  0.67644700  0.27260800  0.08473900  1
  O  O93  1  0.55226300  0.84682500  0.69310200  1
  O  O94  1  0.25567100  0.04623700  0.89807900  1
  O  O95  1  0.85361400  0.63418900  0.04016100  1
  O  O96  1  0.37765300  0.63999700  0.92687100  1
  O  O97  1  0.63349200  0.44299900  0.61552300  1
  O  O98  1  0.35601800  0.33260800  0.55848600  1
  O  O99  1  0.92514900  0.13462900  0.07280000  1
