# generated using pymatgen
data_V2O5
_symmetry_space_group_name_H-M   'P 1'
_cell_length_a   12.64538218
_cell_length_b   11.43587363
_cell_length_c   12.97163414
_cell_angle_alpha   95.23882067
_cell_angle_beta   84.25122942
_cell_angle_gamma   92.73685965
_symmetry_Int_Tables_number   1
_chemical_formula_structural   V2O5
_chemical_formula_sum   'V30 O75'
_cell_volume   1857.19905541
_cell_formula_units_Z   15
loop_
 _symmetry_equiv_pos_site_id
 _symmetry_equiv_pos_as_xyz
  1  'x, y, z'
loop_
 _atom_site_type_symbol
 _atom_site_label
 _atom_site_symmetry_multiplicity
 _atom_site_fract_x
 _atom_site_fract_y
 _atom_site_fract_z
 _atom_site_occupancy
  V  V0  1  0.90057363  0.46276051  0.95372710  1
  V  V1  1  0.93442801  0.01291680  0.87381648  1
  V  V2  1  0.18573699  0.86794997  0.81358825  1
  V  V3  1  0.45534898  0.52148257  0.78248625  1
  V  V4  1  0.88709803  0.24544112  0.38103173  1
  V  V5  1  0.52393932  0.91069418  0.61839361  1
  V  V6  1  0.34690146  0.11561721  0.72531576  1
  V  V7  1  0.65839175  0.60139559  0.55700420  1
  V  V8  1  0.64254064  0.07929791  0.97950830  1
  V  V9  1  0.55148098  0.80672236  0.84853835  1
  V  V10  1  0.40898187  0.00929823  0.46620428  1
  V  V11  1  0.27586335  0.75553517  0.56359286  1
  V  V12  1  0.88657404  0.73491233  0.46814096  1
  V  V13  1  0.75829781  0.87652828  0.69941082  1
  V  V14  1  0.14625896  0.31789995  0.31327325  1
  V  V15  1  0.05750455  0.18423939  0.52895852  1
  V  V16  1  0.91994654  0.25267909  0.75314707  1
  V  V17  1  0.88204074  0.88771365  0.28066435  1
  V  V18  1  0.19076569  0.72930732  0.97478856  1
  V  V19  1  0.65793761  0.16958469  0.25159744  1
  V  V20  1  0.01684473  0.05177166  0.10823527  1
  V  V21  1  0.64604597  0.80469612  0.42320564  1
  V  V22  1  0.60467777  0.44940450  0.31829745  1
  V  V23  1  0.10665817  0.34171335  0.06471530  1
  V  V24  1  0.63271656  0.39733994  0.66859383  1
  V  V25  1  0.43162792  0.77530707  0.27018086  1
  V  V26  1  0.34820345  0.48955594  0.42445150  1
  V  V27  1  0.24415346  0.55646740  0.21426804  1
  V  V28  1  0.51930377  0.30506103  0.85030676  1
  V  V29  1  0.77902413  0.49554557  0.17954955  1
  O  O30  1  0.62513292  0.49033760  0.44698715  1
  O  O31  1  0.58050892  0.19407283  0.93878236  1
  O  O32  1  0.14271292  0.42160936  0.18603897  1
  O  O33  1  0.21089861  0.77616396  0.69910860  1
  O  O34  1  0.96774034  0.15867290  0.84394524  1
  O  O35  1  0.33215973  0.66409915  0.29526048  1
  O  O36  1  0.02611968  0.42938201  0.99780789  1
  O  O37  1  0.33671568  0.53957704  0.75560208  1
  O  O38  1  0.64563780  0.29210211  0.57719825  1
  O  O39  1  0.23831270  0.45779366  0.33956812  1
  O  O40  1  0.38460591  0.85919512  0.54946332  1
  O  O41  1  0.18938410  0.78510977  0.48784334  1
  O  O42  1  0.88469178  0.38648395  0.82775615  1
  O  O43  1  0.75492047  0.67964703  0.44115655  1
  O  O44  1  0.48380929  0.85809949  0.74370122  1
  O  O45  1  0.23551023  0.59946838  0.94868693  1
  O  O46  1  0.81972786  0.18509149  0.70389787  1
  O  O47  1  0.32980121  0.52926420  0.11679982  1
  O  O48  1  0.32584926  0.61329157  0.52222005  1
  O  O49  1  0.84148298  0.82724145  0.58691455  1
  O  O50  1  0.78255970  0.17299893  0.30860560  1
  O  O51  1  0.21234130  0.31139531  0.98937252  1
  O  O52  1  0.44185815  0.05710514  0.61631277  1
  O  O53  1  0.39737444  0.90186910  0.34788585  1
  O  O54  1  0.57440627  0.29917502  0.28343650  1
  O  O55  1  0.66780420  0.97144955  0.67379631  1
  O  O56  1  0.14453005  0.27135181  0.44351871  1
  O  O57  1  0.60542778  0.75630770  0.56389674  1
  O  O58  1  0.46482011  0.49419149  0.33702615  1
  O  O59  1  0.58039338  0.93448180  0.93749410  1
  O  O60  1  0.03340796  0.20648057  0.09235304  1
  O  O61  1  0.95630060  0.80327271  0.36044277  1
  O  O62  1  0.15240546  0.66358973  0.18679357  1
  O  O63  1  0.92978784  0.99745249  0.00974426  1
  O  O64  1  0.65935873  0.34748248  0.78876276  1
  O  O65  1  0.85827157  0.81020253  0.17485681  1
  O  O66  1  0.52643205  0.77516649  0.15176512  1
  O  O67  1  0.88036690  0.58323160  0.20163570  1
  O  O68  1  0.95508523  0.63082406  0.49965193  1
  O  O69  1  0.09900193  0.06213520  0.56000878  1
  O  O70  1  0.68428273  0.77301625  0.77036250  1
  O  O71  1  0.48620298  0.36186981  0.72072636  1
  O  O72  1  0.95867077  0.01908071  0.23483375  1
  O  O73  1  0.64553580  0.55024574  0.22042807  1
  O  O74  1  0.25385002  0.99854712  0.77546783  1
  O  O75  1  0.27696925  0.83909870  0.90660974  1
  O  O76  1  0.42368881  0.17337637  0.82312082  1
  O  O77  1  0.84676118  0.35148141  0.46328776  1
  O  O78  1  0.48667335  0.11811919  0.38962824  1
  O  O79  1  0.35438693  0.37758841  0.48920572  1
  O  O80  1  0.73876247  0.51954959  0.62162921  1
  O  O81  1  0.01952021  0.27398552  0.64832596  1
  O  O82  1  0.55360585  0.74508060  0.34282308  1
  O  O83  1  0.76837074  0.07767848  0.92683901  1
  O  O84  1  0.94375345  0.14355807  0.45872806  1
  O  O85  1  0.49610878  0.66418693  0.86076204  1
  O  O86  1  0.15010901  0.74753324  0.11693149  1
  O  O87  1  0.41973720  0.80456071  0.13629019  1
  O  O88  1  0.89406172  0.60163971  0.94398708  1
  O  O89  1  0.12865174  0.98792506  0.07760611  1
  O  O90  1  0.76062955  0.89866724  0.36032585  1
  O  O91  1  0.64802854  0.10938096  0.11865721  1
  O  O92  1  0.54780591  0.54636969  0.66219647  1
  O  O93  1  0.00300933  0.29871623  0.30435702  1
  O  O94  1  0.20600890  0.21322811  0.24206280  1
  O  O95  1  0.75888822  0.39946179  0.27606043  1
  O  O96  1  0.57432536  0.06914605  0.32831877  1
  O  O97  1  0.57442641  0.93966487  0.48546241  1
  O  O98  1  0.09648149  0.75590610  0.88900371  1
  O  O99  1  0.79760599  0.41789122  0.04903514  1
  O  O100  1  0.29934117  0.07565781  0.47600578  1
  O  O101  1  0.85357798  0.93383554  0.78525425  1
  O  O102  1  0.46203159  0.43453751  0.90568493  1
  O  O103  1  0.05297053  0.94966666  0.83054280  1
  O  O104  1  0.27656213  0.21519497  0.68823814  1
