# generated using pymatgen
data_Cr7FeO12
_symmetry_space_group_name_H-M   'P 1'
_cell_length_a   9.09146670
_cell_length_b   10.42555619
_cell_length_c   10.59622425
_cell_angle_alpha   77.50088923
_cell_angle_beta   89.88434578
_cell_angle_gamma   90.65241905
_symmetry_Int_Tables_number   1
_chemical_formula_structural   Cr7FeO12
_chemical_formula_sum   'Cr28 Fe4 O48'
_cell_volume   980.47065300
_cell_formula_units_Z   4
loop_
 _symmetry_equiv_pos_site_id
 _symmetry_equiv_pos_as_xyz
  1  'x, y, z'
loop_
 _atom_site_type_symbol
 _atom_site_label
 _atom_site_symmetry_multiplicity
 _atom_site_fract_x
 _atom_site_fract_y
 _atom_site_fract_z
 _atom_site_occupancy
  Cr  Cr0  1  0.33893200  0.32390700  0.10969600  1
  Cr  Cr1  1  0.01787400  0.47371400  0.08774200  1
  Cr  Cr2  1  0.31961300  0.98004400  0.34622700  1
  Cr  Cr3  1  0.72604700  0.02453800  0.94954200  1
  Cr  Cr4  1  0.81940000  0.71282700  0.22043100  1
  Cr  Cr5  1  0.43828100  0.24770800  0.38739200  1
  Cr  Cr6  1  0.19905600  0.67193100  0.33385800  1
  Cr  Cr7  1  0.38948600  0.43958700  0.61741600  1
  Cr  Cr8  1  0.04041100  0.01870900  0.83498600  1
  Cr  Cr9  1  0.87171300  0.99992200  0.59776400  1
  Cr  Cr10  1  0.72016700  0.47678800  0.10241900  1
  Cr  Cr11  1  0.48840200  0.83416600  0.12527400  1
  Cr  Cr12  1  0.12871900  0.41573800  0.44970800  1
  Cr  Cr13  1  0.48828100  0.53497300  0.33565300  1
  Cr  Cr14  1  0.36613000  0.78660900  0.59318300  1
  Cr  Cr15  1  0.26929900  0.12001500  0.63195500  1
  Cr  Cr16  1  0.83165800  0.77819100  0.91423400  1
  Cr  Cr17  1  0.78276200  0.28422600  0.38909600  1
  Cr  Cr18  1  0.73749200  0.73403800  0.59259500  1
  Cr  Cr19  1  0.86114800  0.51004100  0.78321700  1
  Cr  Cr20  1  0.63213600  0.24983400  0.65309100  1
  Cr  Cr21  1  0.98529500  0.83629900  0.40393000  1
  Cr  Cr22  1  0.43207800  0.13123400  0.85413300  1
  Cr  Cr23  1  0.11165600  0.72517700  0.07709900  1
  Cr  Cr24  1  0.91822300  0.21447900  0.08032400  1
  Cr  Cr25  1  0.29575500  0.60148800  0.85290000  1
  Cr  Cr26  1  0.16911200  0.30780700  0.88451800  1
  Cr  Cr27  1  0.36831100  0.85394000  0.87321900  1
  Fe  Fe28  1  0.07324000  0.63608200  0.63591200  1
  Fe  Fe29  1  0.54885500  0.14386100  0.15878900  1
  Fe  Fe30  1  0.56339700  0.36085800  0.89987000  1
  Fe  Fe31  1  0.69958000  0.97424400  0.37409200  1
  O  O32  1  0.68311600  0.92703300  0.55720800  1
  O  O33  1  0.91032000  0.01702900  0.40216500  1
  O  O34  1  0.25146100  0.78555200  0.75159300  1
  O  O35  1  0.56643900  0.35684700  0.47517300  1
  O  O36  1  0.25930100  0.26502700  0.48403300  1
  O  O37  1  0.38631900  0.17310400  0.02074300  1
  O  O38  1  0.88193500  0.62942800  0.07298800  1
  O  O39  1  0.56491800  0.34258900  0.09119400  1
  O  O40  1  0.82631600  0.96475600  0.80131600  1
  O  O41  1  0.77926400  0.18253100  0.57295600  1
  O  O42  1  0.83599800  0.42189600  0.96338700  1
  O  O43  1  0.77142800  0.68398800  0.79165000  1
  O  O44  1  0.13516100  0.60387600  0.95811800  1
  O  O45  1  0.02167700  0.85871500  0.94556200  1
  O  O46  1  0.85581500  0.35253100  0.20030600  1
  O  O47  1  0.30265000  0.58511700  0.67983600  1
  O  O48  1  0.73671300  0.09682800  0.10374700  1
  O  O49  1  0.77548600  0.79391700  0.37248900  1
  O  O50  1  0.34108200  0.42154300  0.92333000  1
  O  O51  1  0.05746800  0.45102800  0.77703300  1
  O  O52  1  0.50412200  0.95298600  0.25375200  1
  O  O53  1  0.53276600  0.70399900  0.56205100  1
  O  O54  1  0.20930000  0.82237400  0.42193300  1
  O  O55  1  0.62910300  0.16462100  0.33474100  1
  O  O56  1  0.26212500  0.02276500  0.82345000  1
  O  O57  1  0.65189500  0.19020000  0.84618900  1
  O  O58  1  0.48558500  0.12887500  0.66984100  1
  O  O59  1  0.73029800  0.83582100  0.07236400  1
  O  O60  1  0.11909400  0.31447900  0.07052400  1
  O  O61  1  0.04518400  0.60078300  0.45580800  1
  O  O62  1  0.56842500  0.39943500  0.71106500  1
  O  O63  1  0.34489000  0.16305900  0.26015500  1
  O  O64  1  0.02920600  0.79197100  0.22851300  1
  O  O65  1  0.05931600  0.06951200  0.65882800  1
  O  O66  1  0.66692300  0.57126200  0.23686900  1
  O  O67  1  0.52208500  0.96143500  0.94641400  1
  O  O68  1  0.95633100  0.34651000  0.43082600  1
  O  O69  1  0.29314300  0.27479000  0.73853100  1
  O  O70  1  0.80607100  0.55543500  0.61618700  1
  O  O71  1  0.39039700  0.40487600  0.26209400  1
  O  O72  1  0.45216400  0.67506200  0.91123900  1
  O  O73  1  0.35172400  0.98644200  0.52155300  1
  O  O74  1  0.41092300  0.70302300  0.26600700  1
  O  O75  1  0.31063500  0.52489200  0.44982700  1
  O  O76  1  0.95032900  0.80917500  0.59171300  1
  O  O77  1  0.13658100  0.55955500  0.20744600  1
  O  O78  1  0.01002300  0.15535000  0.91659500  1
  O  O79  1  0.29642300  0.82380600  0.04947900  1
