# generated using pymatgen
data_GaN
_symmetry_space_group_name_H-M   'P 1'
_cell_length_a   12.16047399
_cell_length_b   10.72492827
_cell_length_c   11.58797792
_cell_angle_alpha   88.05715365
_cell_angle_beta   93.14933026
_cell_angle_gamma   94.43351552
_symmetry_Int_Tables_number   1
_chemical_formula_structural   GaN
_chemical_formula_sum   'Ga50 N50'
_cell_volume   1503.84089747
_cell_formula_units_Z   50
loop_
 _symmetry_equiv_pos_site_id
 _symmetry_equiv_pos_as_xyz
  1  'x, y, z'
loop_
 _atom_site_type_symbol
 _atom_site_label
 _atom_site_symmetry_multiplicity
 _atom_site_fract_x
 _atom_site_fract_y
 _atom_site_fract_z
 _atom_site_occupancy
  Ga  Ga0  1  0.76658311  0.94114398  0.43344491  1
  Ga  Ga1  1  0.49727634  0.23155374  0.39869067  1
  Ga  Ga2  1  0.99499791  0.10127792  0.70732401  1
  Ga  Ga3  1  0.51069261  0.64440319  0.37476369  1
  Ga  Ga4  1  0.49480751  0.41274066  0.25010102  1
  Ga  Ga5  1  0.81096697  0.74885821  0.69984078  1
  Ga  Ga6  1  0.71125391  0.66426339  0.93418520  1
  Ga  Ga7  1  0.88429536  0.60479236  0.31088089  1
  Ga  Ga8  1  0.74845900  0.26398210  0.34530003  1
  Ga  Ga9  1  0.13230041  0.53001840  0.92300587  1
  Ga  Ga10  1  0.82829419  0.93752764  0.89397666  1
  Ga  Ga11  1  0.23998404  0.94876781  0.11673357  1
  Ga  Ga12  1  0.68101197  0.50419152  0.43821898  1
  Ga  Ga13  1  0.73668256  0.37939016  0.15959814  1
  Ga  Ga14  1  0.13759246  0.35414600  0.49062129  1
  Ga  Ga15  1  0.23804051  0.64018722  0.70504907  1
  Ga  Ga16  1  0.90514487  0.08545935  0.21524001  1
  Ga  Ga17  1  0.69141558  0.64220949  0.21442868  1
  Ga  Ga18  1  0.90817534  0.58753561  0.04924068  1
  Ga  Ga19  1  0.97106815  0.00411168  0.03574471  1
  Ga  Ga20  1  0.02718975  0.87566358  0.37965203  1
  Ga  Ga21  1  0.29509060  0.47921349  0.06383861  1
  Ga  Ga22  1  0.98120662  0.38042403  0.28990821  1
  Ga  Ga23  1  0.42115201  0.76638394  0.13696567  1
  Ga  Ga24  1  0.00395945  0.52672075  0.73162643  1
  Ga  Ga25  1  0.37275009  0.04786684  0.35775171  1
  Ga  Ga26  1  0.36797140  0.18161918  0.10763033  1
  Ga  Ga27  1  0.07467305  0.61534188  0.51434834  1
  Ga  Ga28  1  0.08521906  0.82312074  0.65129923  1
  Ga  Ga29  1  0.81416100  0.17726950  0.76950464  1
  Ga  Ga30  1  0.21377857  0.49389236  0.26135243  1
  Ga  Ga31  1  0.64673625  0.74715937  0.54767655  1
  Ga  Ga32  1  0.33599477  0.72401813  0.90286154  1
  Ga  Ga33  1  0.05561523  0.79897165  0.90270480  1
  Ga  Ga34  1  0.54267244  0.94460824  0.50401630  1
  Ga  Ga35  1  0.19237014  0.04995357  0.88202510  1
  Ga  Ga36  1  0.59830627  0.90774619  0.80790870  1
  Ga  Ga37  1  0.54652382  0.56286859  0.01645091  1
  Ga  Ga38  1  0.37829815  0.82418241  0.62892314  1
  Ga  Ga39  1  0.87543113  0.83544292  0.15459942  1
  Ga  Ga40  1  0.68037902  0.14706209  0.98778978  1
  Ga  Ga41  1  0.63385776  0.91923540  0.22160066  1
  Ga  Ga42  1  0.15777532  0.16680985  0.27707167  1
  Ga  Ga43  1  0.81755912  0.37011516  0.88378697  1
  Ga  Ga44  1  0.45165555  0.93777104  0.96879434  1
  Ga  Ga45  1  0.11718777  0.69406733  0.17742872  1
  Ga  Ga46  1  0.97142927  0.12920544  0.44456448  1
  Ga  Ga47  1  0.26635706  0.77054443  0.38703174  1
  Ga  Ga48  1  0.91668450  0.39837463  0.55782124  1
  Ga  Ga49  1  0.71723500  0.21127651  0.58810110  1
  N  N50  1  0.21375907  0.52569120  0.50797036  1
  N  N51  1  0.89072663  0.62193603  0.79292070  1
  N  N52  1  0.71081764  0.11274170  0.43824117  1
  N  N53  1  0.02085398  0.24632434  0.56495167  1
  N  N54  1  0.12953677  0.79081343  0.48062725  1
  N  N55  1  0.05855205  0.65528080  0.01880205  1
  N  N56  1  0.13910736  0.33426558  0.31976165  1
  N  N57  1  0.76257853  0.36554316  0.50007851  1
  N  N58  1  0.46257993  0.16863595  0.69103194  1
  N  N59  1  0.64229820  0.43997920  0.72340268  1
  N  N60  1  0.97386100  0.50220250  0.42188495  1
  N  N61  1  0.56808112  0.75090209  0.23105840  1
  N  N62  1  0.47922771  0.37151184  0.90881721  1
  N  N63  1  0.78754018  0.69652824  0.08556613  1
  N  N64  1  0.40326340  0.62095198  0.03154502  1
  N  N65  1  0.51511416  0.27979213  0.89833934  1
  N  N66  1  0.50687796  0.02509217  0.25576267  1
  N  N67  1  0.92670370  0.95094140  0.49933565  1
  N  N68  1  0.38716017  0.35359522  0.12643634  1
  N  N69  1  0.89018169  0.47622310  0.18253520  1
  N  N70  1  0.22836183  0.30699938  0.81530127  1
  N  N71  1  0.26040262  0.34157387  0.73050988  1
  N  N72  1  0.42365410  0.47802043  0.57305904  1
  N  N73  1  0.98581427  0.75108624  0.25966406  1
  N  N74  1  0.22026457  0.06561843  0.59306372  1
  N  N75  1  0.26297253  0.79258290  0.20988313  1
  N  N76  1  0.72889922  0.80513337  0.82904314  1
  N  N77  1  0.38057160  0.89441875  0.45764092  1
  N  N78  1  0.24092429  0.15031912  0.53485432  1
  N  N79  1  0.07310271  0.24382542  0.05100068  1
  N  N80  1  0.95524476  0.92692392  0.62034522  1
  N  N81  1  0.11398575  0.94571512  0.00472550  1
  N  N82  1  0.41883071  0.08381205  0.73098513  1
  N  N83  1  0.89756087  0.22394039  0.32028817  1
  N  N84  1  0.27525288  0.08828110  0.22302537  1
  N  N85  1  0.04572216  0.04798155  0.32109632  1
  N  N86  1  0.60641284  0.53268746  0.72991664  1
  N  N87  1  0.03701409  0.33251956  0.01449571  1
  N  N88  1  0.83547426  0.55704651  0.88648507  1
  N  N89  1  0.71203859  0.05623175  0.85902738  1
  N  N90  1  0.79101016  0.94213698  0.26079660  1
  N  N91  1  0.24896753  0.57919888  0.40476289  1
  N  N92  1  0.59945399  0.12061608  0.48863573  1
  N  N93  1  0.33111028  0.05236252  0.99246926  1
  N  N94  1  0.61269328  0.48819271  0.15620813  1
  N  N95  1  0.53953918  0.85806562  0.65337347  1
  N  N96  1  0.58422817  0.04788595  0.08870149  1
  N  N97  1  0.51545556  0.09480756  0.16249992  1
  N  N98  1  0.44785200  0.38588641  0.54511128  1
  N  N99  1  0.74329897  0.30422725  0.01506297  1
