# generated using pymatgen
data_NbO2
_symmetry_space_group_name_H-M   'P 1'
_cell_length_a   11.30913925
_cell_length_b   11.24296082
_cell_length_c   11.59416102
_cell_angle_alpha   87.95558777
_cell_angle_beta   92.59621534
_cell_angle_gamma   87.55089755
_symmetry_Int_Tables_number   1
_chemical_formula_structural   NbO2
_chemical_formula_sum   'Nb34 O68'
_cell_volume   1470.27349484
_cell_formula_units_Z   34
loop_
 _symmetry_equiv_pos_site_id
 _symmetry_equiv_pos_as_xyz
  1  'x, y, z'
loop_
 _atom_site_type_symbol
 _atom_site_label
 _atom_site_symmetry_multiplicity
 _atom_site_fract_x
 _atom_site_fract_y
 _atom_site_fract_z
 _atom_site_occupancy
  Nb  Nb0  1  0.49784093  0.70007001  0.35736532  1
  Nb  Nb1  1  0.86359785  0.08050557  0.60047225  1
  Nb  Nb2  1  0.99712087  0.65908391  0.16759343  1
  Nb  Nb3  1  0.27753354  0.72738097  0.04405925  1
  Nb  Nb4  1  0.55417604  0.65107641  0.08702341  1
  Nb  Nb5  1  0.41915497  0.16643927  0.25291547  1
  Nb  Nb6  1  0.79336608  0.60694300  0.84967849  1
  Nb  Nb7  1  0.23729219  0.41752771  0.11881591  1
  Nb  Nb8  1  0.18592899  0.96984993  0.05114645  1
  Nb  Nb9  1  0.98720876  0.19376655  0.39313076  1
  Nb  Nb10  1  0.16059731  0.13087358  0.79500421  1
  Nb  Nb11  1  0.43122066  0.88301410  0.17333701  1
  Nb  Nb12  1  0.37226392  0.46361823  0.42538695  1
  Nb  Nb13  1  0.54581731  0.39800171  0.24891387  1
  Nb  Nb14  1  0.42462292  0.03433993  0.88147404  1
  Nb  Nb15  1  0.70423631  0.32620706  0.54375630  1
  Nb  Nb16  1  0.69521239  0.85898582  0.01143966  1
  Nb  Nb17  1  0.33169038  0.92491789  0.36676963  1
  Nb  Nb18  1  0.66792150  0.14880540  0.16340770  1
  Nb  Nb19  1  0.40663039  0.24334149  0.72226081  1
  Nb  Nb20  1  0.93642325  0.29926713  0.79106334  1
  Nb  Nb21  1  0.17992167  0.67863663  0.45087141  1
  Nb  Nb22  1  0.20131545  0.84425551  0.74149240  1
  Nb  Nb23  1  0.91181898  0.98483306  0.20364605  1
  Nb  Nb24  1  0.15557356  0.42566182  0.59603742  1
  Nb  Nb25  1  0.42009967  0.78773664  0.65484632  1
  Nb  Nb26  1  0.70078629  0.37044675  0.99539963  1
  Nb  Nb27  1  0.93531699  0.87690559  0.82087173  1
  Nb  Nb28  1  0.89814883  0.38043975  0.15916995  1
  Nb  Nb29  1  0.76034633  0.75489150  0.55856792  1
  Nb  Nb30  1  0.53260448  0.05361933  0.57915555  1
  Nb  Nb31  1  0.57960454  0.48883082  0.67592725  1
  Nb  Nb32  1  0.33607116  0.54831690  0.83565967  1
  Nb  Nb33  1  0.96358956  0.50341177  0.45058814  1
  O  O34  1  0.22511451  0.26995903  0.72273976  1
  O  O35  1  0.38274165  0.14062553  0.58768901  1
  O  O36  1  0.92429269  0.61048314  0.94243511  1
  O  O37  1  0.07694912  0.59014404  0.55751403  1
  O  O38  1  0.44989714  0.05307938  0.40283298  1
  O  O39  1  0.03353250  0.81026460  0.70489846  1
  O  O40  1  0.48257581  0.54475566  0.53174516  1
  O  O41  1  0.43590698  0.20734855  0.89044879  1
  O  O42  1  0.05361704  0.61822283  0.32702100  1
  O  O43  1  0.84147747  0.21144436  0.46016871  1
  O  O44  1  0.01269929  0.40560782  0.70020552  1
  O  O45  1  0.85146794  0.39360640  0.90202161  1
  O  O46  1  0.15756652  0.62292309  0.10542447  1
  O  O47  1  0.05770718  0.23211481  0.89810640  1
  O  O48  1  0.58043315  0.58563517  0.24990702  1
  O  O49  1  0.81226716  0.92347178  0.55301458  1
  O  O50  1  0.64352497  0.75268757  0.43301310  1
  O  O51  1  0.06975861  0.40758795  0.13806410  1
  O  O52  1  0.67820903  0.20550867  0.99599761  1
  O  O53  1  0.83911445  0.00212565  0.76125077  1
  O  O54  1  0.18477511  0.84588094  0.40025881  1
  O  O55  1  0.30179267  0.26311361  0.14794393  1
  O  O56  1  0.24724185  0.83533169  0.17179507  1
  O  O57  1  0.92441971  0.81431633  0.20290099  1
  O  O58  1  0.25557132  0.08947794  0.94048683  1
  O  O59  1  0.18764561  0.00767929  0.68361715  1
  O  O60  1  0.45675480  0.65086879  0.75119252  1
  O  O61  1  0.07090910  0.32598984  0.46099145  1
  O  O62  1  0.41937432  0.63487173  0.98092398  1
  O  O63  1  0.60327646  0.81507971  0.15258570  1
  O  O64  1  0.94250791  0.22496155  0.22718875  1
  O  O65  1  0.87199753  0.67273192  0.48251360  1
  O  O66  1  0.87209238  0.55592380  0.18100983  1
  O  O67  1  0.24864692  0.74454565  0.60561948  1
  O  O68  1  0.77191572  0.07535420  0.27984866  1
  O  O69  1  0.63137936  0.37691547  0.40099202  1
  O  O70  1  0.53048935  0.09863338  0.74490899  1
  O  O71  1  0.29686952  0.03412101  0.20975808  1
  O  O72  1  0.51870499  0.05517116  0.15604521  1
  O  O73  1  0.01956048  0.03160777  0.31746031  1
  O  O74  1  0.83637094  0.43761623  0.52075032  1
  O  O75  1  0.56670425  0.89071745  0.62440939  1
  O  O76  1  0.23663123  0.71647588  0.86965818  1
  O  O77  1  0.68739870  0.67656504  0.96979266  1
  O  O78  1  0.68836654  0.62229953  0.65241027  1
  O  O79  1  0.00677664  0.06972944  0.52198309  1
  O  O80  1  0.42071449  0.81462463  0.47831141  1
  O  O81  1  0.75680731  0.99794165  0.08921454  1
  O  O82  1  0.43991860  0.42114559  0.76603755  1
  O  O83  1  0.42830112  0.30363288  0.35573598  1
  O  O84  1  0.86268246  0.84002103  0.96245078  1
  O  O85  1  0.71444614  0.32350716  0.18778335  1
  O  O86  1  0.35687397  0.89931737  0.99884681  1
  O  O87  1  0.32922918  0.64099755  0.37283590  1
  O  O88  1  0.66139632  0.48012715  0.83878066  1
  O  O89  1  0.09856361  0.93682569  0.88383541  1
  O  O90  1  0.66968746  0.13742296  0.55180600  1
  O  O91  1  0.99543026  0.14296490  0.71792841  1
  O  O92  1  0.27602377  0.45137881  0.96405103  1
  O  O93  1  0.82443400  0.74915881  0.75197147  1
  O  O94  1  0.31681111  0.36707418  0.55292456  1
  O  O95  1  0.35395577  0.47383392  0.23065971  1
  O  O96  1  0.02487882  0.01193879  0.08690480  1
  O  O97  1  0.58273777  0.93400844  0.91509509  1
  O  O98  1  0.80405010  0.24599703  0.68602822  1
  O  O99  1  0.38473619  0.90857320  0.76850224  1
  O  O100  1  0.22062255  0.51936990  0.72847980  1
  O  O101  1  0.57541631  0.46702026  0.06911010  1
