# generated using pymatgen
data_C
_symmetry_space_group_name_H-M   'P 1'
_cell_length_a   10.24840470
_cell_length_b   10.90326092
_cell_length_c   10.12338545
_cell_angle_alpha   85.14594390
_cell_angle_beta   89.94632117
_cell_angle_gamma   91.11063314
_symmetry_Int_Tables_number   1
_chemical_formula_structural   C
_chemical_formula_sum   C100
_cell_volume   1126.92492279
_cell_formula_units_Z   100
loop_
 _symmetry_equiv_pos_site_id
 _symmetry_equiv_pos_as_xyz
  1  'x, y, z'
loop_
 _atom_site_type_symbol
 _atom_site_label
 _atom_site_symmetry_multiplicity
 _atom_site_fract_x
 _atom_site_fract_y
 _atom_site_fract_z
 _atom_site_occupancy
  C  C0  1  0.88069500  0.10694300  0.22603600  1
  C  C1  1  0.72172400  0.05499200  0.91085600  1
  C  C2  1  0.86916300  0.79983900  0.01025900  1
  C  C3  1  0.92378300  0.82226200  0.12770300  1
  C  C4  1  0.33607400  0.46227600  0.46397600  1
  C  C5  1  0.90216400  0.75481400  0.61664800  1
  C  C6  1  0.73713800  0.59387100  0.64660700  1
  C  C7  1  0.87359200  0.22927000  0.79218900  1
  C  C8  1  0.45284500  0.65623600  0.76873000  1
  C  C9  1  0.91127600  0.18792300  0.66660300  1
  C  C10  1  0.26435400  0.67283100  0.91120700  1
  C  C11  1  0.11193900  0.04394700  0.97610000  1
  C  C12  1  0.37237800  0.61700000  0.25990900  1
  C  C13  1  0.34508400  0.06297100  0.26959000  1
  C  C14  1  0.80964300  0.38620800  0.56108200  1
  C  C15  1  0.58177000  0.30216700  0.23956700  1
  C  C16  1  0.25746300  0.70781200  0.04608600  1
  C  C17  1  0.40968000  0.16149200  0.18702900  1
  C  C18  1  0.23052200  0.26535700  0.41004100  1
  C  C19  1  0.03961900  0.61413000  0.38265600  1
  C  C20  1  0.92523600  0.54073400  0.35430400  1
  C  C21  1  0.30222400  0.45875300  0.83069400  1
  C  C22  1  0.87085700  0.80670200  0.49455400  1
  C  C23  1  0.67966400  0.17634200  0.91681700  1
  C  C24  1  0.58161500  0.83015700  0.24739500  1
  C  C25  1  0.29238200  0.34419900  0.50548600  1
  C  C26  1  0.66735300  0.54100400  0.07561500  1
  C  C27  1  0.26645300  0.08506200  0.73049400  1
  C  C28  1  0.86134200  0.55932300  0.23289400  1
  C  C29  1  0.78692200  0.82326700  0.90733300  1
  C  C30  1  0.38379200  0.38813500  0.74642500  1
  C  C31  1  0.22457700  0.37560500  0.04467700  1
  C  C32  1  0.11989400  0.07522800  0.76612300  1
  C  C33  1  0.23293700  0.31674100  0.27981500  1
  C  C34  1  0.35857900  0.57938300  0.87895500  1
  C  C35  1  0.37317200  0.93194900  0.28800100  1
  C  C36  1  0.45207300  0.83357000  0.28638900  1
  C  C37  1  0.48505000  0.78890400  0.79224100  1
  C  C38  1  0.07020000  0.99806200  0.10321400  1
  C  C39  1  0.76847000  0.55059700  0.15035800  1
  C  C40  1  0.08629200  0.11044400  0.53025000  1
  C  C41  1  0.25246000  0.90342800  0.36301500  1
  C  C42  1  0.82640900  0.16071000  0.33150600  1
  C  C43  1  0.74476300  0.94642400  0.89982800  1
  C  C44  1  0.58322800  0.44415400  0.88348100  1
  C  C45  1  0.62704100  0.38447700  0.33754300  1
  C  C46  1  0.65634500  0.55354300  0.56129000  1
  C  C47  1  0.66373400  0.38132000  0.77725400  1
  C  C48  1  0.79701400  0.69563600  0.70531400  1
  C  C49  1  0.36766800  0.55435700  0.54746300  1
  C  C50  1  0.69881800  0.82566100  0.22509800  1
  C  C51  1  0.34950800  0.63187900  0.12422700  1
  C  C52  1  0.32371900  0.30970400  0.64578900  1
  C  C53  1  0.81011400  0.23435500  0.43239800  1
  C  C54  1  0.02941900  0.11436100  0.64781200  1
  C  C55  1  0.66091800  0.23341500  0.15319100  1
  C  C56  1  0.14548500  0.84315000  0.90471300  1
  C  C57  1  0.07466600  0.20396400  0.15591900  1
  C  C58  1  0.37807400  0.72013100  0.35414100  1
  C  C59  1  0.44629600  0.28581900  0.22471200  1
  C  C60  1  0.86920700  0.82882500  0.37113200  1
  C  C61  1  0.33589900  0.43405000  0.09483600  1
  C  C62  1  0.54377000  0.48275400  0.36817900  1
  C  C63  1  0.59634100  0.19046200  0.03473500  1
  C  C64  1  0.13554300  0.73274500  0.70700000  1
  C  C65  1  0.23809500  0.77493600  0.38420200  1
  C  C66  1  0.85906800  0.44572700  0.43398400  1
  C  C67  1  0.12102100  0.96549300  0.87288300  1
  C  C68  1  0.17566800  0.13386900  0.43579600  1
  C  C69  1  0.72724700  0.45346500  0.65178200  1
  C  C70  1  0.16268900  0.29495800  0.15801600  1
  C  C71  1  0.07555500  0.14621600  0.88755100  1
  C  C72  1  0.75252100  0.36214800  0.39987300  1
  C  C73  1  0.03205500  0.74367800  0.64685000  1
  C  C74  1  0.45350900  0.65641600  0.48082500  1
  C  C75  1  0.58777900  0.71791800  0.80867300  1
  C  C76  1  0.16238500  0.80406400  0.04478100  1
  C  C77  1  0.56673900  0.57337300  0.45553400  1
  C  C78  1  0.00909300  0.09742800  0.16772800  1
  C  C79  1  0.76772200  0.17232500  0.20505600  1
  C  C80  1  0.35502700  0.39015500  0.23756000  1
  C  C81  1  0.06567300  0.86790000  0.12407300  1
  C  C82  1  0.41385900  0.53774200  0.02525500  1
  C  C83  1  0.41684400  0.63433500  0.62907500  1
  C  C84  1  0.83586400  0.82705700  0.24109300  1
  C  C85  1  0.48201700  0.13732700  0.07884500  1
  C  C86  1  0.56594400  0.51006100  0.00027200  1
  C  C87  1  0.40075500  0.48926500  0.32437300  1
  C  C88  1  0.84661700  0.25086000  0.56110300  1
  C  C89  1  0.42542300  0.89989700  0.76780400  1
  C  C90  1  0.19154300  0.74767400  0.82811700  1
  C  C91  1  0.21768200  0.38690300  0.90729800  1
  C  C92  1  0.96797100  0.21807600  0.88976100  1
  C  C93  1  0.31059000  0.19465800  0.69098900  1
  C  C94  1  0.73568100  0.26553700  0.82714700  1
  C  C95  1  0.35063300  0.98496600  0.74415900  1
  C  C96  1  0.12933000  0.69081400  0.39165400  1
  C  C97  1  0.73160300  0.73730800  0.81047600  1
  C  C98  1  0.51418500  0.38896100  0.78999800  1
  C  C99  1  0.23630300  0.04270300  0.35840300  1
