# generated using pymatgen
data_V2O5
_symmetry_space_group_name_H-M   'P 1'
_cell_length_a   12.76265139
_cell_length_b   12.32630861
_cell_length_c   12.55459333
_cell_angle_alpha   90.27951083
_cell_angle_beta   87.03599351
_cell_angle_gamma   88.44678885
_symmetry_Int_Tables_number   1
_chemical_formula_structural   V2O5
_chemical_formula_sum   'V30 O75'
_cell_volume   1971.63728232
_cell_formula_units_Z   15
loop_
 _symmetry_equiv_pos_site_id
 _symmetry_equiv_pos_as_xyz
  1  'x, y, z'
loop_
 _atom_site_type_symbol
 _atom_site_label
 _atom_site_symmetry_multiplicity
 _atom_site_fract_x
 _atom_site_fract_y
 _atom_site_fract_z
 _atom_site_occupancy
  V  V0  1  0.97276829  0.95137003  0.22664462  1
  V  V1  1  0.05444889  0.81056672  0.69995934  1
  V  V2  1  0.20095479  0.08536372  0.21079835  1
  V  V3  1  0.82675094  0.19345449  0.27518429  1
  V  V4  1  0.90814638  0.02634166  0.77176801  1
  V  V5  1  0.89356567  0.83628639  0.00089781  1
  V  V6  1  0.04922972  0.58996214  0.02172775  1
  V  V7  1  0.48411905  0.69746809  0.17349671  1
  V  V8  1  0.73287038  0.28035377  0.52488595  1
  V  V9  1  0.31979349  0.52086715  0.04881931  1
  V  V10  1  0.47078498  0.98598900  0.56253041  1
  V  V11  1  0.37939784  0.93592579  0.32225395  1
  V  V12  1  0.34944379  0.91143025  0.91917949  1
  V  V13  1  0.41220017  0.16172002  0.86640451  1
  V  V14  1  0.05334857  0.52506453  0.72549071  1
  V  V15  1  0.96207168  0.27460445  0.68697825  1
  V  V16  1  0.96915623  0.67379609  0.30830473  1
  V  V17  1  0.21885926  0.26789335  0.98807202  1
  V  V18  1  0.47292947  0.66648608  0.43844637  1
  V  V19  1  0.68030644  0.17654606  0.76233273  1
  V  V20  1  0.20594697  0.39390411  0.63473310  1
  V  V21  1  0.28166620  0.78909334  0.59199556  1
  V  V22  1  0.57811003  0.42980920  0.47465614  1
  V  V23  1  0.86971961  0.46213839  0.18552278  1
  V  V24  1  0.66468333  0.44699569  0.80697898  1
  V  V25  1  0.19177973  0.30494287  0.37813452  1
  V  V26  1  0.67502924  0.83662059  0.50415095  1
  V  V27  1  0.54051513  0.85511715  0.97314962  1
  V  V28  1  0.70028451  0.53246931  0.07130407  1
  V  V29  1  0.43054849  0.36720432  0.24571409  1
  O  O30  1  0.09032321  0.38544978  0.37218214  1
  O  O31  1  0.20242355  0.15566853  0.09198540  1
  O  O32  1  0.95083787  0.45039317  0.69791314  1
  O  O33  1  0.93557711  0.94383653  0.09830048  1
  O  O34  1  0.71008896  0.41667426  0.44194911  1
  O  O35  1  0.69706827  0.50288832  0.69190966  1
  O  O36  1  0.26444428  0.38265304  0.05045947  1
  O  O37  1  0.02131298  0.67032869  0.71614145  1
  O  O38  1  0.74513825  0.73930923  0.55581122  1
  O  O39  1  0.16187616  0.16822445  0.31702953  1
  O  O40  1  0.78103372  0.79747855  0.04985430  1
  O  O41  1  0.23788221  0.88073381  0.97632392  1
  O  O42  1  0.70161200  0.52308155  0.93329551  1
  O  O43  1  0.41762364  0.46264134  0.14211499  1
  O  O44  1  0.35652587  0.03320035  0.83809570  1
  O  O45  1  0.54508131  0.17058564  0.80375270  1
  O  O46  1  0.34492146  0.70404300  0.48379620  1
  O  O47  1  0.63429394  0.92041420  0.91461491  1
  O  O48  1  0.58434056  0.58833554  0.13550857  1
  O  O49  1  0.43551889  0.94749041  0.02150569  1
  O  O50  1  0.98001345  0.47530122  0.10083976  1
  O  O51  1  0.10044168  0.29768150  0.96106750  1
  O  O52  1  0.27586790  0.89953264  0.39175201  1
  O  O53  1  0.55566649  0.77212594  0.44207130  1
  O  O54  1  0.37418007  0.52924050  0.93211749  1
  O  O55  1  0.11225655  0.97574521  0.21544755  1
  O  O56  1  0.32883195  0.42077545  0.64296696  1
  O  O57  1  0.88319590  0.32083551  0.24214786  1
  O  O58  1  0.74545777  0.90059625  0.41255001  1
  O  O59  1  0.15141840  0.43071962  0.77068442  1
  O  O60  1  0.76346186  0.07849162  0.80980970  1
  O  O61  1  0.99067800  0.72119050  0.01372493  1
  O  O62  1  0.44649285  0.80511750  0.88130871  1
  O  O63  1  0.13301491  0.51266847  0.59695591  1
  O  O64  1  0.05731153  0.64520033  0.21005619  1
  O  O65  1  0.46238553  0.99334554  0.41597706  1
  O  O66  1  0.32932593  0.03822812  0.22852487  1
  O  O67  1  0.73907462  0.41136763  0.13353108  1
  O  O68  1  0.52534875  0.56219934  0.51783236  1
  O  O69  1  0.84599973  0.31187832  0.57671262  1
  O  O70  1  0.81016584  0.59378327  0.11246686  1
  O  O71  1  0.69665639  0.17345813  0.62033661  1
  O  O72  1  0.88241380  0.54604111  0.29451233  1
  O  O73  1  0.95640656  0.27955050  0.81547528  1
  O  O74  1  0.87369533  0.89672290  0.88340523  1
  O  O75  1  0.37964512  0.66466631  0.10546583  1
  O  O76  1  0.91597430  0.07333790  0.28232641  1
  O  O77  1  0.29794188  0.34993185  0.29097443  1
  O  O78  1  0.94981211  0.90788410  0.68757873  1
  O  O79  1  0.18545873  0.58549653  0.04002990  1
  O  O80  1  0.47198082  0.62291194  0.30734766  1
  O  O81  1  0.23679044  0.30506003  0.50378741  1
  O  O82  1  0.43405585  0.82173001  0.25097862  1
  O  O83  1  0.58048304  0.32601720  0.56305805  1
  O  O84  1  0.94571361  0.83163258  0.28941494  1
  O  O85  1  0.29613801  0.24955720  0.86156120  1
  O  O86  1  0.92288202  0.12966477  0.67101123  1
  O  O87  1  0.02547969  0.66198500  0.42003256  1
  O  O88  1  0.75559999  0.20489414  0.40545355  1
  O  O89  1  0.47725399  0.25401054  0.19636722  1
  O  O90  1  0.14694594  0.82901850  0.58450570  1
  O  O91  1  0.45147958  0.10598148  0.61373499  1
  O  O92  1  0.53818212  0.43090688  0.81406542  1
  O  O93  1  0.28688337  0.71464289  0.69679003  1
  O  O94  1  0.42890449  0.16281742  0.99264160  1
  O  O95  1  0.09065115  0.27761667  0.64068665  1
  O  O96  1  0.99565443  0.06130121  0.85174917  1
  O  O97  1  0.74307664  0.16584962  0.18891260  1
  O  O98  1  0.36561104  0.90073773  0.61157558  1
  O  O99  1  0.50855914  0.39767981  0.36234717  1
  O  O100  1  0.59366758  0.93302557  0.59650034  1
  O  O101  1  0.56837027  0.78362909  0.09315771  1
  O  O102  1  0.03415782  0.54628094  0.89788961  1
  O  O103  1  0.72263216  0.30122820  0.80073058  1
  O  O104  1  0.11457340  0.84604868  0.80388029  1
