# generated using pymatgen
data_GaN
_symmetry_space_group_name_H-M   'P 1'
_cell_length_a   11.75566865
_cell_length_b   11.22902952
_cell_length_c   11.64669980
_cell_angle_alpha   86.26621973
_cell_angle_beta   89.49012122
_cell_angle_gamma   84.97946051
_symmetry_Int_Tables_number   1
_chemical_formula_structural   GaN
_chemical_formula_sum   'Ga50 N50'
_cell_volume   1528.26249139
_cell_formula_units_Z   50
loop_
 _symmetry_equiv_pos_site_id
 _symmetry_equiv_pos_as_xyz
  1  'x, y, z'
loop_
 _atom_site_type_symbol
 _atom_site_label
 _atom_site_symmetry_multiplicity
 _atom_site_fract_x
 _atom_site_fract_y
 _atom_site_fract_z
 _atom_site_occupancy
  Ga  Ga0  1  0.34468909  0.53001916  0.22773841  1
  Ga  Ga1  1  0.25261678  0.55217123  0.55650351  1
  Ga  Ga2  1  0.85484745  0.89388209  0.05161729  1
  Ga  Ga3  1  0.13967458  0.49158458  0.76449346  1
  Ga  Ga4  1  0.31212210  0.25833520  0.31268893  1
  Ga  Ga5  1  0.46955860  0.12293806  0.75120968  1
  Ga  Ga6  1  0.62385501  0.89172978  0.75402458  1
  Ga  Ga7  1  0.88704684  0.29379457  0.46865718  1
  Ga  Ga8  1  0.39196483  0.27061348  0.52322246  1
  Ga  Ga9  1  0.70255251  0.00437989  0.18131607  1
  Ga  Ga10  1  0.17956421  0.70743486  0.30578259  1
  Ga  Ga11  1  0.17292190  0.96684327  0.34035665  1
  Ga  Ga12  1  0.51082125  0.35759167  0.17499832  1
  Ga  Ga13  1  0.62253277  0.42634409  0.37841879  1
  Ga  Ga14  1  0.04403823  0.38260750  0.61019749  1
  Ga  Ga15  1  0.68729914  0.08923312  0.90554968  1
  Ga  Ga16  1  0.17500486  0.16603553  0.49484821  1
  Ga  Ga17  1  0.22686684  0.38401608  0.03953582  1
  Ga  Ga18  1  0.94329760  0.66178475  0.67046989  1
  Ga  Ga19  1  0.26465603  0.61965543  0.96347354  1
  Ga  Ga20  1  0.73291638  0.21171755  0.35256027  1
  Ga  Ga21  1  0.40471116  0.44519409  0.76794370  1
  Ga  Ga22  1  0.04252538  0.58099976  0.22982363  1
  Ga  Ga23  1  0.94933714  0.13722262  0.89389567  1
  Ga  Ga24  1  0.50959325  0.53388649  0.52911150  1
  Ga  Ga25  1  0.05459682  0.65347259  0.94841328  1
  Ga  Ga26  1  0.79428753  0.59651086  0.08922362  1
  Ga  Ga27  1  0.37026637  0.78691781  0.13590727  1
  Ga  Ga28  1  0.61045874  0.82513460  0.98058546  1
  Ga  Ga29  1  0.94477767  0.12538363  0.16829108  1
  Ga  Ga30  1  0.84533965  0.34918041  0.93287658  1
  Ga  Ga31  1  0.91758600  0.14457329  0.67090121  1
  Ga  Ga32  1  0.02086832  0.73871979  0.47658102  1
  Ga  Ga33  1  0.55898075  0.67452638  0.66940828  1
  Ga  Ga34  1  0.90793808  0.89935939  0.35253124  1
  Ga  Ga35  1  0.03087479  0.32173939  0.13453449  1
  Ga  Ga36  1  0.78175357  0.43801871  0.66181430  1
  Ga  Ga37  1  0.72335837  0.74083154  0.50371089  1
  Ga  Ga38  1  0.69147750  0.61832321  0.83373957  1
  Ga  Ga39  1  0.73745290  0.71447443  0.27854396  1
  Ga  Ga40  1  0.90852403  0.54536211  0.46207014  1
  Ga  Ga41  1  0.82938155  0.43654776  0.27146897  1
  Ga  Ga42  1  0.07038989  0.89570210  0.12697934  1
  Ga  Ga43  1  0.49351802  0.96831434  0.52689136  1
  Ga  Ga44  1  0.60541399  0.36147467  0.84234500  1
  Ga  Ga45  1  0.33495576  0.82225587  0.47184801  1
  Ga  Ga46  1  0.41754431  0.89334088  0.85486475  1
  Ga  Ga47  1  0.51909107  0.67485321  0.27534251  1
  Ga  Ga48  1  0.66887993  0.15350591  0.60722416  1
  Ga  Ga49  1  0.69654552  0.28671697  0.10520603  1
  N  N50  1  0.36234044  0.71091860  0.83598971  1
  N  N51  1  0.13219107  0.91833394  0.82982107  1
  N  N52  1  0.54669584  0.98210371  0.26449211  1
  N  N53  1  0.90562499  0.01079166  0.56478820  1
  N  N54  1  0.60516331  0.83764938  0.59928946  1
  N  N55  1  0.80492766  0.59901032  0.60023408  1
  N  N56  1  0.02472357  0.22316476  0.55936096  1
  N  N57  1  0.21956689  0.84608182  0.19902677  1
  N  N58  1  0.15517160  0.42724950  0.46695820  1
  N  N59  1  0.49319159  0.10830117  0.99334103  1
  N  N60  1  0.77034241  0.15055391  0.20101714  1
  N  N61  1  0.74556337  0.45181064  0.82199522  1
  N  N62  1  0.30966622  0.60556909  0.38355788  1
  N  N63  1  0.99364028  0.42769071  0.25088066  1
  N  N64  1  0.17034577  0.18813304  0.79857907  1
  N  N65  1  0.73266351  0.07200502  0.47187785  1
  N  N66  1  0.02049849  0.98836086  0.26482870  1
  N  N67  1  0.29536819  0.95058942  0.63709811  1
  N  N68  1  0.51507978  0.50069600  0.25711561  1
  N  N69  1  0.71574397  0.68893755  0.97043134  1
  N  N70  1  0.95778923  0.64886827  0.09523265  1
  N  N71  1  0.97769770  0.77274254  0.05130395  1
  N  N72  1  0.12910747  0.83765683  0.77893131  1
  N  N73  1  0.45120282  0.85863267  0.01456975  1
  N  N74  1  0.52908039  0.48020695  0.98849917  1
  N  N75  1  0.27058676  0.46006097  0.87761405  1
  N  N76  1  0.00734348  0.58972817  0.81140505  1
  N  N77  1  0.69988759  0.95961909  0.01993716  1
  N  N78  1  0.49284874  0.57510002  0.00442696  1
  N  N79  1  0.20150899  0.12336027  0.07123463  1
  N  N80  1  0.22070946  0.02295946  0.62166411  1
  N  N81  1  0.38888991  0.43061608  0.59800293  1
  N  N82  1  0.17994612  0.39932627  0.37406037  1
  N  N83  1  0.40737357  0.66138469  0.41811585  1
  N  N84  1  0.50162058  0.13546444  0.57537499  1
  N  N85  1  0.80244049  0.86775762  0.22919545  1
  N  N86  1  0.45769168  0.14873556  0.07313382  1
  N  N87  1  0.25932980  0.08873633  0.14452052  1
  N  N88  1  0.83754369  0.83577356  0.76363573  1
  N  N89  1  0.80034223  0.41726484  0.09126927  1
  N  N90  1  0.78359749  0.27510684  0.61676035  1
  N  N91  1  0.41371123  0.64649102  0.76830885  1
  N  N92  1  0.49259980  0.03614405  0.32917272  1
  N  N93  1  0.24932371  0.18602463  0.85237337  1
  N  N94  1  0.83805578  0.01262143  0.48206461  1
  N  N95  1  0.96132470  0.02553898  0.03079030  1
  N  N96  1  0.64856136  0.06216886  0.75547814  1
  N  N97  1  0.88714206  0.89006269  0.82140564  1
  N  N98  1  0.34224753  0.36565645  0.16995949  1
  N  N99  1  0.69724965  0.24567662  0.94457680  1
