# generated using pymatgen
data_ZnS
_symmetry_space_group_name_H-M   'P 1'
_cell_length_a   12.89828125
_cell_length_b   13.60906525
_cell_length_c   14.36083762
_cell_angle_alpha   97.24952207
_cell_angle_beta   83.89188068
_cell_angle_gamma   88.70951874
_symmetry_Int_Tables_number   1
_chemical_formula_structural   ZnS
_chemical_formula_sum   'Zn50 S50'
_cell_volume   2484.80907322
_cell_formula_units_Z   50
loop_
 _symmetry_equiv_pos_site_id
 _symmetry_equiv_pos_as_xyz
  1  'x, y, z'
loop_
 _atom_site_type_symbol
 _atom_site_label
 _atom_site_symmetry_multiplicity
 _atom_site_fract_x
 _atom_site_fract_y
 _atom_site_fract_z
 _atom_site_occupancy
  Zn  Zn0  1  0.30277368  0.78670816  0.91981294  1
  Zn  Zn1  1  0.35098836  0.28544534  0.07049819  1
  Zn  Zn2  1  0.53071411  0.22000189  0.01040746  1
  Zn  Zn3  1  0.50956267  0.28948617  0.67380265  1
  Zn  Zn4  1  0.15286285  0.07520750  0.21239164  1
  Zn  Zn5  1  0.00420592  0.53867178  0.51321678  1
  Zn  Zn6  1  0.21118064  0.01914254  0.77298503  1
  Zn  Zn7  1  0.61276075  0.04227214  0.19512733  1
  Zn  Zn8  1  0.09320354  0.15754385  0.87828030  1
  Zn  Zn9  1  0.46966192  0.96549661  0.73601575  1
  Zn  Zn10  1  0.79830333  0.46563904  0.18755224  1
  Zn  Zn11  1  0.65020653  0.75422457  0.07170155  1
  Zn  Zn12  1  0.82924603  0.83098452  0.14825964  1
  Zn  Zn13  1  0.93304775  0.98641399  0.04798674  1
  Zn  Zn14  1  0.09123364  0.63613510  0.09522584  1
  Zn  Zn15  1  0.64943660  0.50422376  0.04923475  1
  Zn  Zn16  1  0.24523290  0.17491259  0.56833819  1
  Zn  Zn17  1  0.11753530  0.81215628  0.28613270  1
  Zn  Zn18  1  0.72299273  0.05382989  0.42302943  1
  Zn  Zn19  1  0.01687571  0.05197110  0.67086387  1
  Zn  Zn20  1  0.03136083  0.19498121  0.10200585  1
  Zn  Zn21  1  0.51439509  0.90203288  0.40066282  1
  Zn  Zn22  1  0.84045974  0.20770944  0.26961970  1
  Zn  Zn23  1  0.70776484  0.25840547  0.55781676  1
  Zn  Zn24  1  0.23631965  0.06792556  0.94110480  1
  Zn  Zn25  1  0.30041426  0.71689579  0.67684634  1
  Zn  Zn26  1  0.97243255  0.81252552  0.99699074  1
  Zn  Zn27  1  0.40322792  0.65470846  0.00181990  1
  Zn  Zn28  1  0.76992731  0.23060120  0.01005519  1
  Zn  Zn29  1  0.70680246  0.88619884  0.44391190  1
  Zn  Zn30  1  0.29401039  0.78624401  0.09921571  1
  Zn  Zn31  1  0.21596151  0.49277178  0.58858133  1
  Zn  Zn32  1  0.56595596  0.77049305  0.49833395  1
  Zn  Zn33  1  0.22415411  0.32952205  0.35576612  1
  Zn  Zn34  1  0.51770748  0.16324258  0.43902473  1
  Zn  Zn35  1  0.93038427  0.79467340  0.47699520  1
  Zn  Zn36  1  0.51949164  0.32290063  0.17965680  1
  Zn  Zn37  1  0.78521808  0.45505436  0.67840689  1
  Zn  Zn38  1  0.02879509  0.35046160  0.77257772  1
  Zn  Zn39  1  0.54977805  0.60703123  0.31596091  1
  Zn  Zn40  1  0.30727750  0.54670416  0.27044378  1
  Zn  Zn41  1  0.48231510  0.51351825  0.49328182  1
  Zn  Zn42  1  0.24904107  0.34232303  0.82970930  1
  Zn  Zn43  1  0.86309424  0.63019432  0.26269025  1
  Zn  Zn44  1  0.60761179  0.05854007  0.79536078  1
  Zn  Zn45  1  0.78441626  0.64964111  0.53880061  1
  Zn  Zn46  1  0.04410409  0.45128643  0.05693256  1
  Zn  Zn47  1  0.89874339  0.57847736  0.08631017  1
  Zn  Zn48  1  0.21493431  0.58465966  0.85412385  1
  Zn  Zn49  1  0.17686429  0.83602152  0.54518867  1
  S  S50  1  0.77525675  0.82483914  0.56990287  1
  S  S51  1  0.96246662  0.08221119  0.20852771  1
  S  S52  1  0.42213821  0.83192924  0.61773929  1
  S  S53  1  0.93097610  0.13725686  0.98029917  1
  S  S54  1  0.34743513  0.09400236  0.67839740  1
  S  S55  1  0.21987117  0.16317242  0.08224413  1
  S  S56  1  0.89872226  0.36794953  0.27305090  1
  S  S57  1  0.97493365  0.75609359  0.20376246  1
  S  S58  1  0.66089947  0.19933953  0.15645771  1
  S  S59  1  0.88049947  0.58221141  0.64526713  1
  S  S60  1  0.57760821  0.14229173  0.58213830  1
  S  S61  1  0.63012774  0.40842979  0.63310970  1
  S  S62  1  0.36399153  0.28189598  0.47577649  1
  S  S63  1  0.12840049  0.71964648  0.95527251  1
  S  S64  1  0.38774926  0.60203055  0.39918222  1
  S  S65  1  0.71093624  0.21817753  0.39370977  1
  S  S66  1  0.36712760  0.65953922  0.79728227  1
  S  S67  1  0.21988066  0.66480811  0.20703519  1
  S  S68  1  0.10259832  0.91403426  0.69783367  1
  S  S69  1  0.62781857  0.60439199  0.46980327  1
  S  S70  1  0.79994815  0.40484665  0.01781560  1
  S  S71  1  0.84488593  0.08596435  0.65962077  1
  S  S72  1  0.65816810  0.19299312  0.89007964  1
  S  S73  1  0.24268835  0.15726328  0.32699277  1
  S  S74  1  0.57801010  0.62644626  0.98099606  1
  S  S75  1  0.10611612  0.19952549  0.69307230  1
  S  S76  1  0.60942887  0.47045883  0.20724175  1
  S  S77  1  0.11734506  0.40508194  0.48397000  1
  S  S78  1  0.36674460  0.39165928  0.94540048  1
  S  S79  1  0.92528973  0.62719178  0.41059636  1
  S  S80  1  0.04199654  0.35145557  0.18826516  1
  S  S81  1  0.83074813  0.69716626  0.00955578  1
  S  S82  1  0.58641962  0.75343580  0.24807625  1
  S  S83  1  0.17957065  0.66564117  0.58516183  1
  S  S84  1  0.19615442  0.91107665  0.18260923  1
  S  S85  1  0.16720568  0.46009514  0.74501755  1
  S  S86  1  0.69819483  0.92227789  0.08818333  1
  S  S87  1  0.38084945  0.21886144  0.77328509  1
  S  S88  1  0.39119348  0.40159507  0.57547883  1
  S  S89  1  0.73526884  0.77514769  0.28875878  1
  S  S90  1  0.33575648  0.37724009  0.22736031  1
  S  S91  1  0.08810063  0.33224190  0.92157671  1
  S  S92  1  0.34772658  0.90532483  0.52138785  1
  S  S93  1  0.49015310  0.03811012  0.32092591  1
  S  S94  1  0.85311681  0.32882026  0.75385214  1
  S  S95  1  0.34485878  0.93831626  0.87321381  1
  S  S96  1  0.86662069  0.22613080  0.62757268  1
  S  S97  1  0.06940058  0.87956053  0.43868152  1
  S  S98  1  0.19116148  0.08387778  0.44076762  1
  S  S99  1  0.28228052  0.52452901  0.99131757  1
