# generated using pymatgen
data_SbN
_symmetry_space_group_name_H-M   'P 1'
_cell_length_a   16.95682632
_cell_length_b   15.76893098
_cell_length_c   15.27458912
_cell_angle_alpha   90.40357866
_cell_angle_beta   87.53660310
_cell_angle_gamma   88.24261192
_symmetry_Int_Tables_number   1
_chemical_formula_structural   SbN
_chemical_formula_sum   'Sb50 N50'
_cell_volume   4078.45138605
_cell_formula_units_Z   50
loop_
 _symmetry_equiv_pos_site_id
 _symmetry_equiv_pos_as_xyz
  1  'x, y, z'
loop_
 _atom_site_type_symbol
 _atom_site_label
 _atom_site_symmetry_multiplicity
 _atom_site_fract_x
 _atom_site_fract_y
 _atom_site_fract_z
 _atom_site_occupancy
  Sb  Sb0  1  0.15008224  0.78473972  0.34594049  1
  Sb  Sb1  1  0.55748537  0.05810507  0.49707306  1
  Sb  Sb2  1  0.43728224  0.19779346  0.48110971  1
  Sb  Sb3  1  0.36715779  0.43341451  0.20371232  1
  Sb  Sb4  1  0.87589743  0.77991430  0.41303691  1
  Sb  Sb5  1  0.02790772  0.83358513  0.47461065  1
  Sb  Sb6  1  0.33251871  0.53138935  0.37031132  1
  Sb  Sb7  1  0.76910224  0.22704857  0.55752195  1
  Sb  Sb8  1  0.53710966  0.38905356  0.21019952  1
  Sb  Sb9  1  0.95391151  0.37291799  0.37442227  1
  Sb  Sb10  1  0.61778459  0.52991014  0.71683344  1
  Sb  Sb11  1  0.86429981  0.46091360  0.16458271  1
  Sb  Sb12  1  0.70879322  0.57689970  0.97163398  1
  Sb  Sb13  1  0.70803390  0.67916520  0.58104375  1
  Sb  Sb14  1  0.47338815  0.74161216  0.63715351  1
  Sb  Sb15  1  0.85817216  0.52519782  0.34834698  1
  Sb  Sb16  1  0.67968941  0.52925396  0.15978645  1
  Sb  Sb17  1  0.24878651  0.39049953  0.45805936  1
  Sb  Sb18  1  0.22159654  0.67556324  0.47689379  1
  Sb  Sb19  1  0.36892290  0.55978619  0.57569838  1
  Sb  Sb20  1  0.60432315  0.73013809  0.80372332  1
  Sb  Sb21  1  0.03935766  0.59275862  0.36696747  1
  Sb  Sb22  1  0.30445320  0.39948308  0.63444641  1
  Sb  Sb23  1  0.04025388  0.55832768  0.11182319  1
  Sb  Sb24  1  0.88654569  0.95685815  0.54847127  1
  Sb  Sb25  1  0.65209679  0.90079988  0.71114760  1
  Sb  Sb26  1  0.76302376  0.46141447  0.78734911  1
  Sb  Sb27  1  0.50869433  0.97144532  0.64734069  1
  Sb  Sb28  1  0.75559317  0.04483959  0.40166497  1
  Sb  Sb29  1  0.18698980  0.45225766  0.13184426  1
  Sb  Sb30  1  0.93029553  0.69308668  0.56828094  1
  Sb  Sb31  1  0.57851222  0.30475336  0.60444408  1
  Sb  Sb32  1  0.75354089  0.06100807  0.63856328  1
  Sb  Sb33  1  0.41378433  0.25536388  0.65831155  1
  Sb  Sb34  1  0.72364118  0.41191170  0.33437109  1
  Sb  Sb35  1  0.43649625  0.61999125  0.79595049  1
  Sb  Sb36  1  0.46924195  0.40212396  0.45035762  1
  Sb  Sb37  1  0.09356437  0.61641741  0.59753774  1
  Sb  Sb38  1  0.80665176  0.48662767  0.59559950  1
  Sb  Sb39  1  0.71231153  0.29672466  0.76229050  1
  Sb  Sb40  1  0.55980561  0.51959072  0.95113580  1
  Sb  Sb41  1  0.47920492  0.60378644  0.12752571  1
  Sb  Sb42  1  0.62499166  0.26391522  0.37298848  1
  Sb  Sb43  1  0.65201574  0.50276135  0.50364127  1
  Sb  Sb44  1  0.84774089  0.29721244  0.24742773  1
  Sb  Sb45  1  0.89439083  0.16488036  0.43791270  1
  Sb  Sb46  1  0.19616756  0.61275705  0.22828193  1
  Sb  Sb47  1  0.68640751  0.88006530  0.52446389  1
  Sb  Sb48  1  0.09216954  0.45842377  0.50510636  1
  Sb  Sb49  1  0.04850053  0.35561542  0.20621010  1
  N  N50  1  0.94780668  0.07714896  0.12255406  1
  N  N51  1  0.96504697  0.98534241  0.85450191  1
  N  N52  1  0.55918020  0.51933914  0.18500134  1
  N  N53  1  0.43046918  0.53276153  0.45361899  1
  N  N54  1  0.81751894  0.11754684  0.95671487  1
  N  N55  1  0.52750483  0.88574603  0.17916044  1
  N  N56  1  0.43980128  0.83297405  0.38030037  1
  N  N57  1  0.05632065  0.76468474  0.79695404  1
  N  N58  1  0.00193672  0.05859759  0.08226569  1
  N  N59  1  0.32789907  0.23483370  0.02495432  1
  N  N60  1  0.50147454  0.98321330  0.90120984  1
  N  N61  1  0.30349141  0.74605437  0.69328741  1
  N  N62  1  0.04225190  0.32844869  0.94092340  1
  N  N63  1  0.00873422  0.95839488  0.89993944  1
  N  N64  1  0.98401931  0.44622979  0.14001349  1
  N  N65  1  0.44584243  0.01995938  0.91864043  1
  N  N66  1  0.79603341  0.16245565  0.00963515  1
  N  N67  1  0.19414282  0.21435919  0.73246334  1
  N  N68  1  0.81606762  0.61656375  0.59080885  1
  N  N69  1  0.04730850  0.14519876  0.29033540  1
  N  N70  1  0.76959055  0.17585794  0.42055794  1
  N  N71  1  0.63825546  0.73739887  0.31660362  1
  N  N72  1  0.66882283  0.69505310  0.26197869  1
  N  N73  1  0.41939018  0.76756999  0.39291689  1
  N  N74  1  0.87229449  0.03509011  0.44214202  1
  N  N75  1  0.24747914  0.76309078  0.02250597  1
  N  N76  1  0.15520128  0.64748050  0.36655492  1
  N  N77  1  0.56423401  0.22395726  0.49046960  1
  N  N78  1  0.08631063  0.77188867  0.85986779  1
  N  N79  1  0.18711373  0.24621517  0.79772033  1
  N  N80  1  0.34705113  0.77762588  0.63783860  1
  N  N81  1  0.64878715  0.65529078  0.69816988  1
  N  N82  1  0.93037795  0.65985126  0.91951741  1
  N  N83  1  0.97973778  0.30908118  0.94762508  1
  N  N84  1  0.46984539  0.86381943  0.15690454  1
  N  N85  1  0.25974928  0.71579063  0.74386213  1
  N  N86  1  0.81174546  0.86816417  0.49741203  1
  N  N87  1  0.07186780  0.60064747  0.23485892  1
  N  N88  1  0.87747004  0.69092376  0.89148188  1
  N  N89  1  0.18895273  0.74740384  0.05299685  1
  N  N90  1  0.55271602  0.58550019  0.83016884  1
  N  N91  1  0.69793139  0.01915610  0.52443040  1
  N  N92  1  0.37732199  0.54857587  0.14645392  1
  N  N93  1  0.45219218  0.61008545  0.65768644  1
  N  N94  1  0.48411405  0.73950830  0.77129245  1
  N  N95  1  0.54629365  0.37142711  0.34408452  1
  N  N96  1  0.08808967  0.08846431  0.29212225  1
  N  N97  1  0.55985730  0.41809955  0.53830316  1
  N  N98  1  0.27933355  0.20630159  0.98909004  1
  N  N99  1  0.70492520  0.65578658  0.20306451  1
