# generated using pymatgen
data_Cr3FeO6
_symmetry_space_group_name_H-M   'P 1'
_cell_length_a   10.06045022
_cell_length_b   9.24392109
_cell_length_c   10.80210828
_cell_angle_alpha   89.02980090
_cell_angle_beta   81.14865852
_cell_angle_gamma   91.44994278
_symmetry_Int_Tables_number   1
_chemical_formula_structural   Cr3FeO6
_chemical_formula_sum   'Cr24 Fe8 O48'
_cell_volume   992.07257855
_cell_formula_units_Z   8
loop_
 _symmetry_equiv_pos_site_id
 _symmetry_equiv_pos_as_xyz
  1  'x, y, z'
loop_
 _atom_site_type_symbol
 _atom_site_label
 _atom_site_symmetry_multiplicity
 _atom_site_fract_x
 _atom_site_fract_y
 _atom_site_fract_z
 _atom_site_occupancy
  Cr  Cr0  1  0.30868600  0.75172300  0.48739500  1
  Cr  Cr1  1  0.02107500  0.89490700  0.06630100  1
  Cr  Cr2  1  0.03055100  0.67802300  0.29049000  1
  Cr  Cr3  1  0.64652200  0.34983200  0.07257900  1
  Cr  Cr4  1  0.74094900  0.34140500  0.31432600  1
  Cr  Cr5  1  0.31980000  0.61194500  0.27665400  1
  Cr  Cr6  1  0.04049900  0.99802300  0.56137500  1
  Cr  Cr7  1  0.57622700  0.73795700  0.02230300  1
  Cr  Cr8  1  0.11022400  0.33071600  0.34644500  1
  Cr  Cr9  1  0.22766100  0.98209400  0.33117500  1
  Cr  Cr10  1  0.95737500  0.21819800  0.06284400  1
  Cr  Cr11  1  0.82745000  0.76804500  0.78061700  1
  Cr  Cr12  1  0.52458700  0.51218500  0.80633000  1
  Cr  Cr13  1  0.53888400  0.83792600  0.76290200  1
  Cr  Cr14  1  0.83463200  0.49453500  0.54369000  1
  Cr  Cr15  1  0.51456400  0.27357600  0.67479600  1
  Cr  Cr16  1  0.93053400  0.39110400  0.81679000  1
  Cr  Cr17  1  0.72964800  0.03530900  0.95267800  1
  Cr  Cr18  1  0.31023000  0.07242900  0.63766400  1
  Cr  Cr19  1  0.75135200  0.81701000  0.48146400  1
  Cr  Cr20  1  0.94467500  0.06572200  0.31064100  1
  Cr  Cr21  1  0.01208300  0.02645100  0.82959200  1
  Cr  Cr22  1  0.23936300  0.46193600  0.61187200  1
  Cr  Cr23  1  0.39414300  0.31162000  0.37236800  1
  Fe  Fe24  1  0.22452400  0.34177700  0.89662200  1
  Fe  Fe25  1  0.87481500  0.55103800  0.02514000  1
  Fe  Fe26  1  0.52420200  0.99197100  0.26809100  1
  Fe  Fe27  1  0.11635600  0.71836900  0.78773800  1
  Fe  Fe28  1  0.54751900  0.55844200  0.54221600  1
  Fe  Fe29  1  0.29405400  0.67481200  0.01158000  1
  Fe  Fe30  1  0.29839100  0.99394200  0.90014900  1
  Fe  Fe31  1  0.76326500  0.80134400  0.20249600  1
  O  O32  1  0.13358700  0.39222300  0.74817900  1
  O  O33  1  0.16843300  0.66036800  0.41036800  1
  O  O34  1  0.02178000  0.39960200  0.97602800  1
  O  O35  1  0.75357500  0.43114600  0.92330100  1
  O  O36  1  0.44445800  0.18335500  0.54038600  1
  O  O37  1  0.99595100  0.87321800  0.70999100  1
  O  O38  1  0.34716700  0.50638100  0.92131700  1
  O  O39  1  0.16958600  0.80683400  0.94414800  1
  O  O40  1  0.83322800  0.68450100  0.60485600  1
  O  O41  1  0.22260900  0.33553100  0.48962700  1
  O  O42  1  0.65541700  0.42872000  0.66561900  1
  O  O43  1  0.44264100  0.63736600  0.11247100  1
  O  O44  1  0.23234400  0.94597700  0.51193300  1
  O  O45  1  0.63013700  0.90265600  0.09452800  1
  O  O46  1  0.40418800  0.56227100  0.43824200  1
  O  O47  1  0.13085400  0.10921600  0.68221600  1
  O  O48  1  0.04213100  0.22644000  0.20978500  1
  O  O49  1  0.91806400  0.38587500  0.63959700  1
  O  O50  1  0.65963900  0.89053800  0.34636900  1
  O  O51  1  0.88399000  0.88986900  0.93309500  1
  O  O52  1  0.97136700  0.47766700  0.37485000  1
  O  O53  1  0.37743300  0.91622800  0.70582900  1
  O  O54  1  0.70169600  0.47309300  0.43529400  1
  O  O55  1  0.37052000  0.12253500  0.30052900  1
  O  O56  1  0.28582100  0.40418400  0.26217200  1
  O  O57  1  0.58837000  0.77015800  0.58774500  1
  O  O58  1  0.63644800  0.68492200  0.85140100  1
  O  O59  1  0.24327000  0.65841500  0.64749700  1
  O  O60  1  0.57444900  0.32014300  0.26123100  1
  O  O61  1  0.78949300  0.18272600  0.37544400  1
  O  O62  1  0.94203900  0.70563500  0.12941400  1
  O  O63  1  0.08505500  0.11956300  0.41100200  1
  O  O64  1  0.81380700  0.35709500  0.14191200  1
  O  O65  1  0.70177500  0.63341400  0.10616800  1
  O  O66  1  0.08033300  0.90398900  0.24193700  1
  O  O67  1  0.88205000  0.95666100  0.48585400  1
  O  O68  1  0.35986700  0.17687500  0.78948000  1
  O  O69  1  0.87233000  0.01358700  0.15143300  1
  O  O70  1  0.18635700  0.63625400  0.16697500  1
  O  O71  1  0.84030600  0.71964900  0.35317500  1
  O  O72  1  0.43539400  0.83761400  0.93669900  1
  O  O73  1  0.60228900  0.17563900  0.01035600  1
  O  O74  1  0.36573600  0.82884900  0.31093100  1
  O  O75  1  0.41001500  0.44198500  0.67211600  1
  O  O76  1  0.93801100  0.61234500  0.84112000  1
  O  O77  1  0.88800400  0.17639900  0.88738700  1
  O  O78  1  0.10642700  0.08672300  0.97156500  1
  O  O79  1  0.69793000  0.94939500  0.78942200  1
