# generated using pymatgen
data_Al2O3
_symmetry_space_group_name_H-M   'P 1'
_cell_length_a   9.82270304
_cell_length_b   11.22571823
_cell_length_c   10.22962073
_cell_angle_alpha   91.04325916
_cell_angle_beta   86.25696619
_cell_angle_gamma   88.85676769
_symmetry_Int_Tables_number   1
_chemical_formula_structural   Al2O3
_chemical_formula_sum   'Al40 O60'
_cell_volume   1125.14312991
_cell_formula_units_Z   20
loop_
 _symmetry_equiv_pos_site_id
 _symmetry_equiv_pos_as_xyz
  1  'x, y, z'
loop_
 _atom_site_type_symbol
 _atom_site_label
 _atom_site_symmetry_multiplicity
 _atom_site_fract_x
 _atom_site_fract_y
 _atom_site_fract_z
 _atom_site_occupancy
  Al  Al0  1  0.21630900  0.55770700  0.60533200  1
  Al  Al1  1  0.57642500  0.13277600  0.77690800  1
  Al  Al2  1  0.98360500  0.70579300  0.40042400  1
  Al  Al3  1  0.30931100  0.58452200  0.89295100  1
  Al  Al4  1  0.34072400  0.05530900  0.57818500  1
  Al  Al5  1  0.75585100  0.35051600  0.77144600  1
  Al  Al6  1  0.18487900  0.27381500  0.59851000  1
  Al  Al7  1  0.41519400  0.00623900  0.97046400  1
  Al  Al8  1  0.29405000  0.07128600  0.26314900  1
  Al  Al9  1  0.89451500  0.55089900  0.58079900  1
  Al  Al10  1  0.81213600  0.58228200  0.90383300  1
  Al  Al11  1  0.79585200  0.10548800  0.97834900  1
  Al  Al12  1  0.69785700  0.04886400  0.49685800  1
  Al  Al13  1  0.69555000  0.88506700  0.89597900  1
  Al  Al14  1  0.04509100  0.70947300  0.79599200  1
  Al  Al15  1  0.84205000  0.34196300  0.04176500  1
  Al  Al16  1  0.09039700  0.42946100  0.85132500  1
  Al  Al17  1  0.12118500  0.87431500  0.25729600  1
  Al  Al18  1  0.59501600  0.95773900  0.19896700  1
  Al  Al19  1  0.40929500  0.81335800  0.75592900  1
  Al  Al20  1  0.47841200  0.21784100  0.43973900  1
  Al  Al21  1  0.18616600  0.84144900  0.99476000  1
  Al  Al22  1  0.58129400  0.71387800  0.33427500  1
  Al  Al23  1  0.77490600  0.20721200  0.29137400  1
  Al  Al24  1  0.21502300  0.80362000  0.56102000  1
  Al  Al25  1  0.04050800  0.11106400  0.45915400  1
  Al  Al26  1  0.91227400  0.89618900  0.62944000  1
  Al  Al27  1  0.55877100  0.47976600  0.00407400  1
  Al  Al28  1  0.70541900  0.37820100  0.49168500  1
  Al  Al29  1  0.57643800  0.56157800  0.69424800  1
  Al  Al30  1  0.38161800  0.44185600  0.25435400  1
  Al  Al31  1  0.69544200  0.75992900  0.59820400  1
  Al  Al32  1  0.40503900  0.70324700  0.15456900  1
  Al  Al33  1  0.09186000  0.28680900  0.27500200  1
  Al  Al34  1  0.12126300  0.07844700  0.97635400  1
  Al  Al35  1  0.80899600  0.52406900  0.24916900  1
  Al  Al36  1  0.33497000  0.25281100  0.03411300  1
  Al  Al37  1  0.09009100  0.48605700  0.12999400  1
  Al  Al38  1  0.88541200  0.73507300  0.10850000  1
  Al  Al39  1  0.43546400  0.36664700  0.67017500  1
  O  O40  1  0.43293300  0.02250400  0.14460200  1
  O  O41  1  0.33480200  0.90602600  0.63090100  1
  O  O42  1  0.86848300  0.78879500  0.51156000  1
  O  O43  1  0.54925400  0.71566200  0.72055200  1
  O  O44  1  0.92338900  0.45359200  0.92217400  1
  O  O45  1  0.82964500  0.39418300  0.61406800  1
  O  O46  1  0.11754300  0.26601900  0.44302300  1
  O  O47  1  0.80410000  0.25966700  0.89571200  1
  O  O48  1  0.96300100  0.79947700  0.24655800  1
  O  O49  1  0.72678600  0.66589500  0.24094200  1
  O  O50  1  0.45186400  0.15392400  0.92079700  1
  O  O51  1  0.87950200  0.03490500  0.54284100  1
  O  O52  1  0.59317700  0.28554800  0.73865600  1
  O  O53  1  0.42414100  0.49009200  0.79027700  1
  O  O54  1  0.76826700  0.85290300  0.73028400  1
  O  O55  1  0.43688400  0.37840600  0.07903600  1
  O  O56  1  0.28613300  0.74447100  0.86998700  1
  O  O57  1  0.71148000  0.95578600  0.05989900  1
  O  O58  1  0.67021500  0.49637700  0.84139200  1
  O  O59  1  0.24893600  0.20920600  0.19577100  1
  O  O60  1  0.45747500  0.33461400  0.34234300  1
  O  O61  1  0.06894300  0.83169800  0.68221300  1
  O  O62  1  0.14614900  0.78724300  0.40604700  1
  O  O63  1  0.76559300  0.20760300  0.12114500  1
  O  O64  1  0.70251500  0.05056500  0.84706100  1
  O  O65  1  0.59619200  0.80513700  0.47023700  1
  O  O66  1  0.72094800  0.60204200  0.58627100  1
  O  O67  1  0.19832200  0.44334300  0.25359700  1
  O  O68  1  0.15741200  0.57200800  0.77973900  1
  O  O69  1  0.44598900  0.60938300  0.01295200  1
  O  O70  1  0.68103500  0.03938200  0.32190100  1
  O  O71  1  0.44421300  0.59637100  0.27905600  1
  O  O72  1  0.95074200  0.58541600  0.13462500  1
  O  O73  1  0.90211800  0.62343500  0.75529400  1
  O  O74  1  0.02882100  0.76753300  0.96275400  1
  O  O75  1  0.90340200  0.56112900  0.39062500  1
  O  O76  1  0.94599700  0.17497600  0.32401600  1
  O  O77  1  0.31837100  0.68167700  0.59549600  1
  O  O78  1  0.18685500  0.22275700  0.95560000  1
  O  O79  1  0.76552100  0.72668700  0.97608200  1
  O  O80  1  0.24364500  0.76976700  0.14271900  1
  O  O81  1  0.98848600  0.35418900  0.14915300  1
  O  O82  1  0.16166600  0.10470900  0.59611000  1
  O  O83  1  0.39695800  0.08168400  0.40475800  1
  O  O84  1  0.55857600  0.05073400  0.62217100  1
  O  O85  1  0.14202600  0.97157700  0.11612300  1
  O  O86  1  0.51397300  0.81433900  0.21829600  1
  O  O87  1  0.66624500  0.21702300  0.46320700  1
  O  O88  1  0.19638100  0.48162700  0.98409800  1
  O  O89  1  0.15175500  0.00852000  0.35586500  1
  O  O90  1  0.06398200  0.60379000  0.54390000  1
  O  O91  1  0.25620300  0.97367000  0.90459500  1
  O  O92  1  0.75858000  0.38091800  0.32428300  1
  O  O93  1  0.50848600  0.89132800  0.88337200  1
  O  O94  1  0.38176200  0.22036500  0.60619200  1
  O  O95  1  0.08242400  0.32573200  0.73103200  1
  O  O96  1  0.71588000  0.46628300  0.08470300  1
  O  O97  1  0.55490400  0.44431000  0.56762000  1
  O  O98  1  0.28435800  0.41500800  0.58665800  1
  O  O99  1  0.95891100  0.05087600  0.94316000  1
