# generated using pymatgen
data_ZnS
_symmetry_space_group_name_H-M   'P 1'
_cell_length_a   12.62497583
_cell_length_b   13.70802543
_cell_length_c   13.43909186
_cell_angle_alpha   88.52727633
_cell_angle_beta   90.44917372
_cell_angle_gamma   92.83785225
_symmetry_Int_Tables_number   1
_chemical_formula_structural   ZnS
_chemical_formula_sum   'Zn50 S50'
_cell_volume   2322.14629807
_cell_formula_units_Z   50
loop_
 _symmetry_equiv_pos_site_id
 _symmetry_equiv_pos_as_xyz
  1  'x, y, z'
loop_
 _atom_site_type_symbol
 _atom_site_label
 _atom_site_symmetry_multiplicity
 _atom_site_fract_x
 _atom_site_fract_y
 _atom_site_fract_z
 _atom_site_occupancy
  Zn  Zn0  1  0.38343511  0.61683860  0.92604537  1
  Zn  Zn1  1  0.07409360  0.12576146  0.62458094  1
  Zn  Zn2  1  0.54554510  0.70755892  0.88957739  1
  Zn  Zn3  1  0.09024503  0.36711622  0.51984459  1
  Zn  Zn4  1  0.13282412  0.79540664  0.08191971  1
  Zn  Zn5  1  0.73239686  0.45153307  0.42023799  1
  Zn  Zn6  1  0.94453311  0.19065463  0.77540441  1
  Zn  Zn7  1  0.77676694  0.88216011  0.81980772  1
  Zn  Zn8  1  0.06037046  0.58102049  0.91978392  1
  Zn  Zn9  1  0.15081936  0.22675376  0.76154672  1
  Zn  Zn10  1  0.80893544  0.23999263  0.97768263  1
  Zn  Zn11  1  0.89852978  0.74555522  0.31556475  1
  Zn  Zn12  1  0.35520113  0.48255391  0.58900795  1
  Zn  Zn13  1  0.33232548  0.75217449  0.48543546  1
  Zn  Zn14  1  0.94114636  0.59340088  0.41439552  1
  Zn  Zn15  1  0.47305789  0.28174714  0.84150109  1
  Zn  Zn16  1  0.32311008  0.22869810  0.41662232  1
  Zn  Zn17  1  0.03520890  0.99219446  0.26273105  1
  Zn  Zn18  1  0.37077419  0.92513473  0.93252533  1
  Zn  Zn19  1  0.97844264  0.33552523  0.87728880  1
  Zn  Zn20  1  0.22814189  0.79045739  0.70955119  1
  Zn  Zn21  1  0.53316091  0.97804106  0.46353809  1
  Zn  Zn22  1  0.82629155  0.13429591  0.64884296  1
  Zn  Zn23  1  0.76652050  0.94294662  0.45454512  1
  Zn  Zn24  1  0.37913770  0.03053707  0.54732037  1
  Zn  Zn25  1  0.55146292  0.93283486  0.86572735  1
  Zn  Zn26  1  0.30432840  0.90141894  0.30317848  1
  Zn  Zn27  1  0.57148016  0.80609672  0.61737805  1
  Zn  Zn28  1  0.53199211  0.07843310  0.67006336  1
  Zn  Zn29  1  0.63947261  0.09155459  0.04537925  1
  Zn  Zn30  1  0.72057448  0.42192961  0.86025495  1
  Zn  Zn31  1  0.95249578  0.51887130  0.66024947  1
  Zn  Zn32  1  0.42553088  0.07968852  0.82572143  1
  Zn  Zn33  1  0.91137422  0.03912104  0.04569682  1
  Zn  Zn34  1  0.43625890  0.03226965  0.27916962  1
  Zn  Zn35  1  0.18520001  0.05857921  0.99756832  1
  Zn  Zn36  1  0.57665141  0.31337812  0.08741239  1
  Zn  Zn37  1  0.54306169  0.51482884  0.67733430  1
  Zn  Zn38  1  0.25114782  0.47859949  0.73659445  1
  Zn  Zn39  1  0.79283764  0.65454674  0.73723986  1
  Zn  Zn40  1  0.08228735  0.65569854  0.65850091  1
  Zn  Zn41  1  0.80764055  0.24334874  0.44898485  1
  Zn  Zn42  1  0.22535435  0.36526614  0.97834682  1
  Zn  Zn43  1  0.69048694  0.87781949  0.22581771  1
  Zn  Zn44  1  0.97542847  0.31134743  0.32689881  1
  Zn  Zn45  1  0.50686195  0.52098436  0.26061915  1
  Zn  Zn46  1  0.23107312  0.52236081  0.37845896  1
  Zn  Zn47  1  0.47444119  0.81097722  0.15351321  1
  Zn  Zn48  1  0.09591843  0.72625734  0.35844192  1
  Zn  Zn49  1  0.04654369  0.83986267  0.68550084  1
  S  S50  1  0.50891473  0.54830446  0.50759996  1
  S  S51  1  0.13562487  0.89233177  0.36321325  1
  S  S52  1  0.61807635  0.83402173  0.44876439  1
  S  S53  1  0.95405281  0.65265623  0.14928743  1
  S  S54  1  0.33234740  0.49247632  0.04545353  1
  S  S55  1  0.27309994  0.37897160  0.46807815  1
  S  S56  1  0.80253526  0.13730070  0.12303187  1
  S  S57  1  0.63680138  0.72700821  0.15844362  1
  S  S58  1  0.64752392  0.63175743  0.28181210  1
  S  S59  1  0.84989567  0.96750684  0.60441470  1
  S  S60  1  0.71975193  0.10989597  0.87874815  1
  S  S61  1  0.67019178  0.17719304  0.55498503  1
  S  S62  1  0.56646536  0.26450970  0.25892118  1
  S  S63  1  0.31506908  0.83562011  0.06878253  1
  S  S64  1  0.21737886  0.62316882  0.82814199  1
  S  S65  1  0.67910764  0.09757586  0.42123867  1
  S  S66  1  0.39962744  0.74529484  0.32408196  1
  S  S67  1  0.79554207  0.34180631  0.31194162  1
  S  S68  1  0.63848556  0.93962105  0.70718847  1
  S  S69  1  0.85265130  0.90784392  0.30140487  1
  S  S70  1  0.98190454  0.22215876  0.49327790  1
  S  S71  1  0.85941488  0.03312692  0.87774742  1
  S  S72  1  0.06254405  0.95908087  0.09093242  1
  S  S73  1  0.05377123  0.20729699  0.11244145  1
  S  S74  1  0.59571054  0.37133104  0.74746431  1
  S  S75  1  0.23576703  0.11433327  0.51621200  1
  S  S76  1  0.41289798  0.19855585  0.27089994  1
  S  S77  1  0.04974612  0.46477356  0.37021890  1
  S  S78  1  0.61198213  0.66863020  0.72110568  1
  S  S79  1  0.54777429  0.43318593  0.41402638  1
  S  S80  1  0.49283421  0.18684972  0.98632269  1
  S  S81  1  0.86537296  0.52138765  0.81621478  1
  S  S82  1  0.01250946  0.96721131  0.57467163  1
  S  S83  1  0.34304476  0.61083561  0.26400888  1
  S  S84  1  0.18808101  0.64777016  0.48953224  1
  S  S85  1  0.21237120  0.20798166  0.07081368  1
  S  S86  1  0.73463170  0.38165126  0.02350296  1
  S  S87  1  0.07903313  0.40134694  0.68816324  1
  S  S88  1  0.05517267  0.17132769  0.26310271  1
  S  S89  1  0.97910623  0.70966970  0.00299275  1
  S  S90  1  0.11441419  0.65872157  0.19668565  1
  S  S91  1  0.24301571  0.01752358  0.84817688  1
  S  S92  1  0.38045983  0.84091394  0.61809232  1
  S  S93  1  0.56128593  0.97616033  0.16268404  1
  S  S94  1  0.81947585  0.54775001  0.53496381  1
  S  S95  1  0.29414627  0.32275097  0.82427373  1
  S  S96  1  0.05971492  0.42945457  0.99412778  1
  S  S97  1  0.90604682  0.78142428  0.78139696  1
  S  S98  1  0.44566376  0.42131927  0.13351235  1
  S  S99  1  0.66365503  0.82788423  0.94852237  1
