# generated using pymatgen
data_GaN
_symmetry_space_group_name_H-M   'P 1'
_cell_length_a   12.03843916
_cell_length_b   11.76560095
_cell_length_c   10.86906260
_cell_angle_alpha   89.27943249
_cell_angle_beta   87.74179565
_cell_angle_gamma   90.14505440
_symmetry_Int_Tables_number   1
_chemical_formula_structural   GaN
_chemical_formula_sum   'Ga50 N50'
_cell_volume   1538.16401043
_cell_formula_units_Z   50
loop_
 _symmetry_equiv_pos_site_id
 _symmetry_equiv_pos_as_xyz
  1  'x, y, z'
loop_
 _atom_site_type_symbol
 _atom_site_label
 _atom_site_symmetry_multiplicity
 _atom_site_fract_x
 _atom_site_fract_y
 _atom_site_fract_z
 _atom_site_occupancy
  Ga  Ga0  1  0.26061807  0.65006139  0.37956248  1
  Ga  Ga1  1  0.20161528  0.46102939  0.66315081  1
  Ga  Ga2  1  0.87080762  0.78063948  0.01982186  1
  Ga  Ga3  1  0.04690305  0.37314997  0.97130590  1
  Ga  Ga4  1  0.51966060  0.38489429  0.37372148  1
  Ga  Ga5  1  0.57110124  0.09802802  0.73650873  1
  Ga  Ga6  1  0.69368771  0.87830653  0.67033897  1
  Ga  Ga7  1  0.97930513  0.20556872  0.53344375  1
  Ga  Ga8  1  0.42850849  0.30307628  0.65500405  1
  Ga  Ga9  1  0.69882685  0.90286909  0.14845307  1
  Ga  Ga10  1  0.21421469  0.71970720  0.12056628  1
  Ga  Ga11  1  0.22947185  0.86307195  0.30483434  1
  Ga  Ga12  1  0.44457448  0.55361656  0.26714712  1
  Ga  Ga13  1  0.73344138  0.30137579  0.54247387  1
  Ga  Ga14  1  0.11495354  0.25291256  0.72362239  1
  Ga  Ga15  1  0.82887694  0.00617394  0.87469385  1
  Ga  Ga16  1  0.26006156  0.40173271  0.44797613  1
  Ga  Ga17  1  0.22593519  0.51216158  0.13554796  1
  Ga  Ga18  1  0.99455641  0.47991971  0.69957219  1
  Ga  Ga19  1  0.36012027  0.68586530  0.86599936  1
  Ga  Ga20  1  0.70977978  0.15577290  0.30629965  1
  Ga  Ga21  1  0.30434235  0.44960114  0.86374912  1
  Ga  Ga22  1  0.11377947  0.65829555  0.55904747  1
  Ga  Ga23  1  0.00368918  0.16823554  0.91634422  1
  Ga  Ga24  1  0.39161021  0.56128814  0.58119472  1
  Ga  Ga25  1  0.12913716  0.87342222  0.74286169  1
  Ga  Ga26  1  0.81612934  0.56767197  0.94868621  1
  Ga  Ga27  1  0.34300180  0.90976479  0.01863408  1
  Ga  Ga28  1  0.65173475  0.76698894  0.87411004  1
  Ga  Ga29  1  0.89081630  0.03460737  0.16055743  1
  Ga  Ga30  1  0.84357690  0.31922742  0.77912336  1
  Ga  Ga31  1  0.98438083  0.98493512  0.59992045  1
  Ga  Ga32  1  0.88238408  0.63116227  0.53509028  1
  Ga  Ga33  1  0.48026623  0.79236236  0.65431685  1
  Ga  Ga34  1  0.95685431  0.81414277  0.29976659  1
  Ga  Ga35  1  0.95638441  0.27850210  0.18335582  1
  Ga  Ga36  1  0.52360334  0.54417617  0.81807660  1
  Ga  Ga37  1  0.57721929  0.91188786  0.37084279  1
  Ga  Ga38  1  0.71382094  0.55235084  0.67484882  1
  Ga  Ga39  1  0.72149159  0.67065593  0.31019837  1
  Ga  Ga40  1  0.57672954  0.66591697  0.47311845  1
  Ga  Ga41  1  0.74289270  0.43316171  0.27934383  1
  Ga  Ga42  1  0.05695264  0.89098712  0.03289506  1
  Ga  Ga43  1  0.42605459  0.03901832  0.51629076  1
  Ga  Ga44  1  0.60409562  0.29625795  0.82539156  1
  Ga  Ga45  1  0.25120424  0.91047199  0.52843527  1
  Ga  Ga46  1  0.47813962  0.92290136  0.84578967  1
  Ga  Ga47  1  0.48358574  0.73454726  0.14102343  1
  Ga  Ga48  1  0.76054245  0.09833195  0.60175827  1
  Ga  Ga49  1  0.74543296  0.24342123  0.01300218  1
  N  N50  1  0.06199781  0.63011286  0.94124548  1
  N  N51  1  0.17227099  0.86760273  0.91034746  1
  N  N52  1  0.61408470  0.78411708  0.23467150  1
  N  N53  1  0.95088695  0.94614884  0.42215002  1
  N  N54  1  0.60159238  0.83020991  0.52378146  1
  N  N55  1  0.53548791  0.61365229  0.64996427  1
  N  N56  1  0.41465705  0.39241922  0.51218028  1
  N  N57  1  0.34300265  0.82791080  0.17702972  1
  N  N58  1  0.86661438  0.69431599  0.37540928  1
  N  N59  1  0.56699051  0.11948168  0.03682725  1
  N  N60  1  0.81572802  0.18625887  0.16572891  1
  N  N61  1  0.70829512  0.38221292  0.69777057  1
  N  N62  1  0.32903355  0.71933561  0.67826552  1
  N  N63  1  0.86210415  0.36589060  0.40711169  1
  N  N64  1  0.32378665  0.18441952  0.89083324  1
  N  N65  1  0.82088454  0.08909680  0.42433284  1
  N  N66  1  0.10032341  0.83057008  0.19615246  1
  N  N67  1  0.19674987  0.20743264  0.45417420  1
  N  N68  1  0.41937572  0.64617388  0.42354430  1
  N  N69  1  0.67994459  0.59641478  0.85321311  1
  N  N70  1  0.95793508  0.51761335  0.16417189  1
  N  N71  1  0.01729672  0.56246638  0.22534280  1
  N  N72  1  0.24956241  0.78185618  0.95125402  1
  N  N73  1  0.49911766  0.76833789  0.95262584  1
  N  N74  1  0.46203062  0.35409462  0.10675177  1
  N  N75  1  0.19980346  0.41617453  0.00075118  1
  N  N76  1  0.96607335  0.32109174  0.65759885  1
  N  N77  1  0.74122832  0.88303718  0.96597755  1
  N  N78  1  0.52592741  0.40134173  0.04805166  1
  N  N79  1  0.26169263  0.20720657  0.18696783  1
  N  N80  1  0.26147229  0.13667028  0.44302901  1
  N  N81  1  0.46278677  0.38711482  0.80595673  1
  N  N82  1  0.94890085  0.31471254  0.38117662  1
  N  N83  1  0.23098205  0.77042504  0.64391541  1
  N  N84  1  0.45039093  0.14836943  0.63669580  1
  N  N85  1  0.85837353  0.87195770  0.17625919  1
  N  N86  1  0.48127007  0.12280372  0.08104023  1
  N  N87  1  0.20347308  0.13645599  0.16710669  1
  N  N88  1  0.94148230  0.79093838  0.79062526  1
  N  N89  1  0.91581282  0.44646685  0.87634830  1
  N  N90  1  0.65528364  0.29984919  0.38231296  1
  N  N91  1  0.09300697  0.64583633  0.84334256  1
  N  N92  1  0.63953623  0.01970493  0.26057981  1
  N  N93  1  0.25283642  0.12333315  0.90429108  1
  N  N94  1  0.88894255  0.02077837  0.36632000  1
  N  N95  1  0.97183396  0.02584639  -0.00150659  1
  N  N96  1  0.83601219  0.97894963  0.69300136  1
  N  N97  1  0.88164918  0.73868293  0.73375306  1
  N  N98  1  0.27738617  0.49256853  0.29828707  1
  N  N99  1  0.84041769  0.17799180  0.87958291  1
