# generated using pymatgen
data_V2O5
_symmetry_space_group_name_H-M   'P 1'
_cell_length_a   12.83109118
_cell_length_b   11.66928267
_cell_length_c   12.62492037
_cell_angle_alpha   88.08864002
_cell_angle_beta   93.74766940
_cell_angle_gamma   88.32637720
_symmetry_Int_Tables_number   1
_chemical_formula_structural   V2O5
_chemical_formula_sum   'V30 O75'
_cell_volume   1884.29905187
_cell_formula_units_Z   15
loop_
 _symmetry_equiv_pos_site_id
 _symmetry_equiv_pos_as_xyz
  1  'x, y, z'
loop_
 _atom_site_type_symbol
 _atom_site_label
 _atom_site_symmetry_multiplicity
 _atom_site_fract_x
 _atom_site_fract_y
 _atom_site_fract_z
 _atom_site_occupancy
  V  V0  1  0.03808055  0.99502382  0.93078188  1
  V  V1  1  0.91645676  0.80823454  0.78849595  1
  V  V2  1  0.75135147  0.08346984  0.72093332  1
  V  V3  1  0.70993013  0.13800292  0.28901432  1
  V  V4  1  0.80023202  0.93058547  0.95631443  1
  V  V5  1  0.15480646  0.66795029  0.85140394  1
  V  V6  1  0.44717668  0.54150219  0.16418989  1
  V  V7  1  0.50286193  0.96699805  0.36210949  1
  V  V8  1  0.72569417  0.46278823  0.49958142  1
  V  V9  1  0.17959030  0.60591823  0.13582509  1
  V  V10  1  0.53261655  0.15923185  0.58888636  1
  V  V11  1  0.04507896  0.79288555  0.27632741  1
  V  V12  1  0.27050727  0.90873714  0.90441958  1
  V  V13  1  0.30408580  0.19034825  0.89641300  1
  V  V14  1  0.94663826  0.54049155  0.36339310  1
  V  V15  1  0.96651744  0.16713684  0.33760152  1
  V  V16  1  0.09342065  0.94791682  0.48878387  1
  V  V17  1  0.34833041  0.08333411  0.16964322  1
  V  V18  1  0.56343081  0.62614340  0.61866106  1
  V  V19  1  0.71646878  0.29942388  0.80444864  1
  V  V20  1  0.64803107  0.49098842  0.01052763  1
  V  V21  1  0.33652459  0.89072629  0.56659813  1
  V  V22  1  0.17195145  0.38095290  0.80932689  1
  V  V23  1  0.65653414  0.18785845  0.02794036  1
  V  V24  1  0.56490613  0.87174620  0.70455692  1
  V  V25  1  0.19851550  0.47598068  0.38752461  1
  V  V26  1  0.00741237  0.37619891  0.15545448  1
  V  V27  1  0.67836763  0.71980727  0.93722998  1
  V  V28  1  0.46561251  0.43194730  0.45909106  1
  V  V29  1  0.30676581  0.23937249  0.31856796  1
  O  O30  1  0.31357450  0.18634177  0.43836496  1
  O  O31  1  0.00473164  0.93289167  0.80695768  1
  O  O32  1  0.11137518  0.47263426  0.12555304  1
  O  O33  1  0.31839666  0.57689298  0.11187586  1
  O  O34  1  0.76262909  0.33963434  0.55313597  1
  O  O35  1  0.32295962  0.11486270  0.03154339  1
  O  O36  1  0.72680708  0.47890340  0.11414228  1
  O  O37  1  0.95346902  0.68123712  0.31140215  1
  O  O38  1  0.49496148  0.30903776  0.54143716  1
  O  O39  1  0.05612518  0.13049616  0.91296396  1
  O  O40  1  0.71296567  0.82977053  0.02677080  1
  O  O41  1  0.70659794  0.21229260  0.15855545  1
  O  O42  1  0.30762717  0.45958760  0.47121399  1
  O  O43  1  0.61048127  0.45178334  0.42180552  1
  O  O44  1  0.83655642  0.53195321  0.43424687  1
  O  O45  1  0.68380129  0.55073978  0.60614199  1
  O  O46  1  0.15820824  0.92658281  0.98483510  1
  O  O47  1  0.54583924  0.08064786  0.47666153  1
  O  O48  1  0.93086717  0.37047696  0.04994462  1
  O  O49  1  0.92476709  0.96632268  0.01054607  1
  O  O50  1  0.24574555  0.34109183  0.69259309  1
  O  O51  1  0.81245440  0.07916442  0.61439209  1
  O  O52  1  0.41519850  0.96001869  0.24056244  1
  O  O53  1  0.20991931  0.58262132  0.29251692  1
  O  O54  1  0.42831416  0.35741918  0.32191368  1
  O  O55  1  0.28264187  0.04112631  0.83791283  1
  O  O56  1  0.42416553  0.48172021  0.30323665  1
  O  O57  1  0.72040972  0.06888295  0.97647405  1
  O  O58  1  0.99514605  0.92121815  0.55739202  1
  O  O59  1  0.50209804  0.65807342  0.19729809  1
  O  O60  1  0.66668852  0.33100308  0.94111760  1
  O  O61  1  0.04609713  0.38467228  0.79306290  1
  O  O62  1  0.47537724  0.57585799  0.52245569  1
  O  O63  1  0.20398902  0.54122909  0.80450172  1
  O  O64  1  0.11221017  0.83092196  0.39758210  1
  O  O65  1  0.22598501  0.31515905  0.93602552  1
  O  O66  1  0.43051676  0.88782651  0.69127356  1
  O  O67  1  0.61758203  0.03091838  0.29316383  1
  O  O68  1  0.93519480  0.45763858  0.25060251  1
  O  O69  1  0.85722429  0.78781096  0.67427420  1
  O  O70  1  0.59658687  0.78127399  0.60447207  1
  O  O71  1  0.76271796  0.41737969  0.76324066  1
  O  O72  1  0.53672318  0.15466040  0.03535196  1
  O  O73  1  0.01347686  0.23472773  0.21751696  1
  O  O74  1  0.61271724  0.80712472  0.82708393  1
  O  O75  1  0.55433420  0.84071599  0.38353905  1
  O  O76  1  0.84841564  0.09271358  0.31073368  1
  O  O77  1  0.19118830  0.35362555  0.31472174  1
  O  O78  1  0.83398517  0.77469287  0.89612723  1
  O  O79  1  0.37380148  0.87289408  0.98039414  1
  O  O80  1  0.39122511  0.95040029  0.45700723  1
  O  O81  1  0.81663646  0.19397907  0.80764310  1
  O  O82  1  0.06542813  0.07543992  0.40785167  1
  O  O83  1  0.12235025  0.74465517  0.17207881  1
  O  O84  1  0.23669411  0.11921532  0.23130654  1
  O  O85  1  0.41575221  0.23715251  0.86668625  1
  O  O86  1  0.79911344  0.96349605  0.80652119  1
  O  O87  1  0.06344293  0.50577214  0.43754236  1
  O  O88  1  0.97692435  0.90397662  0.23082523  1
  O  O89  1  0.41971466  0.18877142  0.22545616  1
  O  O90  1  0.31985197  0.75645325  0.54499586  1
  O  O91  1  0.68460360  0.23178118  0.37504539  1
  O  O92  1  0.52176187  0.46277952  0.07164072  1
  O  O93  1  0.94010957  0.27190996  0.41295919  1
  O  O94  1  0.64115361  0.21288304  0.70604018  1
  O  O95  1  0.22093633  0.23665259  0.75070890  1
  O  O96  1  0.23446610  0.78531157  0.82087496  1
  O  O97  1  0.42817850  0.11970196  0.64182132  1
  O  O98  1  0.20782113  0.95495147  0.57730361  1
  O  O99  1  0.52166678  0.60095609  0.73605406  1
  O  O100  1  0.61918459  0.00606477  0.67912571  1
  O  O101  1  0.73063190  0.57690318  0.91893911  1
  O  O102  1  0.02406995  0.69976594  0.79987984  1
  O  O103  1  0.58632318  0.65151454  0.00639335  1
  O  O104  1  0.15167673  0.65228007  0.98560041  1
