# generated using pymatgen
data_Al2O3
_symmetry_space_group_name_H-M   'P 1'
_cell_length_a   10.23568197
_cell_length_b   10.52520401
_cell_length_c   10.41323753
_cell_angle_alpha   86.53337456
_cell_angle_beta   87.65278332
_cell_angle_gamma   89.50508571
_symmetry_Int_Tables_number   1
_chemical_formula_structural   Al2O3
_chemical_formula_sum   'Al40 O60'
_cell_volume   1118.83194004
_cell_formula_units_Z   20
loop_
 _symmetry_equiv_pos_site_id
 _symmetry_equiv_pos_as_xyz
  1  'x, y, z'
loop_
 _atom_site_type_symbol
 _atom_site_label
 _atom_site_symmetry_multiplicity
 _atom_site_fract_x
 _atom_site_fract_y
 _atom_site_fract_z
 _atom_site_occupancy
  Al  Al0  1  0.83617800  0.50437200  0.63975100  1
  Al  Al1  1  0.75594300  0.90925800  0.32966600  1
  Al  Al2  1  0.46732500  0.81203200  0.81738500  1
  Al  Al3  1  0.04372300  0.80031500  0.11236100  1
  Al  Al4  1  0.84307000  0.57667700  0.10877300  1
  Al  Al5  1  0.31994900  0.95679700  0.64234600  1
  Al  Al6  1  0.09805400  0.60814200  0.57709500  1
  Al  Al7  1  0.97970200  0.31299100  0.55999300  1
  Al  Al8  1  0.51087900  0.24282400  0.25986600  1
  Al  Al9  1  0.72980800  0.31159600  0.02609000  1
  Al  Al10  1  0.39449000  0.51864800  0.42494000  1
  Al  Al11  1  0.26629400  0.39236500  0.70711200  1
  Al  Al12  1  0.68484100  0.26180800  0.73694500  1
  Al  Al13  1  0.67117000  0.75539000  0.53231100  1
  Al  Al14  1  0.62997900  0.02321700  0.05663600  1
  Al  Al15  1  0.97540500  0.83129300  0.52867200  1
  Al  Al16  1  0.36458900  0.10543500  0.10830300  1
  Al  Al17  1  0.91471000  0.06200300  0.76601400  1
  Al  Al18  1  0.51504000  0.49325500  0.89850700  1
  Al  Al19  1  0.44852200  0.99808200  0.35601100  1
  Al  Al20  1  0.70050500  0.93154100  0.76952200  1
  Al  Al21  1  0.22004200  0.55958400  0.88548000  1
  Al  Al22  1  0.98310000  0.47303700  0.90135700  1
  Al  Al23  1  0.15650900  0.92977100  0.28233900  1
  Al  Al24  1  0.34838500  0.72605500  0.10912600  1
  Al  Al25  1  0.42323700  0.23244200  0.54500900  1
  Al  Al26  1  0.10078000  0.21037700  0.98693900  1
  Al  Al27  1  0.55638500  0.48011400  0.19545400  1
  Al  Al28  1  0.95434500  0.74406100  0.84508500  1
  Al  Al29  1  0.95680400  0.09226800  0.43897800  1
  Al  Al30  1  0.88080300  0.07095200  0.15642200  1
  Al  Al31  1  0.56842000  0.72416700  0.29135000  1
  Al  Al32  1  0.36748300  0.73729400  0.53934400  1
  Al  Al33  1  0.43590400  0.14189500  0.81494500  1
  Al  Al34  1  0.20356800  0.93491800  0.91661500  1
  Al  Al35  1  0.64783200  0.73932600  0.01302700  1
  Al  Al36  1  0.29637000  0.42564600  0.12612900  1
  Al  Al37  1  0.16387700  0.15386300  0.70757500  1
  Al  Al38  1  0.00667600  0.34838600  0.24872000  1
  Al  Al39  1  0.90098000  0.62116400  0.34809000  1
  O  O40  1  0.01597000  0.95383000  0.18231800  1
  O  O41  1  0.15856300  0.41811800  0.22763500  1
  O  O42  1  0.74135900  0.10126100  0.76517400  1
  O  O43  1  0.96947800  0.11966700  0.60770800  1
  O  O44  1  0.49217300  0.15290600  0.41407200  1
  O  O45  1  0.81153500  0.33438200  0.63992200  1
  O  O46  1  0.16505800  0.53272200  0.72274900  1
  O  O47  1  0.35206300  0.89956600  0.48238300  1
  O  O48  1  0.64717700  0.32687100  0.17596500  1
  O  O49  1  0.01718300  0.70402200  0.43276600  1
  O  O50  1  0.22101100  0.07909400  0.00973300  1
  O  O51  1  0.12167000  0.30884900  0.64713600  1
  O  O52  1  0.99206900  0.25592600  0.40061000  1
  O  O53  1  0.66947200  0.60272200  0.14942700  1
  O  O54  1  0.33815300  0.82965400  0.95238100  1
  O  O55  1  0.81110600  0.87921900  0.50290700  1
  O  O56  1  0.52834600  0.07577000  0.19746500  1
  O  O57  1  0.85823400  0.42861900  0.02207300  1
  O  O58  1  0.81671400  0.70183900  0.97087600  1
  O  O59  1  0.03096600  0.74569200  0.66865300  1
  O  O60  1  0.30346100  0.01410500  0.25680700  1
  O  O61  1  0.02189000  0.15124500  0.85192600  1
  O  O62  1  0.51708500  0.79627200  0.13460900  1
  O  O63  1  0.87134100  0.89781700  0.77944800  1
  O  O64  1  0.73197700  0.60736500  0.57353700  1
  O  O65  1  0.49010700  0.11408000  0.97205100  1
  O  O66  1  0.88777500  0.54261000  0.78421300  1
  O  O67  1  0.12617200  0.37820200  0.94461100  1
  O  O68  1  0.20217700  0.79373800  0.18905400  1
  O  O69  1  0.29011500  0.23290500  0.79940100  1
  O  O70  1  0.76637900  0.14524000  0.03295600  1
  O  O71  1  0.36542800  0.39259800  0.55600300  1
  O  O72  1  0.42502100  0.61061700  0.25767700  1
  O  O73  1  0.88292400  0.47304900  0.26851500  1
  O  O74  1  0.83229400  0.06850000  0.32931400  1
  O  O75  1  0.99579400  0.21322300  0.13461600  1
  O  O76  1  0.05396000  0.85428100  0.94894900  1
  O  O77  1  0.26030200  0.62010500  0.49062900  1
  O  O78  1  0.48665700  0.39829800  0.33894200  1
  O  O79  1  0.06846000  0.95802700  0.43498400  1
  O  O80  1  0.50962500  0.66500500  0.46948600  1
  O  O81  1  0.44207800  0.98701800  0.75837400  1
  O  O82  1  0.27754300  0.58701400  0.04209000  1
  O  O83  1  0.52944700  0.22741700  0.68252300  1
  O  O84  1  0.34746200  0.77569000  0.69989000  1
  O  O85  1  0.64491100  0.36147500  0.87452500  1
  O  O86  1  0.37009600  0.47723800  0.81858800  1
  O  O87  1  0.75568500  0.93579500  0.15400400  1
  O  O88  1  0.54599300  0.66288200  0.89702500  1
  O  O89  1  0.74383000  0.72274700  0.34624900  1
  O  O90  1  0.17961200  0.98315700  0.75113500  1
  O  O91  1  0.61238500  0.82658800  0.68081500  1
  O  O92  1  0.97862600  0.48774100  0.53137300  1
  O  O93  1  0.46885100  0.45089300  0.05896600  1
  O  O94  1  0.29363700  0.12263600  0.58212800  1
  O  O95  1  0.94513500  0.68470500  0.18503300  1
  O  O96  1  0.62819300  0.89915800  0.92750600  1
  O  O97  1  0.05802300  0.62042400  0.93014500  1
  O  O98  1  0.35753200  0.26109400  0.16605900  1
  O  O99  1  0.58329300  0.88551100  0.37509000  1
