# generated using pymatgen
data_Cr2O3
_symmetry_space_group_name_H-M   'P 1'
_cell_length_a   10.51759683
_cell_length_b   9.98348718
_cell_length_c   9.10727962
_cell_angle_alpha   92.35288589
_cell_angle_beta   87.30110083
_cell_angle_gamma   84.76791350
_symmetry_Int_Tables_number   1
_chemical_formula_structural   Cr2O3
_chemical_formula_sum   'Cr32 O48'
_cell_volume   950.25556285
_cell_formula_units_Z   16
loop_
 _symmetry_equiv_pos_site_id
 _symmetry_equiv_pos_as_xyz
  1  'x, y, z'
loop_
 _atom_site_type_symbol
 _atom_site_label
 _atom_site_symmetry_multiplicity
 _atom_site_fract_x
 _atom_site_fract_y
 _atom_site_fract_z
 _atom_site_occupancy
  Cr  Cr0  1  0.53272500  0.71716400  0.64553600  1
  Cr  Cr1  1  0.37590600  0.26584400  0.78206300  1
  Cr  Cr2  1  0.65904600  0.15629200  0.93711700  1
  Cr  Cr3  1  0.37869900  0.86989500  0.47225400  1
  Cr  Cr4  1  0.38625000  0.30397900  0.11415200  1
  Cr  Cr5  1  0.74391300  0.93661200  0.15022800  1
  Cr  Cr6  1  0.50727200  0.93288600  0.84508700  1
  Cr  Cr7  1  0.06011400  0.88546000  0.29702900  1
  Cr  Cr8  1  0.23479300  0.82345100  0.83803900  1
  Cr  Cr9  1  0.74984900  0.68113100  0.88562800  1
  Cr  Cr10  1  0.85830400  0.58719800  0.17819000  1
  Cr  Cr11  1  0.03660200  0.23654300  0.32093500  1
  Cr  Cr12  1  0.60325300  0.08750200  0.56130100  1
  Cr  Cr13  1  0.83287800  0.39023200  0.90085100  1
  Cr  Cr14  1  0.94871300  0.89302000  0.81329700  1
  Cr  Cr15  1  0.13111100  0.20277600  0.82923500  1
  Cr  Cr16  1  0.78290100  0.85944400  0.53677300  1
  Cr  Cr17  1  0.92224800  0.13002600  0.06499900  1
  Cr  Cr18  1  0.83992200  0.24322900  0.58876200  1
  Cr  Cr19  1  0.47978500  0.56983700  0.92223500  1
  Cr  Cr20  1  0.31448500  0.75052800  0.12752900  1
  Cr  Cr21  1  0.10448700  0.71516000  0.53583900  1
  Cr  Cr22  1  0.25254600  0.04847800  0.08141900  1
  Cr  Cr23  1  0.46797600  0.45986500  0.46779000  1
  Cr  Cr24  1  0.64822900  0.40684100  0.71583800  1
  Cr  Cr25  1  0.11876800  0.04872300  0.58633500  1
  Cr  Cr26  1  0.09441300  0.44835800  0.00353200  1
  Cr  Cr27  1  0.18672800  0.34570000  0.59071900  1
  Cr  Cr28  1  0.16659900  0.49811500  0.30894800  1
  Cr  Cr29  1  0.58521200  0.70139100  0.25627100  1
  Cr  Cr30  1  0.69158100  0.30664100  0.29523900  1
  Cr  Cr31  1  0.50656500  0.02487500  0.26074200  1
  O  O32  1  0.25349100  0.15720100  0.65965900  1
  O  O33  1  0.52889600  0.12277300  0.77211700  1
  O  O34  1  0.98948800  0.29038000  0.95096700  1
  O  O35  1  0.92094000  0.95771700  0.17601200  1
  O  O36  1  0.82466100  0.43624200  0.67805800  1
  O  O37  1  0.05407400  0.06643400  0.39736800  1
  O  O38  1  0.10395200  0.00584000  0.80988600  1
  O  O39  1  0.67086800  0.50927900  0.90630400  1
  O  O40  1  0.64833300  0.28996700  0.52883400  1
  O  O41  1  0.09077900  0.75334600  0.74483200  1
  O  O42  1  0.17083500  0.89360800  0.12233600  1
  O  O43  1  0.19349100  0.87605000  0.48953000  1
  O  O44  1  0.36240300  0.13881500  0.20762000  1
  O  O45  1  0.08647400  0.15980700  0.14220400  1
  O  O46  1  0.67928900  0.86155400  0.34001900  1
  O  O47  1  0.01121200  0.46407100  0.21136800  1
  O  O48  1  0.29669600  0.65959200  0.93040800  1
  O  O49  1  0.17260300  0.68803900  0.27919500  1
  O  O50  1  0.71556300  0.53773600  0.28001600  1
  O  O51  1  0.74974900  0.25133200  0.79468100  1
  O  O52  1  0.87065300  0.28179400  0.37691600  1
  O  O53  1  0.76443200  0.26581000  0.08073900  1
  O  O54  1  0.19261700  0.38241700  0.80750400  1
  O  O55  1  0.81066700  0.02325900  0.94886000  1
  O  O56  1  0.78877300  0.05136400  0.57970500  1
  O  O57  1  0.47874100  0.66506400  0.44508000  1
  O  O58  1  0.14276400  0.52841000  0.52355100  1
  O  O59  1  0.37996700  0.84013500  0.69117800  1
  O  O60  1  0.29093700  0.19360700  0.95421500  1
  O  O61  1  0.37240100  0.35478400  0.58456900  1
  O  O62  1  0.66167600  0.11607500  0.28753200  1
  O  O63  1  0.57915800  0.00550100  0.03995400  1
  O  O64  1  0.82226800  0.77782500  0.73074300  1
  O  O65  1  0.36009000  0.90739600  0.97011900  1
  O  O66  1  0.73332500  0.73632700  0.09592200  1
  O  O67  1  0.24533000  0.43925900  0.11417600  1
  O  O68  1  0.47256700  0.36352400  0.92852700  1
  O  O69  1  0.46656000  0.61772600  0.12938500  1
  O  O70  1  0.42262100  0.85446000  0.26137000  1
  O  O71  1  0.17543200  0.31047300  0.37876900  1
  O  O72  1  0.91237500  0.55658300  0.97006400  1
  O  O73  1  0.95442400  0.80409600  0.45051500  1
  O  O74  1  0.56658300  0.73976100  0.85695400  1
  O  O75  1  0.50059600  0.36737800  0.27884200  1
  O  O76  1  0.60775400  0.89355600  0.63213200  1
  O  O77  1  0.50742500  0.53534200  0.68121000  1
  O  O78  1  0.02444200  0.22873200  0.64395700  1
  O  O79  1  0.44773000  0.03998900  0.46599600  1
