# generated using pymatgen
data_V2O5
_symmetry_space_group_name_H-M   'P 1'
_cell_length_a   11.61405055
_cell_length_b   12.51498683
_cell_length_c   12.59358177
_cell_angle_alpha   92.32068707
_cell_angle_beta   92.02078516
_cell_angle_gamma   89.19041748
_symmetry_Int_Tables_number   1
_chemical_formula_structural   V2O5
_chemical_formula_sum   'V30 O75'
_cell_volume   1827.68661146
_cell_formula_units_Z   15
loop_
 _symmetry_equiv_pos_site_id
 _symmetry_equiv_pos_as_xyz
  1  'x, y, z'
loop_
 _atom_site_type_symbol
 _atom_site_label
 _atom_site_symmetry_multiplicity
 _atom_site_fract_x
 _atom_site_fract_y
 _atom_site_fract_z
 _atom_site_occupancy
  V  V0  1  0.18835222  0.76010630  0.22136020  1
  V  V1  1  0.90961214  0.81688763  0.69639228  1
  V  V2  1  0.09593808  0.05662824  0.99209702  1
  V  V3  1  0.79664636  0.04245256  0.32937411  1
  V  V4  1  0.86776169  0.90012268  0.90206069  1
  V  V5  1  0.17964682  0.88358775  0.86274939  1
  V  V6  1  0.02920033  0.63200030  0.84039112  1
  V  V7  1  0.46832817  0.86048777  0.41967741  1
  V  V8  1  0.79953727  0.57056214  0.65959154  1
  V  V9  1  0.96365902  0.60436555  0.20545908  1
  V  V10  1  0.59691678  0.11384252  0.41356176  1
  V  V11  1  0.29335660  0.95943407  0.62419282  1
  V  V12  1  0.39486418  0.84089597  0.04330246  1
  V  V13  1  0.61189995  0.17239589  0.94057969  1
  V  V14  1  0.99266066  0.65382503  0.49266910  1
  V  V15  1  0.00037822  0.18152107  0.36591846  1
  V  V16  1  0.01827096  0.92547886  0.48364869  1
  V  V17  1  0.29620157  0.07032938  0.18324354  1
  V  V18  1  0.48637385  0.56928863  0.59191559  1
  V  V19  1  0.64694999  0.36145844  0.76637374  1
  V  V20  1  0.30133506  0.51290881  0.79685292  1
  V  V21  1  0.53699614  0.92515174  0.80989169  1
  V  V22  1  0.55006093  0.30300689  0.53201486  1
  V  V23  1  0.77816592  0.23936444  0.16473017  1
  V  V24  1  0.64281899  0.73028154  0.76997212  1
  V  V25  1  0.17247105  0.52307515  0.35341052  1
  V  V26  1  0.69867098  0.49985845  0.20065797  1
  V  V27  1  0.62858009  0.76111892  0.98909744  1
  V  V28  1  0.43692407  0.55451466  0.05672540  1
  V  V29  1  0.36289003  0.28505446  0.05064232  1
  O  O30  1  0.06718101  0.42346951  0.28956254  1
  O  O31  1  0.14854376  0.87336046  0.27434533  1
  O  O32  1  0.83431294  0.55182682  0.14894158  1
  O  O33  1  0.01068518  0.59623885  0.96045131  1
  O  O34  1  0.86269928  0.57358619  0.53739621  1
  O  O35  1  0.50523866  0.77079254  0.80896920  1
  O  O36  1  0.30043634  0.05200779  0.30849079  1
  O  O37  1  0.00422586  0.72167696  0.62681268  1
  O  O38  1  0.67600035  0.55371636  0.31618846  1
  O  O39  1  0.04094389  0.92502357  0.93462424  1
  O  O40  1  0.93564126  0.76775415  0.83525850  1
  O  O41  1  0.38204393  0.96428520  0.11775765  1
  O  O42  1  0.34140263  0.57953828  0.14418582  1
  O  O43  1  0.43646436  0.40227372  0.07386555  1
  O  O44  1  0.60368478  0.05085061  0.86778636  1
  O  O45  1  0.55875410  0.28269982  0.67218823  1
  O  O46  1  0.39255334  0.81243378  0.31257597  1
  O  O47  1  0.71549847  0.83442759  0.88452893  1
  O  O48  1  0.58980196  0.53897839  0.10980531  1
  O  O49  1  0.04474508  0.70941698  0.15999123  1
  O  O50  1  0.25008201  0.26739768  0.94689320  1
  O  O51  1  0.15075508  0.06539757  0.13048675  1
  O  O52  1  0.96341795  0.03488834  0.40036039  1
  O  O53  1  0.11060780  0.56331464  0.48327892  1
  O  O54  1  0.08372211  0.49951629  0.20821041  1
  O  O55  1  0.27686656  0.78005886  0.10864181  1
  O  O56  1  0.30522061  0.38508548  0.77751795  1
  O  O57  1  0.87469897  0.16678431  0.25994844  1
  O  O58  1  0.78214607  0.73120073  0.68355095  1
  O  O59  1  0.15420874  0.55339586  0.79167364  1
  O  O60  1  0.56112970  0.44891300  0.82117056  1
  O  O61  1  0.32493980  0.85112181  0.92208792  1
  O  O62  1  0.48476930  0.70876805  0.03902787  1
  O  O63  1  0.29131572  0.45952091  0.37355805  1
  O  O64  1  0.00290045  0.79219106  0.43577734  1
  O  O65  1  0.67276433  0.25215155  0.47957501  1
  O  O66  1  0.31263871  0.08400441  0.60493431  1
  O  O67  1  0.68197537  0.16758274  0.06683133  1
  O  O68  1  0.70321641  0.35481112  0.21828399  1
  O  O69  1  0.62010921  0.61681747  0.66771506  1
  O  O70  1  0.66624825  0.65054202  0.88246781  1
  O  O71  1  0.74886047  0.43051018  0.69691712  1
  O  O72  1  0.87051305  0.29291375  0.09190694  1
  O  O73  1  0.96540781  0.26946595  0.45888207  1
  O  O74  1  0.84244927  0.98567928  0.00064979  1
  O  O75  1  0.59287424  0.79953236  0.43299494  1
  O  O76  1  0.79663413  0.92699416  0.26699696  1
  O  O77  1  0.21275242  0.32756210  0.04019525  1
  O  O78  1  0.93576008  0.92433697  0.59391786  1
  O  O79  1  0.14215507  0.75174439  0.85889487  1
  O  O80  1  0.44554804  0.65489424  0.50597607  1
  O  O81  1  0.46309179  0.21149062  0.46931378  1
  O  O82  1  0.15653095  0.94549360  0.52814506  1
  O  O83  1  0.38058862  0.87698376  0.54633986  1
  O  O84  1  0.20797350  0.65857614  0.31527205  1
  O  O85  1  0.47320855  0.21536288  0.95750039  1
  O  O86  1  0.86196893  0.95455489  0.78014875  1
  O  O87  1  0.94343196  0.61880672  0.33597521  1
  O  O88  1  0.73384192  0.03808069  0.45486354  1
  O  O89  1  0.36834010  0.19556608  0.15756389  1
  O  O90  1  0.53725423  0.88704264  0.98398195  1
  O  O91  1  0.66506007  0.11869099  0.28339044  1
  O  O92  1  0.37634536  0.56779920  0.68561800  1
  O  O93  1  0.12912519  0.20593692  0.32536740  1
  O  O94  1  0.68864550  0.26432682  0.86853402  1
  O  O95  1  0.02500648  0.16066786  0.95367534  1
  O  O96  1  0.21723880  0.03040818  0.91799103  1
  O  O97  1  0.50662360  0.00379692  0.40551452  1
  O  O98  1  0.41191174  0.96372157  0.75017685  1
  O  O99  1  0.51798453  0.44534761  0.52172616  1
  O  O100  1  0.62311563  0.88541494  0.70885372  1
  O  O101  1  0.71690816  0.76093724  0.09021786  1
  O  O102  1  0.91505556  0.56575732  0.76248222  1
  O  O103  1  0.36577632  0.54946505  0.92649039  1
  O  O104  1  0.18650650  0.91180063  0.73126996  1
