# generated using pymatgen
data_ZnS
_symmetry_space_group_name_H-M   'P 1'
_cell_length_a   13.63140563
_cell_length_b   14.01707228
_cell_length_c   12.74405418
_cell_angle_alpha   90.14536832
_cell_angle_beta   90.00963385
_cell_angle_gamma   89.63804257
_symmetry_Int_Tables_number   1
_chemical_formula_structural   ZnS
_chemical_formula_sum   'Zn50 S50'
_cell_volume   2434.98053678
_cell_formula_units_Z   50
loop_
 _symmetry_equiv_pos_site_id
 _symmetry_equiv_pos_as_xyz
  1  'x, y, z'
loop_
 _atom_site_type_symbol
 _atom_site_label
 _atom_site_symmetry_multiplicity
 _atom_site_fract_x
 _atom_site_fract_y
 _atom_site_fract_z
 _atom_site_occupancy
  Zn  Zn0  1  0.45004776  0.85907746  0.94481758  1
  Zn  Zn1  1  0.35984709  0.27782339  0.17478474  1
  Zn  Zn2  1  0.71490871  0.19221479  0.00455964  1
  Zn  Zn3  1  0.55303921  0.39369440  0.75606659  1
  Zn  Zn4  1  0.11561633  0.13691349  0.17863600  1
  Zn  Zn5  1  0.85057524  0.37581566  0.71275343  1
  Zn  Zn6  1  0.52497880  0.94368368  0.60939509  1
  Zn  Zn7  1  0.54648846  0.08676188  0.22005716  1
  Zn  Zn8  1  0.32242642  0.12046650  0.75196350  1
  Zn  Zn9  1  0.66919812  0.84675366  0.82270679  1
  Zn  Zn10  1  0.76162117  0.42074801  0.49832282  1
  Zn  Zn11  1  0.65120964  0.91203524  0.00721663  1
  Zn  Zn12  1  0.73938990  0.68006521  0.02738063  1
  Zn  Zn13  1  0.96728708  0.91948518  0.01872809  1
  Zn  Zn14  1  0.20350952  0.56854001  0.09632040  1
  Zn  Zn15  1  0.69571373  0.44024561  0.01981668  1
  Zn  Zn16  1  0.13222240  0.09818313  0.51120692  1
  Zn  Zn17  1  0.13309125  0.72405826  0.27496439  1
  Zn  Zn18  1  0.93241304  0.95062909  0.30581167  1
  Zn  Zn19  1  0.06419060  0.03654439  0.76102774  1
  Zn  Zn20  1  0.98823236  0.22453934  0.94272563  1
  Zn  Zn21  1  0.68083346  0.19883469  0.63201768  1
  Zn  Zn22  1  0.89902096  0.33303269  0.19599667  1
  Zn  Zn23  1  0.43813267  0.21742096  0.45891468  1
  Zn  Zn24  1  0.34074666  0.07138194  0.96991902  1
  Zn  Zn25  1  0.20916546  0.72106590  0.72077192  1
  Zn  Zn26  1  0.93621410  0.81430515  0.87504948  1
  Zn  Zn27  1  0.52400890  0.79657490  0.10424924  1
  Zn  Zn28  1  0.60013843  0.03710059  0.86574418  1
  Zn  Zn29  1  0.72490780  0.94905757  0.48852863  1
  Zn  Zn30  1  0.29192778  0.93230317  0.13985775  1
  Zn  Zn31  1  0.04250184  0.39072545  0.45089642  1
  Zn  Zn32  1  0.40167998  0.75756919  0.32800902  1
  Zn  Zn33  1  0.25863871  0.26855643  0.42536370  1
  Zn  Zn34  1  0.33716723  0.00705650  0.36034683  1
  Zn  Zn35  1  0.66897056  0.80380803  0.28581620  1
  Zn  Zn36  1  0.60684655  0.36242903  0.24620943  1
  Zn  Zn37  1  0.44887845  0.73641080  0.64804425  1
  Zn  Zn38  1  0.09346019  0.27478214  0.72217331  1
  Zn  Zn39  1  0.49645343  0.46211993  0.47327220  1
  Zn  Zn40  1  0.25140145  0.50926846  0.34265830  1
  Zn  Zn41  1  0.34667956  0.52947059  0.55779540  1
  Zn  Zn42  1  0.36448531  0.33544563  0.57515882  1
  Zn  Zn43  1  0.99999298  0.56251845  0.31982416  1
  Zn  Zn44  1  0.82221719  0.02500877  0.80249265  1
  Zn  Zn45  1  0.06274426  0.67860589  0.87292468  1
  Zn  Zn46  1  0.94214757  0.61924442  0.99379233  1
  Zn  Zn47  1  0.73547048  0.56526236  0.76717175  1
  Zn  Zn48  1  0.31495616  0.45928592  0.02198516  1
  Zn  Zn49  1  0.96765233  0.87949445  0.60143343  1
  S  S50  1  0.66413510  0.03185955  0.62506813  1
  S  S51  1  0.02586943  0.99066312  0.16845888  1
  S  S52  1  0.41695040  0.05291322  0.51765317  1
  S  S53  1  0.02896182  0.26936027  0.11150879  1
  S  S54  1  0.11611663  0.27229061  0.54419941  1
  S  S55  1  0.26897136  0.15782560  0.09642218  1
  S  S56  1  0.24462782  0.36116720  0.27549290  1
  S  S57  1  0.74888895  0.81961135  0.12101721  1
  S  S58  1  0.74123937  0.30443509  0.13239207  1
  S  S59  1  0.69984869  0.40990078  0.83881296  1
  S  S60  1  0.54004635  0.29879903  0.60798686  1
  S  S61  1  0.42518328  0.49706456  0.77453871  1
  S  S62  1  0.49907856  0.23265145  0.28726845  1
  S  S63  1  0.22064436  0.64104538  0.87241236  1
  S  S64  1  0.30795027  0.68877079  0.57873474  1
  S  S65  1  0.80241515  0.04695949  0.36496909  1
  S  S66  1  0.49491821  0.85083672  0.76172673  1
  S  S67  1  0.28470455  0.64477721  0.25230752  1
  S  S68  1  0.07713614  0.83091144  0.73474103  1
  S  S69  1  0.82737123  0.87035535  0.73990663  1
  S  S70  1  0.81473366  0.54484610  0.08275983  1
  S  S71  1  0.81434787  0.27615215  0.57033588  1
  S  S72  1  0.95779295  0.06381938  0.90367108  1
  S  S73  1  0.20558621  0.11708295  0.35099125  1
  S  S74  1  0.53960824  0.70155089  0.24610521  1
  S  S75  1  0.17190943  0.15649915  0.81891509  1
  S  S76  1  0.63943472  0.46767399  0.38226187  1
  S  S77  1  0.02466846  0.70502380  0.42336797  1
  S  S78  1  0.44821369  0.35202592  0.03161099  1
  S  S79  1  0.82929237  0.52730099  0.62769758  1
  S  S80  1  0.98329837  0.35099125  0.82489065  1
  S  S81  1  0.66537178  0.68140694  0.86695491  1
  S  S82  1  0.53754804  0.80148505  0.49925738  1
  S  S83  1  0.90717127  0.42448607  0.34897344  1
  S  S84  1  0.18259406  0.88402441  0.27387008  1
  S  S85  1  0.12925220  0.53036025  0.46363534  1
  S  S86  1  0.61999592  0.07051342  0.06055881  1
  S  S87  1  0.72012715  0.15678271  0.82661733  1
  S  S88  1  0.30247788  0.43144132  0.70664359  1
  S  S89  1  0.69165287  0.78603523  0.47290453  1
  S  S90  1  0.53624449  0.45659182  0.10530368  1
  S  S91  1  0.45395012  0.13033163  0.85472762  1
  S  S92  1  0.27870810  0.85296287  0.40220957  1
  S  S93  1  0.43955503  0.95705047  0.22814322  1
  S  S94  1  0.66630042  -0.01115774  0.31148264  1
  S  S95  1  0.29041353  0.91404267  0.96364973  1
  S  S96  1  0.99678979  0.04380962  0.59518864  1
  S  S97  1  0.92545063  0.82614078  0.42777111  1
  S  S98  1  0.28685880  0.04035031  0.60373962  1
  S  S99  1  0.04946800  0.62083803  0.15220113  1
