# generated using pymatgen
data_Al2O3
_symmetry_space_group_name_H-M   'P 1'
_cell_length_a   10.70168287
_cell_length_b   10.21016107
_cell_length_c   10.26513476
_cell_angle_alpha   94.11714713
_cell_angle_beta   87.62744720
_cell_angle_gamma   99.61043362
_symmetry_Int_Tables_number   1
_chemical_formula_structural   Al2O3
_chemical_formula_sum   'Al40 O60'
_cell_volume   1102.54060342
_cell_formula_units_Z   20
loop_
 _symmetry_equiv_pos_site_id
 _symmetry_equiv_pos_as_xyz
  1  'x, y, z'
loop_
 _atom_site_type_symbol
 _atom_site_label
 _atom_site_symmetry_multiplicity
 _atom_site_fract_x
 _atom_site_fract_y
 _atom_site_fract_z
 _atom_site_occupancy
  Al  Al0  1  0.71881600  0.02304600  0.83392200  1
  Al  Al1  1  0.75397200  0.03172400  0.40290500  1
  Al  Al2  1  0.26812000  0.38284100  0.20860400  1
  Al  Al3  1  0.98572600  0.42338900  0.50623800  1
  Al  Al4  1  0.82121500  0.98279700  0.13582100  1
  Al  Al5  1  0.31618400  0.86209500  0.12205600  1
  Al  Al6  1  0.18543900  0.94699400  0.51392200  1
  Al  Al7  1  0.17179300  0.25550300  0.61401400  1
  Al  Al8  1  0.23509900  0.24680400  0.90056300  1
  Al  Al9  1  0.49067400  0.32533200  0.05422200  1
  Al  Al10  1  0.44614900  0.47801300  0.64026100  1
  Al  Al11  1  0.32526000  0.96549200  0.83994900  1
  Al  Al12  1  0.53887500  0.96931700  0.61904900  1
  Al  Al13  1  0.94842500  0.00979300  0.65432400  1
  Al  Al14  1  0.52759300  0.06228500  0.32803800  1
  Al  Al15  1  0.63504700  0.72686500  0.74870300  1
  Al  Al16  1  0.01385700  0.25431600  0.09487400  1
  Al  Al17  1  0.71558800  0.73783800  0.27645100  1
  Al  Al18  1  0.22416300  0.08817100  0.24689800  1
  Al  Al19  1  0.57582100  0.86524600  0.03114600  1
  Al  Al20  1  0.93458500  0.19260800  0.84083700  1
  Al  Al21  1  0.41671100  0.60076200  0.93288300  1
  Al  Al22  1  0.81623800  0.71505600  0.96711200  1
  Al  Al23  1  0.18222800  0.65277100  0.34289100  1
  Al  Al24  1  0.07312600  0.97027500  0.99497100  1
  Al  Al25  1  0.41430700  0.20668800  0.62742500  1
  Al  Al26  1  0.12952700  0.51754500  0.80468600  1
  Al  Al27  1  0.55128200  0.59674000  0.14110200  1
  Al  Al28  1  0.88478400  0.47269300  0.02166800  1
  Al  Al29  1  0.06205100  0.77975400  0.74967800  1
  Al  Al30  1  0.64030300  0.28638600  0.77736300  1
  Al  Al31  1  0.47157300  0.30545500  0.34272000  1
  Al  Al32  1  0.44708300  0.56568400  0.38669400  1
  Al  Al33  1  0.30716600  0.73233400  0.60695200  1
  Al  Al34  1  0.71544900  0.49974000  0.51570100  1
  Al  Al35  1  0.88079400  0.51729700  0.29331800  1
  Al  Al36  1  0.12435100  0.58249000  0.07134900  1
  Al  Al37  1  0.83997300  0.54382000  0.74402700  1
  Al  Al38  1  0.00525500  0.11191100  0.37912400  1
  Al  Al39  1  0.70357400  0.21979100  0.12054100  1
  O  O40  1  0.91820000  0.87734000  0.03877100  1
  O  O41  1  0.07366100  0.16913400  0.22377600  1
  O  O42  1  0.61993700  0.27687900  0.96121000  1
  O  O43  1  0.06296600  0.27809700  0.47954300  1
  O  O44  1  0.53788700  0.22878100  0.19079400  1
  O  O45  1  0.95597900  0.33254500  0.95357600  1
  O  O46  1  0.40473100  0.90276800  0.96712900  1
  O  O47  1  0.12852500  0.00988000  0.37868200  1
  O  O48  1  0.50544600  0.49233800  0.99848300  1
  O  O49  1  0.04921300  0.88710800  0.61675100  1
  O  O50  1  0.25759600  0.10212800  0.58684200  1
  O  O51  1  0.03939400  0.55589000  0.39601700  1
  O  O52  1  0.87822200  0.97967400  0.29778100  1
  O  O53  1  0.65574500  0.02514600  0.99575300  1
  O  O54  1  0.67579000  0.87885300  0.18227900  1
  O  O55  1  0.03845600  0.16576400  0.70246500  1
  O  O56  1  0.15459000  0.89631600  0.85999000  1
  O  O57  1  0.72455500  0.63749800  0.64101100  1
  O  O58  1  0.46323600  0.71998900  0.07487700  1
  O  O59  1  0.38099700  0.89052800  0.67792700  1
  O  O60  1  0.19631800  0.97209300  0.10730200  1
  O  O61  1  0.98879900  0.48033100  0.67715800  1
  O  O62  1  0.46922200  0.44734100  0.23178900  1
  O  O63  1  0.85711500  0.14856100  0.09095200  1
  O  O64  1  0.90709400  0.72212300  0.79961200  1
  O  O65  1  0.30553100  0.24979000  0.29926800  1
  O  O66  1  0.32704600  0.13489500  0.82710700  1
  O  O67  1  0.03076700  0.57763200  0.92963100  1
  O  O68  1  0.54605900  0.45461300  0.46813500  1
  O  O69  1  0.17874800  0.67085000  0.70889800  1
  O  O70  1  0.55111900  0.68574100  0.30759100  1
  O  O71  1  0.23843400  0.78800500  0.46626400  1
  O  O72  1  0.78121300  0.63087000  0.37517000  1
  O  O73  1  0.28632300  0.53266200  0.32724200  1
  O  O74  1  0.87473500  0.06192800  0.52001800  1
  O  O75  1  0.88112500  0.00002900  0.81471900  1
  O  O76  1  0.19308800  0.36072300  0.78521500  1
  O  O77  1  0.49395400  0.35243900  0.73107800  1
  O  O78  1  0.40498500  0.62049800  0.54904400  1
  O  O79  1  0.96513700  0.58829900  0.15372500  1
  O  O80  1  0.69348200  0.12710700  0.29027100  1
  O  O81  1  0.73313600  0.40425400  0.66751700  1
  O  O82  1  0.20919600  0.71711300  0.18171600  1
  O  O83  1  0.80131100  0.38566900  0.16267700  1
  O  O84  1  0.31887000  0.29896200  0.04836500  1
  O  O85  1  0.54547500  0.12828100  0.68941600  1
  O  O86  1  0.83362000  0.40996300  0.43326700  1
  O  O87  1  0.38596400  0.97764100  0.25193800  1
  O  O88  1  0.72263800  0.64982100  0.12099100  1
  O  O89  1  0.64080300  0.89814500  0.71225700  1
  O  O90  1  0.78686700  0.53315700  0.91183000  1
  O  O91  1  0.77245500  0.18936500  0.79021000  1
  O  O92  1  0.48226500  0.18006300  0.45158800  1
  O  O93  1  0.48145800  0.62362600  0.77152500  1
  O  O94  1  0.32542300  0.34856000  0.57181400  1
  O  O95  1  0.12583800  0.41312700  0.13622800  1
  O  O96  1  0.67568900  0.77552100  0.91351700  1
  O  O97  1  0.08414300  0.14713200  0.96106400  1
  O  O98  1  0.25414400  0.57703100  0.94124600  1
  O  O99  1  0.59494800  0.95882900  0.45360500  1
