# generated using pymatgen
data_Al2O3
_symmetry_space_group_name_H-M   'P 1'
_cell_length_a   10.62159779
_cell_length_b   10.12797471
_cell_length_c   10.04019790
_cell_angle_alpha   93.21692085
_cell_angle_beta   91.62060846
_cell_angle_gamma   92.34580660
_symmetry_Int_Tables_number   1
_chemical_formula_structural   Al2O3
_chemical_formula_sum   'Al40 O60'
_cell_volume   1076.96511724
_cell_formula_units_Z   20
loop_
 _symmetry_equiv_pos_site_id
 _symmetry_equiv_pos_as_xyz
  1  'x, y, z'
loop_
 _atom_site_type_symbol
 _atom_site_label
 _atom_site_symmetry_multiplicity
 _atom_site_fract_x
 _atom_site_fract_y
 _atom_site_fract_z
 _atom_site_occupancy
  Al  Al0  1  0.79797500  0.36894700  0.62920900  1
  Al  Al1  1  0.63543100  0.56083700  0.64948700  1
  Al  Al2  1  0.00163100  0.75609500  0.72222000  1
  Al  Al3  1  0.72219600  0.45393200  0.94244100  1
  Al  Al4  1  0.80111100  0.66234300  0.45727400  1
  Al  Al5  1  0.10852100  0.44875600  0.75137100  1
  Al  Al6  1  0.32995700  0.33527800  0.35647400  1
  Al  Al7  1  0.93076600  0.33438800  0.99230300  1
  Al  Al8  1  0.45891400  0.54902300  0.08063800  1
  Al  Al9  1  0.74117000  0.84720100  0.71327400  1
  Al  Al10  1  0.34689200  0.64968000  0.32300500  1
  Al  Al11  1  0.44528100  0.09637700  0.78366800  1
  Al  Al12  1  0.56658900  0.18276400  0.26010100  1
  Al  Al13  1  0.69721300  0.08837600  0.52302000  1
  Al  Al14  1  0.45811700  0.71692600  0.80086500  1
  Al  Al15  1  0.21193100  0.75050700  0.09795000  1
  Al  Al16  1  0.22794800  0.12801700  0.59897900  1
  Al  Al17  1  0.14233200  0.14529600  0.89758800  1
  Al  Al18  1  0.22786200  0.89192600  0.86003700  1
  Al  Al19  1  0.58365100  0.81801400  0.45224600  1
  Al  Al20  1  0.51016100  0.27333600  0.54865000  1
  Al  Al21  1  0.05620400  0.72021200  0.31619300  1
  Al  Al22  1  0.98175500  0.48017800  0.50319100  1
  Al  Al23  1  0.04440100  0.00975900  0.42745100  1
  Al  Al24  1  0.32466900  0.98739100  0.31637200  1
  Al  Al25  1  0.97569200  0.19087600  0.70352600  1
  Al  Al26  1  0.83030800  0.92886500  0.26871200  1
  Al  Al27  1  0.66728200  0.41063300  0.34256200  1
  Al  Al28  1  0.70668700  0.13985700  0.82152500  1
  Al  Al29  1  0.30600200  0.52930800  0.59361800  1
  Al  Al30  1  0.87998600  0.22335900  0.29756600  1
  Al  Al31  1  0.52335900  0.93683800  0.01305400  1
  Al  Al32  1  0.65239500  0.68088600  0.19024400  1
  Al  Al33  1  0.41919900  0.42252200  0.81207500  1
  Al  Al34  1  0.12601000  0.21980900  0.20959200  1
  Al  Al35  1  0.91743500  0.94249100  0.94956100  1
  Al  Al36  1  0.37346800  0.20621900  0.02835100  1
  Al  Al37  1  0.21539000  0.43113600  0.09249500  1
  Al  Al38  1  0.00806200  0.62886000  0.95379600  1
  Al  Al39  1  0.28141200  0.84365000  0.55853500  1
  O  O40  1  0.29353400  0.15848100  0.27437100  1
  O  O41  1  0.27288500  0.46568900  0.75737300  1
  O  O42  1  0.86780400  0.78728900  0.61305600  1
  O  O43  1  0.62352500  0.72110200  0.75989800  1
  O  O44  1  0.96166400  0.36342800  0.69161300  1
  O  O45  1  0.79929200  0.18085300  0.65640200  1
  O  O46  1  0.89860200  0.33658500  0.43817600  1
  O  O47  1  0.04292000  0.08031000  0.58746300  1
  O  O48  1  0.49968300  0.33730700  0.31862500  1
  O  O49  1  0.19001400  0.38160900  0.26160200  1
  O  O50  1  0.43967200  0.26415300  0.86915300  1
  O  O51  1  0.21285400  0.98656700  0.45120200  1
  O  O52  1  0.55717500  0.11864500  0.42161100  1
  O  O53  1  0.03000500  0.59738600  0.77158900  1
  O  O54  1  0.15307400  0.83886600  0.68623700  1
  O  O55  1  0.65787600  0.36136900  0.51445200  1
  O  O56  1  0.42337100  0.85865100  0.41696500  1
  O  O57  1  0.19763400  0.23272800  0.04790300  1
  O  O58  1  0.69940500  0.45147900  0.76711200  1
  O  O59  1  0.13794700  0.48387600  0.56385300  1
  O  O60  1  0.48979700  0.09852500  0.11759300  1
  O  O61  1  0.08289200  0.98108500  0.91508400  1
  O  O62  1  0.29247900  0.88746200  0.17334800  1
  O  O63  1  0.80160100  0.98663600  0.82143100  1
  O  O64  1  0.56978700  0.17046600  0.67751700  1
  O  O65  1  0.71669300  0.80834800  0.32936100  1
  O  O66  1  0.62833800  0.66418800  0.50970500  1
  O  O67  1  0.82315700  0.53714100  0.57865200  1
  O  O68  1  0.21125300  0.72933300  0.39444900  1
  O  O69  1  0.30634400  0.06801800  0.90543300  1
  O  O70  1  0.61081400  0.81720000  0.08557900  1
  O  O71  1  0.62899600  0.53288600  0.06454500  1
  O  O72  1  0.71660800  0.26601400  0.24707400  1
  O  O73  1  0.92106500  0.77494000  0.88573100  1
  O  O74  1  0.96181500  0.62004000  0.40748300  1
  O  O75  1  0.96618500  0.28140900  0.15335600  1
  O  O76  1  0.97375400  0.86926500  0.34480300  1
  O  O77  1  0.35239200  0.51082100  0.42381100  1
  O  O78  1  0.09923800  0.45165700  0.96165900  1
  O  O79  1  0.73426700  0.56306000  0.30290400  1
  O  O80  1  0.40269300  0.85007000  0.89751100  1
  O  O81  1  0.87804700  0.50585000  0.98823500  1
  O  O82  1  0.44848400  0.57809200  0.90418100  1
  O  O83  1  0.86207100  0.96952100  0.10927600  1
  O  O84  1  0.34191800  0.01060700  0.65841600  1
  O  O85  1  0.28633000  0.60122100  0.14260000  1
  O  O86  1  0.49456000  0.64327900  0.24166000  1
  O  O87  1  0.80649800  0.06962100  0.38225400  1
  O  O88  1  0.38183300  0.38738700  0.07887000  1
  O  O89  1  0.97770400  0.19608900  0.88460500  1
  O  O90  1  0.17599100  0.74203400  0.93128400  1
  O  O91  1  0.36455500  0.70467800  0.64262800  1
  O  O92  1  0.75559100  0.27802200  0.93893400  1
  O  O93  1  0.65940400  0.92801800  0.57903400  1
  O  O94  1  0.16631500  0.22272600  0.74218600  1
  O  O95  1  0.05519400  0.69489300  0.14077000  1
  O  O96  1  0.57529600  0.03692100  0.87993700  1
  O  O97  1  0.48005700  0.45783600  0.64906300  1
  O  O98  1  0.33638900  0.25542800  0.52428400  1
  O  O99  1  0.03235100  0.13058100  0.31500800  1
