# generated using pymatgen
data_WO2
_symmetry_space_group_name_H-M   'P 1'
_cell_length_a   11.83957543
_cell_length_b   12.45599324
_cell_length_c   11.54615905
_cell_angle_alpha   88.94468305
_cell_angle_beta   92.28812446
_cell_angle_gamma   82.90116682
_symmetry_Int_Tables_number   1
_chemical_formula_structural   WO2
_chemical_formula_sum   'W34 O68'
_cell_volume   1687.88643256
_cell_formula_units_Z   34
loop_
 _symmetry_equiv_pos_site_id
 _symmetry_equiv_pos_as_xyz
  1  'x, y, z'
loop_
 _atom_site_type_symbol
 _atom_site_label
 _atom_site_symmetry_multiplicity
 _atom_site_fract_x
 _atom_site_fract_y
 _atom_site_fract_z
 _atom_site_occupancy
  W  W0  1  0.56272253  0.97778781  0.52716175  1
  W  W1  1  0.75346312  0.20487235  0.05227408  1
  W  W2  1  0.31376786  0.60844965  0.18102011  1
  W  W3  1  0.84704707  0.69267349  0.45357666  1
  W  W4  1  0.39546363  0.20269927  0.30079142  1
  W  W5  1  0.71960448  0.09895620  0.74381587  1
  W  W6  1  0.09044544  0.21317087  0.13406279  1
  W  W7  1  0.00821852  0.24412361  0.69704720  1
  W  W8  1  0.98370667  0.87461757  0.98902125  1
  W  W9  1  0.02182622  0.98926315  0.76635889  1
  W  W10  1  0.81478748  0.65405643  0.93092414  1
  W  W11  1  0.05709704  0.83425748  0.49640087  1
  W  W12  1  0.58568818  0.25985405  0.48082063  1
  W  W13  1  0.25494004  0.31288466  0.87350465  1
  W  W14  1  0.59193543  0.58838750  0.77579965  1
  W  W15  1  0.61096259  0.43443066  0.24380639  1
  W  W16  1  0.85194733  0.13272428  0.51261190  1
  W  W17  1  0.51998787  0.35116968  0.78702102  1
  W  W18  1  0.99915396  0.49378235  0.70331374  1
  W  W19  1  0.78160696  0.83511012  0.70289943  1
  W  W20  1  0.29431186  0.52429763  0.73265701  1
  W  W21  1  0.52125936  0.91032602  0.89815559  1
  W  W22  1  0.65866744  0.73013108  0.19338484  1
  W  W23  1  0.83204039  0.43188108  0.47336459  1
  W  W24  1  0.38293701  0.46954745  0.41420459  1
  W  W25  1  0.06737918  0.22147730  0.44211523  1
  W  W26  1  0.35654084  0.04373255  0.72760639  1
  W  W27  1  0.41050378  0.82745919  0.15357207  1
  W  W28  1  0.93781178  0.01554860  0.24871130  1
  W  W29  1  0.41351389  0.77081361  0.66305744  1
  W  W30  1  0.52414237  0.18745368  0.04578695  1
  W  W31  1  0.22014608  0.85996540  0.88353002  1
  W  W32  1  0.20320063  0.01123557  0.29645494  1
  W  W33  1  0.93676359  0.37829696  0.21425780  1
  O  O34  1  0.30963561  0.14629835  0.83251798  1
  O  O35  1  0.74211484  0.70116724  0.75931621  1
  O  O36  1  0.86228144  0.02030829  0.39695247  1
  O  O37  1  0.55883012  0.42209355  0.40894985  1
  O  O38  1  0.11139119  0.29266556  0.58054983  1
  O  O39  1  0.68881189  0.56261148  0.91252344  1
  O  O40  1  0.91183840  0.26876658  0.09057848  1
  O  O41  1  0.85691842  0.96449444  0.71987823  1
  O  O42  1  0.13939796  0.53714198  0.65582013  1
  O  O43  1  0.53133324  0.64209955  0.62890213  1
  O  O44  1  0.79865844  0.09369226  0.15933865  1
  O  O45  1  0.98083105  0.73409913  0.39018923  1
  O  O46  1  0.89598100  0.79134997  0.89200004  1
  O  O47  1  0.07831023  0.35783424  0.79238572  1
  O  O48  1  0.43452985  0.67831305  0.10222592  1
  O  O49  1  0.96121797  0.01615580  0.94123637  1
  O  O50  1  0.34634969  0.96163093  0.22348828  1
  O  O51  1  0.85800349  0.16776775  0.68570479  1
  O  O52  1  0.39448985  0.30769860  0.43397457  1
  O  O53  1  0.57237073  0.83509665  0.07629481  1
  O  O54  1  0.21492644  0.57393412  0.07691829  1
  O  O55  1  0.95991143  0.49945564  0.14760013  1
  O  O56  1  0.98906659  0.17309035  0.29359492  1
  O  O57  1  0.19790848  0.77551898  0.52227733  1
  O  O58  1  0.30311516  0.67968155  0.71633769  1
  O  O59  1  0.52275105  0.14892991  0.20915867  1
  O  O60  1  0.66537875  0.94708308  0.78629728  1
  O  O61  1  0.17874059  0.10068600  0.44208145  1
  O  O62  1  0.23835747  0.16880126  0.23683723  1
  O  O63  1  0.35246734  0.35927757  0.72999365  1
  O  O64  1  0.78511351  0.39933521  0.29525454  1
  O  O65  1  0.51580058  0.79940466  0.27909426  1
  O  O66  1  0.44521833  0.30093775  0.93469436  1
  O  O67  1  0.53274203  0.06047451  0.97338723  1
  O  O68  1  0.45542895  0.85354986  0.54301192  1
  O  O69  1  0.07870656  0.92373008  0.35118980  1
  O  O70  1  0.23807077  0.48579068  0.87056166  1
  O  O71  1  0.42929872  0.47748755  0.23776703  1
  O  O72  1  0.92148481  0.89204000  0.13343893  1
  O  O73  1  0.15984296  0.27482799  0.01835599  1
  O  O74  1  0.26451166  0.56392495  0.34095793  1
  O  O75  1  0.36438011  0.50539909  0.56618335  1
  O  O76  1  0.63620860  0.31880879  0.11835391  1
  O  O77  1  0.68067880  0.09426859  0.55523096  1
  O  O78  1  0.28199010  0.76826777  0.21523621  1
  O  O79  1  0.91059214  0.77961747  0.58952816  1
  O  O80  1  0.63567332  0.43634060  0.72613746  1
  O  O81  1  0.76676320  0.27507796  0.47810256  1
  O  O82  1  0.07872643  0.12556805  0.80065083  1
  O  O83  1  0.03858517  0.96204425  0.59550449  1
  O  O84  1  0.98262768  0.36794372  0.39133038  1
  O  O85  1  0.58846508  0.21077663  0.72651759  1
  O  O86  1  0.92401431  0.56158353  0.54958866  1
  O  O87  1  0.30115408  0.89878837  0.72441958  1
  O  O88  1  0.12806369  0.81330517  0.02708158  1
  O  O89  1  0.76493517  0.17258983  0.89912641  1
  O  O90  1  0.64084392  0.57736884  0.20205043  1
  O  O91  1  0.92801995  0.56678797  0.82011312  1
  O  O92  1  0.42091880  0.06587870  0.58421321  1
  O  O93  1  0.45953979  0.51775491  0.81963835  1
  O  O94  1  0.75910628  0.76316775  0.32673949  1
  O  O95  1  0.08577320  0.04151238  0.16363533  1
  O  O96  1  0.37126669  0.88009062  0.99149831  1
  O  O97  1  0.78829136  0.69155783  0.07995977  1
  O  O98  1  0.74859142  0.57547793  0.43429138  1
  O  O99  1  0.51096999  0.75742718  0.80582850  1
  O  O100  1  0.69208304  0.85567480  0.56214044  1
  O  O101  1  0.89918944  0.38590588  0.64062489  1
