# generated using pymatgen
data_ZnS
_symmetry_space_group_name_H-M   'P 1'
_cell_length_a   13.93645273
_cell_length_b   13.03355895
_cell_length_c   13.19920060
_cell_angle_alpha   85.28834023
_cell_angle_beta   85.97948432
_cell_angle_gamma   93.31239479
_symmetry_Int_Tables_number   1
_chemical_formula_structural   ZnS
_chemical_formula_sum   'Zn50 S50'
_cell_volume   2378.66825854
_cell_formula_units_Z   50
loop_
 _symmetry_equiv_pos_site_id
 _symmetry_equiv_pos_as_xyz
  1  'x, y, z'
loop_
 _atom_site_type_symbol
 _atom_site_label
 _atom_site_symmetry_multiplicity
 _atom_site_fract_x
 _atom_site_fract_y
 _atom_site_fract_z
 _atom_site_occupancy
  Zn  Zn0  1  0.35062015  0.39241417  0.11547848  1
  Zn  Zn1  1  0.51478132  0.34278263  0.52460048  1
  Zn  Zn2  1  0.63628014  0.31524289  0.36805607  1
  Zn  Zn3  1  0.93153865  0.96766739  0.96648260  1
  Zn  Zn4  1  0.54671473  0.16298462  0.49260571  1
  Zn  Zn5  1  0.57535312  0.55276618  0.17484857  1
  Zn  Zn6  1  0.74273458  0.89642267  0.07867987  1
  Zn  Zn7  1  0.86140625  0.32555757  0.42649129  1
  Zn  Zn8  1  0.88300511  0.92654092  0.72960539  1
  Zn  Zn9  1  0.15655500  0.80190445  0.07941236  1
  Zn  Zn10  1  0.36455827  0.07651216  0.15294374  1
  Zn  Zn11  1  0.03571810  0.31450650  0.94647336  1
  Zn  Zn12  1  0.22825971  0.54052605  0.62684051  1
  Zn  Zn13  1  0.90344966  0.75635526  0.13786664  1
  Zn  Zn14  1  0.68962466  0.50977287  0.62452443  1
  Zn  Zn15  1  0.59706548  0.37969100  0.01607020  1
  Zn  Zn16  1  0.48926436  0.80402632  0.15842224  1
  Zn  Zn17  1  0.00775756  0.07108432  0.76401643  1
  Zn  Zn18  1  0.03015951  0.32076876  0.23092684  1
  Zn  Zn19  1  0.34021591  0.65034583  0.84580717  1
  Zn  Zn20  1  0.15423916  0.98679409  0.29433062  1
  Zn  Zn21  1  0.21066359  0.77098190  0.81974967  1
  Zn  Zn22  1  0.74973239  0.47705155  0.84957784  1
  Zn  Zn23  1  0.02630495  0.10852806  0.46543986  1
  Zn  Zn24  1  0.72835347  0.55397848  0.39082284  1
  Zn  Zn25  1  0.02866859  0.66370060  0.21454847  1
  Zn  Zn26  1  0.81815816  0.08957217  0.78077798  1
  Zn  Zn27  1  0.14865317  0.43134963  0.29148263  1
  Zn  Zn28  1  0.43879278  0.49947495  0.56211526  1
  Zn  Zn29  1  0.45220647  0.21208636  0.91591759  1
  Zn  Zn30  1  0.85796077  0.88131979  0.36085145  1
  Zn  Zn31  1  0.37447733  0.30223575  0.68725770  1
  Zn  Zn32  1  0.78168802  0.11930837  0.35964058  1
  Zn  Zn33  1  0.19010938  0.07840747  0.98363920  1
  Zn  Zn34  1  0.63775552  0.76404439  0.84973166  1
  Zn  Zn35  1  0.49441281  0.94325406  0.90778587  1
  Zn  Zn36  1  0.76494719  0.73697706  0.57845531  1
  Zn  Zn37  1  0.17144488  0.69518355  0.43886691  1
  Zn  Zn38  1  0.23531734  0.41228275  0.89673281  1
  Zn  Zn39  1  0.27665850  0.19094806  0.25780898  1
  Zn  Zn40  1  0.98069946  0.68015165  0.68853334  1
  Zn  Zn41  1  0.36048693  0.90257116  0.38701060  1
  Zn  Zn42  1  0.97895141  0.29249961  0.66605114  1
  Zn  Zn43  1  0.14694747  0.92968333  0.60383765  1
  Zn  Zn44  1  0.41999174  0.89460672  0.69311084  1
  Zn  Zn45  1  0.81723478  0.37510311  0.12274095  1
  Zn  Zn46  1  0.94031158  0.50389875  0.53862865  1
  Zn  Zn47  1  0.19840087  0.65283453  0.99874180  1
  Zn  Zn48  1  0.29491307  0.13811648  0.64120656  1
  Zn  Zn49  1  0.33438602  0.56047097  0.32464065  1
  S  S50  1  0.37075807  0.05338472  0.97025010  1
  S  S51  1  0.62834756  0.14428252  0.33361216  1
  S  S52  1  0.69023894  0.46050327  0.24729296  1
  S  S53  1  0.25991171  0.92670379  0.72514995  1
  S  S54  1  0.31686601  0.38203367  0.28910962  1
  S  S55  1  0.80911031  0.06676018  0.03969894  1
  S  S56  1  0.39575524  0.06964175  0.49886139  1
  S  S57  1  0.19695915  0.87702689  0.43236379  1
  S  S58  1  0.71590026  0.08429456  0.92175063  1
  S  S59  1  0.72906995  0.39027920  0.49925189  1
  S  S60  1  0.08869661  0.47270535  0.83628951  1
  S  S61  1  0.84914070  0.54396794  0.69278508  1
  S  S62  1  0.04354796  0.71930861  0.83971290  1
  S  S63  1  0.32707514  0.47102360  0.73921536  1
  S  S64  1  0.08712803  0.59816875  0.57651485  1
  S  S65  1  0.98013739  0.40247147  0.08025659  1
  S  S66  1  0.13062428  0.95752629  0.13288631  1
  S  S67  1  0.46524407  0.27936709  0.07219127  1
  S  S68  1  0.59066835  0.85107218  0.01486365  1
  S  S69  1  0.73050435  0.17103802  0.65461172  1
  S  S70  1  0.64437976  0.64208758  0.51127251  1
  S  S71  1  0.94876413  0.23167553  0.82264973  1
  S  S72  1  0.11098499  0.15339914  0.31352053  1
  S  S73  1  0.11151891  0.10921915  0.60965315  1
  S  S74  1  0.18639685  0.25642475  0.99247796  1
  S  S75  1  0.00332946  0.34394854  0.50385571  1
  S  S76  1  0.47517110  0.65158280  0.25557353  1
  S  S77  1  0.73962701  0.83395281  0.71079806  1
  S  S78  1  0.30951119  0.52442491  0.00198500  1
  S  S79  1  0.33415562  0.61811209  0.49129687  1
  S  S80  1  0.89565139  0.60341709  0.39033768  1
  S  S81  1  0.85470539  0.80570455  0.98022320  1
  S  S82  1  0.47298292  0.77459065  0.81341363  1
  S  S83  1  0.08440270  0.98700091  0.89198908  1
  S  S84  1  0.91193316  0.74145918  0.46598955  1
  S  S85  1  0.87456885  0.02013387  0.45447871  1
  S  S86  1  0.99268431  0.85172483  0.62557902  1
  S  S87  1  0.77517408  0.81472204  0.24076073  1
  S  S88  1  0.17409208  0.62053207  0.28576476  1
  S  S89  1  0.58891680  0.44859963  0.77253408  1
  S  S90  1  0.56275106  0.55317826  0.00004051  1
  S  S91  1  0.45981047  0.92643318  0.51831009  1
  S  S92  1  0.62429108  0.06392261  0.63236922  1
  S  S93  1  0.04435262  0.58272674  0.93305945  1
  S  S94  1  0.69687306  0.61957500  0.93814492  1
  S  S95  1  0.44205077  0.94328646  0.23507700  1
  S  S96  1  0.50646581  0.05549635  0.74915370  1
  S  S97  1  0.74680497  0.34086078  0.97435384  1
  S  S98  1  0.53353832  0.29426973  0.76242852  1
  S  S99  1  0.86540400  0.26368206  0.27180079  1
