# generated using pymatgen
data_ZnO
_symmetry_space_group_name_H-M   'P 1'
_cell_length_a   9.93774190
_cell_length_b   10.13621837
_cell_length_c   10.57088866
_cell_angle_alpha   90.26419420
_cell_angle_beta   93.01417592
_cell_angle_gamma   84.33840987
_symmetry_Int_Tables_number   1
_chemical_formula_structural   ZnO
_chemical_formula_sum   'Zn40 O40'
_cell_volume   1058.15711151
_cell_formula_units_Z   40
loop_
 _symmetry_equiv_pos_site_id
 _symmetry_equiv_pos_as_xyz
  1  'x, y, z'
loop_
 _atom_site_type_symbol
 _atom_site_label
 _atom_site_symmetry_multiplicity
 _atom_site_fract_x
 _atom_site_fract_y
 _atom_site_fract_z
 _atom_site_occupancy
  Zn  Zn0  1  0.06195200  0.73513300  0.75198900  1
  Zn  Zn1  1  0.74260000  0.46247000  0.21627200  1
  Zn  Zn2  1  0.58803700  0.48626900  0.45391400  1
  Zn  Zn3  1  0.11370000  0.79733800  0.50323000  1
  Zn  Zn4  1  0.23310500  0.78217900  0.19471500  1
  Zn  Zn5  1  0.26408000  0.98142600  0.66587200  1
  Zn  Zn6  1  0.21661200  0.43093400  0.96490400  1
  Zn  Zn7  1  0.22408900  0.54084100  0.28263300  1
  Zn  Zn8  1  0.08523100  0.25478700  0.55949300  1
  Zn  Zn9  1  0.66284600  0.26613900  0.71399300  1
  Zn  Zn10  1  0.64447200  0.04510000  0.34135600  1
  Zn  Zn11  1  0.28201100  0.54721400  0.53899100  1
  Zn  Zn12  1  0.43138100  0.00381400  0.18569100  1
  Zn  Zn13  1  0.71396400  0.78422100  0.84283800  1
  Zn  Zn14  1  0.95843600  0.57001600  0.11136700  1
  Zn  Zn15  1  0.44910800  0.77385900  0.39804400  1
  Zn  Zn16  1  0.80284600  0.00753700  0.01833400  1
  Zn  Zn17  1  0.94131400  0.38505000  0.73699700  1
  Zn  Zn18  1  0.67258400  0.47447800  0.95178800  1
  Zn  Zn19  1  0.87238300  0.79101100  0.26313700  1
  Zn  Zn20  1  0.97696600  0.04306600  0.76650300  1
  Zn  Zn21  1  0.96847900  0.09611700  0.25549100  1
  Zn  Zn22  1  0.94786800  0.27610900  0.99202300  1
  Zn  Zn23  1  0.33391900  0.83651000  0.92312700  1
  Zn  Zn24  1  0.35253800  0.27990400  0.74555800  1
  Zn  Zn25  1  0.60671900  0.78025300  0.11115600  1
  Zn  Zn26  1  0.19306800  0.08422000  0.05542400  1
  Zn  Zn27  1  0.65405100  0.57678700  0.69190500  1
  Zn  Zn28  1  0.40391500  0.59755900  0.77480500  1
  Zn  Zn29  1  0.78976100  0.19173600  0.49772400  1
  Zn  Zn30  1  0.11750700  0.31517300  0.29041400  1
  Zn  Zn31  1  0.02751500  0.83912600  0.00620200  1
  Zn  Zn32  1  0.42622400  0.26967500  0.45651200  1
  Zn  Zn33  1  0.44994500  0.28352100  0.14410300  1
  Zn  Zn34  1  0.45041600  0.56335000  0.14062900  1
  Zn  Zn35  1  0.53327100  0.99722600  0.62494900  1
  Zn  Zn36  1  0.93685600  0.53285800  0.44455800  1
  Zn  Zn37  1  0.79540700  0.83747000  0.53952400  1
  Zn  Zn38  1  0.26812700  0.04504600  0.39388600  1
  Zn  Zn39  1  0.49878600  0.04411300  0.90079000  1
  O  O40  1  0.84460800  0.43315800  0.05605200  1
  O  O41  1  0.53300300  0.14903400  0.75388400  1
  O  O42  1  0.41340600  0.91367600  0.78265000  1
  O  O43  1  0.91693900  0.19723400  0.64697800  1
  O  O44  1  0.58223100  0.41073200  0.10459700  1
  O  O45  1  0.26804600  0.17512200  0.62270900  1
  O  O46  1  0.06730900  0.20754400  0.13916600  1
  O  O47  1  0.39270200  0.12575400  0.03754100  1
  O  O48  1  0.64817200  0.91409300  0.97583500  1
  O  O49  1  0.91892700  0.79180100  0.85495200  1
  O  O50  1  0.08139400  0.91901500  0.64728800  1
  O  O51  1  0.27409400  0.39916700  0.42220600  1
  O  O52  1  0.38963500  0.93011400  0.50429900  1
  O  O53  1  0.70762800  0.74888200  0.66166300  1
  O  O54  1  0.29956900  0.43678300  0.13495700  1
  O  O55  1  0.03260500  0.49583200  0.28279900  1
  O  O56  1  0.60313800  0.29652400  0.53074600  1
  O  O57  1  0.23624000  0.71493400  0.38305100  1
  O  O58  1  0.57074400  0.88389100  0.27293700  1
  O  O59  1  0.47726200  0.56553800  0.59618100  1
  O  O60  1  0.24430400  0.96846700  0.22062500  1
  O  O61  1  0.45996200  0.16513600  0.30191200  1
  O  O62  1  0.57956700  0.63816300  0.87179900  1
  O  O63  1  0.79377300  0.14739300  0.31954400  1
  O  O64  1  0.40285000  0.74924300  0.07844600  1
  O  O65  1  0.92773500  0.93146200  0.15654300  1
  O  O66  1  0.02991400  0.44570900  0.59049800  1
  O  O67  1  0.07002800  0.35712600  0.88128000  1
  O  O68  1  0.74531900  0.41689400  0.77720300  1
  O  O69  1  0.77503600  0.67245200  0.15999300  1
  O  O70  1  0.48993000  0.60265100  0.32159400  1
  O  O71  1  0.76829200  0.46397400  0.39454500  1
  O  O72  1  0.10939300  0.67820900  0.09266900  1
  O  O73  1  0.87649000  0.12139900  0.90726100  1
  O  O74  1  0.22159400  0.66350100  0.68030200  1
  O  O75  1  0.09950300  0.15595400  0.39619400  1
  O  O76  1  0.15772600  0.94800100  0.92880400  1
  O  O77  1  0.69544600  0.00819600  0.52915100  1
  O  O78  1  0.93090200  0.74749200  0.43838700  1
  O  O79  1  0.36486300  0.42762800  0.84807100  1
