# generated using pymatgen
data_Si3N4
_symmetry_space_group_name_H-M   'P 1'
_cell_length_a   11.32069715
_cell_length_b   10.89753967
_cell_length_c   10.43716926
_cell_angle_alpha   89.09564910
_cell_angle_beta   88.75446133
_cell_angle_gamma   90.51747231
_symmetry_Int_Tables_number   1
_chemical_formula_structural   Si3N4
_chemical_formula_sum   'Si45 N60'
_cell_volume   1287.08886521
_cell_formula_units_Z   15
loop_
 _symmetry_equiv_pos_site_id
 _symmetry_equiv_pos_as_xyz
  1  'x, y, z'
loop_
 _atom_site_type_symbol
 _atom_site_label
 _atom_site_symmetry_multiplicity
 _atom_site_fract_x
 _atom_site_fract_y
 _atom_site_fract_z
 _atom_site_occupancy
  Si  Si0  1  0.67975200  0.75037200  0.68361000  1
  Si  Si1  1  0.55458700  0.55431100  0.31980100  1
  Si  Si2  1  0.87307200  0.56021300  0.68586700  1
  Si  Si3  1  0.12342700  0.59223900  0.55600800  1
  Si  Si4  1  0.22315000  0.07095900  0.56828100  1
  Si  Si5  1  0.50248400  0.53334100  0.65320200  1
  Si  Si6  1  0.35999800  0.41877100  0.15592100  1
  Si  Si7  1  0.88913200  0.21278600  0.70403900  1
  Si  Si8  1  0.41482800  0.75069400  0.83835700  1
  Si  Si9  1  0.01452600  0.17826200  0.43810500  1
  Si  Si10  1  0.25194700  0.64686100  0.04265600  1
  Si  Si11  1  0.61777000  0.71771800  0.88493400  1
  Si  Si12  1  0.70533300  0.38386000  0.08868600  1
  Si  Si13  1  0.42111600  0.29385700  0.38642900  1
  Si  Si14  1  0.55166600  0.28521400  0.60346700  1
  Si  Si15  1  0.14881300  0.31939100  0.22490200  1
  Si  Si16  1  0.84589900  0.52285300  0.26715600  1
  Si  Si17  1  0.57253900  0.01316300  0.74554500  1
  Si  Si18  1  0.08853800  0.62841800  0.26233700  1
  Si  Si19  1  0.20980700  0.06340400  0.05550100  1
  Si  Si20  1  0.10646100  0.92800700  0.48142700  1
  Si  Si21  1  0.48174200  0.54206100  0.02803800  1
  Si  Si22  1  0.63941600  0.81602100  0.34205600  1
  Si  Si23  1  0.09246000  0.36823400  0.85710900  1
  Si  Si24  1  0.79317000  0.96003400  0.78685700  1
  Si  Si25  1  0.06064300  0.64175900  0.85960500  1
  Si  Si26  1  0.84496100  0.79540200  0.25228200  1
  Si  Si27  1  0.66471300  0.84116000  0.05699500  1
  Si  Si28  1  0.49429800  0.05830000  0.47289400  1
  Si  Si29  1  0.11337100  0.33293200  0.61987500  1
  Si  Si30  1  0.86841200  0.98481800  0.34570600  1
  Si  Si31  1  0.04421200  0.97122600  0.75672100  1
  Si  Si32  1  0.85993100  0.20453000  0.19296300  1
  Si  Si33  1  0.29008400  0.96389600  0.84239600  1
  Si  Si34  1  0.66393600  0.22493000  0.34560600  1
  Si  Si35  1  0.88762000  0.54549600  0.96280900  1
  Si  Si36  1  0.23758800  0.84592300  0.24915300  1
  Si  Si37  1  0.92216400  0.40187800  0.45745200  1
  Si  Si38  1  0.77005600  0.18851700  0.90991300  1
  Si  Si39  1  0.93261000  0.78617700  0.67994500  1
  Si  Si40  1  0.28612600  0.52676400  0.67097400  1
  Si  Si41  1  0.73332600  0.58949000  0.50317200  1
  Si  Si42  1  0.66523800  0.44202900  0.84145100  1
  Si  Si43  1  0.44668200  0.82765200  0.30065000  1
  Si  Si44  1  0.90081500  0.85254400  0.93920200  1
  N  N45  1  0.68536300  0.06099800  0.85806600  1
  N  N46  1  0.67733200  0.90782200  0.68131500  1
  N  N47  1  0.19057600  0.03092200  0.73359600  1
  N  N48  1  0.18232100  0.72092600  0.16785400  1
  N  N49  1  0.85998400  0.17007000  0.03846600  1
  N  N50  1  0.57364700  0.84154200  0.18341400  1
  N  N51  1  0.37280500  0.17343200  0.83818100  1
  N  N52  1  0.12739400  0.67941800  0.41621500  1
  N  N53  1  0.91273800  0.05514300  0.72742600  1
  N  N54  1  0.71459900  0.57379300  0.34085800  1
  N  N55  1  0.11882900  0.23724200  0.97592400  1
  N  N56  1  0.60900500  0.56195100  0.93599900  1
  N  N57  1  0.12608600  0.48040900  0.19788800  1
  N  N58  1  0.38671000  0.27443700  0.82141800  1
  N  N59  1  0.35438400  0.06691900  0.50618500  1
  N  N60  1  0.19177900  0.23796800  0.08258500  1
  N  N61  1  0.81439900  0.49619800  0.10123600  1
  N  N62  1  0.01381800  0.63342000  0.69458500  1
  N  N63  1  0.46256700  0.53948500  0.19675800  1
  N  N64  1  0.52565200  0.70165000  0.36851400  1
  N  N65  1  0.61360600  0.63029000  0.59749600  1
  N  N66  1  0.83050300  0.48318100  0.55740300  1
  N  N67  1  0.39305100  0.45720800  0.56976000  1
  N  N68  1  0.46172400  0.11039200  0.07483400  1
  N  N69  1  0.68602700  0.31983200  0.94486300  1
  N  N70  1  0.51899700  0.16961000  0.35238100  1
  N  N71  1  0.90375900  0.25157900  0.52529700  1
  N  N72  1  0.93253700  0.66152900  0.26081100  1
  N  N73  1  0.81214400  0.84405600  0.09634900  1
  N  N74  1  0.22935100  0.49676900  0.10524800  1
  N  N75  1  0.58161500  0.40440300  0.71339800  1
  N  N76  1  0.08952200  0.12771900  0.94795500  1
  N  N77  1  0.63526500  0.34207700  0.46252900  1
  N  N78  1  0.01096800  0.29854200  0.74343300  1
  N  N79  1  0.19004800  0.70643100  0.89670400  1
  N  N80  1  0.26517600  0.80055000  0.84167500  1
  N  N81  1  0.14122500  0.20485400  0.52738700  1
  N  N82  1  0.78317700  0.10935000  0.31665600  1
  N  N83  1  0.56674900  0.12477100  0.61861700  1
  N  N84  1  0.39736100  0.62055600  0.73178800  1
  N  N85  1  0.55781700  0.10083700  0.09232800  1
  N  N86  1  0.39553100  0.66909100  0.99306000  1
  N  N87  1  0.80981100  0.50597200  0.82347000  1
  N  N88  1  0.99347700  0.02177300  0.41613000  1
  N  N89  1  0.93646200  0.69610800  0.94102600  1
  N  N90  1  0.16501700  0.80749600  0.39702100  1
  N  N91  1  0.30389500  0.32649700  0.28303200  1
  N  N92  1  0.40430400  0.32364100  0.55446000  1
  N  N93  1  0.43951500  0.39089400  0.01907800  1
  N  N94  1  0.20072900  0.40635900  0.74002300  1
  N  N95  1  0.20751200  0.98385300  0.19066300  1
  N  N96  1  0.81461200  0.70660200  0.60500600  1
  N  N97  1  0.01018100  0.25024200  0.28290900  1
  N  N98  1  0.44132500  0.93214100  0.80107600  1
  N  N99  1  0.06639200  0.44860500  0.51173500  1
  N  N100  1  0.04315700  0.87013400  0.61831600  1
  N  N101  1  0.54719800  0.40093700  0.37314700  1
  N  N102  1  0.73593600  0.30520100  0.22259900  1
  N  N103  1  0.03306100  0.49522200  0.92757000  1
  N  N104  1  0.53891200  0.92155600  0.40930900  1
