# generated using pymatgen
data_TiO2
_symmetry_space_group_name_H-M   'P 1'
_cell_length_a   10.36447685
_cell_length_b   10.63076324
_cell_length_c   10.32659793
_cell_angle_alpha   93.99498590
_cell_angle_beta   88.82900312
_cell_angle_gamma   91.78792514
_symmetry_Int_Tables_number   1
_chemical_formula_structural   TiO2
_chemical_formula_sum   'Ti30 O60'
_cell_volume   1134.30070311
_cell_formula_units_Z   30
loop_
 _symmetry_equiv_pos_site_id
 _symmetry_equiv_pos_as_xyz
  1  'x, y, z'
loop_
 _atom_site_type_symbol
 _atom_site_label
 _atom_site_symmetry_multiplicity
 _atom_site_fract_x
 _atom_site_fract_y
 _atom_site_fract_z
 _atom_site_occupancy
  Ti  Ti0  1  0.23217200  0.16974800  0.30039400  1
  Ti  Ti1  1  0.78405200  0.06317400  0.49136600  1
  Ti  Ti2  1  0.49023700  0.73539400  0.58075000  1
  Ti  Ti3  1  0.80723600  0.76191200  0.22731100  1
  Ti  Ti4  1  0.32525600  0.47328600  0.14483600  1
  Ti  Ti5  1  0.50817000  0.24736900  0.24365500  1
  Ti  Ti6  1  0.03371400  0.56540000  0.30991000  1
  Ti  Ti7  1  0.58789900  0.57756100  0.99493300  1
  Ti  Ti8  1  0.74897300  0.46054900  0.71804700  1
  Ti  Ti9  1  0.54102600  0.25489200  0.50800300  1
  Ti  Ti10  1  0.40302300  0.03953800  0.99614400  1
  Ti  Ti11  1  0.00746600  0.34101700  0.55381100  1
  Ti  Ti12  1  0.09188800  0.44202500  0.80688300  1
  Ti  Ti13  1  0.06531700  0.88821900  0.68455400  1
  Ti  Ti14  1  0.11919800  0.20499400  0.00472100  1
  Ti  Ti15  1  0.32454000  0.68686200  0.89165700  1
  Ti  Ti16  1  0.83501900  0.31120200  0.31371100  1
  Ti  Ti17  1  0.22876300  0.16496900  0.59990900  1
  Ti  Ti18  1  0.54821600  0.17622400  0.76229800  1
  Ti  Ti19  1  0.58070000  0.52661400  0.32457600  1
  Ti  Ti20  1  0.90082800  0.06707900  0.15674000  1
  Ti  Ti21  1  0.78993500  0.73076500  0.52735600  1
  Ti  Ti22  1  0.85403200  0.06125100  0.81897600  1
  Ti  Ti23  1  0.28001200  0.87823200  0.42610100  1
  Ti  Ti24  1  0.01297100  0.77795200  0.93981100  1
  Ti  Ti25  1  0.65827700  0.27766400  0.00492900  1
  Ti  Ti26  1  0.21237100  0.87351700  0.12431400  1
  Ti  Ti27  1  0.20253000  0.63406200  0.61194100  1
  Ti  Ti28  1  0.87549600  0.53752600  0.05097900  1
  Ti  Ti29  1  0.68689600  0.78021700  0.84694900  1
  O  O30  1  0.97824600  0.92321200  0.84260800  1
  O  O31  1  0.21783800  0.79853800  0.27665200  1
  O  O32  1  0.80395400  0.91596400  0.15670000  1
  O  O33  1  0.64998400  0.20808400  0.35608300  1
  O  O34  1  0.40951800  0.75279300  0.75578000  1
  O  O35  1  0.40406400  0.20658000  0.64083600  1
  O  O36  1  0.79264600  0.21037800  0.13759100  1
  O  O37  1  0.24365700  0.55371200  0.78941300  1
  O  O38  1  0.70411300  0.62356400  0.15328800  1
  O  O39  1  0.53505900  0.13906400  0.09701600  1
  O  O40  1  0.48735700  0.03745000  0.83561600  1
  O  O41  1  0.14818300  0.24978300  0.45448500  1
  O  O42  1  0.63961500  0.58081000  0.82096900  1
  O  O43  1  0.22038100  0.03793100  0.43732800  1
  O  O44  1  0.61129300  0.66177000  0.44340400  1
  O  O45  1  0.25599600  0.11148600  0.95010500  1
  O  O46  1  0.90836700  0.38161700  0.73350900  1
  O  O47  1  0.05043700  0.92215600  0.07808200  1
  O  O48  1  0.76279700  0.89563300  0.43361400  1
  O  O49  1  0.73255800  0.94874300  0.86847200  1
  O  O50  1  0.50667500  0.39949000  0.41315500  1
  O  O51  1  0.40762600  0.18111100  0.38186000  1
  O  O52  1  0.93018800  0.80197200  0.60035400  1
  O  O53  1  0.17855900  0.72389500  0.00653000  1
  O  O54  1  0.63211500  0.11271300  0.58524200  1
  O  O55  1  0.99764400  0.55229600  0.91691000  1
  O  O56  1  0.44569400  0.86066600  0.48130100  1
  O  O57  1  0.12241100  0.27922000  0.69345400  1
  O  O58  1  0.32274600  0.30256400  0.20327700  1
  O  O59  1  0.57835300  0.74731600  0.98816400  1
  O  O60  1  0.92728700  0.43326200  0.16029500  1
  O  O61  1  0.96042800  0.14296200  0.95198400  1
  O  O62  1  0.15838300  0.35942200  0.95037200  1
  O  O63  1  0.08128900  0.49975800  0.62544800  1
  O  O64  1  0.12002200  0.75180500  0.77596700  1
  O  O65  1  0.88119200  0.67837900  0.36327600  1
  O  O66  1  0.73558200  0.43805900  0.96738900  1
  O  O67  1  0.08527400  0.17685300  0.18151300  1
  O  O68  1  0.51534700  0.29139300  0.90107100  1
  O  O69  1  0.89033000  0.09300300  0.32785500  1
  O  O70  1  0.73911500  0.44198700  0.33223000  1
  O  O71  1  0.17148400  0.03473900  0.68678400  1
  O  O72  1  0.94790000  0.69701700  0.13160700  1
  O  O73  1  0.61958300  0.35098500  0.65159600  1
  O  O74  1  0.98731700  0.41546400  0.38825100  1
  O  O75  1  0.72235500  0.18803000  0.84958800  1
  O  O76  1  0.88536000  0.05306700  0.64032800  1
  O  O77  1  0.36179100  0.87121200  0.00196100  1
  O  O78  1  0.83926900  0.72765200  0.90720600  1
  O  O79  1  0.42761300  0.57503800  0.24732900  1
  O  O80  1  0.19526900  0.81142100  0.56133100  1
  O  O81  1  0.79364900  0.56726300  0.60018800  1
  O  O82  1  0.13237900  0.61526600  0.43710000  1
  O  O83  1  0.40420400  0.55541500  0.98862600  1
  O  O84  1  0.56565700  0.38722100  0.14781000  1
  O  O85  1  0.65677400  0.78023500  0.66329900  1
  O  O86  1  0.85393400  0.26120800  0.49695100  1
  O  O87  1  0.29444600  0.03035100  0.18644900  1
  O  O88  1  0.36572900  0.60605000  0.55138100  1
  O  O89  1  0.17242900  0.52534200  0.18891800  1
