# generated using pymatgen
data_ZnS
_symmetry_space_group_name_H-M   'P 1'
_cell_length_a   13.62910644
_cell_length_b   13.72193178
_cell_length_c   12.79081167
_cell_angle_alpha   90.34381164
_cell_angle_beta   93.99988673
_cell_angle_gamma   93.10335212
_symmetry_Int_Tables_number   1
_chemical_formula_structural   ZnS
_chemical_formula_sum   'Zn50 S50'
_cell_volume   2382.66680715
_cell_formula_units_Z   50
loop_
 _symmetry_equiv_pos_site_id
 _symmetry_equiv_pos_as_xyz
  1  'x, y, z'
loop_
 _atom_site_type_symbol
 _atom_site_label
 _atom_site_symmetry_multiplicity
 _atom_site_fract_x
 _atom_site_fract_y
 _atom_site_fract_z
 _atom_site_occupancy
  Zn  Zn0  1  0.55642246  0.94080760  0.33889656  1
  Zn  Zn1  1  0.39000611  0.45658051  0.06313741  1
  Zn  Zn2  1  0.78268951  0.12569288  0.92144810  1
  Zn  Zn3  1  0.62862531  0.35593164  0.92841601  1
  Zn  Zn4  1  0.00802951  0.30460099  0.37074824  1
  Zn  Zn5  1  0.63874860  0.20954285  0.62491490  1
  Zn  Zn6  1  0.91389863  0.81239834  0.41111214  1
  Zn  Zn7  1  0.80088110  0.95295159  0.18494590  1
  Zn  Zn8  1  0.38528140  0.26340793  0.62119806  1
  Zn  Zn9  1  0.74182914  0.86977039  0.89086469  1
  Zn  Zn10  1  0.61324376  0.45578770  0.61077118  1
  Zn  Zn11  1  0.70438849  0.18292798  0.16742605  1
  Zn  Zn12  1  0.86925302  0.43119339  0.07273446  1
  Zn  Zn13  1  0.99409988  0.99105741  0.83410999  1
  Zn  Zn14  1  0.31741628  0.60434246  0.84954991  1
  Zn  Zn15  1  0.60889925  0.48581697  0.24763315  1
  Zn  Zn16  1  0.14168923  0.89956424  0.63602057  1
  Zn  Zn17  1  0.17166261  0.80020236  0.96494237  1
  Zn  Zn18  1  0.90757597  0.15397159  0.36063646  1
  Zn  Zn19  1  0.40052981  0.04417317  0.59146519  1
  Zn  Zn20  1  0.96985228  0.26219209  0.86369699  1
  Zn  Zn21  1  0.53508857  0.05250035  0.85986246  1
  Zn  Zn22  1  0.70930458  0.34746518  0.26415054  1
  Zn  Zn23  1  0.79456409  0.96403710  0.65919918  1
  Zn  Zn24  1  0.27192542  0.01041282  0.88722785  1
  Zn  Zn25  1  0.19181492  0.74766335  0.74918590  1
  Zn  Zn26  1  0.89098386  0.67149775  0.53960554  1
  Zn  Zn27  1  0.33603124  0.68843650  0.14114896  1
  Zn  Zn28  1  0.78055341  0.04167003  0.49154200  1
  Zn  Zn29  1  0.36035505  0.26478927  0.90477075  1
  Zn  Zn30  1  0.29317531  0.88190606  0.33860763  1
  Zn  Zn31  1  0.90032042  0.42374834  0.60793265  1
  Zn  Zn32  1  0.16823804  0.68385995  0.43445764  1
  Zn  Zn33  1  0.34236876  0.09513286  0.35525594  1
  Zn  Zn34  1  0.12089076  0.31688151  0.12421154  1
  Zn  Zn35  1  0.40582263  0.06314435  0.14429127  1
  Zn  Zn36  1  0.58759142  0.20198330  0.30846992  1
  Zn  Zn37  1  0.78726749  0.47748543  0.80474745  1
  Zn  Zn38  1  0.20345944  0.12399771  0.65678675  1
  Zn  Zn39  1  0.30162776  0.31453975  0.34294344  1
  Zn  Zn40  1  0.40064197  0.57685086  0.35959811  1
  Zn  Zn41  1  0.48221524  0.65438822  0.79434830  1
  Zn  Zn42  1  0.12290155  0.37422619  0.68908123  1
  Zn  Zn43  1  0.89025574  0.56346160  0.31145451  1
  Zn  Zn44  1  0.96179254  0.05071055  0.50779891  1
  Zn  Zn45  1  0.34759178  0.78895899  0.87122039  1
  Zn  Zn46  1  0.92721434  0.75096888  0.09100150  1
  Zn  Zn47  1  0.02468629  0.61160615  0.83010059  1
  Zn  Zn48  1  0.16568164  0.44481251  0.95275937  1
  Zn  Zn49  1  0.99217787  0.78689571  0.66840825  1
  S  S50  1  0.65701752  0.20100356  0.98851802  1
  S  S51  1  0.12854512  0.95948975  0.94740449  1
  S  S52  1  0.35471063  0.44402615  0.46370998  1
  S  S53  1  0.00826516  0.37745879  0.99812049  1
  S  S54  1  0.96957769  0.28943327  0.69133945  1
  S  S55  1  0.94577562  0.11745706  0.93893652  1
  S  S56  1  0.25944934  0.32051715  0.03210573  1
  S  S57  1  0.74476326  0.49097879  0.97170877  1
  S  S58  1  0.77502862  0.90757052  0.36123130  1
  S  S59  1  0.89206853  0.57236239  0.70968575  1
  S  S60  1  0.58838358  0.61778151  0.65060370  1
  S  S61  1  0.38956390  0.74473904  0.58578681  1
  S  S62  1  0.41957830  0.22750679  0.26879722  1
  S  S63  1  0.58265236  0.78342651  0.88745145  1
  S  S64  1  0.03119851  0.57508942  0.45146689  1
  S  S65  1  0.68944912  0.18002689  0.46593375  1
  S  S66  1  0.48375174  0.87592361  0.80839217  1
  S  S67  1  0.27093713  0.57128984  0.02129717  1
  S  S68  1  0.26134289  0.65650111  0.59563723  1
  S  S69  1  0.69430127  0.01535734  0.81171426  1
  S  S70  1  0.87799242  0.40632668  0.24763930  1
  S  S71  1  0.67755281  0.34966220  0.73928495  1
  S  S72  1  0.05245555  0.04088110  0.66500303  1
  S  S73  1  0.15004508  0.36305939  0.28835273  1
  S  S74  1  0.29491990  0.70561927  0.31666626  1
  S  S75  1  0.29115711  0.97530109  0.70851278  1
  S  S76  1  0.50066082  0.67601016  0.52326474  1
  S  S77  1  0.76593739  0.57963510  0.43554126  1
  S  S78  1  0.46880579  0.40232014  0.91877324  1
  S  S79  1  0.75142398  0.43828453  0.49796029  1
  S  S80  1  0.15789794  0.51798633  0.78686802  1
  S  S81  1  0.88123593  0.86162657  0.77819853  1
  S  S82  1  0.47926136  0.36978005  0.51976241  1
  S  S83  1  0.85392165  0.11110717  0.18831805  1
  S  S84  1  0.15682486  0.86120653  0.45465601  1
  S  S85  1  0.04508686  0.43290904  0.51373377  1
  S  S86  1  0.57070779  0.04238270  0.20147112  1
  S  S87  1  0.78860799  0.83198380  0.06259893  1
  S  S88  1  0.25946722  0.27355847  0.73797383  1
  S  S89  1  0.42768074  0.96252214  0.44218499  1
  S  S90  1  0.46722851  0.56651074  0.19870235  1
  S  S91  1  0.33391588  0.82749172  0.04623338  1
  S  S92  1  0.26307124  0.00380462  0.21858258  1
  S  S93  1  0.40332317  0.10448002  0.95856276  1
  S  S94  1  0.64960111  0.81324848  0.37081758  1
  S  S95  1  0.04299878  0.68390468  0.99115334  1
  S  S96  1  0.27610914  0.17041221  0.49847837  1
  S  S97  1  0.03395079  0.94099928  0.39397489  1
  S  S98  1  0.49861841  0.15103399  0.69820645  1
  S  S99  1  0.95350004  0.71321898  0.26694600  1
