# generated using pymatgen
data_V2O5
_symmetry_space_group_name_H-M   'P 1'
_cell_length_a   12.45572531
_cell_length_b   12.44145644
_cell_length_c   12.32182419
_cell_angle_alpha   92.42761878
_cell_angle_beta   83.78576927
_cell_angle_gamma   88.27872142
_symmetry_Int_Tables_number   1
_chemical_formula_structural   V2O5
_chemical_formula_sum   'V30 O75'
_cell_volume   1895.40446685
_cell_formula_units_Z   15
loop_
 _symmetry_equiv_pos_site_id
 _symmetry_equiv_pos_as_xyz
  1  'x, y, z'
loop_
 _atom_site_type_symbol
 _atom_site_label
 _atom_site_symmetry_multiplicity
 _atom_site_fract_x
 _atom_site_fract_y
 _atom_site_fract_z
 _atom_site_occupancy
  V  V0  1  0.89064926  0.42683204  0.94595745  1
  V  V1  1  0.96051134  0.88778959  0.09416397  1
  V  V2  1  0.23188532  0.94259256  0.76070507  1
  V  V3  1  0.37222536  0.56958366  0.86186525  1
  V  V4  1  0.80891822  0.14555367  0.41644628  1
  V  V5  1  0.52139537  0.92174414  0.68368743  1
  V  V6  1  0.38830270  0.11036630  0.85377751  1
  V  V7  1  0.69866290  0.55289305  0.55343013  1
  V  V8  1  0.70401182  0.26212125  0.89415938  1
  V  V9  1  0.54483459  0.75697485  0.94671025  1
  V  V10  1  0.35345857  0.98079017  0.32752125  1
  V  V11  1  0.15446916  0.85739526  0.51524535  1
  V  V12  1  0.91240193  0.72143637  0.60771865  1
  V  V13  1  0.75330051  0.89642159  0.80219645  1
  V  V14  1  0.12498009  0.31794580  0.30580416  1
  V  V15  1  0.11414827  0.13776098  0.50145032  1
  V  V16  1  0.88500304  0.15129412  0.67372935  1
  V  V17  1  0.84110800  0.84628643  0.30111241  1
  V  V18  1  0.13142861  0.69882147  0.95278831  1
  V  V19  1  0.66038802  0.22402554  0.29599243  1
  V  V20  1  0.17758579  0.95605671  0.00554873  1
  V  V21  1  0.57448332  0.91722247  0.39451995  1
  V  V22  1  0.61099629  0.49276229  0.30417882  1
  V  V23  1  0.22970282  0.19807820  0.07889024  1
  V  V24  1  0.60042355  0.39933964  0.67841369  1
  V  V25  1  0.45777676  0.77083748  0.21496230  1
  V  V26  1  0.24514457  0.63905061  0.33189020  1
  V  V27  1  0.04722350  0.53516832  0.17492064  1
  V  V28  1  0.43378759  0.33964625  0.88552881  1
  V  V29  1  0.81388008  0.60148870  0.15022636  1
  O  O30  1  0.62779421  0.55643301  0.43347107  1
  O  O31  1  0.54430895  0.31881095  0.95248930  1
  O  O32  1  0.04049438  0.39719637  0.22743765  1
  O  O33  1  0.22759360  0.85428002  0.62955820  1
  O  O34  1  0.14389661  0.03164213  0.73410338  1
  O  O35  1  0.34585626  0.69251066  0.22756565  1
  O  O36  1  0.00096946  0.35832676  0.89963803  1
  O  O37  1  0.34089911  0.58159368  0.73953482  1
  O  O38  1  0.53481481  0.33567148  0.59162171  1
  O  O39  1  0.16362477  0.56250017  0.25218113  1
  O  O40  1  0.29925709  0.89979978  0.42443238  1
  O  O41  1  0.02735990  0.80802399  0.56248432  1
  O  O42  1  0.83324494  0.22612092  0.78848508  1
  O  O43  1  0.80506398  0.64444963  0.54984462  1
  O  O44  1  0.50339179  0.79772574  0.71123378  1
  O  O45  1  0.09483339  0.64463419  0.84313953  1
  O  O46  1  0.85306177  0.02420658  0.68895850  1
  O  O47  1  0.11381512  0.22847515  0.04009961  1
  O  O48  1  0.17401284  0.74851422  0.40916473  1
  O  O49  1  0.83785561  0.80324353  0.71245399  1
  O  O50  1  0.80493684  0.23535603  0.30377949  1
  O  O51  1  0.33737056  0.21992297  0.96922861  1
  O  O52  1  0.39076647  0.99673710  0.72213435  1
  O  O53  1  0.40008988  0.89790953  0.19894259  1
  O  O54  1  0.58433731  0.35086505  0.30814685  1
  O  O55  1  0.63573271  0.96518440  0.74314127  1
  O  O56  1  0.17306916  0.39631291  0.39368180  1
  O  O57  1  0.56917193  0.91355404  0.53585039  1
  O  O58  1  0.52293166  0.56459151  0.24732164  1
  O  O59  1  0.68249289  0.14449619  0.93922775  1
  O  O60  1  0.23050154  0.05539894  0.09728682  1
  O  O61  1  0.85902459  0.80691460  0.42266836  1
  O  O62  1  0.10710147  0.59785260  0.05605780  1
  O  O63  1  0.18820808  0.84302569  0.07058131  1
  O  O64  1  0.65427912  0.30596988  0.76008199  1
  O  O65  1  0.97853241  0.85776213  0.23432218  1
  O  O66  1  0.54525721  0.74357649  0.09813816  1
  O  O67  1  0.74260617  0.62499800  0.05137285  1
  O  O68  1  0.97428225  0.62819742  0.66373060  1
  O  O69  1  0.23267272  0.17378179  0.52485835  1
  O  O70  1  0.66945061  0.80488001  0.88170870  1
  O  O71  1  0.48633710  0.43922063  0.79343938  1
  O  O72  1  0.86893466  0.02820968  0.37591912  1
  O  O73  1  0.73930247  0.50277626  0.22934020  1
  O  O74  1  0.26821461  0.02572944  0.89174619  1
  O  O75  1  0.16975428  0.86178907  0.86618544  1
  O  O76  1  0.49086533  0.06332025  0.90571047  1
  O  O77  1  0.82760294  0.19375271  0.54998344  1
  O  O78  1  0.48800502  0.02296157  0.36409125  1
  O  O79  1  0.31185721  0.56822286  0.40967402  1
  O  O80  1  0.73460620  0.42266902  0.57337352  1
  O  O81  1  0.02582099  0.17168064  0.62386195  1
  O  O82  1  0.52240264  0.79600073  0.33836592  1
  O  O83  1  0.77507252  0.33359596  0.98663604  1
  O  O84  1  0.11031655  0.98971165  0.48866820  1
  O  O85  1  0.49990941  0.63605404  0.89291577  1
  O  O86  1  0.99189162  0.77406893  0.00798306  1
  O  O87  1  0.45039159  0.84749075  0.94169983  1
  O  O88  1  0.85163808  0.50097932  0.84936034  1
  O  O89  1  0.03879995  0.99618327  0.03036821  1
  O  O90  1  0.79256118  0.73255905  0.23214237  1
  O  O91  1  0.63645042  0.15226922  0.19061000  1
  O  O92  1  0.60043888  0.56146399  0.66087859  1
  O  O93  1  0.06577690  0.20867212  0.38810543  1
  O  O94  1  0.23750127  0.27145634  0.20674697  1
  O  O95  1  0.95440152  0.61345345  0.24869862  1
  O  O96  1  0.66524793  0.13755462  0.41368257  1
  O  O97  1  0.70003398  0.92223919  0.32720829  1
  O  O98  1  0.27806817  0.66601611  0.93744964  1
  O  O99  1  0.92054687  0.51045850  0.07795522  1
  O  O100  1  0.26862105  0.07889259  0.31367288  1
  O  O101  1  0.81875807  0.95485125  0.89166275  1
  O  O102  1  0.33440177  0.44335783  0.93624634  1
  O  O103  1  0.83015620  0.91775264  0.11646031  1
  O  O104  1  0.42434108  0.22918056  0.78124019  1
