# generated using pymatgen
data_MgO
_symmetry_space_group_name_H-M   'P 1'
_cell_length_a   10.10282698
_cell_length_b   10.84726784
_cell_length_c   9.16935472
_cell_angle_alpha   95.00821539
_cell_angle_beta   91.86072832
_cell_angle_gamma   84.00621522
_symmetry_Int_Tables_number   1
_chemical_formula_structural   MgO
_chemical_formula_sum   'Mg40 O40'
_cell_volume   995.26659536
_cell_formula_units_Z   40
loop_
 _symmetry_equiv_pos_site_id
 _symmetry_equiv_pos_as_xyz
  1  'x, y, z'
loop_
 _atom_site_type_symbol
 _atom_site_label
 _atom_site_symmetry_multiplicity
 _atom_site_fract_x
 _atom_site_fract_y
 _atom_site_fract_z
 _atom_site_occupancy
  Mg  Mg0  1  0.71723900  0.65722400  0.00567200  1
  Mg  Mg1  1  0.18172600  0.64289300  0.72610500  1
  Mg  Mg2  1  0.69867900  0.35757100  0.06303400  1
  Mg  Mg3  1  0.55014200  0.91075000  0.57949400  1
  Mg  Mg4  1  0.35473100  0.60303200  0.50757700  1
  Mg  Mg5  1  0.27424200  0.76981900  0.10314200  1
  Mg  Mg6  1  0.50583100  0.21408500  0.89544400  1
  Mg  Mg7  1  0.59581400  0.62953100  0.63399700  1
  Mg  Mg8  1  0.13265400  0.39428400  0.38330100  1
  Mg  Mg9  1  0.81561100  0.83855700  0.74129300  1
  Mg  Mg10  1  0.27963800  0.37020000  0.71084600  1
  Mg  Mg11  1  0.27925600  0.87096600  0.56150800  1
  Mg  Mg12  1  0.94479800  0.59790100  0.61475200  1
  Mg  Mg13  1  0.13738700  0.01551600  0.24544700  1
  Mg  Mg14  1  0.00639600  0.59019700  0.92856000  1
  Mg  Mg15  1  0.89653000  0.77390300  0.15336700  1
  Mg  Mg16  1  0.97866600  0.34101900  0.04265600  1
  Mg  Mg17  1  0.87275000  0.03043500  0.07398300  1
  Mg  Mg18  1  0.73304700  0.45417600  0.79994300  1
  Mg  Mg19  1  0.40257100  0.96212500  0.29703300  1
  Mg  Mg20  1  0.89041800  0.03632700  0.57966200  1
  Mg  Mg21  1  0.73086200  0.90676400  0.35286200  1
  Mg  Mg22  1  0.60720700  0.93207400  0.02076700  1
  Mg  Mg23  1  0.41488400  0.60158500  0.89819500  1
  Mg  Mg24  1  0.60124900  0.28858200  0.61491900  1
  Mg  Mg25  1  0.63737100  0.19540600  0.24037800  1
  Mg  Mg26  1  0.09489700  0.76621300  0.34972200  1
  Mg  Mg27  1  0.38815000  0.86377100  0.85218700  1
  Mg  Mg28  1  0.31228700  0.24816400  0.12487800  1
  Mg  Mg29  1  0.35937500  0.19281500  0.46651900  1
  Mg  Mg30  1  0.50578100  0.42204000  0.32160300  1
  Mg  Mg31  1  0.23143400  0.52614400  0.17600200  1
  Mg  Mg32  1  0.02566700  0.31281100  0.65998300  1
  Mg  Mg33  1  0.81797100  0.35127400  0.44659600  1
  Mg  Mg34  1  0.35711000  0.08829900  0.73157400  1
  Mg  Mg35  1  0.08062700  0.87725400  0.85579800  1
  Mg  Mg36  1  0.52486500  0.70986800  0.24864500  1
  Mg  Mg37  1  0.74310300  0.57949100  0.38454000  1
  Mg  Mg38  1  0.13779800  0.11004000  0.90223700  1
  Mg  Mg39  1  0.84515100  0.18089400  0.83949100  1
  O  O40  1  0.78404300  0.82249100  0.97331700  1
  O  O41  1  0.51177900  0.29171900  0.10391700  1
  O  O42  1  0.07913700  0.48686900  0.74868700  1
  O  O43  1  0.70183800  0.02352800  0.18303200  1
  O  O44  1  0.44407400  0.77507800  0.65162200  1
  O  O45  1  0.53407400  0.59545000  0.41314000  1
  O  O46  1  0.55242100  0.86192700  0.36622100  1
  O  O47  1  0.76959600  0.68887500  0.59189100  1
  O  O48  1  0.24157000  0.86162500  0.30411300  1
  O  O49  1  0.99241100  0.72566200  0.78389700  1
  O  O50  1  0.07814900  0.66899800  0.13928900  1
  O  O51  1  0.85044000  0.49485100  0.97634000  1
  O  O52  1  0.37631200  0.01758100  0.52670200  1
  O  O53  1  0.14088000  0.36989300  0.15547000  1
  O  O54  1  0.28873000  0.12112500  0.26093200  1
  O  O55  1  0.95070300  0.47427200  0.44253300  1
  O  O56  1  0.21951000  0.96785900  0.76132200  1
  O  O57  1  0.67482800  0.29214600  0.84102700  1
  O  O58  1  0.35117100  0.52957200  0.70565900  1
  O  O59  1  0.30101400  0.19612400  0.91680300  1
  O  O60  1  0.07132300  0.99239400  0.04682100  1
  O  O61  1  0.84391200  0.21408800  0.06973200  1
  O  O62  1  0.44985300  0.85022900  0.07504600  1
  O  O63  1  0.94338800  0.89938800  0.31880200  1
  O  O64  1  0.60181800  0.59706200  0.85472200  1
  O  O65  1  0.53422500  0.25182300  0.41187500  1
  O  O66  1  0.91501100  0.00128200  0.79370300  1
  O  O67  1  0.73581200  0.95124100  0.56899300  1
  O  O68  1  0.38764500  0.60337100  0.11495500  1
  O  O69  1  0.17586700  0.71422700  0.53152100  1
  O  O70  1  0.73985100  0.69234400  0.21928500  1
  O  O71  1  0.18557800  0.28371200  0.54145900  1
  O  O72  1  0.70904500  0.39840700  0.27462000  1
  O  O73  1  0.52161400  0.00154500  0.83855200  1
  O  O74  1  0.69569000  0.44126600  0.59437600  1
  O  O75  1  0.30362200  0.46868500  0.36266600  1
  O  O76  1  0.25219600  0.74383900  0.89265000  1
  O  O77  1  0.43604100  0.24415600  0.68985300  1
  O  O78  1  0.01533200  0.25125400  0.85083800  1
  O  O79  1  0.87857300  0.21362700  0.56676700  1
