# generated using pymatgen
data_V2O5
_symmetry_space_group_name_H-M   'P 1'
_cell_length_a   12.66080121
_cell_length_b   12.17870216
_cell_length_c   12.74737419
_cell_angle_alpha   93.45259748
_cell_angle_beta   84.16895658
_cell_angle_gamma   93.68744099
_symmetry_Int_Tables_number   1
_chemical_formula_structural   V2O5
_chemical_formula_sum   'V30 O75'
_cell_volume   1948.47094676
_cell_formula_units_Z   15
loop_
 _symmetry_equiv_pos_site_id
 _symmetry_equiv_pos_as_xyz
  1  'x, y, z'
loop_
 _atom_site_type_symbol
 _atom_site_label
 _atom_site_symmetry_multiplicity
 _atom_site_fract_x
 _atom_site_fract_y
 _atom_site_fract_z
 _atom_site_occupancy
  V  V0  1  0.13713030  0.97769701  0.13773189  1
  V  V1  1  0.84878300  0.73776257  0.77764966  1
  V  V2  1  0.94230342  0.00044517  0.79758807  1
  V  V3  1  0.91117329  0.08707428  0.26067008  1
  V  V4  1  0.87814783  0.95008565  0.04508052  1
  V  V5  1  0.09503018  0.68213185  0.77620234  1
  V  V6  1  0.20604743  0.62105517  0.07453733  1
  V  V7  1  0.52935177  0.01421707  0.31191711  1
  V  V8  1  0.69921988  0.66515738  0.54806104  1
  V  V9  1  0.99414529  0.62743659  0.98548606  1
  V  V10  1  0.70581429  0.23150953  0.39578305  1
  V  V11  1  0.10341537  0.81397590  0.36167083  1
  V  V12  1  0.25850592  0.91165184  0.87387450  1
  V  V13  1  0.38110204  0.09928221  0.89678445  1
  V  V14  1  0.94584823  0.58940802  0.39744225  1
  V  V15  1  0.07961766  0.23529717  0.42041514  1
  V  V16  1  0.04608665  0.02156253  0.56264682  1
  V  V17  1  0.32989450  0.13721921  0.25893428  1
  V  V18  1  0.45499977  0.58525024  0.67132835  1
  V  V19  1  0.64393495  0.18718044  0.76047931  1
  V  V20  1  0.38591146  0.57806296  0.95059033  1
  V  V21  1  0.38531037  0.84183527  0.62878032  1
  V  V22  1  0.32969792  0.34289019  0.55465818  1
  V  V23  1  0.67886963  0.10632240  0.10776496  1
  V  V24  1  0.62447942  0.92073941  0.64982600  1
  V  V25  1  0.16613133  0.45818718  0.42670513  1
  V  V26  1  0.86181810  0.49980685  0.15320133  1
  V  V27  1  0.77606197  0.73931226  0.01997812  1
  V  V28  1  0.63434549  0.49504866  0.32561167  1
  V  V29  1  0.37840480  0.37398284  0.28837083  1
  O  O30  1  0.11639315  0.36404697  0.33641938  1
  O  O31  1  0.16652805  0.91972771  0.01641766  1
  O  O32  1  0.99900307  0.51887335  0.07609031  1
  O  O33  1  0.09941304  0.70601916  0.04323101  1
  O  O34  1  0.83400054  0.60166456  0.48178899  1
  O  O35  1  0.50058652  0.11246135  0.82514763  1
  O  O36  1  0.32881279  0.23729671  0.62581946  1
  O  O37  1  0.98500675  0.72288611  0.35319058  1
  O  O38  1  0.67631627  0.37155981  0.37407140  1
  O  O39  1  0.00730308  0.02810344  0.13927657  1
  O  O40  1  0.76751987  0.90205279  0.98706056  1
  O  O41  1  0.66767744  0.22627400  0.16630283  1
  O  O42  1  0.29041949  0.49825946  0.38036119  1
  O  O43  1  0.51278612  0.46307575  0.28116723  1
  O  O44  1  0.59099130  0.86045788  0.75932368  1
  O  O45  1  0.58835638  0.58291306  0.64033651  1
  O  O46  1  0.38591985  0.03064037  0.32343328  1
  O  O47  1  0.69018993  0.81941409  0.56106323  1
  O  O48  1  0.73162479  0.53780402  0.22391708  1
  O  O49  1  0.88890564  0.82759374  0.10176609  1
  O  O50  1  0.36169433  0.20025720  0.98362270  1
  O  O51  1  0.05787726  0.00433560  0.70192988  1
  O  O52  1  0.24102427  0.07515783  0.16190145  1
  O  O53  1  0.05512783  0.54883010  0.46056829  1
  O  O54  1  0.25510958  0.22077799  0.34179047  1
  O  O55  1  0.36393760  0.95949416  0.95236831  1
  O  O56  1  0.25851213  0.50693647  0.98900406  1
  O  O57  1  0.81673010  0.06312781  0.13304382  1
  O  O58  1  0.98115274  0.70234326  0.70880910  1
  O  O59  1  0.19565945  0.60120109  0.19921475  1
  O  O60  1  0.67537676  0.20995570  0.91362392  1
  O  O61  1  0.18471915  0.63345753  0.68850307  1
  O  O62  1  0.62847395  0.59734954  0.42504852  1
  O  O63  1  0.18593272  0.36175621  0.52328252  1
  O  O64  1  0.08211625  0.90454576  0.47423597  1
  O  O65  1  0.40757618  0.32266807  0.43938476  1
  O  O66  1  0.49679026  0.93298784  0.59412553  1
  O  O67  1  0.58140413  0.01232159  0.17377100  1
  O  O68  1  0.83691270  0.37384732  0.11532641  1
  O  O69  1  0.77911502  0.68545009  0.68043433  1
  O  O70  1  0.74510108  0.70378027  0.88627097  1
  O  O71  1  0.75467340  0.27508599  0.74820087  1
  O  O72  1  0.66286893  0.11550800  0.96966352  1
  O  O73  1  0.03173100  0.14296247  0.31874866  1
  O  O74  1  0.66670736  0.72566310  0.09474384  1
  O  O75  1  0.55031795  0.89638516  0.35392479  1
  O  O76  1  0.87436799  0.97908866  0.32427355  1
  O  O77  1  0.32031871  0.39736933  0.18543508  1
  O  O78  1  0.85249411  0.88333459  0.76566520  1
  O  O79  1  0.33304548  0.69331212  0.03436400  1
  O  O80  1  0.41648273  0.69627111  0.60520885  1
  O  O81  1  0.73263436  0.23222318  0.51581312  1
  O  O82  1  0.12183553  0.13691575  0.51186135  1
  O  O83  1  0.20046967  0.74211754  0.38173585  1
  O  O84  1  0.13323087  0.88137578  0.23670263  1
  O  O85  1  0.25215143  0.04257397  0.83229929  1
  O  O86  1  0.97043110  0.98309758  0.93198137  1
  O  O87  1  0.92206375  0.50628872  0.28572975  1
  O  O88  1  0.92156837  0.03687135  0.55503303  1
  O  O89  1  0.43262644  0.22437680  0.21840851  1
  O  O90  1  0.34890383  0.85579973  0.76790901  1
  O  O91  1  0.82415573  0.19186838  0.31310672  1
  O  O92  1  0.42008161  0.60107130  0.81035215  1
  O  O93  1  0.97326123  0.28002492  0.48374693  1
  O  O94  1  0.57006817  0.27224422  0.70630808  1
  O  O95  1  0.88215967  0.11276879  0.79939197  1
  O  O96  1  0.15419477  0.80607332  0.83686419  1
  O  O97  1  0.60260106  0.12335032  0.37916028  1
  O  O98  1  0.28951973  0.87293390  0.56385290  1
  O  O99  1  0.38731545  0.46573040  0.62593352  1
  O  O100  1  0.67515748  0.05873755  0.67843739  1
  O  O101  1  0.84459089  0.61010426  0.04946610  1
  O  O102  1  0.06430870  0.56864057  0.86862585  1
  O  O103  1  0.48073503  0.52612481  0.00184111  1
  O  O104  1  0.93784159  0.72552277  0.90818512  1
