# generated using pymatgen
data_Ga2O3
_symmetry_space_group_name_H-M   'P 1'
_cell_length_a   10.11835206
_cell_length_b   10.20741824
_cell_length_c   10.45180372
_cell_angle_alpha   93.17279862
_cell_angle_beta   87.57453550
_cell_angle_gamma   91.44597342
_symmetry_Int_Tables_number   1
_chemical_formula_structural   Ga2O3
_chemical_formula_sum   'Ga32 O48'
_cell_volume   1076.58195120
_cell_formula_units_Z   16
loop_
 _symmetry_equiv_pos_site_id
 _symmetry_equiv_pos_as_xyz
  1  'x, y, z'
loop_
 _atom_site_type_symbol
 _atom_site_label
 _atom_site_symmetry_multiplicity
 _atom_site_fract_x
 _atom_site_fract_y
 _atom_site_fract_z
 _atom_site_occupancy
  Ga  Ga0  1  0.22152400  0.69391000  0.83257400  1
  Ga  Ga1  1  0.55507800  0.31035100  0.74153000  1
  Ga  Ga2  1  0.08751800  0.22143800  0.93949900  1
  Ga  Ga3  1  0.02795200  0.91662000  0.00079200  1
  Ga  Ga4  1  0.26189100  0.52500700  0.53258600  1
  Ga  Ga5  1  0.02776300  0.48298700  0.77138100  1
  Ga  Ga6  1  0.52684400  0.68265100  0.93426500  1
  Ga  Ga7  1  0.87498400  0.86412200  0.24474000  1
  Ga  Ga8  1  0.13035000  0.06859900  0.63770300  1
  Ga  Ga9  1  0.47951500  0.03993500  0.55339200  1
  Ga  Ga10  1  0.79963600  0.03683100  0.69122600  1
  Ga  Ga11  1  0.42953900  0.17251100  0.26833200  1
  Ga  Ga12  1  0.85296000  0.39812700  0.29547300  1
  Ga  Ga13  1  0.94773400  0.78668700  0.71621600  1
  Ga  Ga14  1  0.68128300  0.24980900  0.47650100  1
  Ga  Ga15  1  0.29970800  0.80256500  0.56343200  1
  Ga  Ga16  1  0.61764500  0.76159500  0.64897500  1
  Ga  Ga17  1  0.83445900  0.14402100  0.15474100  1
  Ga  Ga18  1  0.36793700  0.40435900  0.02646900  1
  Ga  Ga19  1  0.36357200  0.63765200  0.26320100  1
  Ga  Ga20  1  0.34232700  0.90379100  0.06678700  1
  Ga  Ga21  1  0.36275700  0.14149800  0.84610500  1
  Ga  Ga22  1  0.07152300  0.76403200  0.41928600  1
  Ga  Ga23  1  0.69877300  0.66310300  0.36110700  1
  Ga  Ga24  1  0.02166100  0.33257300  0.49288600  1
  Ga  Ga25  1  0.57955300  0.88714400  0.18248700  1
  Ga  Ga26  1  0.73544500  0.51024200  0.65765900  1
  Ga  Ga27  1  0.80714000  0.28763900  0.90867500  1
  Ga  Ga28  1  0.62594700  0.01124600  0.95689200  1
  Ga  Ga29  1  0.58942500  0.46469100  0.18142000  1
  Ga  Ga30  1  0.20863100  0.36326100  0.24760300  1
  Ga  Ga31  1  0.10990900  0.06748600  0.32263300  1
  O  O32  1  0.31630700  0.65269800  0.66107200  1
  O  O33  1  0.11230500  0.44061400  0.60824900  1
  O  O34  1  0.82346900  0.31048200  0.08219800  1
  O  O35  1  0.89280900  0.59571900  0.72963700  1
  O  O36  1  0.70334600  0.64259100  0.53356600  1
  O  O37  1  0.50664900  0.16024600  0.42763000  1
  O  O38  1  0.52619900  0.58329300  0.31661400  1
  O  O39  1  0.44015500  0.03221600  0.95179800  1
  O  O40  1  0.76452800  0.85651400  0.71394300  1
  O  O41  1  0.28843100  0.98357700  0.59170700  1
  O  O42  1  0.84469300  0.38759900  0.50302100  1
  O  O43  1  0.24189700  0.18418700  0.27143000  1
  O  O44  1  0.71114500  0.09948500  0.56259300  1
  O  O45  1  0.96699900  0.09674900  0.00234800  1
  O  O46  1  0.68492300  0.04473000  0.12166500  1
  O  O47  1  0.74106600  0.25297000  0.30510000  1
  O  O48  1  0.25580900  0.68060400  0.41435300  1
  O  O49  1  0.07753400  0.16236200  0.49899200  1
  O  O50  1  0.29917700  0.40871300  0.40328400  1
  O  O51  1  0.48566600  0.13830200  0.70721000  1
  O  O52  1  0.27433100  0.51231400  0.16099700  1
  O  O53  1  0.15565800  0.91000800  0.36864500  1
  O  O54  1  0.75792600  0.53002200  0.23674700  1
  O  O55  1  0.17477900  0.95268400  0.09105400  1
  O  O56  1  0.89634800  0.82257800  0.07696900  1
  O  O57  1  0.61724300  0.83321600  0.99789600  1
  O  O58  1  0.72999000  0.11779400  0.85039000  1
  O  O59  1  0.03067100  0.37037200  0.31316500  1
  O  O60  1  0.16093500  0.53406200  0.87373400  1
  O  O61  1  0.21087500  0.29471200  0.04661600  1
  O  O62  1  0.42421400  0.76591400  0.15908500  1
  O  O63  1  0.18914200  0.13781600  0.80119000  1
  O  O64  1  0.47832000  0.31493200  0.16230300  1
  O  O65  1  0.52417400  0.52683900  0.02608700  1
  O  O66  1  0.07283200  0.80907900  0.84924900  1
  O  O67  1  0.69251700  0.83335600  0.30130600  1
  O  O68  1  0.36162800  0.76843300  0.91615200  1
  O  O69  1  0.49686400  0.85414600  0.55987200  1
  O  O70  1  0.71113700  0.38535900  0.80422800  1
  O  O71  1  0.41746300  0.32155700  0.86706700  1
  O  O72  1  0.97726300  0.31676600  0.83410900  1
  O  O73  1  0.59326100  0.63413700  0.76783400  1
  O  O74  1  0.59644500  0.38520100  0.58671000  1
  O  O75  1  0.08742900  0.75714900  0.59244500  1
  O  O76  1  0.93201000  0.04642000  0.27111000  1
  O  O77  1  0.91326700  0.72868500  0.35119700  1
  O  O78  1  0.43670900  0.00143200  0.20720700  1
  O  O79  1  0.97405700  0.98983200  0.69007800  1
