# generated using pymatgen
data_V2O5
_symmetry_space_group_name_H-M   'P 1'
_cell_length_a   11.69554153
_cell_length_b   12.67587804
_cell_length_c   12.31580737
_cell_angle_alpha   93.24082339
_cell_angle_beta   92.05354955
_cell_angle_gamma   89.25610992
_symmetry_Int_Tables_number   1
_chemical_formula_structural   V2O5
_chemical_formula_sum   'V30 O75'
_cell_volume   1821.63337065
_cell_formula_units_Z   15
loop_
 _symmetry_equiv_pos_site_id
 _symmetry_equiv_pos_as_xyz
  1  'x, y, z'
loop_
 _atom_site_type_symbol
 _atom_site_label
 _atom_site_symmetry_multiplicity
 _atom_site_fract_x
 _atom_site_fract_y
 _atom_site_fract_z
 _atom_site_occupancy
  V  V0  1  0.03549646  0.80131380  0.14903739  1
  V  V1  1  0.94321260  0.81939960  0.65174860  1
  V  V2  1  0.04124186  0.14965786  0.12792200  1
  V  V3  1  0.92879539  0.16708266  0.37509658  1
  V  V4  1  0.91441249  0.10631715  0.86140792  1
  V  V5  1  0.07180369  0.72682838  0.89421057  1
  V  V6  1  0.97955217  0.50082693  0.94511874  1
  V  V7  1  0.39410698  0.75219764  0.19104425  1
  V  V8  1  0.66305288  0.48144292  0.64692422  1
  V  V9  1  0.19423507  0.55081743  0.21716779  1
  V  V10  1  0.64608309  0.12782313  0.44000077  1
  V  V11  1  0.31690474  0.91059844  0.40918914  1
  V  V12  1  0.30808336  0.87560768  0.87977233  1
  V  V13  1  0.52263329  0.14142910  0.81466187  1
  V  V14  1  0.73715435  0.73152771  0.59549435  1
  V  V15  1  0.07461676  0.15296332  0.63956745  1
  V  V16  1  0.12246210  0.78779739  0.35567694  1
  V  V17  1  0.27485198  0.14107474  0.97736319  1
  V  V18  1  0.35934896  0.54286099  0.46167356  1
  V  V19  1  0.69510726  0.29222496  0.83017510  1
  V  V20  1  0.39813011  0.49716441  0.78343206  1
  V  V21  1  0.54398061  0.94203098  0.60556056  1
  V  V22  1  0.47526375  0.28867139  0.42866503  1
  V  V23  1  0.96088834  0.40058844  0.23703098  1
  V  V24  1  0.68127024  0.54298041  0.95381894  1
  V  V25  1  0.25145363  0.35563936  0.56399757  1
  V  V26  1  0.63267528  0.70162230  0.31372272  1
  V  V27  1  0.56611132  0.77939158  0.97841783  1
  V  V28  1  0.41879293  0.55210690  0.02770206  1
  V  V29  1  0.38071301  0.34365461  0.16104207  1
  O  O30  1  0.18717117  0.33222900  0.44535592  1
  O  O31  1  0.18240657  0.12390136  0.11151702  1
  O  O32  1  0.74215253  0.71148979  0.23565675  1
  O  O33  1  0.98651647  0.74799921  0.01064924  1
  O  O34  1  0.67738153  0.45526087  0.51795456  1
  O  O35  1  0.68612821  0.38498632  0.93386831  1
  O  O36  1  0.35479149  0.23948710  0.06315158  1
  O  O37  1  0.89184804  0.70572726  0.57344119  1
  O  O38  1  0.51645643  0.79783719  0.26833725  1
  O  O39  1  0.96596341  0.10594757  0.00869050  1
  O  O40  1  0.83659676  0.53753420  0.91508777  1
  O  O41  1  0.27732037  0.99523191  0.95562084  1
  O  O42  1  0.31919309  0.51147534  0.93143443  1
  O  O43  1  0.25517169  0.41034462  0.18751382  1
  O  O44  1  0.52818573  0.01811291  0.72760446  1
  O  O45  1  0.55349841  0.25169435  0.74522087  1
  O  O46  1  0.26193490  0.49837564  0.55765205  1
  O  O47  1  0.67178094  0.69088721  0.92804354  1
  O  O48  1  0.48332516  0.69594177  0.06442154  1
  O  O49  1  0.32162584  0.61632089  0.14702185  1
  O  O50  1  0.96890368  0.49061951  0.09983673  1
  O  O51  1  0.16902947  0.19413755  0.91265868  1
  O  O52  1  0.16882302  0.90887474  0.43478229  1
  O  O53  1  0.26374724  0.56871839  0.34508122  1
  O  O54  1  0.08418369  0.52598311  0.07790393  1
  O  O55  1  0.21186449  0.76906051  0.92194237  1
  O  O56  1  0.31911644  0.39296374  0.72293258  1
  O  O57  1  0.94322373  0.29626155  0.35247909  1
  O  O58  1  0.79961524  0.85387766  0.67298561  1
  O  O59  1  0.34252780  0.60688401  0.74541875  1
  O  O60  1  0.83841249  0.22082127  0.83514732  1
  O  O61  1  0.06872295  0.59263123  0.86447375  1
  O  O62  1  0.45512588  0.83393432  0.88736807  1
  O  O63  1  0.10713199  0.30809511  0.62000032  1
  O  O64  1  0.08896067  0.70552932  0.44257894  1
  O  O65  1  0.63687917  0.01541634  0.52634453  1
  O  O66  1  0.34001095  0.00431334  0.33059378  1
  O  O67  1  0.82765169  0.43552662  0.23992931  1
  O  O68  1  0.56795771  0.58805553  0.28818581  1
  O  O69  1  0.71035997  0.62476190  0.67150838  1
  O  O70  1  0.67993849  0.54465474  0.08330051  1
  O  O71  1  0.73618473  0.38370598  0.71992830  1
  O  O72  1  0.05547779  0.49641076  0.28686471  1
  O  O73  1  0.10902213  0.27295146  0.72877925  1
  O  O74  1  0.82752316  0.00845702  0.84966926  1
  O  O75  1  0.34343720  0.85091618  0.12723898  1
  O  O76  1  0.99401051  0.10351625  0.25878994  1
  O  O77  1  0.44305442  0.29421498  0.27882673  1
  O  O78  1  0.99997581  0.90535593  0.57854637  1
  O  O79  1  0.13133703  0.70786377  0.21097009  1
  O  O80  1  0.42075854  0.65224330  0.50437350  1
  O  O81  1  0.37840055  0.26559489  0.52998364  1
  O  O82  1  0.29710325  0.78621851  0.32851850  1
  O  O83  1  0.52989968  0.13066340  0.35868751  1
  O  O84  1  0.98934162  0.83525844  0.28491754  1
  O  O85  1  0.39072325  0.14753130  0.87436718  1
  O  O86  1  0.00864493  0.08524278  0.74606937  1
  O  O87  1  0.68837301  0.72031377  0.46267623  1
  O  O88  1  0.98664682  0.14248582  0.50289328  1
  O  O89  1  0.46800604  0.43327553  0.10493769  1
  O  O90  1  0.27572709  0.89441000  0.75424021  1
  O  O91  1  0.61941055  0.24871607  0.50510511  1
  O  O92  1  0.51996947  0.48392114  0.68482645  1
  O  O93  1  0.19625357  0.09714436  0.61544785  1
  O  O94  1  0.63414059  0.15644550  0.90442332  1
  O  O95  1  0.01765469  0.28399853  0.14640634  1
  O  O96  1  0.10920325  0.90260769  0.12186672  1
  O  O97  1  0.78001173  0.13040647  0.37065980  1
  O  O98  1  0.41533822  0.92252938  0.53011211  1
  O  O99  1  0.45455724  0.43595785  0.43566955  1
  O  O100  1  0.59711798  0.82130700  0.63077728  1
  O  O101  1  0.62351219  0.87608291  0.05042061  1
  O  O102  1  0.00105160  0.38354499  0.89475933  1
  O  O103  1  0.52718225  0.52859733  0.90751966  1
  O  O104  1  0.02030796  0.79283151  0.78304456  1
