# generated using pymatgen
data_CrFe7O12
_symmetry_space_group_name_H-M   'P 1'
_cell_length_a   10.38327564
_cell_length_b   9.14975062
_cell_length_c   10.38274051
_cell_angle_alpha   95.06961232
_cell_angle_beta   89.15883135
_cell_angle_gamma   87.65362411
_symmetry_Int_Tables_number   1
_chemical_formula_structural   CrFe7O12
_chemical_formula_sum   'Cr4 Fe28 O48'
_cell_volume   981.55738126
_cell_formula_units_Z   4
loop_
 _symmetry_equiv_pos_site_id
 _symmetry_equiv_pos_as_xyz
  1  'x, y, z'
loop_
 _atom_site_type_symbol
 _atom_site_label
 _atom_site_symmetry_multiplicity
 _atom_site_fract_x
 _atom_site_fract_y
 _atom_site_fract_z
 _atom_site_occupancy
  Cr  Cr0  1  0.39087500  0.74002500  0.16332000  1
  Cr  Cr1  1  0.66979600  0.31531500  0.12423000  1
  Cr  Cr2  1  0.18398800  0.98184400  0.17694700  1
  Cr  Cr3  1  0.90690400  0.39060600  0.21829300  1
  Fe  Fe4  1  0.64490400  0.82322000  0.72462500  1
  Fe  Fe5  1  0.67613700  0.23791800  0.48674500  1
  Fe  Fe6  1  0.71462300  0.97118300  0.97575700  1
  Fe  Fe7  1  0.97534900  0.15271600  0.98100400  1
  Fe  Fe8  1  0.64146900  0.56511400  0.89081700  1
  Fe  Fe9  1  0.94726400  0.10354000  0.40928800  1
  Fe  Fe10  1  0.48097400  0.42666500  0.32049000  1
  Fe  Fe11  1  0.10745900  0.50750200  0.03584600  1
  Fe  Fe12  1  0.68131000  0.91204100  0.27923200  1
  Fe  Fe13  1  0.38851400  0.45328900  0.98827500  1
  Fe  Fe14  1  0.29423800  0.25079300  0.51299900  1
  Fe  Fe15  1  0.67101500  0.22966500  0.82380500  1
  Fe  Fe16  1  0.47608900  0.11757000  0.16388100  1
  Fe  Fe17  1  0.14450100  0.64253700  0.33486200  1
  Fe  Fe18  1  0.99546600  0.41769600  0.51567800  1
  Fe  Fe19  1  0.92958100  0.75475300  0.12299900  1
  Fe  Fe20  1  0.60400600  0.66981900  0.45514400  1
  Fe  Fe21  1  0.15299400  0.82898500  0.90937900  1
  Fe  Fe22  1  0.91843200  0.68498900  0.72092600  1
  Fe  Fe23  1  0.50248600  0.42330600  0.66466800  1
  Fe  Fe24  1  0.19173600  0.62032900  0.66426300  1
  Fe  Fe25  1  0.12433300  0.00327100  0.65897400  1
  Fe  Fe26  1  0.18719400  0.30123600  0.23716700  1
  Fe  Fe27  1  0.89209100  0.80107200  0.45571400  1
  Fe  Fe28  1  0.41377200  0.78766000  0.87360400  1
  Fe  Fe29  1  0.14765600  0.33113200  0.75600300  1
  Fe  Fe30  1  0.35018000  0.83175200  0.44866100  1
  Fe  Fe31  1  0.44599500  0.03302000  0.65658900  1
  O  O32  1  0.24442500  0.68953200  0.50464900  1
  O  O33  1  0.06085400  0.97633500  0.04290600  1
  O  O34  1  0.50978200  0.91869200  0.21205500  1
  O  O35  1  0.28322200  0.02477400  0.53836400  1
  O  O36  1  0.50093900  0.37009700  0.84468000  1
  O  O37  1  0.73841100  0.73574400  0.35258800  1
  O  O38  1  0.61746300  0.04495600  0.72395300  1
  O  O39  1  0.84273100  0.22031500  0.13744400  1
  O  O40  1  0.56834300  0.47264900  0.48704900  1
  O  O41  1  0.69055400  0.33933600  0.67720900  1
  O  O42  1  0.47184000  0.21654700  0.57047700  1
  O  O43  1  0.29421800  0.12879400  0.15262800  1
  O  O44  1  0.51232600  0.84330400  0.54553900  1
  O  O45  1  0.26285200  0.84798200  0.28391000  1
  O  O46  1  0.10740700  0.25160600  0.56662500  1
  O  O47  1  0.99913700  0.79242900  0.28939500  1
  O  O48  1  0.08823000  0.11160700  0.29263000  1
  O  O49  1  0.82435000  0.09180600  0.88543000  1
  O  O50  1  0.57663600  0.87080000  0.90197900  1
  O  O51  1  0.22538800  0.39318400  0.91756300  1
  O  O52  1  0.05345100  0.31417100  0.08954200  1
  O  O53  1  0.07058200  0.81790800  0.73740200  1
  O  O54  1  0.08252000  0.14754600  0.80917600  1
  O  O55  1  0.78265500  0.76854600  0.60898400  1
  O  O56  1  0.04142500  0.69126300  0.97499900  1
  O  O57  1  0.78110000  0.69458000  0.84881900  1
  O  O58  1  0.46559500  0.65376600  0.32372000  1
  O  O59  1  0.31903800  0.35745200  0.36855500  1
  O  O60  1  0.33140000  0.94735200  0.77538400  1
  O  O61  1  0.86704800  0.29938200  0.43546100  1
  O  O62  1  0.25295400  0.57017700  0.14306100  1
  O  O63  1  0.99510800  0.96643300  0.53146200  1
  O  O64  1  0.54102800  0.63796800  0.74037500  1
  O  O65  1  0.98571200  0.63205600  0.52922500  1
  O  O66  1  0.72554400  0.44609400  0.24905800  1
  O  O67  1  0.27047400  0.66736000  0.82615700  1
  O  O68  1  0.29390000  0.42193100  0.65199200  1
  O  O69  1  0.29690200  0.85483900  0.03552200  1
  O  O70  1  0.04928400  0.44303000  0.33029200  1
  O  O71  1  0.48809200  0.63431800  0.00640500  1
  O  O72  1  0.77356400  0.02810200  0.40313200  1
  O  O73  1  0.58422700  0.22147300  0.29016800  1
  O  O74  1  0.60314600  0.13961900  0.02966900  1
  O  O75  1  0.47819700  0.37289700  0.13052400  1
  O  O76  1  0.03366500  0.49782100  0.72013900  1
  O  O77  1  0.92375100  0.54738100  0.12402400  1
  O  O78  1  0.71698800  0.39231900  0.96531400  1
  O  O79  1  0.78231100  0.88400000  0.12065400  1
