# generated using pymatgen
data_MgO
_symmetry_space_group_name_H-M   'P 1'
_cell_length_a   9.52265640
_cell_length_b   11.01083822
_cell_length_c   9.36602495
_cell_angle_alpha   89.57876438
_cell_angle_beta   90.69372860
_cell_angle_gamma   92.52557984
_symmetry_Int_Tables_number   1
_chemical_formula_structural   MgO
_chemical_formula_sum   'Mg40 O40'
_cell_volume   981.00178456
_cell_formula_units_Z   40
loop_
 _symmetry_equiv_pos_site_id
 _symmetry_equiv_pos_as_xyz
  1  'x, y, z'
loop_
 _atom_site_type_symbol
 _atom_site_label
 _atom_site_symmetry_multiplicity
 _atom_site_fract_x
 _atom_site_fract_y
 _atom_site_fract_z
 _atom_site_occupancy
  Mg  Mg0  1  0.53400800  0.79804600  0.25111300  1
  Mg  Mg1  1  0.14997300  0.52689400  0.82120900  1
  Mg  Mg2  1  0.73010800  0.44727600  0.09129800  1
  Mg  Mg3  1  0.58540900  0.04235500  0.57844800  1
  Mg  Mg4  1  0.31130400  0.34917400  0.63640000  1
  Mg  Mg5  1  0.28595700  0.51224000  0.14456600  1
  Mg  Mg6  1  0.62438000  0.31208800  0.72429600  1
  Mg  Mg7  1  0.65142300  0.55664400  0.67183700  1
  Mg  Mg8  1  0.89196200  0.19199100  0.24516900  1
  Mg  Mg9  1  0.92215300  0.88163600  0.39973200  1
  Mg  Mg10  1  0.00989600  0.33877800  0.03190600  1
  Mg  Mg11  1  0.05870200  0.13121800  0.49229300  1
  Mg  Mg12  1  0.06017700  0.63574500  0.55691000  1
  Mg  Mg13  1  0.26995700  0.80077500  0.06176500  1
  Mg  Mg14  1  0.85903000  0.60162500  0.90365700  1
  Mg  Mg15  1  0.99601200  0.63416100  0.17019900  1
  Mg  Mg16  1  0.77237100  0.12941800  0.96471300  1
  Mg  Mg17  1  0.75720600  0.86789600  0.04833600  1
  Mg  Mg18  1  0.41691300  0.72440700  0.86237100  1
  Mg  Mg19  1  0.18915400  0.77395600  0.33704900  1
  Mg  Mg20  1  0.78928000  0.35225800  0.43752800  1
  Mg  Mg21  1  0.69333700  0.00532400  0.31593900  1
  Mg  Mg22  1  0.42558400  0.10873100  0.81535800  1
  Mg  Mg23  1  0.47999300  0.45722800  0.91373400  1
  Mg  Mg24  1  0.76621600  0.65614400  0.36610600  1
  Mg  Mg25  1  0.43345200  0.00351400  0.12186700  1
  Mg  Mg26  1  0.37312400  0.59735200  0.52975200  1
  Mg  Mg27  1  0.23516900  0.87978400  0.65130600  1
  Mg  Mg28  1  0.34032200  0.26189300  0.05845600  1
  Mg  Mg29  1  0.35976700  0.08272500  0.40998400  1
  Mg  Mg30  1  0.59481200  0.23594000  0.20347100  1
  Mg  Mg31  1  0.52244400  0.48897200  0.32134200  1
  Mg  Mg32  1  0.99155700  0.34544400  0.65713300  1
  Mg  Mg33  1  0.18204700  0.35245500  0.35925900  1
  Mg  Mg34  1  0.10796500  0.16380100  0.85793000  1
  Mg  Mg35  1  0.02763800  0.81444000  0.88962100  1
  Mg  Mg36  1  0.59560900  0.78801400  0.53472400  1
  Mg  Mg37  1  0.86606100  0.80767100  0.67204900  1
  Mg  Mg38  1  0.12355400  0.05261000  0.14321600  1
  Mg  Mg39  1  0.84721500  0.03939700  0.69730200  1
  O  O40  1  0.65474000  0.03134600  0.09988100  1
  O  O41  1  0.77198400  0.27540200  0.09276500  1
  O  O42  1  0.99937000  0.66250500  0.76411200  1
  O  O43  1  0.69886900  0.18248600  0.38106800  1
  O  O44  1  0.49566200  0.43783800  0.61568900  1
  O  O45  1  0.50096300  0.69477900  0.68585800  1
  O  O46  1  0.38532700  0.02201300  0.63445100  1
  O  O47  1  0.74551100  0.83283700  0.27020000  1
  O  O48  1  0.53902000  0.66454800  0.38063200  1
  O  O49  1  0.23314700  0.82518900  0.85879200  1
  O  O50  1  0.98257600  0.70357700  0.36771300  1
  O  O51  1  0.93497500  0.49775000  0.05073300  1
  O  O52  1  0.25059600  0.21837200  0.49260600  1
  O  O53  1  0.10510900  0.34671600  0.84471300  1
  O  O54  1  0.24158200  0.92123900  0.21326500  1
  O  O55  1  0.24298500  0.73445700  0.52838600  1
  O  O56  1  0.27579900  0.09244200  0.96630300  1
  O  O57  1  0.67336900  0.51903600  0.88884700  1
  O  O58  1  0.15615100  0.47814300  0.60958600  1
  O  O59  1  0.43753700  0.28727100  0.84461600  1
  O  O60  1  0.19709300  0.66760000  0.17098200  1
  O  O61  1  0.66037600  0.12931000  0.76298300  1
  O  O62  1  0.50365400  0.94682300  0.38130600  1
  O  O63  1  0.90087600  0.74195100  0.03674100  1
  O  O64  1  0.47986700  0.81791100  0.04796800  1
  O  O65  1  0.40762000  0.15778500  0.22019800  1
  O  O66  1  0.99200400  0.16258100  0.68347100  1
  O  O67  1  0.74315600  0.93568500  0.55196700  1
  O  O68  1  0.50373000  0.40224900  0.12353700  1
  O  O69  1  0.03172300  0.91100400  0.58836400  1
  O  O70  1  0.76879200  0.67991500  0.57205100  1
  O  O71  1  0.98265500  0.04247700  0.31298000  1
  O  O72  1  0.18407200  0.34537300  0.14612300  1
  O  O73  1  0.85329600  0.91793800  0.85293300  1
  O  O74  1  0.73167500  0.48348700  0.30429100  1
  O  O75  1  0.32406800  0.48721400  0.35775400  1
  O  O76  1  0.32519600  0.56489500  0.93237600  1
  O  O77  1  0.79195900  0.39560600  0.63991900  1
  O  O78  1  0.98306000  0.14364000  0.02961500  1
  O  O79  1  0.98191500  0.29701200  0.40286000  1
