# generated using pymatgen
data_V2O5
_symmetry_space_group_name_H-M   'P 1'
_cell_length_a   12.80139077
_cell_length_b   11.49389284
_cell_length_c   12.66560361
_cell_angle_alpha   83.82587718
_cell_angle_beta   92.53152599
_cell_angle_gamma   91.03474770
_symmetry_Int_Tables_number   1
_chemical_formula_structural   V2O5
_chemical_formula_sum   'V30 O75'
_cell_volume   1850.80538666
_cell_formula_units_Z   15
loop_
 _symmetry_equiv_pos_site_id
 _symmetry_equiv_pos_as_xyz
  1  'x, y, z'
loop_
 _atom_site_type_symbol
 _atom_site_label
 _atom_site_symmetry_multiplicity
 _atom_site_fract_x
 _atom_site_fract_y
 _atom_site_fract_z
 _atom_site_occupancy
  V  V0  1  0.13778035  0.45466853  0.94307551  1
  V  V1  1  0.90583136  0.86622855  0.18743420  1
  V  V2  1  0.34619714  0.09990478  0.66030536  1
  V  V3  1  0.58199308  0.40277151  0.74778227  1
  V  V4  1  0.66532754  0.50234067  0.48685364  1
  V  V5  1  0.52931185  0.11808777  0.77995925  1
  V  V6  1  0.49080881  0.93802084  0.97758311  1
  V  V7  1  0.88215181  0.33294830  0.54363321  1
  V  V8  1  0.95330117  0.03658662  0.95130609  1
  V  V9  1  0.44619255  0.74451619  0.86838989  1
  V  V10  1  0.32667714  0.24046650  0.47526238  1
  V  V11  1  0.44771752  0.75480128  0.60356274  1
  V  V12  1  0.63647104  0.73763558  0.70220730  1
  V  V13  1  0.80610207  0.83632327  0.86518769  1
  V  V14  1  0.07558066  0.31170597  0.35798476  1
  V  V15  1  0.08558310  0.90348745  0.34590261  1
  V  V16  1  0.95626234  0.90520948  0.56497168  1
  V  V17  1  0.70252636  0.01961813  0.25387330  1
  V  V18  1  0.90871521  0.45820779  0.09018341  1
  V  V19  1  0.42731831  0.47409782  0.31663998  1
  V  V20  1  0.13183453  0.92667633  0.77347903  1
  V  V21  1  0.50780978  0.19297607  0.10427403  1
  V  V22  1  0.76510748  0.77938183  0.40645176  1
  V  V23  1  0.91660563  0.15505834  0.19798603  1
  V  V24  1  0.02212328  0.27213717  0.77214118  1
  V  V25  1  0.47895038  0.71137252  0.15337747  1
  V  V26  1  0.24520718  0.66311911  0.42902238  1
  V  V27  1  0.03494626  0.60792318  0.28562346  1
  V  V28  1  0.32963162  0.32059022  0.12631353  1
  V  V29  1  0.68487983  0.57752107  0.94513261  1
  O  O30  1  0.80117584  0.50112442  0.99980481  1
  O  O31  1  0.32940080  0.43818144  0.22812259  1
  O  O32  1  0.94814958  0.12382029  0.06923622  1
  O  O33  1  0.36135677  0.75109245  0.49732868  1
  O  O34  1  0.02302425  0.97366462  0.45807824  1
  O  O35  1  0.19886527  0.89108742  0.08746783  1
  O  O36  1  0.01934735  0.43328006  0.01784523  1
  O  O37  1  0.57127139  0.83325036  0.59219824  1
  O  O38  1  0.60915646  0.24569436  0.76374131  1
  O  O39  1  0.18168437  0.63293242  0.30953166  1
  O  O40  1  0.32777922  0.25960967  0.61198240  1
  O  O41  1  0.16138451  0.79898880  0.42630244  1
  O  O42  1  0.88489923  0.00037039  0.61116901  1
  O  O43  1  0.79319644  0.44652337  0.48748569  1
  O  O44  1  0.24092491  0.01146261  0.70740960  1
  O  O45  1  0.57829186  0.68730184  0.83539023  1
  O  O46  1  0.86401790  0.79981352  0.50442642  1
  O  O47  1  0.05612415  0.86649521  0.67077061  1
  O  O48  1  0.21133772  0.99645959  0.05846089  1
  O  O49  1  0.72692398  0.65192555  0.67186816  1
  O  O50  1  0.58868785  0.44921251  0.39523159  1
  O  O51  1  0.39058382  0.24160437  0.02608319  1
  O  O52  1  0.57952427  0.01047111  0.88339169  1
  O  O53  1  0.17023632  0.99206824  0.29028034  1
  O  O54  1  0.97128737  0.58900034  0.39432783  1
  O  O55  1  0.71288298  0.85505363  0.75682312  1
  O  O56  1  0.07750935  0.43707815  0.27787295  1
  O  O57  1  0.60572577  0.24444013  0.03524830  1
  O  O58  1  0.90895847  0.77847021  0.82412233  1
  O  O59  1  0.74601705  0.72718873  0.95327091  1
  O  O60  1  0.95883211  0.18396601  0.87441666  1
  O  O61  1  0.58657362  0.08168676  0.21309662  1
  O  O62  1  0.93740751  0.57257164  0.16430999  1
  O  O63  1  0.81921991  0.76044972  0.28985156  1
  O  O64  1  0.05487306  0.98572826  0.87720006  1
  O  O65  1  0.79244226  0.13587353  0.26950508  1
  O  O66  1  0.52794701  0.78771465  0.01137034  1
  O  O67  1  0.60214471  0.55741860  0.03798887  1
  O  O68  1  0.08795760  0.18286079  0.70987306  1
  O  O69  1  0.95435895  0.98814698  0.25559679  1
  O  O70  1  0.37820171  0.63409474  0.91254536  1
  O  O71  1  0.35251653  0.71715743  0.13041967  1
  O  O72  1  0.49527063  0.06038312  0.66203627  1
  O  O73  1  0.67996542  0.65920824  0.44752703  1
  O  O74  1  0.40456078  0.15197471  0.80137502  1
  O  O75  1  0.38722591  0.89373451  0.89835013  1
  O  O76  1  0.34833636  0.09136496  0.50597749  1
  O  O77  1  0.11162512  0.37062696  0.82983893  1
  O  O78  1  0.51301751  0.81399770  0.22980471  1
  O  O79  1  0.50612454  0.56733710  0.23229881  1
  O  O80  1  0.92552053  0.34564706  0.67878525  1
  O  O81  1  0.02429776  0.78796829  0.25643916  1
  O  O82  1  0.47013199  0.29037904  0.19482713  1
  O  O83  1  0.24909334  0.41363729  0.02471250  1
  O  O84  1  0.20167332  0.27207265  0.41459988  1
  O  O85  1  0.25028832  0.22572037  0.18392026  1
  O  O86  1  0.94656228  0.90180460  0.05509714  1
  O  O87  1  0.88267455  0.32559677  0.16094642  1
  O  O88  1  0.45901914  0.41447308  0.76413598  1
  O  O89  1  0.51050546  0.62957916  0.64713165  1
  O  O90  1  0.69973675  0.91321258  0.37508533  1
  O  O91  1  0.83535955  0.99120069  0.89406315  1
  O  O92  1  -0.00483630  0.33191201  0.46428614  1
  O  O93  1  0.02378708  0.19990341  0.29053432  1
  O  O94  1  0.81843075  0.21237058  0.53776319  1
  O  O95  1  0.19740165  0.57633954  0.52430307  1
  O  O96  1  0.36837397  0.56272277  0.39394279  1
  O  O97  1  0.75818023  0.94582172  0.16102794  1
  O  O98  1  0.14581616  0.59096788  0.90074705  1
  O  O99  1  0.65632760  0.47460536  0.84336898  1
  O  O100  1  0.42130332  0.32104830  0.40904615  1
  O  O101  1  0.40192479  0.78788945  0.72962578  1
  O  O102  1  0.61627146  0.44581020  0.61019459  1
  O  O103  1  0.18818371  0.81630841  0.83701233  1
  O  O104  1  0.45866971  0.02995273  0.06423502  1
