# generated using pymatgen
data_BaO
_symmetry_space_group_name_H-M   'P 1'
_cell_length_a   13.25057635
_cell_length_b   14.54757955
_cell_length_c   13.63522859
_cell_angle_alpha   87.24558396
_cell_angle_beta   94.21227618
_cell_angle_gamma   87.43777089
_symmetry_Int_Tables_number   1
_chemical_formula_structural   BaO
_chemical_formula_sum   'Ba50 O50'
_cell_volume   2615.17924933
_cell_formula_units_Z   50
loop_
 _symmetry_equiv_pos_site_id
 _symmetry_equiv_pos_as_xyz
  1  'x, y, z'
loop_
 _atom_site_type_symbol
 _atom_site_label
 _atom_site_symmetry_multiplicity
 _atom_site_fract_x
 _atom_site_fract_y
 _atom_site_fract_z
 _atom_site_occupancy
  Ba  Ba0  1  0.51192546  0.59978539  0.59928404  1
  Ba  Ba1  1  0.98567488  0.73870766  0.37871347  1
  Ba  Ba2  1  0.05521360  0.98919671  0.13667853  1
  Ba  Ba3  1  0.10239440  0.04497274  0.86820715  1
  Ba  Ba4  1  0.30354541  0.08069446  0.08478356  1
  Ba  Ba5  1  0.84775311  0.96677890  0.40088357  1
  Ba  Ba6  1  0.82882456  0.63779556  0.67160027  1
  Ba  Ba7  1  0.71642115  0.80202066  0.16843081  1
  Ba  Ba8  1  0.03348661  0.52369908  0.84749874  1
  Ba  Ba9  1  0.05788410  0.05383743  0.57233879  1
  Ba  Ba10  1  0.26243474  0.52447786  0.06887035  1
  Ba  Ba11  1  0.46442227  0.91573607  0.52870126  1
  Ba  Ba12  1  0.22487554  0.80711518  0.52590745  1
  Ba  Ba13  1  0.85951423  0.26698878  0.27519621  1
  Ba  Ba14  1  0.65933943  0.41406671  0.45817743  1
  Ba  Ba15  1  0.43107123  0.26955666  0.28661984  1
  Ba  Ba16  1  0.14495700  0.30540120  0.06340058  1
  Ba  Ba17  1  0.46302700  0.70776538  0.34798326  1
  Ba  Ba18  1  0.15079568  0.27998748  0.31964473  1
  Ba  Ba19  1  0.65769041  0.16190389  0.43588309  1
  Ba  Ba20  1  0.70883755  0.43270161  0.77455098  1
  Ba  Ba21  1  0.67625519  0.08896382  0.10384024  1
  Ba  Ba22  1  0.51225548  0.98725252  0.29236420  1
  Ba  Ba23  1  0.17640527  0.56264571  0.60490870  1
  Ba  Ba24  1  0.88986372  0.44244406  0.06778698  1
  Ba  Ba25  1  0.31090652  0.94311485  0.75265328  1
  Ba  Ba26  1  0.80233525  0.90573254  0.88929288  1
  Ba  Ba27  1  0.21779051  0.76244221  0.25181268  1
  Ba  Ba28  1  0.86424529  0.23322780  0.62524124  1
  Ba  Ba29  1  0.51732046  0.98231248  0.91725524  1
  Ba  Ba30  1  0.40295302  0.81679542  0.08053296  1
  Ba  Ba31  1  0.00195338  0.76126948  0.02876312  1
  Ba  Ba32  1  0.22544480  0.01937350  0.35105793  1
  Ba  Ba33  1  0.41986365  0.48642433  0.83685019  1
  Ba  Ba34  1  0.70671287  0.62600698  0.94132415  1
  Ba  Ba35  1  0.59634517  0.20303123  0.76063574  1
  Ba  Ba36  1  0.71397581  0.95383958  0.62713672  1
  Ba  Ba37  1  0.00255977  0.82209199  0.67818619  1
  Ba  Ba38  1  0.31039609  0.15665491  0.53970913  1
  Ba  Ba39  1  0.23091467  0.72627064  0.83806127  1
  Ba  Ba40  1  0.96071157  0.45697122  0.47930184  1
  Ba  Ba41  1  0.30684544  0.49815878  0.35626720  1
  Ba  Ba42  1  0.89536097  0.20739097  0.93259970  1
  Ba  Ba43  1  0.56377271  0.52626382  0.19730408  1
  Ba  Ba44  1  0.61997871  0.32414828  0.03782983  1
  Ba  Ba45  1  0.51413951  0.76921552  0.76336340  1
  Ba  Ba46  1  0.37056829  0.22733428  0.88614418  1
  Ba  Ba47  1  0.12831414  0.30500351  0.77482207  1
  Ba  Ba48  1  0.71490047  0.69147624  0.43142424  1
  Ba  Ba49  1  0.42744396  0.35764884  0.59170975  1
  O  O50  1  0.80667194  0.77116397  0.00594449  1
  O  O51  1  0.33750959  0.85198659  0.38274214  1
  O  O52  1  0.63246587  0.98602058  0.45018226  1
  O  O53  1  0.55876241  0.76035316  0.52725169  1
  O  O54  1  0.99237819  0.35795256  0.94202202  1
  O  O55  1  0.36753813  0.23066805  0.70444777  1
  O  O56  1  0.82239310  0.82446045  0.73029019  1
  O  O57  1  0.36047641  0.65222946  0.17542940  1
  O  O58  1  0.58578830  0.13593474  0.24326419  1
  O  O59  1  0.35694823  0.50544409  0.65950003  1
  O  O60  1  0.84001000  0.55170450  0.84444816  1
  O  O61  1  0.61006651  0.27176158  0.56943944  1
  O  O62  1  0.24444238  0.92535133  0.13675260  1
  O  O63  1  0.25638921  0.98325540  0.56691974  1
  O  O64  1  0.26348589  0.40583917  0.92228654  1
  O  O65  1  0.79237073  0.24374119  0.08560188  1
  O  O66  1  0.54691747  0.35316730  0.84496052  1
  O  O67  1  0.56062275  0.15008833  0.96215030  1
  O  O68  1  0.55874027  0.95523224  0.72996955  1
  O  O69  1  0.00990917  0.88384391  0.49003973  1
  O  O70  1  0.34200592  0.04192219  0.90616686  1
  O  O71  1  0.94789384  0.99604371  0.96913808  1
  O  O72  1  0.77618732  0.25229184  0.78697314  1
  O  O73  1  0.40933437  0.81249735  0.90265686  1
  O  O74  1  0.33628926  0.76884721  0.68160684  1
  O  O75  1  0.15099282  0.13951142  0.19970091  1
  O  O76  1  0.83793960  0.33141797  0.44634803  1
  O  O77  1  0.48506960  0.54304643  0.41678247  1
  O  O78  1  0.56985679  0.59927963  0.80398625  1
  O  O79  1  0.28011762  0.38967785  0.20034161  1
  O  O80  1  0.05204998  0.43390862  0.65279314  1
  O  O81  1  0.69683909  0.52657458  0.60564366  1
  O  O82  1  0.18337797  0.17817369  0.95775145  1
  O  O83  1  0.13832879  0.88109776  0.79880672  1
  O  O84  1  0.69273654  0.48458122  0.05921549  1
  O  O85  1  0.58665986  0.36686743  0.28167320  1
  O  O86  1  0.38853445  0.09742444  0.37571908  1
  O  O87  1  0.18437811  0.64990272  0.41652590  1
  O  O88  1  0.03616198  0.15931236  0.72517830  1
  O  O89  1  0.56501955  0.92482244  0.11273641  1
  O  O90  1  0.83015292  0.08061180  0.54262934  1
  O  O91  1  0.31776506  0.32955269  0.43470755  1
  O  O92  1  0.89404908  0.62086350  0.48766983  1
  O  O93  1  0.10695965  0.62062652  0.99308083  1
  O  O94  1  0.80309716  0.81738504  0.33961105  1
  O  O95  1  0.12896538  0.15377909  0.44961001  1
  O  O96  1  0.03585606  0.81743635  0.20052549  1
  O  O97  1  0.08515697  0.66474406  0.72246149  1
  O  O98  1  0.62786060  0.67736419  0.25606955  1
  O  O99  1  0.98432904  0.37056740  0.22686355  1
