# generated using pymatgen
data_V2O5
_symmetry_space_group_name_H-M   'P 1'
_cell_length_a   11.41880746
_cell_length_b   12.40362090
_cell_length_c   12.26213561
_cell_angle_alpha   91.22486355
_cell_angle_beta   90.78874808
_cell_angle_gamma   89.32471059
_symmetry_Int_Tables_number   1
_chemical_formula_structural   V2O5
_chemical_formula_sum   'V30 O75'
_cell_volume   1736.06608785
_cell_formula_units_Z   15
loop_
 _symmetry_equiv_pos_site_id
 _symmetry_equiv_pos_as_xyz
  1  'x, y, z'
loop_
 _atom_site_type_symbol
 _atom_site_label
 _atom_site_symmetry_multiplicity
 _atom_site_fract_x
 _atom_site_fract_y
 _atom_site_fract_z
 _atom_site_occupancy
  V  V0  1  0.07722995  0.46930575  0.91546518  1
  V  V1  1  0.80662512  0.79633414  0.19626529  1
  V  V2  1  0.35419954  0.05610179  0.63972640  1
  V  V3  1  0.54019956  0.37923348  0.69472921  1
  V  V4  1  0.59902501  0.38923519  0.43660695  1
  V  V5  1  0.57885102  0.08918219  0.69909737  1
  V  V6  1  0.49410783  0.97364081  0.02432479  1
  V  V7  1  0.75772927  0.21836837  0.60051091  1
  V  V8  1  0.00706635  0.11551035  0.93401601  1
  V  V9  1  0.48300983  0.71233626  0.96430291  1
  V  V10  1  0.35503312  0.22030649  0.41185731  1
  V  V11  1  0.50057821  0.71545461  0.58170312  1
  V  V12  1  0.71660447  0.75508088  0.73491016  1
  V  V13  1  0.89772511  0.85501982  0.93956846  1
  V  V14  1  0.08738194  0.33272886  0.45258510  1
  V  V15  1  0.11648285  0.95757890  0.28210688  1
  V  V16  1  0.04201364  0.87025776  0.50333304  1
  V  V17  1  0.70938745  0.06869594  0.21560064  1
  V  V18  1  0.86957702  0.46897199  0.13064096  1
  V  V19  1  0.40578561  0.53172223  0.26682908  1
  V  V20  1  0.13519658  0.89940214  0.77673214  1
  V  V21  1  0.51762286  0.23276933  0.04973134  1
  V  V22  1  0.74244277  0.80071487  0.46590453  1
  V  V23  1  0.98111624  0.21063777  0.20857242  1
  V  V24  1  0.96345305  0.29178197  0.70797427  1
  V  V25  1  0.38951496  0.82369819  0.20737227  1
  V  V26  1  0.27485859  0.73002762  0.40531801  1
  V  V27  1  0.08355648  0.59472438  0.48387250  1
  V  V28  1  0.24807233  0.35882075  0.11726996  1
  V  V29  1  0.64983820  0.47417336  0.94229424  1
  O  O30  1  0.76809633  0.46792221  0.87379065  1
  O  O31  1  0.27358485  0.46353717  0.21584809  1
  O  O32  1  0.96247275  0.18473544  0.04907748  1
  O  O33  1  0.36918497  0.78029187  0.50423278  1
  O  O34  1  0.11684294  0.97177115  0.44017208  1
  O  O35  1  0.17205900  0.17012895  0.95556221  1
  O  O36  1  0.96383912  0.47103275  0.01246339  1
  O  O37  1  0.62012232  0.69777956  0.49436918  1
  O  O38  1  0.62129015  0.24501642  0.70129238  1
  O  O39  1  0.24784057  0.59829176  0.44363342  1
  O  O40  1  0.49945937  0.27004137  0.41181735  1
  O  O41  1  0.36776235  0.67803383  0.29222302  1
  O  O42  1  0.89940415  0.87572363  0.46979208  1
  O  O43  1  0.69128263  0.08737289  0.59575750  1
  O  O44  1  0.24065491  0.97965373  0.67785988  1
  O  O45  1  0.60253322  0.61711179  0.95767052  1
  O  O46  1  0.78134192  0.80343308  0.61841314  1
  O  O47  1  0.06422240  0.85274565  0.64180310  1
  O  O48  1  0.16130306  0.08306240  0.01482405  1
  O  O49  1  0.74541716  0.62764702  0.73484966  1
  O  O50  1  0.49776666  0.52041313  0.16871262  1
  O  O51  1  0.58206557  0.32808559  0.97414649  1
  O  O52  1  0.63532923  0.03075285  0.80389935  1
  O  O53  1  0.25911666  0.85097644  0.29851371  1
  O  O54  1  0.06258825  0.60156286  0.61335419  1
  O  O55  1  0.77091849  0.81933298  0.86250029  1
  O  O56  1  0.03740563  0.46245917  0.42066733  1
  O  O57  1  0.61483661  0.18940135  0.14404034  1
  O  O58  1  0.01574417  0.82304115  0.86157293  1
  O  O59  1  0.90138955  0.79352851  0.06716290  1
  O  O60  1  0.95959905  0.19963130  0.82372926  1
  O  O61  1  0.63709205  0.07429567  0.32682480  1
  O  O62  1  0.89181511  0.58158121  0.20036064  1
  O  O63  1  0.68510350  0.75659863  0.14094497  1
  O  O64  1  0.08590395  0.02032241  0.83216436  1
  O  O65  1  0.83359415  0.14827768  0.23431736  1
  O  O66  1  0.61873771  0.98498486  0.09649256  1
  O  O67  1  0.72385644  0.46490810  0.07985941  1
  O  O68  1  0.03538221  0.39495902  0.79344000  1
  O  O69  1  0.07177348  0.08984108  0.22887390  1
  O  O70  1  0.38605849  0.66428132  0.88183390  1
  O  O71  1  0.41187085  0.72805915  0.09415902  1
  O  O72  1  0.48648103  0.98679595  0.61726050  1
  O  O73  1  0.69394192  0.44205990  0.35785302  1
  O  O74  1  0.42120516  0.13700635  0.73897555  1
  O  O75  1  0.50563062  0.85950648  0.93631555  1
  O  O76  1  0.32206300  0.13648704  0.52480677  1
  O  O77  1  0.82608969  0.34382874  0.68795563  1
  O  O78  1  0.38190852  0.94392635  0.11665668  1
  O  O79  1  0.50754084  0.84815928  0.27502301  1
  O  O80  1  0.72660441  0.27398144  0.47969740  1
  O  O81  1  0.79621200  0.74547798  0.33813064  1
  O  O82  1  0.38262453  0.28411396  0.10719914  1
  O  O83  1  0.20550749  0.41243985  0.99048279  1
  O  O84  1  0.23972263  0.32327531  0.42168381  1
  O  O85  1  0.14093808  0.28623238  0.16757542  1
  O  O86  1  0.02035526  0.86516395  0.25045315  1
  O  O87  1  0.91615536  0.34980572  0.19865361  1
  O  O88  1  0.40514193  0.35166322  0.66671250  1
  O  O89  1  0.44934476  0.59853418  0.60797742  1
  O  O90  1  0.66102113  0.90405252  0.44508843  1
  O  O91  1  0.90776039  0.99634467  0.95508224  1
  O  O92  1  0.06629974  0.31205463  0.59451585  1
  O  O93  1  0.01342811  0.24520314  0.37279099  1
  O  O94  1  0.90358760  0.17458420  0.61358541  1
  O  O95  1  0.10982044  0.74794196  0.43768500  1
  O  O96  1  0.46702506  0.47190346  0.38094000  1
  O  O97  1  0.78811604  0.93508909  0.21912077  1
  O  O98  1  0.10858907  0.59074202  0.88512424  1
  O  O99  1  0.54490694  0.45150018  0.81778351  1
  O  O100  1  0.33403091  0.14649832  0.30286176  1
  O  O101  1  0.55835469  0.77126666  0.70742909  1
  O  O102  1  0.60626596  0.43986216  0.57428755  1
  O  O103  1  0.24542826  0.84584724  0.84063148  1
  O  O104  1  0.47736153  0.11021535  0.97547231  1
