# generated using pymatgen
data_Ti3O
_symmetry_space_group_name_H-M   'P 1'
_cell_length_a   10.92681232
_cell_length_b   12.39319603
_cell_length_c   10.67671259
_cell_angle_alpha   90.83643734
_cell_angle_beta   87.43812070
_cell_angle_gamma   83.63747214
_symmetry_Int_Tables_number   1
_chemical_formula_structural   Ti3O
_chemical_formula_sum   'Ti75 O25'
_cell_volume   1435.20053704
_cell_formula_units_Z   25
loop_
 _symmetry_equiv_pos_site_id
 _symmetry_equiv_pos_as_xyz
  1  'x, y, z'
loop_
 _atom_site_type_symbol
 _atom_site_label
 _atom_site_symmetry_multiplicity
 _atom_site_fract_x
 _atom_site_fract_y
 _atom_site_fract_z
 _atom_site_occupancy
  Ti  Ti0  1  0.54263359  0.93374745  0.49067455  1
  Ti  Ti1  1  0.13456120  0.04845153  0.60304741  1
  Ti  Ti2  1  0.69147961  0.53123301  0.56609950  1
  Ti  Ti3  1  0.85313661  0.65263781  0.14836403  1
  Ti  Ti4  1  0.50849979  0.29988109  0.59995672  1
  Ti  Ti5  1  0.16087092  0.31050186  0.94545622  1
  Ti  Ti6  1  0.57301705  0.55066326  0.34444878  1
  Ti  Ti7  1  0.98733874  0.25214478  0.17182548  1
  Ti  Ti8  1  0.69995733  0.79230046  0.83894173  1
  Ti  Ti9  1  0.23197913  0.81805517  0.19086123  1
  Ti  Ti10  1  0.03356607  0.75816831  0.74392356  1
  Ti  Ti11  1  0.76178916  0.92011946  0.62520909  1
  Ti  Ti12  1  0.11970195  0.53070452  0.79138857  1
  Ti  Ti13  1  0.08966898  0.63215370  0.27087534  1
  Ti  Ti14  1  0.26499034  0.35999437  0.66350290  1
  Ti  Ti15  1  0.90275655  0.25467279  0.41930283  1
  Ti  Ti16  1  0.96923011  0.69249918  0.49230810  1
  Ti  Ti17  1  0.95113016  0.85037457  0.27652435  1
  Ti  Ti18  1  0.68944692  0.55888324  0.87052468  1
  Ti  Ti19  1  0.87401078  0.04613873  0.13735083  1
  Ti  Ti20  1  0.29474449  0.68067867  0.71435693  1
  Ti  Ti21  1  0.74938507  0.33600001  0.67211788  1
  Ti  Ti22  1  0.30367957  0.47808123  0.98451707  1
  Ti  Ti23  1  0.98926019  0.90573190  0.55352339  1
  Ti  Ti24  1  0.96120113  0.17718122  0.93567773  1
  Ti  Ti25  1  0.22498733  0.87905630  0.83682883  1
  Ti  Ti26  1  0.05047379  0.48195714  0.07980183  1
  Ti  Ti27  1  0.71980742  0.73893644  0.39074579  1
  Ti  Ti28  1  0.93754090  0.98417711  0.81870489  1
  Ti  Ti29  1  0.19175171  0.56740064  0.51075501  1
  Ti  Ti30  1  0.24926236  0.14617421  0.15420028  1
  Ti  Ti31  1  0.62407394  0.11563154  0.72918425  1
  Ti  Ti32  1  0.86810208  0.61234991  0.70583661  1
  Ti  Ti33  1  0.37113673  0.11398256  0.60914383  1
  Ti  Ti34  1  0.87414215  0.49517007  0.34422759  1
  Ti  Ti35  1  0.69715405  0.01390706  0.94885309  1
  Ti  Ti36  1  0.34843865  0.57611238  0.22185062  1
  Ti  Ti37  1  0.65798425  0.97823090  0.26426209  1
  Ti  Ti38  1  0.06622880  0.24739673  0.71338894  1
  Ti  Ti39  1  0.58286902  0.62014254  0.11930473  1
  Ti  Ti40  1  0.41539781  0.69008917  0.92854813  1
  Ti  Ti41  1  0.11739064  0.38976596  0.30648143  1
  Ti  Ti42  1  0.65949287  0.15246045  0.46588991  1
  Ti  Ti43  1  0.33143463  0.98426497  0.34079688  1
  Ti  Ti44  1  0.91473136  0.39707321  0.85529968  1
  Ti  Ti45  1  0.39426853  0.69003171  0.44432835  1
  Ti  Ti46  1  0.42419805  0.24306927  0.89821728  1
  Ti  Ti47  1  0.69434477  0.25268922  0.94281179  1
  Ti  Ti48  1  0.91212084  0.60711217  0.92790405  1
  Ti  Ti49  1  0.43817801  0.51398583  0.59627134  1
  Ti  Ti50  1  0.87410313  0.12863236  0.63704156  1
  Ti  Ti51  1  0.17157340  0.22911723  0.45505893  1
  Ti  Ti52  1  0.89108084  0.84193013  0.01025276  1
  Ti  Ti53  1  0.26197351  0.09242188  0.86800192  1
  Ti  Ti54  1  0.42805468  0.18261817  0.35537187  1
  Ti  Ti55  1  0.53787496  0.73827755  0.64268030  1
  Ti  Ti56  1  0.47580617  0.93501570  0.77789830  1
  Ti  Ti57  1  0.39264227  0.93543562  0.04772880  1
  Ti  Ti58  1  0.16429040  0.79888223  0.42202156  1
  Ti  Ti59  1  0.77627150  0.43618993  0.11165814  1
  Ti  Ti60  1  0.51821391  0.14096096  0.10789547  1
  Ti  Ti61  1  0.65124629  0.82308110  0.07928079  1
  Ti  Ti62  1  0.72831399  0.21810517  0.20954999  1
  Ti  Ti63  1  0.12509505  0.69756996  0.98091107  1
  Ti  Ti64  1  0.09357274  -0.00603559  0.04252588  1
  Ti  Ti65  1  0.49405496  0.80687229  0.26957727  1
  Ti  Ti66  1  0.84970058  0.03038047  0.40454300  1
  Ti  Ti67  1  0.33052369  0.87403971  0.57429674  1
  Ti  Ti68  1  0.08693453  0.02840495  0.32243120  1
  Ti  Ti69  1  0.52698710  0.40696709  0.11823177  1
  Ti  Ti70  1  0.99586298  0.41952478  0.57353395  1
  Ti  Ti71  1  0.52548988  0.43697898  0.82575476  1
  Ti  Ti72  1  0.66153333  0.36757147  0.39505307  1
  Ti  Ti73  1  0.32434363  0.32204385  0.15629842  1
  Ti  Ti74  1  0.36250042  0.40128875  0.40477616  1
  O  O75  1  0.02902805  0.75771441  0.13811217  1
  O  O76  1  0.81802891  0.39906026  0.50331062  1
  O  O77  1  0.58172035  0.27812928  0.77413614  1
  O  O78  1  0.44273643  0.10313522  0.78171885  1
  O  O79  1  0.82466096  0.34376364  0.26572589  1
  O  O80  1  0.59190561  0.13747586  0.27854082  1
  O  O81  1  0.07894531  0.91358885  0.71020812  1
  O  O82  1  0.22203092  0.50829793  0.33454942  1
  O  O83  1  0.28879342  0.98800330  0.71041243  1
  O  O84  1  0.19339926  0.58290380  0.11138286  1
  O  O85  1  0.38206946  0.09749349  0.00998457  1
  O  O86  1  0.26214690  0.60552152  0.87892146  1
  O  O87  1  0.56334624  0.90722025  0.93685655  1
  O  O88  1  0.66447301  0.81259481  0.54816331  1
  O  O89  1  0.05544387  0.86145516  0.92664424  1
  O  O90  1  0.90109151  0.68221652  0.31815911  1
  O  O91  1  0.22875046  0.98455719  0.17340766  1
  O  O92  1  0.59759996  0.69714526  0.95433270  1
  O  O93  1  0.34656415  0.26117615  0.51262223  1
  O  O94  1  0.46658671  0.60016581  0.76037940  1
  O  O95  1  0.28040919  0.80443577  0.00443808  1
  O  O96  1  0.04053535  0.59045467  0.62988256  1
  O  O97  1  0.68791418  0.65467155  0.71735318  1
  O  O98  1  0.82327768  0.61487118  0.51319963  1
  O  O99  1  0.72832305  0.39538457  0.86766420  1
