# generated using pymatgen
data_B2O3
_symmetry_space_group_name_H-M   'P 1'
_cell_length_a   10.12348586
_cell_length_b   10.78823407
_cell_length_c   12.25752444
_cell_angle_alpha   81.91380357
_cell_angle_beta   89.08521824
_cell_angle_gamma   91.80595731
_symmetry_Int_Tables_number   1
_chemical_formula_structural   B2O3
_chemical_formula_sum   'B40 O60'
_cell_volume   1324.45009922
_cell_formula_units_Z   20
loop_
 _symmetry_equiv_pos_site_id
 _symmetry_equiv_pos_as_xyz
  1  'x, y, z'
loop_
 _atom_site_type_symbol
 _atom_site_label
 _atom_site_symmetry_multiplicity
 _atom_site_fract_x
 _atom_site_fract_y
 _atom_site_fract_z
 _atom_site_occupancy
  B  B0  1  0.72798489  0.56036769  0.71476821  1
  B  B1  1  0.43210547  0.63057838  0.00900090  1
  B  B2  1  0.95128077  0.46595176  0.00199005  1
  B  B3  1  0.00399099  0.53433326  0.43899204  1
  B  B4  1  0.59806225  0.14573044  0.83569250  1
  B  B5  1  0.69972683  0.84275659  0.48614458  1
  B  B6  1  0.49527325  0.70656981  0.49728548  1
  B  B7  1  0.79398495  0.87295527  0.28575999  1
  B  B8  1  0.17906416  0.48786963  0.29200614  1
  B  B9  1  0.31227190  0.27900827  0.29585395  1
  B  B10  1  0.28459694  0.98694318  0.13439880  1
  B  B11  1  0.99721532  0.24825407  0.04365594  1
  B  B12  1  0.00508340  0.89751221  0.86851087  1
  B  B13  1  0.41764433  0.91627671  0.42579510  1
  B  B14  1  0.75714371  0.69328394  0.17383782  1
  B  B15  1  0.87449080  0.03141953  0.12095966  1
  B  B16  1  0.70750276  0.88185666  0.03423704  1
  B  B17  1  0.59055630  0.91358342  0.83830412  1
  B  B18  1  0.42555504  0.22987768  0.97167141  1
  B  B19  1  0.80157511  0.02284744  0.89069052  1
  B  B20  1  0.57126251  0.36727656  0.71676128  1
  B  B21  1  0.18749185  0.22651502  0.86844759  1
  B  B22  1  0.39606578  0.52845562  0.64206023  1
  B  B23  1  0.83058965  0.38988507  0.38732450  1
  B  B24  1  0.48198587  0.09133447  0.52073603  1
  B  B25  1  0.06194171  0.97422921  0.51166002  1
  B  B26  1  0.97408011  0.34696194  0.85354650  1
  B  B27  1  0.21826238  0.60776777  0.10059594  1
  B  B28  1  0.68962152  0.44615943  0.22027895  1
  B  B29  1  0.19618752  0.65795471  0.68874796  1
  B  B30  1  0.49095949  0.31770094  0.15453411  1
  B  B31  1  0.83405194  0.00756383  0.54326517  1
  B  B32  1  0.02912670  0.69543117  0.99748923  1
  B  B33  1  0.05270730  0.25031865  0.70253272  1
  B  B34  1  0.56786043  0.67790366  0.83968125  1
  B  B35  1  0.14145342  0.86838539  0.70132452  1
  B  B36  1  0.25335032  0.05831589  0.37479581  1
  B  B37  1  0.97069930  0.60634177  0.63171764  1
  B  B38  1  0.47385880  0.84979557  0.08405110  1
  B  B39  1  0.90378388  0.21350582  0.54839640  1
  O  O40  1  0.81208705  0.98504711  0.03643833  1
  O  O41  1  0.73277596  0.56708742  0.19290984  1
  O  O42  1  0.17175535  0.98122509  0.44612018  1
  O  O43  1  0.66370207  0.63873685  0.77533171  1
  O  O44  1  0.44082175  0.59451442  0.54312131  1
  O  O45  1  0.47096414  0.73697819  0.04920392  1
  O  O46  1  0.72527720  0.89341978  0.37811221  1
  O  O47  1  0.11951975  0.88297855  0.80881919  1
  O  O48  1  0.54418816  0.02545112  0.80260879  1
  O  O49  1  0.16298949  0.21020593  0.76232387  1
  O  O50  1  0.68681234  0.44134385  0.70603486  1
  O  O51  1  0.42225357  0.79064462  0.42675543  1
  O  O52  1  0.57339256  0.24455469  0.74891402  1
  O  O53  1  0.02422941  0.22269522  0.60156110  1
  O  O54  1  0.49635863  0.59629628  0.91886666  1
  O  O55  1  0.74339531  0.13301656  0.85890614  1
  O  O56  1  0.96952746  0.79962027  0.94934412  1
  O  O57  1  0.95580641  0.58377830  0.02396822  1
  O  O58  1  0.06677903  0.93347626  0.62266916  1
  O  O59  1  0.98045010  0.36233140  0.07830458  1
  O  O60  1  0.85967629  0.97660603  0.22697224  1
  O  O61  1  0.26649577  0.39784358  0.28065667  1
  O  O62  1  0.43429305  0.26082050  0.25312200  1
  O  O63  1  0.29615865  0.22665253  0.92333073  1
  O  O64  1  0.15839992  0.57828205  0.20212496  1
  O  O65  1  0.84102125  0.60534428  0.65733223  1
  O  O66  1  0.62383776  0.73575824  0.51774134  1
  O  O67  1  0.28207548  0.56353671  0.69125192  1
  O  O68  1  0.48682477  0.20496849  0.52008835  1
  O  O69  1  0.70870855  0.90621792  0.90514231  1
  O  O70  1  0.43081595  0.29534695  0.05953571  1
  O  O71  1  0.35513922  0.89092096  0.12333538  1
  O  O72  1  0.95166624  0.14022486  0.09549311  1
  O  O73  1  0.33176291  0.55725212  0.06551771  1
  O  O74  1  0.74795723  0.90617044  0.56718639  1
  O  O75  1  0.52822504  0.17078591  0.93816964  1
  O  O76  1  0.05548459  0.26089846  0.92757517  1
  O  O77  1  0.59957772  0.39787091  0.15230389  1
  O  O78  1  0.06214731  0.62777558  0.70978415  1
  O  O79  1  0.45130925  0.42395778  0.69291032  1
  O  O80  1  0.74024988  0.36929655  0.30864942  1
  O  O81  1  0.53368358  0.80197805  0.82129852  1
  O  O82  1  0.81726490  0.11405004  0.58841501  1
  O  O83  1  0.97171018  0.33368163  0.74682962  1
  O  O84  1  0.36351367  0.99673034  0.34224903  1
  O  O85  1  0.79874614  0.75348532  0.26062144  1
  O  O86  1  0.23303620  0.18305323  0.35117223  1
  O  O87  1  0.93086667  0.00185405  0.85012869  1
  O  O88  1  0.88047050  0.50633227  0.40106518  1
  O  O89  1  0.73992929  0.75741324  0.07191434  1
  O  O90  1  0.20728601  0.07149017  0.13973265  1
  O  O91  1  0.11566032  0.49731046  0.38915531  1
  O  O92  1  0.58644746  0.92051164  0.08259615  1
  O  O93  1  0.15913205  0.69708941  0.02561921  1
  O  O94  1  0.47178917  0.96919076  0.51509072  1
  O  O95  1  0.91707468  0.44063431  0.89705992  1
  O  O96  1  0.94126917  0.00424719  0.47017194  1
  O  O97  1  0.87400158  0.28829807  0.45570896  1
  O  O98  1  0.02221283  0.59678752  0.52766254  1
  O  O99  1  0.23364937  0.78271609  0.67603819  1
