# generated using pymatgen
data_Al2O3
_symmetry_space_group_name_H-M   'P 1'
_cell_length_a   5.64338931
_cell_length_b   5.64338944
_cell_length_c   13.67466639
_cell_angle_alpha   90.45335805
_cell_angle_beta   89.54663990
_cell_angle_gamma   119.58288574
_symmetry_Int_Tables_number   1
_chemical_formula_structural   Al2O3
_chemical_formula_sum   'Al16 O24'
_cell_volume   378.72091460
_cell_formula_units_Z   8
loop_
 _symmetry_equiv_pos_site_id
 _symmetry_equiv_pos_as_xyz
  1  'x, y, z'
loop_
 _atom_site_type_symbol
 _atom_site_label
 _atom_site_symmetry_multiplicity
 _atom_site_fract_x
 _atom_site_fract_y
 _atom_site_fract_z
 _atom_site_occupancy
  Al  Al0  1  0.46931800  0.72616700  0.20706400  1
  Al  Al1  1  0.79161300  0.40387200  0.12281700  1
  Al  Al2  1  0.95982900  0.72515100  0.33983400  1
  Al  Al3  1  0.14175600  0.05373000  0.16070600  1
  Al  Al4  1  0.96050700  0.23497800  0.33922100  1
  Al  Al5  1  0.47033400  0.23565600  0.33983400  1
  Al  Al6  1  0.13178900  0.06369700  0.54801400  1
  Al  Al7  1  0.46219200  0.73329300  0.45216600  1
  Al  Al8  1  0.63418200  0.07191000  0.66041500  1
  Al  Al9  1  0.63351100  0.56197500  0.66100800  1
  Al  Al10  1  0.12357600  0.56130400  0.66041500  1
  Al  Al11  1  0.80235800  0.39312700  0.87759100  1
  Al  Al12  1  0.12470600  0.07078000  0.79347900  1
  Al  Al13  1  0.29694900  0.39857300  0.00026000  1
  Al  Al14  1  0.45233000  0.74315500  0.83968300  1
  Al  Al15  1  0.79691200  0.89853600  0.00026000  1
  O  O16  1  0.79758300  0.39790200  0.25833100  1
  O  O17  1  0.28257000  0.36989800  0.25435100  1
  O  O18  1  0.82558700  0.91291600  0.25435100  1
  O  O19  1  0.28815500  0.90733100  0.25230600  1
  O  O20  1  0.44822800  0.24379700  0.08692100  1
  O  O21  1  0.97147700  0.22400800  0.08319300  1
  O  O22  1  0.13076200  0.06472400  0.41296900  1
  O  O23  1  0.95168800  0.74725800  0.08692100  1
  O  O24  1  0.46321100  0.73227400  0.58736800  1
  O  O25  1  0.96328500  0.72880700  0.59454500  1
  O  O26  1  0.46667800  0.23220000  0.59454500  1
  O  O27  1  0.96279400  0.23269100  0.59436300  1
  O  O28  1  0.12747300  0.56486900  0.40568000  1
  O  O29  1  0.63108100  0.56440400  0.40587800  1
  O  O30  1  0.79640100  0.39908400  0.74195200  1
  O  O31  1  0.63061600  0.06801200  0.40568000  1
  O  O32  1  0.11837500  0.07711100  0.92143000  1
  O  O33  1  0.64220900  0.04971200  0.91343500  1
  O  O34  1  0.14577400  0.55327600  0.91343500  1
  O  O35  1  0.62246000  0.57302500  0.91723900  1
  O  O36  1  0.76847600  0.88403800  0.74598900  1
  O  O37  1  0.30585600  0.88963000  0.74804000  1
  O  O38  1  0.47555800  0.71992700  0.07901900  1
  O  O39  1  0.31144800  0.42700900  0.74598900  1
