# generated using pymatgen
data_ZnS
_symmetry_space_group_name_H-M   'P 1'
_cell_length_a   13.58836244
_cell_length_b   13.23923978
_cell_length_c   13.35079311
_cell_angle_alpha   80.58348602
_cell_angle_beta   92.06138488
_cell_angle_gamma   95.45443726
_symmetry_Int_Tables_number   1
_chemical_formula_structural   ZnS
_chemical_formula_sum   'Zn50 S50'
_cell_volume   2358.19957228
_cell_formula_units_Z   50
loop_
 _symmetry_equiv_pos_site_id
 _symmetry_equiv_pos_as_xyz
  1  'x, y, z'
loop_
 _atom_site_type_symbol
 _atom_site_label
 _atom_site_symmetry_multiplicity
 _atom_site_fract_x
 _atom_site_fract_y
 _atom_site_fract_z
 _atom_site_occupancy
  Zn  Zn0  1  0.91615227  0.10321159  0.65124068  1
  Zn  Zn1  1  0.22191378  0.45520661  0.65305490  1
  Zn  Zn2  1  0.85085213  0.12936214  0.03867842  1
  Zn  Zn3  1  0.64505379  0.48170831  0.57213832  1
  Zn  Zn4  1  0.11923207  0.88357776  0.77145003  1
  Zn  Zn5  1  0.44910091  0.08754190  0.28887398  1
  Zn  Zn6  1  0.83868031  0.55721930  0.33652296  1
  Zn  Zn7  1  0.44242342  0.92946067  0.22234350  1
  Zn  Zn8  1  0.55162076  0.55729328  0.82365715  1
  Zn  Zn9  1  0.68957899  0.95452598  0.12136705  1
  Zn  Zn10  1  0.86718394  0.37835966  0.53429296  1
  Zn  Zn11  1  0.43181050  0.99939937  0.85707130  1
  Zn  Zn12  1  0.10731382  0.69819151  0.20929718  1
  Zn  Zn13  1  0.95832873  0.23810044  0.83040179  1
  Zn  Zn14  1  0.55884871  0.72099236  0.47628013  1
  Zn  Zn15  1  0.50222384  0.69801378  0.04528581  1
  Zn  Zn16  1  0.16819105  0.69373342  0.88103339  1
  Zn  Zn17  1  0.14718663  0.87385107  0.35975640  1
  Zn  Zn18  1  0.25645744  0.25057508  0.14830647  1
  Zn  Zn19  1  0.30666233  0.53967317  0.20979094  1
  Zn  Zn20  1  0.08605796  0.29313020  0.97570777  1
  Zn  Zn21  1  0.24587426  0.11352084  0.93608490  1
  Zn  Zn22  1  0.62127229  0.28373770  0.46694542  1
  Zn  Zn23  1  0.59771376  0.86397078  0.76418786  1
  Zn  Zn24  1  0.41833643  0.65268786  0.61664858  1
  Zn  Zn25  1  0.95986209  0.70008674  0.95857139  1
  Zn  Zn26  1  0.48302182  0.02450892  0.55358309  1
  Zn  Zn27  1  0.55764695  0.49122676  0.27456364  1
  Zn  Zn28  1  0.82336845  0.26997999  0.29501533  1
  Zn  Zn29  1  0.35307949  0.25555969  0.86205701  1
  Zn  Zn30  1  0.01890916  0.77953870  0.50276950  1
  Zn  Zn31  1  0.71871838  0.90341830  0.62560711  1
  Zn  Zn32  1  0.05828755  0.13052152  0.22924870  1
  Zn  Zn33  1  0.53933246  0.30705301  0.09095331  1
  Zn  Zn34  1  0.75625599  0.36484758  0.91517473  1
  Zn  Zn35  1  0.26314488  0.81518322  0.04959678  1
  Zn  Zn36  1  0.67032165  0.91753621  0.37075020  1
  Zn  Zn37  1  0.14068697  0.22353784  0.63759640  1
  Zn  Zn38  1  0.15367021  0.73446958  0.68764988  1
  Zn  Zn39  1  0.93285985  0.40971173  0.10943297  1
  Zn  Zn40  1  0.72131736  0.73903899  0.75621765  1
  Zn  Zn41  1  0.65381491  0.72173954  0.22059041  1
  Zn  Zn42  1  0.39638862  0.38653318  0.46568041  1
  Zn  Zn43  1  0.26103779  0.71193256  0.40007630  1
  Zn  Zn44  1  0.09719763  0.38345524  0.28738236  1
  Zn  Zn45  1  0.23400860  0.53405549  0.93903720  1
  Zn  Zn46  1  0.87985076  0.92856301  0.21817746  1
  Zn  Zn47  1  0.97432517  0.42190044  0.86392105  1
  Zn  Zn48  1  0.08908632  0.61276347  0.46203000  1
  Zn  Zn49  1  0.95713461  0.83088293  0.65691557  1
  S  S50  1  0.54928157  0.84799261  0.12610077  1
  S  S51  1  0.52007262  0.27584904  0.83620568  1
  S  S52  1  0.22929250  0.99566240  0.45504227  1
  S  S53  1  0.68685769  0.33382272  0.17462590  1
  S  S54  1  0.23415674  0.34956207  0.53923431  1
  S  S55  1  0.13383538  0.13529044  0.05830220  1
  S  S56  1  0.96629788  0.74927597  0.12455171  1
  S  S57  1  0.83033648  0.47884358  0.77311702  1
  S  S58  1  0.79230862  0.20547408  0.88661321  1
  S  S59  1  0.11699180  0.57581625  0.64095162  1
  S  S60  1  0.11093876  0.82575316  0.95508209  1
  S  S61  1  0.56199129  0.71436132  0.87858659  1
  S  S62  1  0.19171775  0.40254563  0.06967135  1
  S  S63  1  0.61205947  0.59270918  0.13088791  1
  S  S64  1  0.92405781  0.55482145  0.48688190  1
  S  S65  1  0.74270213  0.03589980  0.25648656  1
  S  S66  1  0.53566804  0.02078479  0.73322921  1
  S  S67  1  0.00415207  0.53188417  0.98075730  1
  S  S68  1  0.41479781  0.50122562  0.72983718  1
  S  S69  1  0.57792031  0.38845341  0.91910769  1
  S  S70  1  0.68052580  0.48145539  0.39503369  1
  S  S71  1  0.61474720  0.62643432  0.64867568  1
  S  S72  1  0.13288209  0.07052873  0.76564210  1
  S  S73  1  0.85330003  0.72646171  0.23323478  1
  S  S74  1  0.41043411  0.19420651  0.13061691  1
  S  S75  1  0.87155817  0.97055325  0.56906024  1
  S  S76  1  0.40669127  0.63155881  0.44796642  1
  S  S77  1  0.78232760  0.23739630  0.46534430  1
  S  S78  1  0.76783318  0.43673813  0.06494121  1
  S  S79  1  0.88397513  0.72973703  0.79810219  1
  S  S80  1  0.29494759  0.43144889  0.82021154  1
  S  S81  1  0.98814089  0.06025387  0.82151219  1
  S  S82  1  0.34682304  0.97396700  0.99462149  1
  S  S83  1  0.92168292  0.22202101  0.15811394  1
  S  S84  1  0.98145717  0.27109211  0.64381595  1
  S  S85  1  0.17310104  0.23663002  0.30544793  1
  S  S86  1  0.30920924  0.78687470  0.61508710  1
  S  S87  1  0.69700014  0.74608896  0.38192561  1
  S  S88  1  0.76229535  0.38425773  0.67342612  1
  S  S89  1  0.31262055  0.94831295  0.58317723  1
  S  S90  1  0.40062129  0.41661307  0.29030443  1
  S  S91  1  0.24369643  0.82167467  0.23207948  1
  S  S92  1  0.16655992  0.55356193  0.30506898  1
  S  S93  1  0.33288793  0.65561481  0.06139844  1
  S  S94  1  0.57703234  0.89672456  0.51269223  1
  S  S95  1  0.01069538  0.96826395  0.31956752  1
  S  S96  1  0.52133189  0.34745126  0.57688516  1
  S  S97  1  0.93405791  0.42462472  0.27930155  1
  S  S98  1  0.48574597  0.16294325  0.42816237  1
  S  S99  1  0.83649088  0.95467321  0.04457545  1
