# generated using pymatgen
data_MgO
_symmetry_space_group_name_H-M   'P 1'
_cell_length_a   9.33079403
_cell_length_b   10.56575273
_cell_length_c   9.98181493
_cell_angle_alpha   97.46439341
_cell_angle_beta   89.44843460
_cell_angle_gamma   89.08072484
_symmetry_Int_Tables_number   1
_chemical_formula_structural   MgO
_chemical_formula_sum   'Mg40 O40'
_cell_volume   975.54289489
_cell_formula_units_Z   40
loop_
 _symmetry_equiv_pos_site_id
 _symmetry_equiv_pos_as_xyz
  1  'x, y, z'
loop_
 _atom_site_type_symbol
 _atom_site_label
 _atom_site_symmetry_multiplicity
 _atom_site_fract_x
 _atom_site_fract_y
 _atom_site_fract_z
 _atom_site_occupancy
  Mg  Mg0  1  0.70409200  0.86323100  0.87681400  1
  Mg  Mg1  1  0.28738600  0.54737200  0.65593700  1
  Mg  Mg2  1  0.87913100  0.52922800  0.09729800  1
  Mg  Mg3  1  0.61369300  0.74057800  0.59497300  1
  Mg  Mg4  1  0.39859100  0.72136300  0.38859800  1
  Mg  Mg5  1  0.24529800  0.75710200  0.06811800  1
  Mg  Mg6  1  0.57515000  0.08568200  0.85889500  1
  Mg  Mg7  1  0.58496200  0.51514000  0.84499900  1
  Mg  Mg8  1  0.01910600  0.47144400  0.51562000  1
  Mg  Mg9  1  0.81703900  0.94821200  0.60194400  1
  Mg  Mg10  1  0.47393100  0.28291800  0.65095700  1
  Mg  Mg11  1  0.06172300  0.83449000  0.46064800  1
  Mg  Mg12  1  0.84155100  0.63250300  0.74360700  1
  Mg  Mg13  1  0.10899200  0.00425100  0.22919300  1
  Mg  Mg14  1  0.09580500  0.57175300  0.88647300  1
  Mg  Mg15  1  0.90629900  0.78540200  0.08756900  1
  Mg  Mg16  1  0.91381700  0.32117300  0.27854800  1
  Mg  Mg17  1  0.77944000  0.07732000  0.12493400  1
  Mg  Mg18  1  0.78361800  0.27821700  0.90999900  1
  Mg  Mg19  1  0.46315900  0.96060000  0.58949800  1
  Mg  Mg20  1  0.94914900  0.12258700  0.41770400  1
  Mg  Mg21  1  0.55162100  0.14777500  0.38518400  1
  Mg  Mg22  1  0.46641700  0.91655000  0.13692100  1
  Mg  Mg23  1  0.35566100  0.38944300  0.96994100  1
  Mg  Mg24  1  0.77346000  0.24198700  0.60706800  1
  Mg  Mg25  1  0.55088400  0.28520900  0.13092000  1
  Mg  Mg26  1  0.13115100  0.57121300  0.23768400  1
  Mg  Mg27  1  0.41716300  0.79334600  0.79943500  1
  Mg  Mg28  1  0.23097100  0.23148500  0.12838200  1
  Mg  Mg29  1  0.24025500  0.22341500  0.42014200  1
  Mg  Mg30  1  0.59054400  0.47987300  0.51777300  1
  Mg  Mg31  1  0.35841200  0.42873000  0.32789900  1
  Mg  Mg32  1  0.06704200  0.30651100  0.84740600  1
  Mg  Mg33  1  0.80209500  0.63950900  0.36975900  1
  Mg  Mg34  1  0.18296800  0.04638200  0.62831200  1
  Mg  Mg35  1  0.09144800  0.78822100  0.76650800  1
  Mg  Mg36  1  0.56108300  0.60570600  0.16147400  1
  Mg  Mg37  1  0.72482600  0.91087800  0.33875400  1
  Mg  Mg38  1  0.30149400  0.03567200  0.93552400  1
  Mg  Mg39  1  0.96731700  0.05596300  0.84884300  1
  O  O40  1  0.77524700  0.05378900  0.92969500  1
  O  O41  1  0.40181500  0.24222800  0.27861000  1
  O  O42  1  0.89986500  0.44825200  0.90929300  1
  O  O43  1  0.61276600  0.02637100  0.22662300  1
  O  O44  1  0.40326600  0.70676800  0.60406300  1
  O  O45  1  0.52257000  0.54512300  0.34409900  1
  O  O46  1  0.54999500  0.84972400  0.43456000  1
  O  O47  1  0.85699000  0.81023500  0.44838200  1
  O  O48  1  0.18900500  0.70671800  0.37171200  1
  O  O49  1  0.90845600  0.78585000  0.88565800  1
  O  O50  1  0.25409300  0.94976500  0.10019000  1
  O  O51  1  0.06153600  0.65202100  0.08223200  1
  O  O52  1  0.12039700  0.01457600  0.43547800  1
  O  O53  1  0.25226000  0.42537300  0.15187400  1
  O  O54  1  0.08292900  0.19350400  0.26537000  1
  O  O55  1  0.94399400  0.50334400  0.29029800  1
  O  O56  1  0.31455100  0.96090500  0.74116800  1
  O  O57  1  0.62901300  0.24335100  0.77508400  1
  O  O58  1  0.47375400  0.46730800  0.68837100  1
  O  O59  1  0.41774400  0.20058200  0.98813200  1
  O  O60  1  0.12238100  0.15701400  0.95000100  1
  O  O61  1  0.50480900  0.92613200  0.94373000  1
  O  O62  1  0.41879400  0.73945800  0.17071000  1
  O  O63  1  0.90832100  0.95312300  0.20247600  1
  O  O64  1  0.63979100  0.68500200  0.81138500  1
  O  O65  1  0.60928000  0.29855500  0.49743800  1
  O  O66  1  0.01829200  0.93191500  0.67637100  1
  O  O67  1  0.76350400  0.07104000  0.48030200  1
  O  O68  1  0.55188200  0.45374400  0.02103000  1
  O  O69  1  0.04944400  0.60110400  0.68364300  1
  O  O70  1  0.75791000  0.67820000  0.17323100  1
  O  O71  1  0.22086000  0.42224800  0.83169000  1
  O  O72  1  0.76854400  0.27167700  0.13171200  1
  O  O73  1  0.63823000  0.92164400  0.69953800  1
  O  O74  1  0.75750700  0.59083300  0.55494500  1
  O  O75  1  0.22744100  0.41789300  0.48357700  1
  O  O76  1  0.24553100  0.71311700  0.86995500  1
  O  O77  1  0.36845800  0.13382700  0.55088000  1
  O  O78  1  0.92865300  0.20055400  0.74344300  1
  O  O79  1  0.92183200  0.30644900  0.47884800  1
