# generated using pymatgen
data_ZnS
_symmetry_space_group_name_H-M   'P 1'
_cell_length_a   11.86812090
_cell_length_b   13.70922486
_cell_length_c   14.09381654
_cell_angle_alpha   91.09204207
_cell_angle_beta   94.04940472
_cell_angle_gamma   90.60372084
_symmetry_Int_Tables_number   1
_chemical_formula_structural   ZnS
_chemical_formula_sum   'Zn50 S50'
_cell_volume   2286.80009311
_cell_formula_units_Z   50
loop_
 _symmetry_equiv_pos_site_id
 _symmetry_equiv_pos_as_xyz
  1  'x, y, z'
loop_
 _atom_site_type_symbol
 _atom_site_label
 _atom_site_symmetry_multiplicity
 _atom_site_fract_x
 _atom_site_fract_y
 _atom_site_fract_z
 _atom_site_occupancy
  Zn  Zn0  1  0.30659673  0.80144393  0.14241919  1
  Zn  Zn1  1  0.05435215  0.94267720  0.94944109  1
  Zn  Zn2  1  0.53782349  0.01176597  0.81278019  1
  Zn  Zn3  1  0.18048367  0.25539801  0.27466216  1
  Zn  Zn4  1  0.02221270  0.72932269  0.25430846  1
  Zn  Zn5  1  0.38125124  0.41352819  0.42870696  1
  Zn  Zn6  1  0.13604923  0.21369810  0.70785999  1
  Zn  Zn7  1  0.87493443  0.83546008  0.93889955  1
  Zn  Zn8  1  0.91096326  0.56064898  0.78358708  1
  Zn  Zn9  1  0.11186292  0.29667857  0.53635196  1
  Zn  Zn10  1  0.58167464  0.14121157  0.58406722  1
  Zn  Zn11  1  0.97889872  0.97759409  0.59319766  1
  Zn  Zn12  1  0.25877031  0.33346890  0.81114827  1
  Zn  Zn13  1  0.19942778  0.53890647  0.55412308  1
  Zn  Zn14  1  0.89336406  0.50326272  0.47949391  1
  Zn  Zn15  1  0.59981898  0.22341315  0.41053797  1
  Zn  Zn16  1  0.22316217  0.15098516  0.08438257  1
  Zn  Zn17  1  0.84773229  0.09084682  0.67798521  1
  Zn  Zn18  1  0.34325737  0.90652923  0.89674442  1
  Zn  Zn19  1  0.18601697  0.36471288  0.12208892  1
  Zn  Zn20  1  0.12428252  0.71519207  0.86951681  1
  Zn  Zn21  1  0.61224098  0.90395830  0.40103133  1
  Zn  Zn22  1  0.85889943  0.33410582  0.64669229  1
  Zn  Zn23  1  0.76615556  0.02830142  0.35892598  1
  Zn  Zn24  1  0.16672559  0.12391443  0.55426850  1
  Zn  Zn25  1  0.72997416  0.02300182  0.53324017  1
  Zn  Zn26  1  0.74956443  0.84531590  0.20445349  1
  Zn  Zn27  1  0.60176490  0.74269248  0.82315430  1
  Zn  Zn28  1  0.31690301  0.96392864  0.63618697  1
  Zn  Zn29  1  0.51415540  0.08668531  0.17975548  1
  Zn  Zn30  1  0.66141742  0.47882397  0.95353871  1
  Zn  Zn31  1  0.73434013  0.58039755  0.64842552  1
  Zn  Zn32  1  0.38721451  0.21006056  0.98240938  1
  Zn  Zn33  1  0.86474171  0.01959123  0.96219130  1
  Zn  Zn34  1  0.39019630  0.05749766  0.41396189  1
  Zn  Zn35  1  0.17735952  0.20778474  0.91223870  1
  Zn  Zn36  1  0.90273896  0.42705644  0.18720789  1
  Zn  Zn37  1  0.36092563  0.60287741  0.94506726  1
  Zn  Zn38  1  0.11635440  0.50899535  0.70902869  1
  Zn  Zn39  1  0.75744002  0.73441272  0.42897156  1
  Zn  Zn40  1  0.01544698  0.39443962  0.82219234  1
  Zn  Zn41  1  0.60987795  0.45754167  0.39047781  1
  Zn  Zn42  1  0.37755194  0.30787390  0.19659187  1
  Zn  Zn43  1  0.85359312  0.65236008  0.05790924  1
  Zn  Zn44  1  0.98838940  0.12699252  0.21588777  1
  Zn  Zn45  1  0.59971666  0.39713947  0.17112056  1
  Zn  Zn46  1  0.52090954  0.78518087  0.60851080  1
  Zn  Zn47  1  0.52549589  0.86071073  0.04219951  1
  Zn  Zn48  1  0.26422739  0.62103410  0.32206625  1
  Zn  Zn49  1  0.93959564  0.66182512  0.64214018  1
  S  S50  1  0.37023908  0.10995690  0.56442103  1
  S  S51  1  0.35680414  0.83768250  0.52355160  1
  S  S52  1  0.71387515  0.01583888  0.18724496  1
  S  S53  1  0.95183216  0.75029045  0.40838213  1
  S  S54  1  0.25194112  0.60729516  0.81122410  1
  S  S55  1  0.19953748  0.35487019  0.40501427  1
  S  S56  1  0.82904644  0.09102727  0.10960342  1
  S  S57  1  0.43112491  0.70566926  0.06029543  1
  S  S58  1  0.68138077  0.78987861  0.96257472  1
  S  S59  1  0.94469519  0.23114100  0.75388752  1
  S  S60  1  0.78072226  0.43946366  0.83957145  1
  S  S61  1  0.75305653  0.38076151  0.28979940  1
  S  S62  1  0.47364698  0.01781284  0.96180961  1
  S  S63  1  0.18817662  0.53000099  0.18211528  1
  S  S64  1  0.09011500  0.76861840  0.71055244  1
  S  S65  1  0.74514496  0.23171429  0.30917319  1
  S  S66  1  0.54859939  0.35186553  0.50515198  1
  S  S67  1  0.01082159  0.29551134  0.16554922  1
  S  S68  1  0.68588196  0.84839758  0.55403406  1
  S  S69  1  0.05944530  0.01642058  0.44690233  1
  S  S70  1  0.94079615  0.11381506  0.37825029  1
  S  S71  1  0.67771708  0.19306523  0.83305618  1
  S  S72  1  0.20880397  0.77376794  0.27438828  1
  S  S73  1  0.04778469  0.10657540  0.97325398  1
  S  S74  1  0.70316210  0.41281325  0.70138254  1
  S  S75  1  0.41032841  0.89443259  0.39607188  1
  S  S76  1  0.44603219  0.16845238  0.31193590  1
  S  S77  1  0.92304445  0.34581216  0.50274610  1
  S  S78  1  0.56535982  0.64718882  0.69793448  1
  S  S79  1  0.46407826  0.46349330  0.26593277  1
  S  S80  1  0.53057649  0.24334095  0.10251882  1
  S  S81  1  0.93207706  0.83312469  0.67487425  1
  S  S82  1  0.74697876  0.05241939  0.82383535  1
  S  S83  1  0.63940665  0.76838943  0.29925067  1
  S  S84  1  0.34806448  0.57885455  0.46573445  1
  S  S85  1  0.44674784  0.34176494  0.86892194  1
  S  S86  1  0.75008270  0.51503222  0.09800082  1
  S  S87  1  0.14937852  0.37870570  0.95072918  1
  S  S88  1  0.17932934  0.09044823  0.22754034  1
  S  S89  1  0.90515488  0.80036123  0.13447386  1
  S  S90  1  0.02018667  0.63314054  0.49269132  1
  S  S91  1  0.20009699  0.84044579  0.97371570  1
  S  S92  1  0.43519258  0.87536680  0.75647734  1
  S  S93  1  0.45195729  0.92515899  0.17853638  1
  S  S94  1  0.71896861  0.57611343  0.47808746  1
  S  S95  1  0.14830011  0.02608750  0.69795393  1
  S  S96  1  0.01805352  0.56709873  0.18425707  1
  S  S97  1  0.94102536  0.67250033  0.91374115  1
  S  S98  1  0.47235579  0.45758750  0.96865496  1
  S  S99  1  0.53306104  0.16825940  0.74330010  1
