# generated using pymatgen
data_BN
_symmetry_space_group_name_H-M   'P 1'
_cell_length_a   10.54862904
_cell_length_b   10.80072060
_cell_length_c   11.09889523
_cell_angle_alpha   91.22217912
_cell_angle_beta   88.93207631
_cell_angle_gamma   91.07997949
_symmetry_Int_Tables_number   1
_chemical_formula_structural   BN
_chemical_formula_sum   'B50 N50'
_cell_volume   1263.80553907
_cell_formula_units_Z   50
loop_
 _symmetry_equiv_pos_site_id
 _symmetry_equiv_pos_as_xyz
  1  'x, y, z'
loop_
 _atom_site_type_symbol
 _atom_site_label
 _atom_site_symmetry_multiplicity
 _atom_site_fract_x
 _atom_site_fract_y
 _atom_site_fract_z
 _atom_site_occupancy
  B  B0  1  0.73817100  0.98617100  0.44264700  1
  B  B1  1  0.92438500  0.52216900  0.81921600  1
  B  B2  1  0.32955200  0.57846600  0.58625200  1
  B  B3  1  0.31953600  0.48377300  0.15246100  1
  B  B4  1  0.77797700  0.92155500  0.30481600  1
  B  B5  1  0.56183200  0.34190900  0.43859500  1
  B  B6  1  0.95555100  0.11148200  0.48077700  1
  B  B7  1  0.61500700  0.25967600  0.65221400  1
  B  B8  1  0.15095200  0.24296000  0.50991200  1
  B  B9  1  0.80106500  0.88809700  0.72421200  1
  B  B10  1  0.31652700  0.23346200  0.83731100  1
  B  B11  1  0.50588800  0.92783700  0.53734700  1
  B  B12  1  0.05914000  0.71750700  0.66995900  1
  B  B13  1  0.33080500  0.26875300  0.06170000  1
  B  B14  1  0.37832100  0.31111100  0.27656100  1
  B  B15  1  0.94090500  0.47301400  0.68136900  1
  B  B16  1  0.26708300  0.35719400  0.56215000  1
  B  B17  1  0.34200700  0.84402200  0.88237200  1
  B  B18  1  0.36518500  0.69521700  0.23646700  1
  B  B19  1  0.28972400  0.44770800  0.93264100  1
  B  B20  1  0.30199400  0.63066100  0.80262700  1
  B  B21  1  0.92125700  0.88797100  0.20355100  1
  B  B22  1  0.34254700  0.51700300  0.37650800  1
  B  B23  1  0.32617600  0.10634700  0.41863600  1
  B  B24  1  0.37962600  0.79726600  0.66526300  1
  B  B25  1  0.31307000  0.66495800  0.02028800  1
  B  B26  1  0.00192000  0.27263300  0.27780100  1
  B  B27  1  0.81001000  0.10143800  0.15288900  1
  B  B28  1  0.35085100  0.05636700  0.96823500  1
  B  B29  1  0.93973900  0.73121500  0.83961200  1
  B  B30  1  0.97491700  0.58677700  0.49411100  1
  B  B31  1  0.92772400  0.57168100  0.04236200  1
  B  B32  1  0.40912800  0.90919100  0.32118300  1
  B  B33  1  0.93823600  0.50498400  0.27766600  1
  B  B34  1  0.92278500  0.73522600  0.35945900  1
  B  B35  1  0.04535000  0.78581700  0.44489000  1
  B  B36  1  0.96497900  0.36096800  0.47109100  1
  B  B37  1  0.27215000  0.41363200  0.71203100  1
  B  B38  1  0.65815300  0.43969200  0.29100000  1
  B  B39  1  0.33204900  0.22792500  0.61841300  1
  B  B40  1  0.36568800  0.08952900  0.19364500  1
  B  B41  1  0.10889100  0.87265700  0.29091500  1
  B  B42  1  0.78626300  0.31984500  0.77713500  1
  B  B43  1  0.43084300  0.21554900  0.49078400  1
  B  B44  1  0.75636400  0.98337500  0.60909500  1
  B  B45  1  0.40857300  0.73603200  0.44888300  1
  B  B46  1  0.35869400  0.87664300  0.10353900  1
  B  B47  1  0.37650300  0.02048500  0.73933700  1
  B  B48  1  0.07197200  0.10669300  0.37293000  1
  B  B49  1  0.72760000  0.31615100  0.13927300  1
  N  N50  1  0.45997700  0.85987100  0.42902500  1
  N  N51  1  0.06040400  0.03584100  0.93861200  1
  N  N52  1  0.95534800  0.46783000  0.55378200  1
  N  N53  1  0.61385000  0.64158100  0.99760700  1
  N  N54  1  0.37324000  0.03740700  0.31278400  1
  N  N55  1  0.67185400  0.42066700  0.17104500  1
  N  N56  1  0.33476100  0.43503100  0.27042800  1
  N  N57  1  0.28939600  0.54487400  0.70395300  1
  N  N58  1  0.33262600  0.79583700  0.00184700  1
  N  N59  1  0.84195500  0.80635700  0.28427700  1
  N  N60  1  0.33983600  0.75818200  0.78239500  1
  N  N61  1  0.38223500  0.70209200  0.57021900  1
  N  N62  1  0.35588500  0.97583500  0.86125700  1
  N  N63  1  0.60477500  0.59650200  0.90694300  1
  N  N64  1  0.00450800  0.24035200  0.51908100  1
  N  N65  1  0.64509400  0.43933300  0.40949400  1
  N  N66  1  0.81966800  0.98452400  0.19089400  1
  N  N67  1  0.14975400  0.85753400  0.40559900  1
  N  N68  1  0.45403300  0.28390000  0.37988900  1
  N  N69  1  0.67805400  0.26496400  0.75441300  1
  N  N70  1  0.19607900  0.14050600  0.43499700  1
  N  N71  1  0.28110900  0.36142200  0.82846600  1
  N  N72  1  0.97904000  0.07824600  0.89301800  1
  N  N73  1  0.36367100  0.00878300  0.08755400  1
  N  N74  1  0.92150700  0.60760400  0.91869100  1
  N  N75  1  0.34205700  0.15630600  0.72444900  1
  N  N76  1  0.93833400  0.52952000  0.15009500  1
  N  N77  1  0.06116500  0.74555100  0.78459500  1
  N  N78  1  0.35818700  0.22201500  0.17903200  1
  N  N79  1  0.89091100  0.39422900  0.78366000  1
  N  N80  1  0.32505400  0.61553600  0.13784300  1
  N  N81  1  0.30856400  0.39903700  0.04979600  1
  N  N82  1  0.96007200  0.38114200  0.33628800  1
  N  N83  1  0.28857500  0.58080400  0.92040900  1
  N  N84  1  0.33502400  0.18723900  0.95511300  1
  N  N85  1  0.38323000  0.82643800  0.21916100  1
  N  N86  1  0.83908600  0.80957700  0.80018600  1
  N  N87  1  0.78227900  0.20967700  0.11081600  1
  N  N88  1  0.05224600  0.88745200  0.18615400  1
  N  N89  1  0.93098000  0.60204100  0.37034600  1
  N  N90  1  0.63016900  0.94027200  0.97543700  1
  N  N91  1  0.63928800  0.97034200  0.53732900  1
  N  N92  1  0.55841800  0.25699100  0.54709500  1
  N  N93  1  0.42082400  0.92947600  0.64604000  1
  N  N94  1  0.03879500  0.69448300  0.54918200  1
  N  N95  1  0.83707900  0.05138400  0.52020400  1
  N  N96  1  0.04417000  0.16223400  0.25940100  1
  N  N97  1  0.64852300  0.02010800  0.91518200  1
  N  N98  1  0.37748900  0.64655100  0.35478800  1
  N  N99  1  0.31500900  0.47737400  0.49805800  1
