# generated using pymatgen
data_V2O5
_symmetry_space_group_name_H-M   'P 1'
_cell_length_a   11.81026370
_cell_length_b   11.86742947
_cell_length_c   11.44600866
_cell_angle_alpha   86.18017188
_cell_angle_beta   89.33356748
_cell_angle_gamma   88.72166208
_symmetry_Int_Tables_number   1
_chemical_formula_structural   V2O5
_chemical_formula_sum   'V30 O75'
_cell_volume   1600.19861583
_cell_formula_units_Z   15
loop_
 _symmetry_equiv_pos_site_id
 _symmetry_equiv_pos_as_xyz
  1  'x, y, z'
loop_
 _atom_site_type_symbol
 _atom_site_label
 _atom_site_symmetry_multiplicity
 _atom_site_fract_x
 _atom_site_fract_y
 _atom_site_fract_z
 _atom_site_occupancy
  V  V0  1  0.55096545  0.90691394  0.99326335  1
  V  V1  1  0.77828441  0.60099127  0.99039880  1
  V  V2  1  0.01932719  0.13066054  0.75918916  1
  V  V3  1  0.38732901  0.99847587  0.53210058  1
  V  V4  1  0.57959623  0.11061289  0.18057363  1
  V  V5  1  0.24526286  0.48814639  0.36418462  1
  V  V6  1  0.17427587  0.70444231  0.71325406  1
  V  V7  1  0.02674395  0.42367154  0.69933282  1
  V  V8  1  0.97917142  0.72735064  0.13164223  1
  V  V9  1  0.57100110  0.05721409  0.75916163  1
  V  V10  1  0.56681407  0.57712542  0.21080725  1
  V  V11  1  0.15787257  0.88844869  0.14101728  1
  V  V12  1  0.06113677  0.26493231  0.33499456  1
  V  V13  1  0.93023337  0.84344547  0.59609951  1
  V  V14  1  0.61518867  0.30945439  0.80975465  1
  V  V15  1  0.31313482  0.72309152  0.51587718  1
  V  V16  1  0.87396285  0.08013372  0.44445548  1
  V  V17  1  0.19749143  0.46386258  0.90871817  1
  V  V18  1  0.67690664  0.75008391  0.74682617  1
  V  V19  1  0.45183580  0.41103814  0.58778201  1
  V  V20  1  0.95611400  0.36242722  0.06416197  1
  V  V21  1  0.96730834  0.91555746  0.30554249  1
  V  V22  1  0.78610471  0.09202176  0.95065152  1
  V  V23  1  0.63376142  0.62744991  0.49156309  1
  V  V24  1  0.68224999  0.27781263  0.53209595  1
  V  V25  1  0.31771146  0.89733693  0.90213723  1
  V  V26  1  0.97650589  0.58463107  0.45767333  1
  V  V27  1  0.46858105  0.47011466  0.99240545  1
  V  V28  1  0.43218862  0.23127299  0.31971143  1
  V  V29  1  0.72224611  0.86280850  0.30669639  1
  O  O30  1  0.27429558  0.02168392  0.60696838  1
  O  O31  1  0.82030822  0.91377793  0.41701422  1
  O  O32  1  0.32116291  0.66330335  0.66209997  1
  O  O33  1  0.41130775  0.99349903  0.84301978  1
  O  O34  1  0.64988725  0.76400496  0.39879656  1
  O  O35  1  0.84511837  0.46773721  0.02231776  1
  O  O36  1  0.62699459  0.55305587  0.34864518  1
  O  O37  1  0.58893301  0.40803982  0.92165228  1
  O  O38  1  0.96391844  0.46347985  0.55940484  1
  O  O39  1  0.93544650  0.45788776  0.79789354  1
  O  O40  1  0.08551449  0.78689209  0.04110557  1
  O  O41  1  0.69173102  0.34057142  0.67270038  1
  O  O42  1  0.52991626  0.29708387  0.51470752  1
  O  O43  1  0.84414674  0.00189491  0.04510461  1
  O  O44  1  0.19394907  0.60528161  0.87056271  1
  O  O45  1  0.41774906  0.17735933  0.18445063  1
  O  O46  1  0.65604404  0.01715428  0.90266057  1
  O  O47  1  0.41960727  0.82073296  0.98977923  1
  O  O48  1  0.46763977  0.60170197  0.94770192  1
  O  O49  1  0.50172011  0.00575870  0.62966512  1
  O  O50  1  0.50553266  0.01852399  0.07489057  1
  O  O51  1  0.47975033  0.68307076  0.21396181  1
  O  O52  1  0.89140382  0.06493810  0.29296107  1
  O  O53  1  0.02564705  0.91926299  0.44080129  1
  O  O54  1  0.59682780  0.71684249  0.63139111  1
  O  O55  1  0.14124249  0.37014659  0.39089839  1
  O  O56  1  0.33122269  0.41397247  0.96461307  1
  O  O57  1  0.05460898  0.79029685  0.25622533  1
  O  O58  1  0.75238560  0.57913567  0.54497070  1
  O  O59  1  0.24028859  0.81595739  0.80424363  1
  O  O60  1  0.01438522  0.27423244  0.69255523  1
  O  O61  1  0.89431430  0.56747718  0.34786489  1
  O  O62  1  0.63591396  0.99365397  0.26423424  1
  O  O63  1  0.63692062  0.83845644  0.08536407  1
  O  O64  1  0.51577694  0.54297759  0.54372725  1
  O  O65  1  0.47121972  0.38946058  0.73503255  1
  O  O66  1  0.36550375  0.36103145  0.33741797  1
  O  O67  1  0.26801400  0.85533816  0.21974070  1
  O  O68  1  0.89657953  0.00010179  0.59027985  1
  O  O69  1  0.88295259  0.09037582  0.83082999  1
  O  O70  1  0.68062637  0.61086417  0.10225541  1
  O  O71  1  0.15391409  0.18125517  0.28030451  1
  O  O72  1  0.67922636  0.10719470  0.68373907  1
  O  O73  1  0.22532509  0.95508097  0.00513427  1
  O  O74  1  0.39561608  0.11357737  0.42047380  1
  O  O75  1  0.32554351  0.61836982  0.41612043  1
  O  O76  1  0.68162950  0.15523472  0.08588368  1
  O  O77  1  0.17732684  0.76459119  0.54414438  1
  O  O78  1  0.31517622  0.41924303  0.55383266  1
  O  O79  1  0.74547580  0.36935908  0.44678414  1
  O  O80  1  0.72341689  0.24349584  0.88162966  1
  O  O81  1  0.93677163  0.72379155  0.51378779  1
  O  O82  1  0.51974435  0.18935956  0.80898339  1
  O  O83  1  0.50050839  0.45861663  0.14636945  1
  O  O84  1  0.59811448  0.84378317  0.82316593  1
  O  O85  1  0.17024513  0.40200963  0.78196624  1
  O  O86  1  0.97186600  0.33024576  0.21594559  1
  O  O87  1  0.06581674  0.03870200  0.65744990  1
  O  O88  1  0.80195446  0.81097273  0.68657488  1
  O  O89  1  0.71681101  0.63000505  0.84871290  1
  O  O90  1  0.85405300  0.82520725  0.22519094  1
  O  O91  1  0.09852220  0.59077792  0.67957692  1
  O  O92  1  0.74488358  0.14782444  0.47013480  1
  O  O93  1  0.12481566  0.12312748  0.84981302  1
  O  O94  1  0.24594767  0.52172516  0.22565709  1
  O  O95  1  0.92313173  0.24490867  0.00572777  1
  O  O96  1  0.06627447  0.99260475  0.20280949  1
  O  O97  1  0.11728650  0.57648994  0.41053655  1
  O  O98  1  0.97644786  0.18893997  0.45064747  1
  O  O99  1  0.01184757  0.59474375  0.15168379  1
  O  O100  1  0.38819077  0.85216371  0.48585291  1
  O  O101  1  0.08800541  0.41664785  0.00992946  1
  O  O102  1  0.03228000  0.80823009  0.69731928  1
  O  O103  1  0.58203021  0.21739204  0.29752110  1
  O  O104  1  0.86765327  0.70859353  0.00900281  1
