# generated using pymatgen
data_Cr2O3
_symmetry_space_group_name_H-M   'P 1'
_cell_length_a   10.11740222
_cell_length_b   9.59381499
_cell_length_c   9.71082220
_cell_angle_alpha   89.53034462
_cell_angle_beta   94.50274163
_cell_angle_gamma   91.25311659
_symmetry_Int_Tables_number   1
_chemical_formula_structural   Cr2O3
_chemical_formula_sum   'Cr32 O48'
_cell_volume   939.42218140
_cell_formula_units_Z   16
loop_
 _symmetry_equiv_pos_site_id
 _symmetry_equiv_pos_as_xyz
  1  'x, y, z'
loop_
 _atom_site_type_symbol
 _atom_site_label
 _atom_site_symmetry_multiplicity
 _atom_site_fract_x
 _atom_site_fract_y
 _atom_site_fract_z
 _atom_site_occupancy
  Cr  Cr0  1  0.62576800  0.52569500  0.44080000  1
  Cr  Cr1  1  0.58978400  0.16437400  0.50179400  1
  Cr  Cr2  1  0.72715400  0.13550900  0.86737400  1
  Cr  Cr3  1  0.33094900  0.94881100  0.48314700  1
  Cr  Cr4  1  0.56990300  0.37202500  0.16295600  1
  Cr  Cr5  1  0.71633200  0.08977200  0.15592300  1
  Cr  Cr6  1  0.41705900  0.90040500  0.84721100  1
  Cr  Cr7  1  0.92574800  0.71301200  0.48990800  1
  Cr  Cr8  1  0.38319700  0.66425900  0.66707300  1
  Cr  Cr9  1  0.63935300  0.70613900  0.93483200  1
  Cr  Cr10  1  0.86601700  0.61700400  0.75603100  1
  Cr  Cr11  1  0.06736900  0.35467100  0.29478400  1
  Cr  Cr12  1  0.69317200  0.82741200  0.29243500  1
  Cr  Cr13  1  0.83047100  0.52529800  0.12861000  1
  Cr  Cr14  1  0.89707100  0.81845600  0.00231800  1
  Cr  Cr15  1  0.82678600  0.28639200  0.65474900  1
  Cr  Cr16  1  0.65568100  0.90260800  0.66108800  1
  Cr  Cr17  1  0.07469800  0.35540200  0.83374600  1
  Cr  Cr18  1  0.89696700  0.00899600  0.48565400  1
  Cr  Cr19  1  0.33989200  0.57176700  0.96622300  1
  Cr  Cr20  1  0.40754100  0.85212200  0.14658400  1
  Cr  Cr21  1  0.12442000  0.86146000  0.73342400  1
  Cr  Cr22  1  0.01273300  0.08284100  0.95523500  1
  Cr  Cr23  1  0.80132700  0.30070300  0.35485900  1
  Cr  Cr24  1  0.54593000  0.36369000  0.88680800  1
  Cr  Cr25  1  0.33952600  0.39708400  0.61450500  1
  Cr  Cr26  1  0.10051500  0.62574700  0.09099000  1
  Cr  Cr27  1  0.15061800  0.14430300  0.61231200  1
  Cr  Cr28  1  0.27335100  0.17365400  0.06344900  1
  Cr  Cr29  1  0.36985000  0.60372300  0.35943900  1
  Cr  Cr30  1  0.11366100  0.94560600  0.27107000  1
  Cr  Cr31  1  0.32740000  0.28205900  0.35256300  1
  O  O32  1  0.17872500  0.34081800  0.67600700  1
  O  O33  1  0.27964400  0.99063200  0.67843800  1
  O  O34  1  0.92584000  0.61098200  0.97102500  1
  O  O35  1  0.82877700  0.01556600  0.00973900  1
  O  O36  1  0.89644800  0.30316900  0.18680400  1
  O  O37  1  0.82307000  0.99046500  0.29175800  1
  O  O38  1  0.04413100  0.89506400  0.90128000  1
  O  O39  1  0.75660400  0.72809900  0.11889000  1
  O  O40  1  0.75393100  0.08553700  0.59777500  1
  O  O41  1  0.01939800  0.01564700  0.65260400  1
  O  O42  1  0.03395900  0.79951800  0.15672100  1
  O  O43  1  0.19938500  0.12949700  0.42152000  1
  O  O44  1  0.62851400  0.20508900  0.29378400  1
  O  O45  1  0.11748200  0.07612700  0.12542100  1
  O  O46  1  0.31150000  0.74920800  0.49787900  1
  O  O47  1  0.16260800  0.50211800  0.94681400  1
  O  O48  1  0.47199700  0.74587000  0.99238300  1
  O  O49  1  0.03692900  0.87158500  0.43284600  1
  O  O50  1  0.54921000  0.69557700  0.33872500  1
  O  O51  1  0.66452000  0.29591300  0.75853200  1
  O  O52  1  0.94859000  0.24013100  0.48376000  1
  O  O53  1  0.64145900  0.22642400  0.01643000  1
  O  O54  1  0.23531700  0.43733600  0.42157300  1
  O  O55  1  0.91205400  0.20942100  0.83258200  1
  O  O56  1  0.78244400  0.83963100  0.49660100  1
  O  O57  1  0.46539800  0.43186200  0.30665800  1
  O  O58  1  0.00831000  0.70901900  0.67097300  1
  O  O59  1  0.27755300  0.74387100  0.81300600  1
  O  O60  1  0.16715700  0.18764600  0.89552800  1
  O  O61  1  0.46299300  0.54046600  0.54214700  1
  O  O62  1  0.52366100  0.97187500  0.51103000  1
  O  O63  1  0.57979500  0.01267600  0.80673800  1
  O  O64  1  0.77542500  0.78942400  0.82321900  1
  O  O65  1  0.35858100  0.99635600  0.00732100  1
  O  O66  1  0.58531800  0.94134300  0.17321100  1
  O  O67  1  0.29298200  0.66210900  0.15596400  1
  O  O68  1  0.41153900  0.49295400  0.79333500  1
  O  O69  1  0.41341400  0.35669200  0.02712000  1
  O  O70  1  0.30958600  0.94229100  0.28278500  1
  O  O71  1  0.21520500  0.32056500  0.18665800  1
  O  O72  1  0.72235600  0.46934400  0.27742500  1
  O  O73  1  0.00584500  0.54058000  0.24219800  1
  O  O74  1  0.63655200  0.50749100  0.00621500  1
  O  O75  1  0.69435000  0.34069600  0.50791800  1
  O  O76  1  0.53503000  0.76199700  0.74155200  1
  O  O77  1  0.78767800  0.58921000  0.55765300  1
  O  O78  1  0.93271100  0.44243200  0.72956200  1
  O  O79  1  0.42258600  0.24597400  0.52980500  1
