# generated using pymatgen
data_Cr7FeO12
_symmetry_space_group_name_H-M   'P 1'
_cell_length_a   9.99190327
_cell_length_b   10.06144968
_cell_length_c   10.62465780
_cell_angle_alpha   86.03200335
_cell_angle_beta   82.43727768
_cell_angle_gamma   88.62654418
_symmetry_Int_Tables_number   1
_chemical_formula_structural   Cr7FeO12
_chemical_formula_sum   'Cr28 Fe4 O48'
_cell_volume   1056.18034311
_cell_formula_units_Z   4
loop_
 _symmetry_equiv_pos_site_id
 _symmetry_equiv_pos_as_xyz
  1  'x, y, z'
loop_
 _atom_site_type_symbol
 _atom_site_label
 _atom_site_symmetry_multiplicity
 _atom_site_fract_x
 _atom_site_fract_y
 _atom_site_fract_z
 _atom_site_occupancy
  Cr  Cr0  1  0.34968100  0.12068000  0.30178100  1
  Cr  Cr1  1  0.96616900  0.40093200  0.20396400  1
  Cr  Cr2  1  0.42991400  0.77168500  0.27087400  1
  Cr  Cr3  1  0.80018000  0.95156200  0.03625700  1
  Cr  Cr4  1  0.68169000  0.51496700  0.09261900  1
  Cr  Cr5  1  0.62969400  0.12000000  0.57660300  1
  Cr  Cr6  1  0.16736200  0.59212800  0.24277500  1
  Cr  Cr7  1  0.37273900  0.40296600  0.71647300  1
  Cr  Cr8  1  0.14275400  0.23365500  0.83340500  1
  Cr  Cr9  1  0.64717300  0.19114400  0.82505600  1
  Cr  Cr10  1  0.85523200  0.23885400  0.99194200  1
  Cr  Cr11  1  0.37547800  0.64405100  0.96830200  1
  Cr  Cr12  1  0.02653400  0.41645300  0.65545300  1
  Cr  Cr13  1  0.52203500  0.55208000  0.43028200  1
  Cr  Cr14  1  0.92015600  0.91817800  0.49954200  1
  Cr  Cr15  1  0.06911800  0.22567500  0.40310400  1
  Cr  Cr16  1  0.66997700  0.76787900  0.92789400  1
  Cr  Cr17  1  0.75063600  0.38650000  0.58418200  1
  Cr  Cr18  1  0.78277100  0.68508100  0.27951000  1
  Cr  Cr19  1  0.91800100  0.65478200  0.77155800  1
  Cr  Cr20  1  0.65644800  0.57354700  0.75838000  1
  Cr  Cr21  1  0.93663200  0.11171900  0.71418700  1
  Cr  Cr22  1  0.58217000  0.13047500  0.11767300  1
  Cr  Cr23  1  0.12146900  0.91099800  0.90774200  1
  Cr  Cr24  1  0.09144400  0.94159600  0.19217600  1
  Cr  Cr25  1  0.67099200  0.77273100  0.53406600  1
  Cr  Cr26  1  0.21780900  0.19997200  0.07762400  1
  Cr  Cr27  1  0.24852700  0.93435900  0.50441900  1
  Fe  Fe28  1  0.23315800  0.70439500  0.72837500  1
  Fe  Fe29  1  0.40630400  0.92551900  0.96745000  1
  Fe  Fe30  1  0.45253200  0.35921800  0.97539500  1
  Fe  Fe31  1  0.73144200  0.18440200  0.32277800  1
  O  O32  1  0.71435900  0.97236200  0.51461100  1
  O  O33  1  0.54830000  0.12802200  0.29686900  1
  O  O34  1  0.98476700  0.09290000  0.53534000  1
  O  O35  1  0.64139300  0.27979900  0.48186000  1
  O  O36  1  0.14024300  0.38252100  0.27171900  1
  O  O37  1  0.24266700  0.02062600  0.01462500  1
  O  O38  1  0.83290900  0.39628400  0.08766800  1
  O  O39  1  0.64633000  0.26727600  0.98489900  1
  O  O40  1  0.82409200  0.08384300  0.88390900  1
  O  O41  1  0.83599300  0.49181700  0.70064800  1
  O  O42  1  0.75249700  0.59431700  0.91446600  1
  O  O43  1  0.75670600  0.75520600  0.72365200  1
  O  O44  1  0.04110900  0.77070600  0.83019100  1
  O  O45  1  0.42796400  0.77995300  0.08797600  1
  O  O46  1  0.04801600  0.23415900  0.01254600  1
  O  O47  1  0.32549300  0.54774100  0.82112800  1
  O  O48  1  0.12460400  0.77555100  0.24420600  1
  O  O49  1  0.58343500  0.74433400  0.37947300  1
  O  O50  1  0.31049900  0.27195100  0.89743400  1
  O  O51  1  0.07789600  0.58522200  0.67376200  1
  O  O52  1  0.33605500  0.61685000  0.31579000  1
  O  O53  1  0.33868000  0.83762600  0.60829800  1
  O  O54  1  0.10165900  0.84928700  0.48989800  1
  O  O55  1  0.77627200  0.10719300  0.13384300  1
  O  O56  1  0.10297900  0.05769100  0.78327900  1
  O  O57  1  0.98695400  0.93301600  0.05707100  1
  O  O58  1  0.52965600  0.10364100  0.72647100  1
  O  O59  1  0.73929500  0.77557700  0.10340900  1
  O  O60  1  0.15517700  0.10772700  0.25176600  1
  O  O61  1  0.96049800  0.36609000  0.51699500  1
  O  O62  1  0.65021600  0.57344000  0.56213000  1
  O  O63  1  0.35090600  0.92917700  0.33994600  1
  O  O64  1  0.95662400  0.58025700  0.24127400  1
  O  O65  1  0.19868400  0.33686200  0.67472300  1
  O  O66  1  0.66755600  0.52811800  0.27406300  1
  O  O67  1  0.59123900  0.98678000  0.98201700  1
  O  O68  1  0.91234200  0.24845500  0.31192700  1
  O  O69  1  0.57226400  0.38483100  0.75726600  1
  O  O70  1  0.83851600  0.76345600  0.42519100  1
  O  O71  1  0.39728500  0.20641300  0.12796700  1
  O  O72  1  0.53000600  0.70711800  0.84455600  1
  O  O73  1  0.25561000  0.12441100  0.46888500  1
  O  O74  1  0.50426400  0.51516400  0.05014200  1
  O  O75  1  0.39842600  0.47721400  0.54851300  1
  O  O76  1  0.76288900  0.19671500  0.66286900  1
  O  O77  1  0.22628700  0.56647600  0.08196700  1
  O  O78  1  0.96245300  0.28564000  0.78965000  1
  O  O79  1  0.29416000  0.81114400  0.88743700  1
