# generated using pymatgen
data_BaO
_symmetry_space_group_name_H-M   'P 1'
_cell_length_a   13.18486459
_cell_length_b   13.95633184
_cell_length_c   14.32686669
_cell_angle_alpha   96.54376621
_cell_angle_beta   94.89241777
_cell_angle_gamma   86.64033621
_symmetry_Int_Tables_number   1
_chemical_formula_structural   BaO
_chemical_formula_sum   'Ba50 O50'
_cell_volume   2606.41817415
_cell_formula_units_Z   50
loop_
 _symmetry_equiv_pos_site_id
 _symmetry_equiv_pos_as_xyz
  1  'x, y, z'
loop_
 _atom_site_type_symbol
 _atom_site_label
 _atom_site_symmetry_multiplicity
 _atom_site_fract_x
 _atom_site_fract_y
 _atom_site_fract_z
 _atom_site_occupancy
  Ba  Ba0  1  0.54608110  0.74357483  0.58659359  1
  Ba  Ba1  1  0.00468047  0.65225284  0.36314166  1
  Ba  Ba2  1  0.14373817  0.87521416  0.20615116  1
  Ba  Ba3  1  0.08907614  0.21493285  0.79596431  1
  Ba  Ba4  1  0.27768412  0.95144185  0.94256417  1
  Ba  Ba5  1  0.86293246  0.83589031  0.54848687  1
  Ba  Ba6  1  0.72465475  0.68714105  0.77998793  1
  Ba  Ba7  1  0.62920431  0.83496629  0.29306233  1
  Ba  Ba8  1  0.02262438  0.78428461  0.88911726  1
  Ba  Ba9  1  0.03386550  0.12293990  0.51941125  1
  Ba  Ba10  1  0.30315179  0.29348655  0.98508010  1
  Ba  Ba11  1  0.26611250  0.25830574  0.63435125  1
  Ba  Ba12  1  0.29650823  0.75729856  0.43275126  1
  Ba  Ba13  1  0.85226350  0.97690501  0.29875292  1
  Ba  Ba14  1  0.68546472  0.30659453  0.30410034  1
  Ba  Ba15  1  0.31350175  0.28811774  0.25645699  1
  Ba  Ba16  1  0.03233075  0.11665677  0.03244956  1
  Ba  Ba17  1  0.47966856  0.48473386  0.37850370  1
  Ba  Ba18  1  0.97588067  0.27490034  0.30486130  1
  Ba  Ba19  1  0.74844650  0.12384695  0.51887867  1
  Ba  Ba20  1  0.62660245  0.44291159  0.63936950  1
  Ba  Ba21  1  0.53608421  0.08746867  0.23487420  1
  Ba  Ba22  1  0.47765923  0.97710592  0.45061027  1
  Ba  Ba23  1  0.37414615  0.55002865  0.64874333  1
  Ba  Ba24  1  0.04475684  0.38758278  0.06677644  1
  Ba  Ba25  1  0.31508923  0.97470449  0.65452989  1
  Ba  Ba26  1  0.80230973  0.96431727  0.04119729  1
  Ba  Ba27  1  0.25421268  0.62633072  0.99947467  1
  Ba  Ba28  1  0.87985619  0.35823136  0.57236361  1
  Ba  Ba29  1  0.56519570  0.95097747  0.94272067  1
  Ba  Ba30  1  0.40133093  0.79300259  0.13675475  1
  Ba  Ba31  1  0.89972849  0.75005282  0.16580510  1
  Ba  Ba32  1  0.26166262  0.06119038  0.34174060  1
  Ba  Ba33  1  0.52280583  0.48463649  0.88129805  1
  Ba  Ba34  1  0.80146430  0.47584484  0.15616972  1
  Ba  Ba35  1  0.80591254  0.22140912  0.80825100  1
  Ba  Ba36  1  0.76731366  0.97833642  0.77728901  1
  Ba  Ba37  1  0.04359023  0.97555964  0.75528121  1
  Ba  Ba38  1  0.13685886  0.47310022  0.48989102  1
  Ba  Ba39  1  0.16758640  0.72735932  0.65845999  1
  Ba  Ba40  1  0.94429816  0.60626642  0.66244811  1
  Ba  Ba41  1  0.21169785  0.55262177  0.21874614  1
  Ba  Ba42  1  0.86217828  0.49121004  0.88787631  1
  Ba  Ba43  1  0.52158545  0.46472438  0.12618739  1
  Ba  Ba44  1  0.65113262  0.23277038  0.02971247  1
  Ba  Ba45  1  0.40338497  0.74497497  0.82120849  1
  Ba  Ba46  1  0.47836582  0.16920892  0.79690010  1
  Ba  Ba47  1  0.16636514  0.47421166  0.81190527  1
  Ba  Ba48  1  0.72908068  0.56377677  0.45086254  1
  Ba  Ba49  1  0.50305662  0.24424632  0.52160986  1
  O  O50  1  0.76546441  0.84960508  0.88859283  1
  O  O51  1  0.38222969  0.60050065  0.14312145  1
  O  O52  1  0.66115879  0.12764049  0.86102801  1
  O  O53  1  0.52160051  0.79765619  0.42699716  1
  O  O54  1  0.21470601  0.81309638  0.05827978  1
  O  O55  1  0.52438067  0.57440677  0.53088120  1
  O  O56  1  0.90877900  0.06074293  0.87468628  1
  O  O57  1  0.69153406  0.48507473  0.99391766  1
  O  O58  1  0.66323213  0.49541868  0.27572165  1
  O  O59  1  0.15212823  0.65459558  0.48358747  1
  O  O60  1  0.97750605  0.79562612  0.69702958  1
  O  O61  1  0.72314584  0.26436230  0.64766157  1
  O  O62  1  0.18313916  0.84153362  0.82127499  1
  O  O63  1  0.40611481  0.17193006  0.37030902  1
  O  O64  1  0.20190923  0.45621967  0.02088940  1
  O  O65  1  0.42125998  0.37328555  0.62727903  1
  O  O66  1  0.80447929  0.50620305  0.71748570  1
  O  O67  1  0.48882809  0.32728051  0.95902273  1
  O  O68  1  0.44882834  0.83021588  0.98326236  1
  O  O69  1  0.28634645  0.93898339  0.45687492  1
  O  O70  1  0.41934093  0.00516512  0.83166554  1
  O  O71  1  0.75213684  0.86122797  0.16715016  1
  O  O72  1  0.85999767  0.01394467  0.61720727  1
  O  O73  1  0.33656823  0.57750258  0.84535779  1
  O  O74  1  0.35113633  0.77318939  0.62997142  1
  O  O75  1  0.09368126  0.14429795  0.35938884  1
  O  O76  1  0.86178500  0.21616853  0.42602323  1
  O  O77  1  0.50016150  0.31161328  0.20964786  1
  O  O78  1  0.54957851  0.61968911  0.76302894  1
  O  O79  1  0.99172966  0.52972489  0.20050230  1
  O  O80  1  0.14824860  0.07742781  0.66355590  1
  O  O81  1  0.75080649  0.71292191  0.60376675  1
  O  O82  1  0.15302425  0.24995175  0.12592809  1
  O  O83  1  0.42730255  0.11771845  0.61442521  1
  O  O84  1  0.95341054  0.32961871  0.89537373  1
  O  O85  1  0.82333214  0.29737670  0.17426289  1
  O  O86  1  0.28194615  0.44825380  0.35257635  1
  O  O87  1  0.92443829  0.51193680  0.48402924  1
  O  O88  1  0.14849355  0.09140806  0.91452549  1
  O  O89  1  0.63080978  0.07095476  0.08356753  1
  O  O90  1  0.66496397  0.01009335  0.36537665  1
  O  O91  1  0.25512011  0.29502384  0.80939009  1
  O  O92  1  0.00548340  0.60783696  0.85514042  1
  O  O93  1  0.14593496  0.72338023  0.27317615  1
  O  O94  1  0.88173820  0.80743011  0.35153712  1
  O  O95  1  0.06253461  0.29307081  0.60690412  1
  O  O96  1  0.43681983  0.94290404  0.25509729  1
  O  O97  1  0.16717975  0.53854025  0.65642669  1
  O  O98  1  0.63738181  0.38702327  0.46293914  1
  O  O99  1  0.96656509  0.91802213  0.14332034  1
