# generated using pymatgen
data_WO3
_symmetry_space_group_name_H-M   'P 1'
_cell_length_a   12.45246301
_cell_length_b   12.39882450
_cell_length_c   11.70623733
_cell_angle_alpha   94.53135053
_cell_angle_beta   90.24832246
_cell_angle_gamma   95.87255313
_symmetry_Int_Tables_number   1
_chemical_formula_structural   WO3
_chemical_formula_sum   'W25 O75'
_cell_volume   1792.14944593
_cell_formula_units_Z   25
loop_
 _symmetry_equiv_pos_site_id
 _symmetry_equiv_pos_as_xyz
  1  'x, y, z'
loop_
 _atom_site_type_symbol
 _atom_site_label
 _atom_site_symmetry_multiplicity
 _atom_site_fract_x
 _atom_site_fract_y
 _atom_site_fract_z
 _atom_site_occupancy
  W  W0  1  0.99648021  0.89638495  0.96037442  1
  W  W1  1  0.15902286  0.08514415  0.33436389  1
  W  W2  1  0.11033897  0.80203516  0.22399679  1
  W  W3  1  0.16386107  0.50220852  0.13611741  1
  W  W4  1  0.53681221  0.65727220  0.74274078  1
  W  W5  1  0.95087399  0.46489213  0.80083639  1
  W  W6  1  0.60791009  0.11609709  0.85511273  1
  W  W7  1  0.22092312  0.11517650  0.01408542  1
  W  W8  1  0.27733020  0.79032990  0.73120267  1
  W  W9  1  0.57756836  0.78158917  0.47719522  1
  W  W10  1  0.36547797  0.08815328  0.79187266  1
  W  W11  1  0.97354891  0.15817334  0.59373099  1
  W  W12  1  0.16636426  0.38993783  0.59076021  1
  W  W13  1  0.65782905  0.39810109  0.82939062  1
  W  W14  1  0.87591516  0.55263353  0.52176899  1
  W  W15  1  0.67759761  0.97505039  0.11554878  1
  W  W16  1  0.10427092  0.75398914  0.53944156  1
  W  W17  1  0.80329048  0.72958244  0.13245209  1
  W  W18  1  0.38000481  0.46623145  0.91232814  1
  W  W19  1  0.57543796  0.28007001  0.31527936  1
  W  W20  1  0.56065696  0.56681481  0.24095992  1
  W  W21  1  0.95957063  0.18532093  0.91164851  1
  W  W22  1  0.41182319  0.25490687  0.54244711  1
  W  W23  1  0.33577354  0.32456096  0.24110161  1
  W  W24  1  0.77728319  0.94664673  0.45906549  1
  O  O25  1  0.78848701  0.65259403  0.49986597  1
  O  O26  1  0.13101381  0.63798132  0.17979357  1
  O  O27  1  0.22209578  0.43216353  0.25142881  1
  O  O28  1  0.46723697  0.36068872  0.63577059  1
  O  O29  1  0.66803930  0.33996771  0.69199653  1
  O  O30  1  0.60885643  0.76562940  0.81936037  1
  O  O31  1  0.23945829  0.83220472  0.56494187  1
  O  O32  1  0.89261040  0.25374002  0.55321967  1
  O  O33  1  0.68549317  0.10197270  0.73416603  1
  O  O34  1  0.79590958  0.04164613  0.17697728  1
  O  O35  1  0.86629511  0.51156334  0.67549158  1
  O  O36  1  0.00254439  0.57311655  0.89414744  1
  O  O37  1  0.24839331  0.15978062  0.84287867  1
  O  O38  1  0.38724382  0.13373397  0.63668085  1
  O  O39  1  0.89374052  0.01834369  0.55733735  1
  O  O40  1  0.30458169  0.38358694  0.80889994  1
  O  O41  1  0.61281176  0.53888186  0.78093125  1
  O  O42  1  0.60821514  0.43075097  0.30066858  1
  O  O43  1  0.10215993  0.39719839  0.45954029  1
  O  O44  1  0.70197870  0.63276604  0.22948181  1
  O  O45  1  0.26865572  0.27984286  0.54626525  1
  O  O46  1  0.06055202  0.12483068  0.44560853  1
  O  O47  1  0.84403879  0.44424878  0.41906335  1
  O  O48  1  0.26978448  0.49928395  0.60124857  1
  O  O49  1  0.57505473  0.66356660  0.59100302  1
  O  O50  1  0.66476170  0.03766444  0.96914825  1
  O  O51  1  0.04753465  0.42419485  0.08723624  1
  O  O52  1  0.02083989  0.61007994  0.51014553  1
  O  O53  1  0.09259707  0.19779638  0.99353643  1
  O  O54  1  0.19726273  0.07600576  0.16268581  1
  O  O55  1  0.24892231  0.82967099  0.21258905  1
  O  O56  1  0.47949853  0.19941158  0.83462661  1
  O  O57  1  0.72343405  0.06260126  0.41990311  1
  O  O58  1  0.68298413  0.82215243  0.12102343  1
  O  O59  1  0.08149969  0.94585533  0.28572104  1
  O  O60  1  0.51593497  0.65227542  0.36367939  1
  O  O61  1  0.29210613  0.94892929  0.74950670  1
  O  O62  1  0.06653458  0.45427108  0.69919556  1
  O  O63  1  0.87033785  0.84312027  0.03446230  1
  O  O64  1  0.26735362  0.04558544  0.40854577  1
  O  O65  1  0.40681778  0.73145952  0.70335528  1
  O  O66  1  0.46453916  0.84898863  0.50644109  1
  O  O67  1  0.68876896  0.86206508  0.57166717  1
  O  O68  1  0.64349864  0.84879050  0.35978430  1
  O  O69  1  0.54263377  0.21541407  0.45591144  1
  O  O70  1  0.49252088  0.00459907  0.81288331  1
  O  O71  1  0.93458191  0.72696747  0.20295305  1
  O  O72  1  0.79271741  0.62862687  0.02091375  1
  O  O73  1  0.99654005  0.81782313  0.83207435  1
  O  O74  1  0.15279212  0.69426453  0.68459922  1
  O  O75  1  0.25938262  0.77744329  0.87723430  1
  O  O76  1  0.66031175  0.26785514  0.90711440  1
  O  O77  1  0.13687126  0.99116846  0.95274461  1
  O  O78  1  0.35210848  0.06581442  0.97177317  1
  O  O79  1  0.09814060  0.24365407  0.65067117  1
  O  O80  1  0.56871844  0.01400907  0.19661689  1
  O  O81  1  0.85304628  0.21323439  0.99980883  1
  O  O82  1  0.50952919  0.60824262  0.11269558  1
  O  O83  1  0.92952441  0.14431625  0.75201229  1
  O  O84  1  0.85322176  0.88797936  0.34749637  1
  O  O85  1  0.97976057  0.33697833  0.86563397  1
  O  O86  1  0.42614013  0.44927450  0.21281950  1
  O  O87  1  0.79865129  0.44564325  0.86778144  1
  O  O88  1  0.27321417  0.50230619  0.02381464  1
  O  O89  1  0.46531053  0.23676715  0.20675672  1
  O  O90  1  0.07701172  0.82717750  0.06904346  1
  O  O91  1  0.41810761  0.58991204  0.84360047  1
  O  O92  1  0.01242325  0.84268762  0.58718852  1
  O  O93  1  0.51136167  0.41238214  0.92322108  1
  O  O94  1  0.40535153  0.33191114  0.39264466  1
  O  O95  1  0.29180402  0.26385536  0.09193984  1
  O  O96  1  0.68754010  0.22842331  0.25662901  1
  O  O97  1  0.22493528  0.23040569  0.30860970  1
  O  O98  1  0.10574771  0.75781598  0.37785188  1
  O  O99  1  0.94074149  0.02965829  0.93122642  1
