# generated using pymatgen
data_V2O5
_symmetry_space_group_name_H-M   'P 1'
_cell_length_a   13.04760571
_cell_length_b   13.01258317
_cell_length_c   11.88661146
_cell_angle_alpha   90.15468733
_cell_angle_beta   94.02477108
_cell_angle_gamma   86.88236617
_symmetry_Int_Tables_number   1
_chemical_formula_structural   V2O5
_chemical_formula_sum   'V30 O75'
_cell_volume   2010.18725354
_cell_formula_units_Z   15
loop_
 _symmetry_equiv_pos_site_id
 _symmetry_equiv_pos_as_xyz
  1  'x, y, z'
loop_
 _atom_site_type_symbol
 _atom_site_label
 _atom_site_symmetry_multiplicity
 _atom_site_fract_x
 _atom_site_fract_y
 _atom_site_fract_z
 _atom_site_occupancy
  V  V0  1  0.84589202  0.50346924  0.94424808  1
  V  V1  1  0.95634161  0.90383825  0.10847053  1
  V  V2  1  0.29512590  0.02749938  0.69433449  1
  V  V3  1  0.41886961  0.54235392  0.81993785  1
  V  V4  1  0.70213208  0.10415126  0.46279838  1
  V  V5  1  0.50839904  0.99480658  0.78403181  1
  V  V6  1  0.42727793  0.18559883  0.91392520  1
  V  V7  1  0.80428573  0.43761862  0.54899228  1
  V  V8  1  0.67775515  0.20696608  0.93707970  1
  V  V9  1  0.68781195  0.77652810  0.95253751  1
  V  V10  1  0.43286334  0.03071424  0.32239535  1
  V  V11  1  0.29508430  0.88159668  0.46368813  1
  V  V12  1  0.87818761  0.69139232  0.59264486  1
  V  V13  1  0.75679724  0.88714968  0.74381656  1
  V  V14  1  0.11223728  0.26114024  0.30728533  1
  V  V15  1  0.13248791  0.18111495  0.52422941  1
  V  V16  1  0.94205349  0.05253589  0.63770483  1
  V  V17  1  0.89587073  0.78064508  0.32812088  1
  V  V18  1  0.03983030  0.65150700  0.01944459  1
  V  V19  1  0.62239522  0.19425520  0.22427349  1
  V  V20  1  0.08420796  0.00458764  0.89790417  1
  V  V21  1  0.64160636  0.85995119  0.38054629  1
  V  V22  1  0.63058212  0.43824203  0.33325188  1
  V  V23  1  0.16493662  0.21066954  0.03827295  1
  V  V24  1  0.66132752  0.43859509  0.77913341  1
  V  V25  1  0.43471354  0.82866720  0.18283449  1
  V  V26  1  0.27569952  0.67904250  0.33165698  1
  V  V27  1  0.13047964  0.53025063  0.27721822  1
  V  V28  1  0.35633822  0.41841457  0.97811091  1
  V  V29  1  0.76234692  0.58958053  0.16194010  1
  O  O30  1  0.75061463  0.40200574  0.41146228  1
  O  O31  1  0.29694389  0.45435424  0.08854401  1
  O  O32  1  0.04972767  0.25745235  0.00638065  1
  O  O33  1  0.24298512  0.94171181  0.58279095  1
  O  O34  1  0.24545914  0.14270015  0.61182313  1
  O  O35  1  0.36837521  0.72529338  0.24267970  1
  O  O36  1  0.90644587  0.40382756  0.89668128  1
  O  O37  1  0.38499512  0.65876715  0.78294155  1
  O  O38  1  0.53477596  0.48147427  0.74880962  1
  O  O39  1  0.26919824  0.54592646  0.34124554  1
  O  O40  1  0.41821872  0.93022799  0.43057391  1
  O  O41  1  0.21645763  0.91095735  0.35615710  1
  O  O42  1  0.84183951  -0.02518759  0.72148957  1
  O  O43  1  0.91549308  0.37993038  0.57089072  1
  O  O44  1  0.41092197  0.93100383  0.70442277  1
  O  O45  1  0.92322396  0.60827003  0.93983551  1
  O  O46  1  0.99412209  0.95440598  0.57727938  1
  O  O47  1  0.00373985  0.06197127  0.78511917  1
  O  O48  1  0.15698227  0.70064700  0.27189639  1
  O  O49  1  0.78731080  0.78550443  0.64373654  1
  O  O50  1  0.72713051  0.14783739  0.32446631  1
  O  O51  1  0.25570275  0.29869732  0.95961604  1
  O  O52  1  0.50633997  0.95276138  0.90950464  1
  O  O53  1  0.38036441  0.95904494  0.20368464  1
  O  O54  1  0.58375150  0.32822602  0.26280824  1
  O  O55  1  0.63464076  0.95558151  0.72652480  1
  O  O56  1  0.14265007  0.39492210  0.26945909  1
  O  O57  1  0.62151493  -0.00858584  0.43320288  1
  O  O58  1  0.54814120  0.48425097  0.41797235  1
  O  O59  1  0.78000335  0.14461806  0.90074982  1
  O  O60  1  0.17772982  0.08569013  0.98520286  1
  O  O61  1  0.93461928  0.73515538  0.46724735  1
  O  O62  1  0.06695212  0.56756680  0.13554584  1
  O  O63  1  0.99646458  0.78085987  0.05391943  1
  O  O64  1  0.56965302  0.14808648  0.87129037  1
  O  O65  1  0.97028952  0.86996734  0.26285750  1
  O  O66  1  0.43807123  0.80344614  0.05134133  1
  O  O67  1  0.70997988  0.65494219  0.04639061  1
  O  O68  1  0.96951562  0.66575631  0.68776998  1
  O  O69  1  0.13253272  0.30350201  0.46936114  1
  O  O70  1  0.60297118  0.75726942  0.84652909  1
  O  O71  1  0.45547443  0.31104248  -0.02324007  1
  O  O72  1  0.81966166  0.08865788  0.54602258  1
  O  O73  1  0.66467536  0.54245283  0.23908761  1
  O  O74  1  0.40461196  0.10725589  0.77205121  1
  O  O75  1  0.21685873  0.01286320  0.79439229  1
  O  O76  1  0.40997000  0.11599805  0.02181313  1
  O  O77  1  0.62586286  0.19123254  0.51625943  1
  O  O78  1  0.56088240  0.83377815  0.25494746  1
  O  O79  1  0.29811805  0.74062135  0.46627908  1
  O  O80  1  0.71902768  0.39888281  0.65663755  1
  O  O81  1  0.01617017  0.15952532  0.58868484  1
  O  O82  1  0.62313694  0.77521202  0.47485927  1
  O  O83  1  0.67389009  0.34102809  0.87927085  1
  O  O84  1  0.12967124  0.12685600  0.39300651  1
  O  O85  1  0.44962441  0.52441840  0.96643086  1
  O  O86  1  0.83400156  0.92534793  0.08692153  1
  O  O87  1  0.64300451  0.86176719  0.03908639  1
  O  O88  1  0.73265928  0.53608953  0.84239838  1
  O  O89  1  0.10109995  0.88289092  0.87648445  1
  O  O90  1  0.84567479  0.66775091  0.23943647  1
  O  O91  1  0.67472885  0.20607993  0.08754696  1
  O  O92  1  0.81304341  0.57362810  0.55725588  1
  O  O93  1  0.99106906  0.26027134  0.27455673  1
  O  O94  1  0.18129860  0.20606440  0.18884574  1
  O  O95  1  0.04822327  0.55127033  0.37119479  1
  O  O96  1  0.52927681  0.10637342  0.25306124  1
  O  O97  1  0.77193879  0.84799288  0.34669969  1
  O  O98  1  0.13476014  0.64928193  0.94011586  1
  O  O99  1  0.82656984  0.48332547  0.09500026  1
  O  O100  1  0.35068385  0.11995962  0.35538018  1
  O  O101  1  0.79248601  0.83794903  0.87739143  1
  O  O102  1  0.31151985  0.46398514  0.83284035  1
  O  O103  1  0.01269152  0.99852509  0.02955882  1
  O  O104  1  0.29235291  0.23750368  0.86593754  1
