# generated using pymatgen
data_Si3N4
_symmetry_space_group_name_H-M   'P 1'
_cell_length_a   11.18101368
_cell_length_b   10.83422249
_cell_length_c   10.05271226
_cell_angle_alpha   87.83659384
_cell_angle_beta   86.79562098
_cell_angle_gamma   91.35743758
_symmetry_Int_Tables_number   1
_chemical_formula_structural   Si3N4
_chemical_formula_sum   'Si45 N60'
_cell_volume   1214.58445589
_cell_formula_units_Z   15
loop_
 _symmetry_equiv_pos_site_id
 _symmetry_equiv_pos_as_xyz
  1  'x, y, z'
loop_
 _atom_site_type_symbol
 _atom_site_label
 _atom_site_symmetry_multiplicity
 _atom_site_fract_x
 _atom_site_fract_y
 _atom_site_fract_z
 _atom_site_occupancy
  Si  Si0  1  0.96859900  0.46442100  0.55552500  1
  Si  Si1  1  0.54808700  0.79805400  0.51092700  1
  Si  Si2  1  0.37359900  0.03687400  0.13255100  1
  Si  Si3  1  0.02179300  0.29406000  0.34733200  1
  Si  Si4  1  0.41126500  0.63437500  0.29344800  1
  Si  Si5  1  0.44274600  0.38876100  0.66653500  1
  Si  Si6  1  0.75124500  0.05853300  0.75263400  1
  Si  Si7  1  0.96042000  0.67283100  0.50227300  1
  Si  Si8  1  0.19866900  0.48049400  0.73337100  1
  Si  Si9  1  0.01251200  0.74010900  0.00248000  1
  Si  Si10  1  0.20512500  0.62931000  0.51422100  1
  Si  Si11  1  0.44121800  0.71810400  0.99398800  1
  Si  Si12  1  0.64327200  0.25575900  0.02412900  1
  Si  Si13  1  0.29717600  0.33127600  0.22654900  1
  Si  Si14  1  0.51631400  0.32059600  0.46977800  1
  Si  Si15  1  0.48838400  0.93368400  0.78259400  1
  Si  Si16  1  0.65043500  0.54929000  0.62724700  1
  Si  Si17  1  0.54985900  0.98567900  0.99900500  1
  Si  Si18  1  0.56827100  0.14117500  0.29734200  1
  Si  Si19  1  0.18745200  0.74255900  0.83512500  1
  Si  Si20  1  0.09272500  0.02421000  0.48702100  1
  Si  Si21  1  0.15770900  0.34247700  0.00061200  1
  Si  Si22  1  0.99039300  0.07607700  0.26858800  1
  Si  Si23  1  0.35980700  0.12259100  0.42778200  1
  Si  Si24  1  0.41909200  0.65256300  0.72326000  1
  Si  Si25  1  0.43773600  0.17808700  0.87439200  1
  Si  Si26  1  0.04699800  0.79150300  0.30128200  1
  Si  Si27  1  0.96604000  0.91362800  0.78173900  1
  Si  Si28  1  0.85792100  0.88324700  0.57884000  1
  Si  Si29  1  0.95651000  0.41368900  0.83317300  1
  Si  Si30  1  0.24885500  0.81421200  0.10178000  1
  Si  Si31  1  0.69525400  0.48252200  0.86089400  1
  Si  Si32  1  0.83151600  0.06056400  0.01186100  1
  Si  Si33  1  0.70857000  0.13314200  0.49382900  1
  Si  Si34  1  0.25149200  0.40884900  0.46589000  1
  Si  Si35  1  0.72021700  0.78571900  0.09398700  1
  Si  Si36  1  0.92285100  0.29509100  0.06856700  1
  Si  Si37  1  0.75554600  0.96629400  0.23056100  1
  Si  Si38  1  0.77073600  0.47121000  0.37226200  1
  Si  Si39  1  0.70169600  0.77603000  0.81879800  1
  Si  Si40  1  0.76868200  0.74701800  0.41075800  1
  Si  Si41  1  0.39692000  0.44558800  0.94688500  1
  Si  Si42  1  0.77161200  0.27911100  0.66330000  1
  Si  Si43  1  0.60808200  0.42354300  0.19782900  1
  Si  Si44  1  0.85049600  0.55110300  0.07545800  1
  N  N45  1  0.91283400  0.70587900  0.34213800  1
  N  N46  1  0.64950200  0.92866700  0.78993800  1
  N  N47  1  0.63243900  0.39683300  0.38437400  1
  N  N48  1  0.71517400  0.81376600  0.26346600  1
  N  N49  1  0.75053400  0.50314200  0.20199600  1
  N  N50  1  0.87869800  0.03106800  0.85310500  1
  N  N51  1  0.25638600  0.65002700  0.69182900  1
  N  N52  1  0.68395300  0.40564600  0.70618500  1
  N  N53  1  0.07166100  0.85474800  0.88055600  1
  N  N54  1  0.47723700  0.50896400  0.20361000  1
  N  N55  1  0.00639300  0.94124800  0.61439000  1
  N  N56  1  0.38568100  0.44203900  0.13115300  1
  N  N57  1  0.37272000  0.29966500  0.38727700  1
  N  N58  1  0.47207100  0.80238100  0.67941000  1
  N  N59  1  0.43264400  0.06816700  0.28579200  1
  N  N60  1  0.42369400  0.06964600  0.75711700  1
  N  N61  1  0.44627100  0.33373500  0.82953000  1
  N  N62  1  0.16837500  0.35263000  0.33406700  1
  N  N63  1  0.29326400  0.38878100  0.63299100  1
  N  N64  1  0.24814800  0.95483400  0.15545100  1
  N  N65  1  0.07736600  0.62988400  0.89177000  1
  N  N66  1  0.04573100  0.94450700  0.34256300  1
  N  N67  1  0.91593500  0.35884900  0.68141700  1
  N  N68  1  0.89687100  0.00576300  0.15622800  1
  N  N69  1  0.70082200  0.96108200  0.06529300  1
  N  N70  1  0.85777000  0.71288300  0.04278700  1
  N  N71  1  0.98896900  0.22784500  0.19885700  1
  N  N72  1  0.48217800  0.72833700  0.39507800  1
  N  N73  1  0.70492400  0.07608100  0.33083500  1
  N  N74  1  0.24597100  0.43426800  0.89492100  1
  N  N75  1  0.19035200  0.15224600  0.80608500  1
  N  N76  1  0.58812200  0.26223300  0.18580200  1
  N  N77  1  0.30221800  0.56130000  0.40493200  1
  N  N78  1  0.84651000  0.81135900  0.74325000  1
  N  N79  1  0.83776400  0.47614800  0.92536900  1
  N  N80  1  0.97756900  0.46099700  0.11449900  1
  N  N81  1  0.25204000  0.24506600  0.09069900  1
  N  N82  1  0.54287600  0.16209200  0.47360600  1
  N  N83  1  0.13297200  0.14928900  0.71859800  1
  N  N84  1  0.61365400  0.73774300  0.99133500  1
  N  N85  1  0.77866500  0.02299500  0.58440200  1
  N  N86  1  0.43592300  0.59600100  0.88744700  1
  N  N87  1  0.09821100  0.75544400  0.14106400  1
  N  N88  1  0.10707800  0.72817400  0.45222400  1
  N  N89  1  0.73897300  0.59431600  0.48198600  1
  N  N90  1  0.36821700  0.71811300  0.15149900  1
  N  N91  1  0.35462000  0.17413800  0.03349800  1
  N  N92  1  0.79520100  0.21576400  0.02604200  1
  N  N93  1  0.09122900  0.46871200  0.10735200  1
  N  N94  1  0.12369100  0.48511700  0.55859700  1
  N  N95  1  0.29973100  0.78807700  0.93193000  1
  N  N96  1  0.05636100  0.53652400  0.79814400  1
  N  N97  1  0.02272800  0.30068400  0.93141800  1
  N  N98  1  0.58214900  0.14068400  0.93436500  1
  N  N99  1  0.91419200  0.40589900  0.40748900  1
  N  N100  1  0.68259400  0.62545600  0.77049400  1
  N  N101  1  0.49390100  0.54432600  0.63108100  1
  N  N102  1  0.00950200  0.14904800  0.42484300  1
  N  N103  1  0.61418100  0.41274700  0.99615600  1
  N  N104  1  0.24023200  0.05443000  0.49509300  1
