# generated using pymatgen
data_V2O5
_symmetry_space_group_name_H-M   'P 1'
_cell_length_a   13.32081160
_cell_length_b   12.43997348
_cell_length_c   11.48801903
_cell_angle_alpha   90.05986677
_cell_angle_beta   87.07266737
_cell_angle_gamma   86.14619074
_symmetry_Int_Tables_number   1
_chemical_formula_structural   V2O5
_chemical_formula_sum   'V30 O75'
_cell_volume   1896.88359714
_cell_formula_units_Z   15
loop_
 _symmetry_equiv_pos_site_id
 _symmetry_equiv_pos_as_xyz
  1  'x, y, z'
loop_
 _atom_site_type_symbol
 _atom_site_label
 _atom_site_symmetry_multiplicity
 _atom_site_fract_x
 _atom_site_fract_y
 _atom_site_fract_z
 _atom_site_occupancy
  V  V0  1  0.89382717  0.04383499  0.76595363  1
  V  V1  1  0.89813543  0.76848476  0.77223972  1
  V  V2  1  0.71814399  0.40935866  0.72055103  1
  V  V3  1  0.81691963  0.03891154  0.27549772  1
  V  V4  1  0.67219539  0.06123144  0.03201354  1
  V  V5  1  0.15141454  0.74324883  0.73840586  1
  V  V6  1  0.58061610  0.65581705  0.26135242  1
  V  V7  1  0.35805513  0.01230053  0.35949518  1
  V  V8  1  0.95930091  0.27959336  0.63192848  1
  V  V9  1  0.34731494  0.75864461  0.25419467  1
  V  V10  1  0.41483887  0.19910608  0.53729954  1
  V  V11  1  0.04347191  0.61613276  0.14556364  1
  V  V12  1  0.12974986  0.97983883  0.75664934  1
  V  V13  1  0.35428197  0.09885940  0.81832721  1
  V  V14  1  0.07339200  0.22145086  0.34810978  1
  V  V15  1  0.14482224  0.94500830  0.26029675  1
  V  V16  1  0.97031330  0.80739281  0.35984269  1
  V  V17  1  0.27755284  0.13326681  0.08831909  1
  V  V18  1  0.67183157  0.63132200  0.76796060  1
  V  V19  1  0.77654140  0.31605096  0.99520345  1
  V  V20  1  0.75085551  0.32198477  0.25769319  1
  V  V21  1  0.19074209  0.86961325  0.54359296  1
  V  V22  1  0.03486625  0.52141162  0.70376640  1
  V  V23  1  0.57091699  0.14427582  0.34792330  1
  V  V24  1  0.58069326  0.10117767  0.75110899  1
  V  V25  1  0.22720808  0.54620200  0.33962790  1
  V  V26  1  0.00709205  0.40640260  0.97542435  1
  V  V27  1  0.62319501  0.79336333  0.02438243  1
  V  V28  1  0.59163685  0.56248616  0.53217393  1
  V  V29  1  0.32364660  0.28181229  0.28973018  1
  O  O30  1  0.30908044  0.42846920  0.32303101  1
  O  O31  1  0.89474928  0.90702146  0.71734180  1
  O  O32  1  0.99283320  0.48778667  0.84972781  1
  O  O33  1  0.47660348  0.75496547  0.29349786  1
  O  O34  1  0.64848815  0.43731867  0.58942829  1
  O  O35  1  0.27721451  0.00356010  0.05626575  1
  O  O36  1  0.84215861  0.19874652  0.24532392  1
  O  O37  1  0.98575012  0.49780482  0.09799458  1
  O  O38  1  0.44255109  0.14775739  0.69915012  1
  O  O39  1  0.22712829  0.06317330  0.77954063  1
  O  O40  1  0.50427211  0.82502496  0.04525000  1
  O  O41  1  0.79793858  0.01656728  0.13442210  1
  O  O42  1  0.14596370  0.53463643  0.44751217  1
  O  O43  1  0.47215561  0.55205518  0.52318645  1
  O  O44  1  0.01896356  0.30666203  0.26109645  1
  O  O45  1  0.60731816  0.52108355  0.80113418  1
  O  O46  1  0.02163210  0.05212070  0.81796258  1
  O  O47  1  0.43808576  0.24063937  0.36296822  1
  O  O48  1  0.75378841  0.40095491  0.12002442  1
  O  O49  1  0.81095857  0.06809297  0.87559168  1
  O  O50  1  0.28955575  0.67243245  0.35773552  1
  O  O51  1  0.82048224  0.33153663  0.67012542  1
  O  O52  1  0.28349517  0.89930051  0.25610564  1
  O  O53  1  0.15743190  0.57087732  0.21148653  1
  O  O54  1  0.33936060  0.28695280  0.14632962  1
  O  O55  1  0.42245802  0.99274265  0.85486670  1
  O  O56  1  0.61264833  0.66875677  0.63547702  1
  O  O57  1  0.70149331  0.05935800  0.34568186  1
  O  O58  1  0.88365153  0.91853796  0.33242609  1
  O  O59  1  0.77808070  0.39721817  0.36408227  1
  O  O60  1  0.55839873  0.16140240  0.49673374  1
  O  O61  1  0.03780937  0.26292945  0.73394946  1
  O  O62  1  0.64004315  0.61087732  0.39327529  1
  O  O63  1  0.15452317  0.49227176  0.69066724  1
  O  O64  1  0.97074001  0.70515178  0.24946675  1
  O  O65  1  0.97510027  0.43341494  0.61404857  1
  O  O66  1  0.23655301  0.86494746  0.69135945  1
  O  O67  1  0.02138022  0.24005530  0.49444071  1
  O  O68  1  0.19720248  0.26304826  0.35610873  1
  O  O69  1  0.88782543  0.76743106  0.91301705  1
  O  O70  1  0.62292630  0.98657575  0.69180393  1
  O  O71  1  0.90892461  0.30882912  0.96855568  1
  O  O72  1  0.59298574  0.08417872  0.14683516  1
  O  O73  1  0.12008973  0.35224594  0.97044792  1
  O  O74  1  0.64287766  0.71311095  0.89203655  1
  O  O75  1  0.48575098  0.01330776  0.34399671  1
  O  O76  1  0.07578915  0.90875571  0.15762882  1
  O  O77  1  0.53518159  0.55196371  0.20504271  1
  O  O78  1  0.79345513  0.71456670  0.72439477  1
  O  O79  1  0.09736723  0.85563117  0.83104927  1
  O  O80  1  0.29696228  0.90187611  0.46663069  1
  O  O81  1  0.73702695  0.19761785  0.04594523  1
  O  O82  1  0.09840189  0.85961990  0.38529100  1
  O  O83  1  0.33729400  0.70588062  0.12830265  1
  O  O84  1  0.15826714  0.17506122  0.10298606  1
  O  O85  1  0.33549220  0.18266924  0.93794595  1
  O  O86  1  0.59994287  0.09668686  0.91378466  1
  O  O87  1  0.90469897  0.14430134  0.32908539  1
  O  O88  1  0.07700495  0.68268881  0.03166036  1
  O  O89  1  0.31596701  0.11738444  0.25291694  1
  O  O90  1  0.16316337  0.73576442  0.57030332  1
  O  O91  1  0.89763747  0.14288375  0.65821236  1
  O  O92  1  0.63669749  0.26498307  0.28920963  1
  O  O93  1  0.10633172  0.07233956  0.31522349  1
  O  O94  1  0.71012538  0.35590035  0.87585300  1
  O  O95  1  0.35447450  0.31158070  0.57503961  1
  O  O96  1  0.10208937  0.97925870  0.60267969  1
  O  O97  1  0.33123240  0.10645759  0.49314966  1
  O  O98  1  0.93328369  0.75313545  0.48048781  1
  O  O99  1  0.78366925  0.52483153  0.74013185  1
  O  O100  1  0.65117183  0.19872554  0.70498652  1
  O  O101  1  0.68483340  0.91348749  0.00787109  1
  O  O102  1  0.02058474  0.67762083  0.72544341  1
  O  O103  1  0.66106201  0.71681208  0.15291085  1
  O  O104  1  0.23097003  0.66877393  0.80683259  1
