# generated using pymatgen
data_Ta2O5
_symmetry_space_group_name_H-M   'P 1'
_cell_length_a   11.73994397
_cell_length_b   12.54122971
_cell_length_c   12.03552768
_cell_angle_alpha   89.75424292
_cell_angle_beta   90.10335138
_cell_angle_gamma   93.89425927
_symmetry_Int_Tables_number   1
_chemical_formula_structural   Ta2O5
_chemical_formula_sum   'Ta30 O75'
_cell_volume   1767.92111227
_cell_formula_units_Z   15
loop_
 _symmetry_equiv_pos_site_id
 _symmetry_equiv_pos_as_xyz
  1  'x, y, z'
loop_
 _atom_site_type_symbol
 _atom_site_label
 _atom_site_symmetry_multiplicity
 _atom_site_fract_x
 _atom_site_fract_y
 _atom_site_fract_z
 _atom_site_occupancy
  Ta  Ta0  1  0.41929169  0.66068503  0.30705424  1
  Ta  Ta1  1  0.04146057  0.49754417  0.77429137  1
  Ta  Ta2  1  0.48390829  0.70899813  0.61296824  1
  Ta  Ta3  1  0.11531857  0.33220717  0.24750595  1
  Ta  Ta4  1  0.03708894  0.88450593  0.32130520  1
  Ta  Ta5  1  0.28394703  0.75744558  0.85840231  1
  Ta  Ta6  1  0.78135770  0.90330152  0.14676336  1
  Ta  Ta7  1  0.20865793  0.61293096  0.52542037  1
  Ta  Ta8  1  0.98481547  0.69180470  0.08943590  1
  Ta  Ta9  1  0.35468754  0.96916693  0.29152737  1
  Ta  Ta10  1  0.76761255  0.52179879  0.91014560  1
  Ta  Ta11  1  0.68295710  0.53418673  0.67243197  1
  Ta  Ta12  1  0.13021614  0.31005219  0.99920745  1
  Ta  Ta13  1  0.13729722  0.99025666  0.78192839  1
  Ta  Ta14  1  0.43168243  0.30169669  0.93840622  1
  Ta  Ta15  1  0.37005114  0.81585569  0.08693720  1
  Ta  Ta16  1  0.35073879  0.51665477  0.74764129  1
  Ta  Ta17  1  0.34944622  0.24659290  0.41762770  1
  Ta  Ta18  1  0.52839674  0.39763150  0.22744378  1
  Ta  Ta19  1  0.90810159  0.09099443  0.93981428  1
  Ta  Ta20  1  0.91479143  0.63824249  0.48356438  1
  Ta  Ta21  1  0.69528741  0.66355077  0.15534206  1
  Ta  Ta22  1  0.84864438  0.45644955  0.25141445  1
  Ta  Ta23  1  0.96025386  0.75772974  0.78623444  1
  Ta  Ta24  1  0.72645866  0.83103755  0.60834111  1
  Ta  Ta25  1  0.72925394  0.29274288  0.50309761  1
  Ta  Ta26  1  0.70869614  0.26367802  0.06893354  1
  Ta  Ta27  1  0.93895499  0.13878442  0.43596641  1
  Ta  Ta28  1  0.65799126  0.03671818  0.38524275  1
  Ta  Ta29  1  0.31399948  0.22581764  0.66647349  1
  O  O30  1  0.57200286  0.24070181  0.97258037  1
  O  O31  1  0.63314505  0.17416421  0.45575939  1
  O  O32  1  0.26059230  0.91578913  0.81923992  1
  O  O33  1  0.97600586  0.64164342  0.69246592  1
  O  O34  1  0.83298912  0.76561390  0.52040270  1
  O  O35  1  0.33367506  0.11962389  0.33957817  1
  O  O36  1  0.43249609  0.80478574  0.94600922  1
  O  O37  1  0.27620766  0.61289343  0.37745062  1
  O  O38  1  0.30473487  0.60439009  0.86878235  1
  O  O39  1  0.93475551  0.74607464  0.94503291  1
  O  O40  1  0.99552682  0.22927996  0.94932658  1
  O  O41  1  0.65034309  0.68080720  0.60045177  1
  O  O42  1  0.67744632  0.60419517  0.00710495  1
  O  O43  1  0.68338320  0.43930267  0.79847621  1
  O  O44  1  0.18451653  0.54208860  0.68832078  1
  O  O45  1  0.76519409  0.62469462  0.78218192  1
  O  O46  1  0.00959416  0.76649636  0.41026251  1
  O  O47  1  0.96781387  0.40090422  0.69319493  1
  O  O48  1  0.05133555  0.56400349  0.49168237  1
  O  O49  1  0.81569931  0.83345707  0.73675515  1
  O  O50  1  0.42505648  0.19738425  0.56025070  1
  O  O51  1  0.50065293  0.99277077  0.37510134  1
  O  O52  1  0.12713797  0.40974764  0.87638098  1
  O  O53  1  0.65509673  0.80260985  0.09531323  1
  O  O54  1  0.91075336  0.94293067  0.24389482  1
  O  O55  1  0.44742515  0.51470018  0.28103792  1
  O  O56  1  0.81005342  0.54660363  0.57254831  1
  O  O57  1  0.92917833  0.52750144  0.89170846  1
  O  O58  1  0.09781478  0.61362937  0.06085663  1
  O  O59  1  0.19501996  0.11254815  0.69893481  1
  O  O60  1  0.77577302  0.37445603  0.38204255  1
  O  O61  1  0.25960260  0.33277976  0.31498491  1
  O  O62  1  0.12337282  0.73496047  0.82496249  1
  O  O63  1  0.00256652  0.43740490  0.28486959  1
  O  O64  1  0.05558085  0.79706265  0.18905675  1
  O  O65  1  0.14725057  0.41594318  0.11257079  1
  O  O66  1  0.03593156  0.23548992  0.36204991  1
  O  O67  1  0.19397061  0.94225326  0.31813381  1
  O  O68  1  0.00217564  0.00528232  0.43881975  1
  O  O69  1  0.78577499  0.14243643  0.03862721  1
  O  O70  1  0.65420352  0.38694416  0.59312688  1
  O  O71  1  0.43402447  0.43200001  0.86510189  1
  O  O72  1  0.81283964  0.12041998  0.34688787  1
  O  O73  1  0.23004148  0.79646646  0.02007658  1
  O  O74  1  0.37571189  0.81978809  0.28481829  1
  O  O75  1  0.66829892  0.49147402  0.21008939  1
  O  O76  1  0.48539427  0.32691193  0.36867434  1
  O  O77  1  0.37795055  0.97190677  0.13728057  1
  O  O78  1  0.44880162  0.37129875  0.09459217  1
  O  O79  1  0.06136660  0.02714806  0.90972860  1
  O  O80  1  0.38794118  0.67717432  0.14653597  1
  O  O81  1  0.30971787  0.37471934  0.69828504  1
  O  O82  1  0.27431734  0.25473491  0.97929841  1
  O  O83  1  0.75222851  0.38871458  0.98721719  1
  O  O84  1  0.09912009  0.22077243  0.14520212  1
  O  O85  1  0.85083416  0.95205710  0.01543704  1
  O  O86  1  0.84933430  0.58851512  0.35312095  1
  O  O87  1  0.58953700  0.68347969  0.26939451  1
  O  O88  1  0.71899552  0.95310222  0.49670938  1
  O  O89  1  0.61542231  0.26683683  0.19740717  1
  O  O90  1  0.84710879  0.08989362  0.80719925  1
  O  O91  1  0.83413214  0.33175806  0.16698180  1
  O  O92  1  0.40152162  0.21669970  0.80332225  1
  O  O93  1  0.56516813  0.84873054  0.63765413  1
  O  O94  1  0.82981450  0.75783653  0.18845184  1
  O  O95  1  0.85991218  0.21895068  0.55064574  1
  O  O96  1  0.03227685  0.88911050  0.71681221  1
  O  O97  1  0.37347029  0.75040278  0.72301130  1
  O  O98  1  0.20745963  0.74986283  0.55229372  1
  O  O99  1  0.23173996  0.26391266  0.52618109  1
  O  O100  1  0.86480348  0.57269398  0.13268351  1
  O  O101  1  0.51639098  0.57221112  0.71148148  1
  O  O102  1  0.46918370  0.71687678  0.45782267  1
  O  O103  1  0.68160487  0.98350187  0.23670130  1
  O  O104  1  0.36189180  0.57594734  0.58863424  1
