# generated using pymatgen
data_GaN
_symmetry_space_group_name_H-M   'P 1'
_cell_length_a   11.80235746
_cell_length_b   11.82093109
_cell_length_c   11.66602998
_cell_angle_alpha   87.65532989
_cell_angle_beta   89.10200964
_cell_angle_gamma   90.45829743
_symmetry_Int_Tables_number   1
_chemical_formula_structural   GaN
_chemical_formula_sum   'Ga50 N50'
_cell_volume   1625.96132936
_cell_formula_units_Z   50
loop_
 _symmetry_equiv_pos_site_id
 _symmetry_equiv_pos_as_xyz
  1  'x, y, z'
loop_
 _atom_site_type_symbol
 _atom_site_label
 _atom_site_symmetry_multiplicity
 _atom_site_fract_x
 _atom_site_fract_y
 _atom_site_fract_z
 _atom_site_occupancy
  Ga  Ga0  1  0.25655370  0.48629195  0.36792688  1
  Ga  Ga1  1  0.07571485  0.39093183  0.45922204  1
  Ga  Ga2  1  0.81638520  0.90955511  0.03847711  1
  Ga  Ga3  1  0.14656799  0.68831295  0.76847975  1
  Ga  Ga4  1  0.20494395  0.29549038  0.18646747  1
  Ga  Ga5  1  0.39914859  0.02715817  0.72092731  1
  Ga  Ga6  1  0.55796536  0.82958419  0.74128478  1
  Ga  Ga7  1  0.91643831  0.24336241  0.41238092  1
  Ga  Ga8  1  0.44172622  0.20484960  0.52690827  1
  Ga  Ga9  1  0.57518343  0.06996362  0.11932495  1
  Ga  Ga10  1  0.15544165  0.70944440  0.36695849  1
  Ga  Ga11  1  0.15755503  0.91156689  0.21886545  1
  Ga  Ga12  1  0.46999453  0.37161775  0.31457030  1
  Ga  Ga13  1  0.73887332  0.44362843  0.32211805  1
  Ga  Ga14  1  0.01738322  0.32366326  0.70970866  1
  Ga  Ga15  1  0.68078764  0.04288886  0.86007661  1
  Ga  Ga16  1  0.19810690  0.16202898  0.58275238  1
  Ga  Ga17  1  0.32353085  0.43209573  0.84020778  1
  Ga  Ga18  1  0.97404164  0.58626330  0.65370891  1
  Ga  Ga19  1  0.37974575  0.52959044  0.11850424  1
  Ga  Ga20  1  0.65296777  0.19038269  0.35584418  1
  Ga  Ga21  1  0.30182779  0.39063976  0.59544217  1
  Ga  Ga22  1  0.87519990  0.57926802  0.40961080  1
  Ga  Ga23  1  0.86594362  0.15421510  0.89515748  1
  Ga  Ga24  1  0.58430737  0.62762500  0.38994154  1
  Ga  Ga25  1  0.98119480  0.71993515  0.92626850  1
  Ga  Ga26  1  0.83745416  0.57186638  0.09759426  1
  Ga  Ga27  1  0.35813456  0.73554731  0.14550802  1
  Ga  Ga28  1  0.57065001  0.82749914  0.97405887  1
  Ga  Ga29  1  0.83118579  0.06745920  0.19699509  1
  Ga  Ga30  1  0.85546796  0.44825398  0.88860151  1
  Ga  Ga31  1  0.90680243  0.12081421  0.60866448  1
  Ga  Ga32  1  0.20815849  0.91993729  0.55189576  1
  Ga  Ga33  1  0.71439694  0.63133490  0.58835726  1
  Ga  Ga34  1  0.96064830  0.85106119  0.30781591  1
  Ga  Ga35  1  0.11356829  0.49310800  0.87812493  1
  Ga  Ga36  1  0.68752842  0.28310909  0.78807180  1
  Ga  Ga37  1  0.76436039  0.88306608  0.58814527  1
  Ga  Ga38  1  0.72697078  0.71184941  0.86103444  1
  Ga  Ga39  1  0.74544491  0.76075803  0.28986960  1
  Ga  Ga40  1  0.78755807  0.38077859  0.57200907  1
  Ga  Ga41  1  0.93643448  0.32768548  0.21182372  1
  Ga  Ga42  1  0.06288044  0.09072961  0.09533020  1
  Ga  Ga43  1  0.66319320  0.98077083  0.42258160  1
  Ga  Ga44  1  0.59374760  0.46233982  0.96604675  1
  Ga  Ga45  1  0.34722348  0.78121848  0.71325536  1
  Ga  Ga46  1  0.39830104  0.66922498  0.89464360  1
  Ga  Ga47  1  0.37819272  0.72487115  0.41151996  1
  Ga  Ga48  1  0.62702346  0.10922675  0.63372824  1
  Ga  Ga49  1  0.71365032  0.30968378  0.07788832  1
  N  N50  1  0.53659741  0.55028459  0.66040887  1
  N  N51  1  0.28634567  0.95418437  0.92138864  1
  N  N52  1  0.54506790  0.93188710  0.25750065  1
  N  N53  1  0.77335809  0.03288654  0.64363509  1
  N  N54  1  0.87314356  0.73851577  0.39301936  1
  N  N55  1  0.70259075  0.76113612  0.68832904  1
  N  N56  1  0.94627853  0.18642381  0.74950179  1
  N  N57  1  0.26725308  0.79882406  0.25750785  1
  N  N58  1  0.21895025  0.13683695  0.35387759  1
  N  N59  1  0.39083602  0.24720884  0.96030235  1
  N  N60  1  0.69946678  0.16832539  0.18511651  1
  N  N61  1  0.72609136  0.54884308  0.89825300  1
  N  N62  1  0.33536631  0.65000214  0.59549395  1
  N  N63  1  0.96097425  0.49136880  0.52065534  1
  N  N64  1  0.19870646  0.16854775  0.82408240  1
  N  N65  1  0.97850643  0.00110236  0.50644422  1
  N  N66  1  0.91703049  0.09260409  0.33922039  1
  N  N67  1  0.39527128  0.98524292  0.50111948  1
  N  N68  1  0.58073363  0.48383224  0.32584445  1
  N  N69  1  0.84497559  0.79638251  0.93272807  1
  N  N70  1  0.08040578  0.63072674  0.16102305  1
  N  N71  1  0.13894930  0.56392079  0.12682713  1
  N  N72  1  0.19796281  0.93860298  0.95765572  1
  N  N73  1  0.42028717  0.78607878  0.00455192  1
  N  N74  1  0.57789809  0.58136262  0.12155744  1
  N  N75  1  0.42696986  0.50894929  0.95239678  1
  N  N76  1  0.98014425  0.46302335  0.77703520  1
  N  N77  1  0.65593344  0.96027143  0.01064732  1
  N  N78  1  0.64154532  0.65732307  0.11337842  1
  N  N79  1  0.02048791  0.41079203  0.99809351  1
  N  N80  1  0.45808146  0.91812725  0.46776235  1
  N  N81  1  0.14569311  0.32019844  0.60563156  1
  N  N82  1  0.21314298  0.04212673  0.33776907  1
  N  N83  1  0.27171766  0.57219679  0.61444245  1
  N  N84  1  0.49491536  0.22578357  0.37168826  1
  N  N85  1  0.82420441  0.89606030  0.20798107  1
  N  N86  1  0.46516816  0.18835439  0.94924722  1
  N  N87  1  0.04429650  0.34262514  0.07721883  1
  N  N88  1  0.05104503  0.96717816  0.76698273  1
  N  N89  1  0.80360246  0.41597827  0.16658960  1
  N  N90  1  0.75824090  0.30396896  0.42069921  1
  N  N91  1  0.51189629  0.45749430  0.67523405  1
  N  N92  1  0.51428039  0.83999243  0.24574467  1
  N  N93  1  0.16128453  0.20634193  0.90367568  1
  N  N94  1  0.95297848  0.00296788  0.40174617  1
  N  N95  1  0.91028176  0.06045514  0.03625246  1
  N  N96  1  0.56081294  0.99458781  0.75675716  1
  N  N97  1  0.98711219  0.90040155  0.74474774  1
  N  N98  1  0.33370330  0.40957853  0.22858028  1
  N  N99  1  0.79518075  0.29874427  0.92688684  1
