# generated using pymatgen
data_ZrO2
_symmetry_space_group_name_H-M   'P 1'
_cell_length_a   10.43735438
_cell_length_b   9.98600192
_cell_length_c   11.27159837
_cell_angle_alpha   91.07085305
_cell_angle_beta   95.43611825
_cell_angle_gamma   93.91097622
_symmetry_Int_Tables_number   1
_chemical_formula_structural   ZrO2
_chemical_formula_sum   'Zr30 O60'
_cell_volume   1166.42835247
_cell_formula_units_Z   30
loop_
 _symmetry_equiv_pos_site_id
 _symmetry_equiv_pos_as_xyz
  1  'x, y, z'
loop_
 _atom_site_type_symbol
 _atom_site_label
 _atom_site_symmetry_multiplicity
 _atom_site_fract_x
 _atom_site_fract_y
 _atom_site_fract_z
 _atom_site_occupancy
  Zr  Zr0  1  0.20248100  0.85593000  0.56625000  1
  Zr  Zr1  1  0.37784900  0.20509200  0.61969700  1
  Zr  Zr2  1  0.08334600  0.78923300  0.28848600  1
  Zr  Zr3  1  0.57491200  0.72424000  0.69239300  1
  Zr  Zr4  1  0.53161800  0.96292400  0.47683800  1
  Zr  Zr5  1  0.03737300  0.37528000  0.92145500  1
  Zr  Zr6  1  0.41129700  0.91745200  0.13575200  1
  Zr  Zr7  1  0.80569200  0.00151300  0.60568100  1
  Zr  Zr8  1  0.80483300  0.21462200  0.07219800  1
  Zr  Zr9  1  0.95938500  0.38073800  0.62186200  1
  Zr  Zr10  1  0.10539500  0.08413100  0.74872900  1
  Zr  Zr11  1  0.28944700  0.51621500  0.10627100  1
  Zr  Zr12  1  0.72550900  0.90734000  0.24925400  1
  Zr  Zr13  1  0.08023900  0.15585000  0.41790600  1
  Zr  Zr14  1  0.62523800  0.02597400  0.85990500  1
  Zr  Zr15  1  0.75707300  0.25918400  0.38490900  1
  Zr  Zr16  1  0.55177000  0.67449800  0.98560200  1
  Zr  Zr17  1  0.41048500  0.29407600  0.91632100  1
  Zr  Zr18  1  0.11353100  0.49743500  0.40599400  1
  Zr  Zr19  1  0.60975300  0.40518800  0.70334000  1
  Zr  Zr20  1  0.95600300  0.70899100  0.71141400  1
  Zr  Zr21  1  0.90221000  0.55570500  0.11058300  1
  Zr  Zr22  1  0.26918800  0.86813900  0.87861800  1
  Zr  Zr23  1  0.25327800  0.54708500  0.75339900  1
  Zr  Zr24  1  0.73611700  0.66162800  0.47112900  1
  Zr  Zr25  1  0.91875300  0.87409300  0.96758600  1
  Zr  Zr26  1  0.18139100  0.12629600  0.09626400  1
  Zr  Zr27  1  0.41640100  0.70089600  0.33345900  1
  Zr  Zr28  1  0.38977000  0.27036100  0.31364100  1
  Zr  Zr29  1  0.62447800  0.48366000  0.22447100  1
  O  O30  1  0.47703300  0.45151900  0.04362900  1
  O  O31  1  0.70945600  0.60384000  0.08445000  1
  O  O32  1  0.87045100  0.71493200  0.86476600  1
  O  O33  1  0.27831300  0.98450700  0.71965700  1
  O  O34  1  0.54869300  0.72898000  0.49209300  1
  O  O35  1  0.71975900  0.46433800  0.39987200  1
  O  O36  1  0.77860600  0.11900900  0.24743200  1
  O  O37  1  0.24857400  0.16359000  0.90854700  1
  O  O38  1  0.00556300  0.19714900  0.01679100  1
  O  O39  1  0.37094200  0.10583300  0.19050300  1
  O  O40  1  0.43967100  0.48471500  0.28959700  1
  O  O41  1  0.61614700  0.81499900  0.86326000  1
  O  O42  1  0.85878600  0.39799300  0.97653800  1
  O  O43  1  0.11534800  0.95449500  0.42637300  1
  O  O44  1  0.06628900  0.93572500  0.87284200  1
  O  O45  1  0.27065600  0.31665600  0.14829200  1
  O  O46  1  0.24436300  0.42981400  0.92046000  1
  O  O47  1  0.79928000  0.04147600  0.78405400  1
  O  O48  1  0.78196000  0.34232200  0.67043000  1
  O  O49  1  0.58263600  0.55693400  0.82933100  1
  O  O50  1  0.12376400  0.69994100  0.45990300  1
  O  O51  1  0.08735500  0.51245600  0.06460900  1
  O  O52  1  0.90224800  0.85799000  0.27536300  1
  O  O53  1  0.22470500  0.92806000  0.04751200  1
  O  O54  1  0.91990800  0.15129100  0.52624100  1
  O  O55  1  0.00581500  0.92733800  0.64214800  1
  O  O56  1  0.62648300  0.20128900  0.98049100  1
  O  O57  1  0.43885500  0.96442200  0.94318800  1
  O  O58  1  0.51354200  0.18740600  0.77042200  1
  O  O59  1  0.42164100  0.68756900  0.14057300  1
  O  O60  1  0.33696200  0.68271000  0.91723700  1
  O  O61  1  0.23007600  0.58446900  0.28184800  1
  O  O62  1  0.58191400  0.94415600  0.65995200  1
  O  O63  1  0.64640300  0.67976700  0.29650400  1
  O  O64  1  0.15659100  0.46984600  0.59209300  1
  O  O65  1  0.02690300  0.51569300  0.77984800  1
  O  O66  1  0.48799000  0.35055300  0.55556800  1
  O  O67  1  0.60108000  0.85565200  0.09731400  1
  O  O68  1  0.21684400  0.31726600  0.39163100  1
  O  O69  1  0.08555800  0.11035100  0.23989500  1
  O  O70  1  0.99130000  0.75662100  0.09595800  1
  O  O71  1  0.38578500  0.66894200  0.67885900  1
  O  O72  1  0.27488200  0.83312900  0.25354000  1
  O  O73  1  0.37546000  0.37641200  0.75164400  1
  O  O74  1  0.57877000  0.27759100  0.28362400  1
  O  O75  1  0.17951500  0.17331300  0.59518200  1
  O  O76  1  0.73365000  0.89860900  0.43993200  1
  O  O77  1  0.79166500  0.00647300  0.01871600  1
  O  O78  1  0.35813500  0.84740000  0.48077200  1
  O  O79  1  0.96416000  0.34923300  0.42097400  1
  O  O80  1  0.91151300  0.58019000  0.56648400  1
  O  O81  1  0.52044900  0.90424500  0.30035700  1
  O  O82  1  0.15918900  0.73826000  0.72748900  1
  O  O83  1  0.66841900  0.13241800  0.49979700  1
  O  O84  1  0.78574500  0.78975400  0.63607900  1
  O  O85  1  0.02348400  0.25757800  0.76277500  1
  O  O86  1  0.97409700  0.58932700  0.28381400  1
  O  O87  1  0.66015800  0.56646400  0.61621900  1
  O  O88  1  0.79512100  0.37918200  0.19248700  1
  O  O89  1  0.39835300  0.11871000  0.45428400  1
