# generated using pymatgen
data_TiO2
_symmetry_space_group_name_H-M   'P 1'
_cell_length_a   10.26961661
_cell_length_b   10.58039382
_cell_length_c   10.56895445
_cell_angle_alpha   90.47826511
_cell_angle_beta   89.63334857
_cell_angle_gamma   88.99971131
_symmetry_Int_Tables_number   1
_chemical_formula_structural   TiO2
_chemical_formula_sum   'Ti30 O60'
_cell_volume   1148.14692130
_cell_formula_units_Z   30
loop_
 _symmetry_equiv_pos_site_id
 _symmetry_equiv_pos_as_xyz
  1  'x, y, z'
loop_
 _atom_site_type_symbol
 _atom_site_label
 _atom_site_symmetry_multiplicity
 _atom_site_fract_x
 _atom_site_fract_y
 _atom_site_fract_z
 _atom_site_occupancy
  Ti  Ti0  1  0.20267200  0.34491800  0.36639600  1
  Ti  Ti1  1  0.82301600  0.07104500  0.55917900  1
  Ti  Ti2  1  0.52972500  0.77640800  0.41836200  1
  Ti  Ti3  1  0.75683100  0.68276100  0.17853700  1
  Ti  Ti4  1  0.34681900  0.37366900  0.10638800  1
  Ti  Ti5  1  0.44647900  0.01863200  0.21096200  1
  Ti  Ti6  1  0.02760700  0.59142700  0.40264400  1
  Ti  Ti7  1  0.69338800  0.52221100  0.89652600  1
  Ti  Ti8  1  0.77376400  0.58133500  0.57661600  1
  Ti  Ti9  1  0.64104200  0.34987500  0.65132400  1
  Ti  Ti10  1  0.22912400  0.08703500  0.93844200  1
  Ti  Ti11  1  0.96283400  0.31773300  0.57665100  1
  Ti  Ti12  1  0.14698500  0.42420800  0.83648500  1
  Ti  Ti13  1  0.30185000  0.87122200  0.67534100  1
  Ti  Ti14  1  0.93440900  0.25700600  0.02283500  1
  Ti  Ti15  1  0.43227500  0.71398800  0.03179100  1
  Ti  Ti16  1  0.82198400  0.32675500  0.32843000  1
  Ti  Ti17  1  0.29669300  0.25892700  0.65757900  1
  Ti  Ti18  1  0.54515100  0.08903400  0.70095900  1
  Ti  Ti19  1  0.51694700  0.49117800  0.35076300  1
  Ti  Ti20  1  0.67895800  0.94620500  0.03722200  1
  Ti  Ti21  1  0.01224500  0.85025500  0.54714000  1
  Ti  Ti22  1  0.89258800  0.98222300  0.84990700  1
  Ti  Ti23  1  0.31121000  0.03523100  0.45336600  1
  Ti  Ti24  1  0.13043100  0.76132900  0.87815800  1
  Ti  Ti25  1  0.63584100  0.21684600  0.99100000  1
  Ti  Ti26  1  0.19403800  0.79806800  0.23675100  1
  Ti  Ti27  1  0.31642500  0.55550500  0.57189300  1
  Ti  Ti28  1  0.99615100  0.58113200  0.07248600  1
  Ti  Ti29  1  0.65657900  0.82139600  0.71068500  1
  O  O30  1  0.23472000  0.94255600  0.83859300  1
  O  O31  1  0.09828600  0.75979900  0.38017600  1
  O  O32  1  0.52644900  0.86182200  0.03054200  1
  O  O33  1  0.79031000  0.21668400  0.45696100  1
  O  O34  1  0.30537000  0.71879000  0.91965700  1
  O  O35  1  0.48380400  0.25644600  0.63386200  1
  O  O36  1  0.61042100  0.08896600  0.12446100  1
  O  O37  1  0.25084400  0.43723600  0.97911400  1
  O  O38  1  0.81982600  0.60700600  0.02263600  1
  O  O39  1  0.43976800  0.11201100  0.35283300  1
  O  O40  1  0.49909100  0.87283000  0.75147600  1
  O  O41  1  0.31390500  0.44065400  0.70741400  1
  O  O42  1  0.58825700  0.42669900  0.79517500  1
  O  O43  1  0.03058100  0.29671800  0.40897700  1
  O  O44  1  0.62962400  0.64376800  0.29618200  1
  O  O45  1  0.06862100  0.13352500  0.00617800  1
  O  O46  1  0.82440900  0.42209100  0.66249200  1
  O  O47  1  0.99680700  0.87854200  0.92900500  1
  O  O48  1  0.91336900  0.95935200  0.45144500  1
  O  O49  1  0.73745700  0.89076300  0.86838800  1
  O  O50  1  0.36283200  0.41453400  0.44236600  1
  O  O51  1  0.24197000  0.19926100  0.49461200  1
  O  O52  1  0.17486300  0.93654200  0.54916000  1
  O  O53  1  0.10284900  0.73663800  0.10081300  1
  O  O54  1  0.70675400  0.18746500  0.68701700  1
  O  O55  1  0.06488900  0.58978600  0.89236100  1
  O  O56  1  0.53912000  0.88831300  0.28527900  1
  O  O57  1  0.11273200  0.34621800  0.65898000  1
  O  O58  1  0.25277500  0.27532200  0.21871300  1
  O  O59  1  0.56750300  0.59715600  0.99233100  1
  O  O60  1  0.99760900  0.41859200  0.09928300  1
  O  O61  1  0.81019000  0.10568600  0.96327400  1
  O  O62  1  0.00869900  0.33536500  0.87633500  1
  O  O63  1  0.34586700  0.70352700  0.65735700  1
  O  O64  1  0.11570300  0.77792000  0.71028200  1
  O  O65  1  0.91544400  0.69297800  0.53932800  1
  O  O66  1  0.75336100  0.35342900  0.96894300  1
  O  O67  1  0.86219900  0.23896300  0.18600300  1
  O  O68  1  0.25691600  0.22205900  0.82615400  1
  O  O69  1  0.77436600  0.85116200  0.14448300  1
  O  O70  1  0.65683700  0.38553800  0.29727700  1
  O  O71  1  0.36484900  0.06300700  0.64729800  1
  O  O72  1  0.91091500  0.63645300  0.24331800  1
  O  O73  1  0.62131700  0.48456000  0.53003400  1
  O  O74  1  0.87811400  0.47919100  0.43769500  1
  O  O75  1  0.55725800  0.11278800  0.87089400  1
  O  O76  1  0.90307200  0.92998400  0.68305100  1
  O  O77  1  0.33988500  0.06225100  0.06635300  1
  O  O78  1  0.72771700  0.64189200  0.75504200  1
  O  O79  1  0.42495500  0.49129800  0.20244800  1
  O  O80  1  0.41402100  0.88614300  0.50430100  1
  O  O81  1  0.65584600  0.73742300  0.54583100  1
  O  O82  1  0.14547400  0.56003900  0.53609400  1
  O  O83  1  0.34915300  0.72846700  0.18523100  1
  O  O84  1  0.49061900  0.30002300  0.03796100  1
  O  O85  1  0.66548300  0.97693300  0.61011800  1
  O  O86  1  0.95252400  0.15841800  0.64202000  1
  O  O87  1  0.26410300  0.95545100  0.28847900  1
  O  O88  1  0.42322600  0.63827800  0.43113500  1
  O  O89  1  0.13858000  0.50217800  0.29860500  1
