# generated using pymatgen
data_V2O5
_symmetry_space_group_name_H-M   'P 1'
_cell_length_a   12.60038751
_cell_length_b   12.01053116
_cell_length_c   12.34063228
_cell_angle_alpha   90.35010189
_cell_angle_beta   93.83792858
_cell_angle_gamma   94.35493002
_symmetry_Int_Tables_number   1
_chemical_formula_structural   V2O5
_chemical_formula_sum   'V30 O75'
_cell_volume   1857.91258039
_cell_formula_units_Z   15
loop_
 _symmetry_equiv_pos_site_id
 _symmetry_equiv_pos_as_xyz
  1  'x, y, z'
loop_
 _atom_site_type_symbol
 _atom_site_label
 _atom_site_symmetry_multiplicity
 _atom_site_fract_x
 _atom_site_fract_y
 _atom_site_fract_z
 _atom_site_occupancy
  V  V0  1  0.00690430  0.41148661  0.01529996  1
  V  V1  1  0.86609207  0.92669281  0.96571958  1
  V  V2  1  0.20615040  0.80857147  0.63498215  1
  V  V3  1  0.49974186  0.50137519  0.85944893  1
  V  V4  1  0.83021465  0.27805656  0.39965344  1
  V  V5  1  0.35530614  0.04020179  0.68458662  1
  V  V6  1  0.27995319  0.30424597  0.77953627  1
  V  V7  1  0.58409923  0.61013173  0.62729716  1
  V  V8  1  0.64033684  0.85000173  0.09349021  1
  V  V9  1  0.41344640  0.88257579  0.91973369  1
  V  V10  1  0.55891091  0.93532614  0.34838693  1
  V  V11  1  0.24167095  0.61104273  0.51312962  1
  V  V12  1  0.96749620  0.69282977  0.54877490  1
  V  V13  1  0.92252480  0.94217028  0.69527220  1
  V  V14  1  0.19959089  0.35637137  0.43686526  1
  V  V15  1  0.06785179  0.17867455  0.34601482  1
  V  V16  1  0.90757110  0.32421754  0.79037329  1
  V  V17  1  0.94146499  0.77715286  0.32871712  1
  V  V18  1  0.01019284  0.70474737  0.06564357  1
  V  V19  1  0.49671723  0.18309106  0.06526181  1
  V  V20  1  0.93386628  0.19776198  0.09294472  1
  V  V21  1  0.72729075  0.07641501  0.55490993  1
  V  V22  1  0.47338016  0.50139978  0.15222450  1
  V  V23  1  0.26534750  0.31661745  0.03986051  1
  V  V24  1  0.69808672  0.36374294  0.60066712  1
  V  V25  1  0.39142668  0.71319681  0.30301233  1
  V  V26  1  0.47280143  0.42411241  0.43890145  1
  V  V27  1  0.23536032  0.72878387  0.89579695  1
  V  V28  1  0.69374852  0.32106445  0.92680475  1
  V  V29  1  0.74839141  0.42590031  0.17434058  1
  O  O30  1  0.49570539  0.55166523  0.51572475  1
  O  O31  1  0.61532560  0.21736411  0.98300099  1
  O  O32  1  0.22404750  0.21853468  0.11771452  1
  O  O33  1  0.30972778  0.75227062  0.57119916  1
  O  O34  1  0.98197026  0.23547115  0.74125240  1
  O  O35  1  0.45650696  0.64364454  0.19898884  1
  O  O36  1  0.13993513  0.41274066  0.04505747  1
  O  O37  1  0.38944934  0.41434595  0.81039712  1
  O  O38  1  0.74191395  0.22701761  0.51114026  1
  O  O39  1  0.34563235  0.35354644  0.46776299  1
  O  O40  1  0.43511122  0.05290294  0.58762677  1
  O  O41  1  0.15310097  0.49059304  0.44440934  1
  O  O42  1  0.97432635  0.43954385  0.86572447  1
  O  O43  1  0.63147871  0.73534665  0.60172652  1
  O  O44  1  0.41565920  0.96108541  0.79048198  1
  O  O45  1  0.16673867  0.76734115  0.77140645  1
  O  O46  1  0.78180447  0.26003497  0.84777168  1
  O  O47  1  0.34820811  0.43337876  0.11737853  1
  O  O48  1  0.29599979  0.53716594  0.60720382  1
  O  O49  1  0.85390989  0.02835521  0.59786081  1
  O  O50  1  0.53024147  0.22888657  0.18750643  1
  O  O51  1  0.21217264  0.28322120  0.89987940  1
  O  O52  1  0.32860448  0.17870388  0.73198010  1
  O  O53  1  0.49313173  0.80267505  0.37915593  1
  O  O54  1  0.39650756  0.26341534  0.00699001  1
  O  O55  1  0.73948677  0.93193666  0.01804910  1
  O  O56  1  0.11359645  0.25803191  0.49022780  1
  O  O57  1  0.65778120  0.07131070  0.65942305  1
  O  O58  1  0.32216012  0.62235729  0.39491329  1
  O  O59  1  0.52350082  0.83120710  0.00379513  1
  O  O60  1  0.97292975  0.26196077  0.96328312  1
  O  O61  1  0.11901598  0.68822425  0.55663638  1
  O  O62  1  0.23414038  0.59399668  0.90540704  1
  O  O63  1  0.94282885  0.03717993  0.01633076  1
  O  O64  1  0.53070925  0.60655303  0.76337796  1
  O  O65  1  0.89107639  0.66674639  0.42311028  1
  O  O66  1  0.84725644  0.85852429  0.29186743  1
  O  O67  1  0.97592736  0.56258690  0.04285191  1
  O  O68  1  0.93446684  0.58539059  0.62000771  1
  O  O69  1  0.12347848  0.06562762  0.37383677  1
  O  O70  1  0.93560733  0.80970019  0.63466557  1
  O  O71  1  0.62146522  0.29962405  0.68291849  1
  O  O72  1  0.01262311  0.73374200  0.20353103  1
  O  O73  1  0.61450670  0.45758664  0.15721798  1
  O  O74  1  0.23553119  0.95839941  0.63510379  1
  O  O75  1  0.29722495  0.86687028  0.98319832  1
  O  O76  1  0.61150814  0.41931070  0.86021879  1
  O  O77  1  0.89035655  0.39251368  0.44870838  1
  O  O78  1  0.45400840  0.03805470  0.08885414  1
  O  O79  1  0.59126376  0.36596964  0.47504938  1
  O  O80  1  0.68474380  0.51647417  0.62057082  1
  O  O81  1  0.82842109  0.37102179  0.67135005  1
  O  O82  1  0.30698112  0.78973315  0.24130865  1
  O  O83  1  0.68271488  0.72785535  0.11388077  1
  O  O84  1  0.92387803  0.17970552  0.38485994  1
  O  O85  1  0.37154570  0.75385403  0.84603479  1
  O  O86  1  0.81765875  0.53742731  0.21738557  1
  O  O87  1  0.12675902  0.73972406  0.00799065  1
  O  O88  1  0.94484039  0.35298126  0.13407455  1
  O  O89  1  0.01907852  0.15578657  0.20463070  1
  O  O90  1  0.02565787  0.84087960  0.42427210  1
  O  O91  1  0.61336295  0.91531781  0.21869188  1
  O  O92  1  0.48921793  0.54357540  0.98865200  1
  O  O93  1  0.80775694  0.16695251  0.10665414  1
  O  O94  1  0.16875873  0.30180500  0.30759354  1
  O  O95  1  0.47090830  0.45170931  0.30517900  1
  O  O96  1  0.45407711  0.03582699  0.96994404  1
  O  O97  1  0.66222043  0.98998016  0.44943024  1
  O  O98  1  0.91533128  0.79586711  0.00104941  1
  O  O99  1  0.75952191  0.31620155  0.27497494  1
  O  O100  1  0.47032588  0.02468921  0.33308583  1
  O  O101  1  0.85321339  0.93056784  0.82107646  1
  O  O102  1  0.76842212  0.40279236  0.02396238  1
  O  O103  1  0.04046755  0.99941114  0.72600096  1
  O  O104  1  0.19675487  0.35014113  0.68849491  1
