# generated using pymatgen
data_Cr2O3
_symmetry_space_group_name_H-M   'P 1'
_cell_length_a   10.06031341
_cell_length_b   10.34307846
_cell_length_c   10.12936541
_cell_angle_alpha   98.43008569
_cell_angle_beta   94.56468063
_cell_angle_gamma   85.84753198
_symmetry_Int_Tables_number   1
_chemical_formula_structural   Cr2O3
_chemical_formula_sum   'Cr32 O48'
_cell_volume   1037.33819543
_cell_formula_units_Z   16
loop_
 _symmetry_equiv_pos_site_id
 _symmetry_equiv_pos_as_xyz
  1  'x, y, z'
loop_
 _atom_site_type_symbol
 _atom_site_label
 _atom_site_symmetry_multiplicity
 _atom_site_fract_x
 _atom_site_fract_y
 _atom_site_fract_z
 _atom_site_occupancy
  Cr  Cr0  1  0.21466100  0.55530400  0.09805600  1
  Cr  Cr1  1  0.68375100  0.91730600  0.64548100  1
  Cr  Cr2  1  0.28950200  0.44472400  0.80140700  1
  Cr  Cr3  1  0.80028200  0.15660200  0.74734900  1
  Cr  Cr4  1  0.74263400  0.31618500  0.40064500  1
  Cr  Cr5  1  0.83447000  0.60524700  0.86313400  1
  Cr  Cr6  1  0.12108500  0.82215600  0.12528100  1
  Cr  Cr7  1  0.84297300  0.57613400  0.51776300  1
  Cr  Cr8  1  0.28118100  0.87752000  0.87216300  1
  Cr  Cr9  1  0.68871700  0.79328500  0.36575700  1
  Cr  Cr10  1  0.03454500  0.72505100  0.38463600  1
  Cr  Cr11  1  0.06813600  0.63664900  0.72130400  1
  Cr  Cr12  1  0.49207600  0.07505300  0.40030100  1
  Cr  Cr13  1  0.56662100  0.90473500  0.88650800  1
  Cr  Cr14  1  0.76143300  0.33770000  0.02965700  1
  Cr  Cr15  1  0.43309100  0.12137300  0.74234300  1
  Cr  Cr16  1  0.30638500  0.52881400  0.54467900  1
  Cr  Cr17  1  0.39118600  0.31356800  0.29675700  1
  Cr  Cr18  1  0.29654900  0.31395500  0.00406800  1
  Cr  Cr19  1  0.32155000  0.80584700  0.58280500  1
  Cr  Cr20  1  0.62212600  0.40202700  0.69748300  1
  Cr  Cr21  1  0.04641600  0.02358700  0.61999900  1
  Cr  Cr22  1  0.59513500  0.66599300  0.64404900  1
  Cr  Cr23  1  0.64599600  0.10936500  0.17197500  1
  Cr  Cr24  1  0.34407100  0.07091200  0.11059700  1
  Cr  Cr25  1  0.00301800  0.33806000  0.60209400  1
  Cr  Cr26  1  0.17247500  0.04471500  0.40418700  1
  Cr  Cr27  1  0.85132900  0.86050000  0.97505300  1
  Cr  Cr28  1  0.38563900  0.66545500  0.32493500  1
  Cr  Cr29  1  0.85615600  0.58818700  0.14310700  1
  Cr  Cr30  1  0.55992300  0.53940800  0.96984900  1
  Cr  Cr31  1  0.05143100  0.14929700  0.90684000  1
  O  O32  1  0.22246500  0.69378600  0.43754700  1
  O  O33  1  0.67964900  0.50244200  0.12262400  1
  O  O34  1  0.61856400  0.35885200  0.88872900  1
  O  O35  1  0.91308500  0.51847500  0.69568700  1
  O  O36  1  0.43385000  0.23811000  0.11950600  1
  O  O37  1  0.43964800  0.14454300  0.57002000  1
  O  O38  1  0.74730000  0.26671100  0.62340100  1
  O  O39  1  0.18816000  0.17956200  0.04217500  1
  O  O40  1  0.64544000  0.57221500  0.80718600  1
  O  O41  1  0.04739300  0.65122600  0.18122300  1
  O  O42  1  0.16083400  0.45776600  0.63857300  1
  O  O43  1  0.99289200  0.68878600  0.55779000  1
  O  O44  1  0.15037100  0.43998200  0.93658900  1
  O  O45  1  0.24434500  0.72516900  0.72804700  1
  O  O46  1  0.24356800  0.98446200  0.57348600  1
  O  O47  1  0.63625300  0.96127600  0.46064300  1
  O  O48  1  0.77830400  0.71124900  0.03081900  1
  O  O49  1  0.31545200  0.26104400  0.81793800  1
  O  O50  1  0.40401500  0.02506400  0.91334400  1
  O  O51  1  0.99138300  0.72121900  0.88666600  1
  O  O52  1  0.50860700  0.00500800  0.20655200  1
  O  O53  1  0.84211700  0.66542300  0.33259800  1
  O  O54  1  0.71485300  0.74253100  0.54127700  1
  O  O55  1  0.56556800  0.22801100  0.35067200  1
  O  O56  1  0.11499900  0.98297300  0.80781000  1
  O  O57  1  0.31382200  0.48012300  0.25794800  1
  O  O58  1  0.44478400  0.64913400  0.51730100  1
  O  O59  1  0.91661000  0.40535800  0.44476500  1
  O  O60  1  0.49950100  0.85784400  0.68847900  1
  O  O61  1  0.62813200  0.07285200  0.77259300  1
  O  O62  1  0.85954000  0.17510400  0.92826400  1
  O  O63  1  0.75889700  0.24977500  0.19277700  1
  O  O64  1  0.69044600  0.97706800  0.02277100  1
  O  O65  1  0.73041100  0.81269700  0.80346200  1
  O  O66  1  0.03788700  0.91393500  0.42851800  1
  O  O67  1  0.30538700  0.13991300  0.31412800  1
  O  O68  1  0.05086300  0.16542600  0.49347500  1
  O  O69  1  0.46545000  0.78137100  0.92532900  1
  O  O70  1  0.87769900  0.46546200  0.97675600  1
  O  O71  1  0.85511400  0.00085800  0.65746600  1
  O  O72  1  0.38091800  0.48742400  0.99247900  1
  O  O73  1  0.28421500  0.71689700  0.16999400  1
  O  O74  1  0.96315300  0.91543700  0.12750400  1
  O  O75  1  0.99329200  0.20215500  0.73351000  1
  O  O76  1  0.66635700  0.49451000  0.54409700  1
  O  O77  1  0.53766600  0.73114200  0.28168600  1
  O  O78  1  0.42879000  0.45308100  0.68123200  1
  O  O79  1  0.23441600  0.92278000  0.05341500  1
