# generated using pymatgen
data_Al5WN7
_symmetry_space_group_name_H-M   'P 1'
_cell_length_a   11.17888600
_cell_length_b   21.16582500
_cell_length_c   5.25090300
_cell_angle_alpha   90.00000000
_cell_angle_beta   90.00000000
_cell_angle_gamma   90.00000000
_symmetry_Int_Tables_number   1
_chemical_formula_structural   Al5WN7
_chemical_formula_sum   'Al40 W8 N56'
_cell_volume   1242.41796919
_cell_formula_units_Z   8
loop_
 _symmetry_equiv_pos_site_id
 _symmetry_equiv_pos_as_xyz
  1  'x, y, z'
loop_
 _atom_site_type_symbol
 _atom_site_label
 _atom_site_symmetry_multiplicity
 _atom_site_fract_x
 _atom_site_fract_y
 _atom_site_fract_z
 _atom_site_occupancy
  Al  Al0  1  0.57942100  0.80550800  0.81109800  1
  Al  Al1  1  0.42057900  0.19449200  0.31109800  1
  Al  Al2  1  0.92057900  0.30550800  0.31109800  1
  Al  Al3  1  0.07942100  0.69449200  0.81109800  1
  Al  Al4  1  0.14959800  0.65847400  0.24527900  1
  Al  Al5  1  0.85040200  0.34152600  0.74527900  1
  Al  Al6  1  0.35040200  0.15847400  0.74527900  1
  Al  Al7  1  0.64959800  0.84152600  0.24527900  1
  Al  Al8  1  0.87732600  0.78964100  0.95458800  1
  Al  Al9  1  0.12267400  0.21035900  0.45458800  1
  Al  Al10  1  0.62267400  0.28964100  0.45458800  1
  Al  Al11  1  0.37732600  0.71035900  0.95458800  1
  Al  Al12  1  0.34583200  0.77555500  0.46546000  1
  Al  Al13  1  0.65416800  0.22444500  0.96546000  1
  Al  Al14  1  0.15416800  0.27555500  0.96546000  1
  Al  Al15  1  0.84583200  0.72444500  0.46546000  1
  Al  Al16  1  0.05135400  0.97518100  0.48593000  1
  Al  Al17  1  0.94864600  0.02481900  0.98593000  1
  Al  Al18  1  0.44864600  0.47518100  0.98593000  1
  Al  Al19  1  0.55135400  0.52481900  0.48593000  1
  Al  Al20  1  0.50202200  0.04524900  0.46258200  1
  Al  Al21  1  0.49797800  0.95475100  0.96258200  1
  Al  Al22  1  0.99797800  0.54524900  0.96258200  1
  Al  Al23  1  0.00202200  0.45475100  0.46258200  1
  Al  Al24  1  0.65617300  0.14745100  0.46820400  1
  Al  Al25  1  0.34382700  0.85254900  0.96820400  1
  Al  Al26  1  0.84382700  0.64745100  0.96820400  1
  Al  Al27  1  0.15617300  0.35254900  0.46820400  1
  Al  Al28  1  0.68276600  0.06395600  0.94261500  1
  Al  Al29  1  0.31723400  0.93604400  0.44261500  1
  Al  Al30  1  0.81723400  0.56395600  0.44261500  1
  Al  Al31  1  0.18276600  0.43604400  0.94261500  1
  Al  Al32  1  0.93842800  0.10585500  0.46338900  1
  Al  Al33  1  0.06157200  0.89414500  0.96338900  1
  Al  Al34  1  0.56157200  0.60585500  0.96338900  1
  Al  Al35  1  0.43842800  0.39414500  0.46338900  1
  Al  Al36  1  0.88771600  0.86406400  0.44682800  1
  Al  Al37  1  0.11228400  0.13593600  0.94682800  1
  Al  Al38  1  0.61228400  0.36406400  0.94682800  1
  Al  Al39  1  0.38771600  0.63593600  0.44682800  1
  W  W40  1  0.74738600  0.99176100  0.50467100  1
  W  W41  1  0.25261400  0.00823900  0.00467100  1
  W  W42  1  0.75261400  0.49176100  0.00467100  1
  W  W43  1  0.24738600  0.50823900  0.50467100  1
  W  W44  1  0.11183000  0.81999200  0.50468000  1
  W  W45  1  0.88817000  0.18000800  0.00468000  1
  W  W46  1  0.38817000  0.31999200  0.00468000  1
  W  W47  1  0.61183000  0.68000800  0.50468000  1
  N  N48  1  0.74115500  0.90711400  0.41088500  1
  N  N49  1  0.25884500  0.09288600  0.91088500  1
  N  N50  1  0.75884500  0.40711400  0.91088500  1
  N  N51  1  0.24115500  0.59288600  0.41088500  1
  N  N52  1  0.71945100  0.80210500  0.98155200  1
  N  N53  1  0.28054900  0.19789500  0.48155200  1
  N  N54  1  0.78054900  0.30210500  0.48155200  1
  N  N55  1  0.21945100  0.69789500  0.98155200  1
  N  N56  1  0.91614200  0.02058600  0.34932200  1
  N  N57  1  0.08385800  0.97941400  0.84932200  1
  N  N58  1  0.58385800  0.52058600  0.84932200  1
  N  N59  1  0.41614200  0.47941400  0.34932200  1
  N  N60  1  0.48078100  0.12817700  0.55460600  1
  N  N61  1  0.51921900  0.87182300  0.05460600  1
  N  N62  1  0.01921900  0.62817700  0.05460600  1
  N  N63  1  0.98078100  0.37182300  0.55460600  1
  N  N64  1  0.95583600  0.85122800  0.75803700  1
  N  N65  1  0.04416400  0.14877200  0.25803700  1
  N  N66  1  0.54416400  0.35122800  0.25803700  1
  N  N67  1  0.45583600  0.64877200  0.75803700  1
  N  N68  1  0.41416800  0.78580500  0.77944700  1
  N  N69  1  0.58583200  0.21419500  0.27944700  1
  N  N70  1  0.08583200  0.28580500  0.27944700  1
  N  N71  1  0.91416800  0.71419500  0.77944700  1
  N  N72  1  0.27980300  0.85074300  0.32273000  1
  N  N73  1  0.72019700  0.14925700  0.82273000  1
  N  N74  1  0.22019700  0.35074300  0.82273000  1
  N  N75  1  0.77980300  0.64925700  0.32273000  1
  N  N76  1  0.14714200  0.73168800  0.48636300  1
  N  N77  1  0.85285800  0.26831200  0.98636300  1
  N  N78  1  0.35285800  0.23168800  0.98636300  1
  N  N79  1  0.64714200  0.76831200  0.48636300  1
  N  N80  1  0.58291400  0.00825200  0.73978500  1
  N  N81  1  0.41708600  0.99174800  0.23978500  1
  N  N82  1  0.91708600  0.50825200  0.23978500  1
  N  N83  1  0.08291400  0.49174800  0.73978500  1
  N  N84  1  0.34046400  0.94343400  0.79925200  1
  N  N85  1  0.65953600  0.05656600  0.29925200  1
  N  N86  1  0.15953600  0.44343400  0.29925200  1
  N  N87  1  0.84046400  0.55656600  0.79925200  1
  N  N88  1  0.03285100  0.89767800  0.31480300  1
  N  N89  1  0.96714900  0.10232200  0.81480300  1
  N  N90  1  0.46714900  0.39767800  0.81480300  1
  N  N91  1  0.53285100  0.60232200  0.31480300  1
  N  N92  1  0.81743000  0.15508000  0.30965700  1
  N  N93  1  0.18257000  0.84492000  0.80965700  1
  N  N94  1  0.68257000  0.65508000  0.80965700  1
  N  N95  1  0.31743000  0.34492000  0.30965700  1
  N  N96  1  0.80664900  0.00516900  0.82855000  1
  N  N97  1  0.19335100  0.99483100  0.32855000  1
  N  N98  1  0.69335100  0.50516900  0.32855000  1
  N  N99  1  0.30664900  0.49483100  0.82855000  1
  N  N100  1  0.92775300  0.78676800  0.29941600  1
  N  N101  1  0.07224700  0.21323200  0.79941600  1
  N  N102  1  0.57224700  0.28676800  0.79941600  1
  N  N103  1  0.42775300  0.71323200  0.29941600  1
