# generated using pymatgen
data_Mg8(MnN3)3
_symmetry_space_group_name_H-M   'P 1'
_cell_length_a   4.40229100
_cell_length_b   7.01135086
_cell_length_c   14.95812119
_cell_angle_alpha   97.23358859
_cell_angle_beta   90.00000000
_cell_angle_gamma   90.00000000
_symmetry_Int_Tables_number   1
_chemical_formula_structural   Mg8(MnN3)3
_chemical_formula_sum   'Mg16 Mn6 N18'
_cell_volume   458.02284624
_cell_formula_units_Z   2
loop_
 _symmetry_equiv_pos_site_id
 _symmetry_equiv_pos_as_xyz
  1  'x, y, z'
loop_
 _atom_site_type_symbol
 _atom_site_label
 _atom_site_symmetry_multiplicity
 _atom_site_fract_x
 _atom_site_fract_y
 _atom_site_fract_z
 _atom_site_occupancy
  Mg  Mg0  1  0.74982900  0.49325900  0.92180800  1
  Mg  Mg1  1  0.74982900  0.00674100  0.57819200  1
  Mg  Mg2  1  0.25017100  0.50674100  0.07819200  1
  Mg  Mg3  1  0.25017100  0.99325900  0.42180800  1
  Mg  Mg4  1  0.75416200  0.04965300  0.28558500  1
  Mg  Mg5  1  0.75416200  0.45034700  0.21441500  1
  Mg  Mg6  1  0.24583800  0.95034700  0.71441500  1
  Mg  Mg7  1  0.24583800  0.54965300  0.78558500  1
  Mg  Mg8  1  0.75579400  0.80763300  0.10335100  1
  Mg  Mg9  1  0.75579400  0.69236700  0.39664900  1
  Mg  Mg10  1  0.24420600  0.19236700  0.89664900  1
  Mg  Mg11  1  0.24420600  0.30763300  0.60335100  1
  Mg  Mg12  1  0.25101200  0.11110200  0.15313500  1
  Mg  Mg13  1  0.25101200  0.38889800  0.34686500  1
  Mg  Mg14  1  0.74898800  0.88889800  0.84686500  1
  Mg  Mg15  1  0.74898800  0.61110200  0.65313500  1
  Mn  Mn16  1  0.31380600  0.75000000  0.25000000  1
  Mn  Mn17  1  0.68619400  0.25000000  0.75000000  1
  Mn  Mn18  1  0.74752500  0.26080200  0.45626400  1
  Mn  Mn19  1  0.74752500  0.23919800  0.04373600  1
  Mn  Mn20  1  0.25247500  0.73919800  0.54373600  1
  Mn  Mn21  1  0.25247500  0.76080200  0.95626400  1
  N  N22  1  0.75070100  0.01161600  0.43057600  1
  N  N23  1  0.75070100  0.48838400  0.06942400  1
  N  N24  1  0.24929900  0.98838400  0.56942400  1
  N  N25  1  0.24929900  0.51161600  0.93057600  1
  N  N26  1  0.72565600  0.75000000  0.25000000  1
  N  N27  1  0.27434400  0.25000000  0.75000000  1
  N  N28  1  0.25411000  0.82644600  0.07368900  1
  N  N29  1  0.25411000  0.67355400  0.42631100  1
  N  N30  1  0.74589000  0.17355400  0.92631100  1
  N  N31  1  0.74589000  0.32644600  0.57368900  1
  N  N32  1  0.24436100  0.02289200  0.28240100  1
  N  N33  1  0.24436100  0.47710800  0.21759900  1
  N  N34  1  0.75563900  0.97710800  0.71759900  1
  N  N35  1  0.75563900  0.52289200  0.78240100  1
  N  N36  1  0.75180400  0.37643400  0.35831900  1
  N  N37  1  0.75180400  0.12356600  0.14168100  1
  N  N38  1  0.24819600  0.62356600  0.64168100  1
  N  N39  1  0.24819600  0.87643400  0.85831900  1
