# generated using pymatgen
data_TiO
_symmetry_space_group_name_H-M   'P 1'
_cell_length_a   10.38745655
_cell_length_b   10.60244792
_cell_length_c   11.08431524
_cell_angle_alpha   92.35656409
_cell_angle_beta   89.76972150
_cell_angle_gamma   90.03554195
_symmetry_Int_Tables_number   1
_chemical_formula_structural   TiO
_chemical_formula_sum   'Ti50 O50'
_cell_volume   1219.70060900
_cell_formula_units_Z   50
loop_
 _symmetry_equiv_pos_site_id
 _symmetry_equiv_pos_as_xyz
  1  'x, y, z'
loop_
 _atom_site_type_symbol
 _atom_site_label
 _atom_site_symmetry_multiplicity
 _atom_site_fract_x
 _atom_site_fract_y
 _atom_site_fract_z
 _atom_site_occupancy
  Ti  Ti0  1  0.61391800  0.31552500  0.17808500  1
  Ti  Ti1  1  0.46570400  0.95483000  0.36001700  1
  Ti  Ti2  1  0.70375900  0.10272400  0.30687900  1
  Ti  Ti3  1  0.05258800  0.90196000  0.06860800  1
  Ti  Ti4  1  0.31227000  0.86832800  0.13893800  1
  Ti  Ti5  1  0.43137600  0.37548700  0.01446100  1
  Ti  Ti6  1  0.82649800  0.62512300  0.09694900  1
  Ti  Ti7  1  0.06699100  0.17417200  0.17672600  1
  Ti  Ti8  1  0.10459500  0.92970500  0.32675300  1
  Ti  Ti9  1  0.27737800  0.17024200  0.75057200  1
  Ti  Ti10  1  0.96323000  0.94858900  0.79323900  1
  Ti  Ti11  1  0.37950300  0.87980900  0.86775200  1
  Ti  Ti12  1  0.18756200  0.92769500  0.65869700  1
  Ti  Ti13  1  0.93816300  0.86749900  0.54068600  1
  Ti  Ti14  1  0.27375600  0.38211200  0.23277200  1
  Ti  Ti15  1  0.09555300  0.33770500  0.65917000  1
  Ti  Ti16  1  0.61820200  0.75185700  0.41908400  1
  Ti  Ti17  1  0.74065400  0.84569900  0.96454500  1
  Ti  Ti18  1  0.15813300  0.63649900  0.65203200  1
  Ti  Ti19  1  0.27214500  0.49657200  0.83758800  1
  Ti  Ti20  1  0.75774500  0.52109400  0.31649600  1
  Ti  Ti21  1  0.54140900  0.71461300  0.19102600  1
  Ti  Ti22  1  0.75542400  0.10743300  0.81518300  1
  Ti  Ti23  1  0.03092100  0.46512300  0.35828300  1
  Ti  Ti24  1  0.12568000  0.72985200  0.87101200  1
  Ti  Ti25  1  0.62617500  0.38400800  0.81089500  1
  Ti  Ti26  1  0.91478900  0.44303400  0.82124300  1
  Ti  Ti27  1  0.29596100  0.16551700  0.04022000  1
  Ti  Ti28  1  0.65527100  0.85769900  0.71705800  1
  Ti  Ti29  1  0.44894800  0.26213900  0.51102200  1
  Ti  Ti30  1  0.56146800  0.04646300  0.10199300  1
  Ti  Ti31  1  0.50624000  0.48732800  0.36783500  1
  Ti  Ti32  1  0.57690800  0.65159300  0.86374900  1
  Ti  Ti33  1  0.86922800  0.70767700  0.77758300  1
  Ti  Ti34  1  0.09966300  0.41284800  0.03026600  1
  Ti  Ti35  1  0.19663900  0.14988400  0.49433800  1
  Ti  Ti36  1  0.87192600  0.54698200  0.55578900  1
  Ti  Ti37  1  0.80364700  0.34982800  0.00340400  1
  Ti  Ti38  1  0.33507800  0.70345400  0.36606400  1
  Ti  Ti39  1  0.16631200  0.64226000  0.14795400  1
  Ti  Ti40  1  0.69952000  0.32499200  0.48379700  1
  Ti  Ti41  1  0.85926400  0.84780800  0.22188100  1
  Ti  Ti42  1  0.40440500  0.75210200  0.63198700  1
  Ti  Ti43  1  0.82858800  0.10398800  0.07602200  1
  Ti  Ti44  1  0.43910500  0.01449400  0.62650200  1
  Ti  Ti45  1  0.72723100  0.04276500  0.53788200  1
  Ti  Ti46  1  0.05400800  0.19114100  0.90290700  1
  Ti  Ti47  1  0.52714300  0.51916700  0.60996600  1
  Ti  Ti48  1  0.25049400  0.46135900  0.50039500  1
  Ti  Ti49  1  0.92180400  0.19904600  0.41576900  1
  O  O50  1  0.47082100  0.64832000  0.48128300  1
  O  O51  1  0.09767000  0.31994500  0.47196600  1
  O  O52  1  0.65862000  0.93602300  0.39010700  1
  O  O53  1  0.68289100  0.52523800  0.49132600  1
  O  O54  1  0.08203000  0.10992200  0.34538400  1
  O  O55  1  0.07414300  0.36834400  0.20380600  1
  O  O56  1  0.50139200  0.89376200  0.18730100  1
  O  O57  1  0.99080800  0.71985300  0.13891000  1
  O  O58  1  0.25593700  0.20130400  0.20734400  1
  O  O59  1  0.12622600  0.07239900  0.02806100  1
  O  O60  1  0.73724500  0.70092300  0.26236000  1
  O  O61  1  0.67955100  0.04643200  0.96364700  1
  O  O62  1  0.87658100  0.17091100  0.23988700  1
  O  O63  1  0.45926900  0.50052200  0.88490300  1
  O  O64  1  0.86126800  0.38611200  0.40757300  1
  O  O65  1  0.39129100  0.99886000  0.01727900  1
  O  O66  1  0.82950000  0.72467800  0.60578100  1
  O  O67  1  0.82397800  0.19930500  0.56357700  1
  O  O68  1  0.56247500  0.84484900  0.88208900  1
  O  O69  1  0.73158800  0.96992800  0.16756400  1
  O  O70  1  0.65166000  0.68618600  0.03195900  1
  O  O71  1  0.60058100  0.15874400  0.46237300  1
  O  O72  1  0.01742600  0.60028000  0.77434700  1
  O  O73  1  0.93271700  0.49647400  0.00320800  1
  O  O74  1  0.60793500  0.04791500  0.70425000  1
  O  O75  1  0.05569500  0.56542100  0.51109800  1
  O  O76  1  0.91127600  0.06624200  0.92159600  1
  O  O77  1  0.19794600  0.56019300  0.31430900  1
  O  O78  1  0.47927700  0.20910100  0.09807600  1
  O  O79  1  0.36251700  0.25576800  0.88759500  1
  O  O80  1  0.83650800  0.97787000  0.66775500  1
  O  O81  1  0.18043600  0.58687700  0.97432400  1
  O  O82  1  0.22731400  0.83925800  0.98151200  1
  O  O83  1  0.74971500  0.44994900  0.15603400  1
  O  O84  1  0.94897800  0.81472600  0.91863700  1
  O  O85  1  0.56764500  0.34186000  0.64416300  1
  O  O86  1  0.34134100  0.55575000  0.65959100  1
  O  O87  1  0.28648300  0.29544200  0.61167600  1
  O  O88  1  0.28786700  0.88716900  0.32129300  1
  O  O89  1  0.12678200  0.05132600  0.78213400  1
  O  O90  1  0.35316100  0.68713000  0.16805800  1
  O  O91  1  0.25662300  0.78275400  0.74932600  1
  O  O92  1  0.11287900  0.37280300  0.84322200  1
  O  O93  1  0.45341500  0.43282700  0.19571600  1
  O  O94  1  0.95883000  0.82365300  0.37154200  1
  O  O95  1  0.57545800  0.69057200  0.69041900  1
  O  O96  1  0.09921700  0.98070300  0.51835800  1
  O  O97  1  0.62084700  0.34825800  0.98132600  1
  O  O98  1  0.37281800  0.08333300  0.46682100  1
  O  O99  1  0.92232900  0.40583800  0.64937700  1
