# generated using pymatgen
data_K7VN4
_symmetry_space_group_name_H-M   'P 1'
_cell_length_a   12.83818800
_cell_length_b   12.83818800
_cell_length_c   12.83818800
_cell_angle_alpha   90.00000000
_cell_angle_beta   90.00000000
_cell_angle_gamma   90.00000000
_symmetry_Int_Tables_number   1
_chemical_formula_structural   K7VN4
_chemical_formula_sum   'K56 V8 N32'
_cell_volume   2115.97822107
_cell_formula_units_Z   8
loop_
 _symmetry_equiv_pos_site_id
 _symmetry_equiv_pos_as_xyz
  1  'x, y, z'
loop_
 _atom_site_type_symbol
 _atom_site_label
 _atom_site_symmetry_multiplicity
 _atom_site_fract_x
 _atom_site_fract_y
 _atom_site_fract_z
 _atom_site_occupancy
  K  K0  1  0.37513700  0.62486300  0.12486300  1
  K  K1  1  0.62486300  0.12486300  0.37513700  1
  K  K2  1  0.12486300  0.37513700  0.62486300  1
  K  K3  1  0.87513700  0.87513700  0.87513700  1
  K  K4  1  0.62486300  0.37513700  0.87513700  1
  K  K5  1  0.37513700  0.87513700  0.62486300  1
  K  K6  1  0.87513700  0.62486300  0.37513700  1
  K  K7  1  0.12486300  0.12486300  0.12486300  1
  K  K8  1  0.35685100  0.58471100  0.37263300  1
  K  K9  1  0.64314900  0.08471100  0.12736700  1
  K  K10  1  0.14314900  0.41528900  0.87263300  1
  K  K11  1  0.85685100  0.91528900  0.62736700  1
  K  K12  1  0.37263300  0.35685100  0.58471100  1
  K  K13  1  0.12736700  0.64314900  0.08471100  1
  K  K14  1  0.87263300  0.14314900  0.41528900  1
  K  K15  1  0.62736700  0.85685100  0.91528900  1
  K  K16  1  0.58471100  0.37263300  0.35685100  1
  K  K17  1  0.08471100  0.12736700  0.64314900  1
  K  K18  1  0.41528900  0.87263300  0.14314900  1
  K  K19  1  0.91528900  0.62736700  0.85685100  1
  K  K20  1  0.64314900  0.41528900  0.62736700  1
  K  K21  1  0.35685100  0.91528900  0.87263300  1
  K  K22  1  0.85685100  0.58471100  0.12736700  1
  K  K23  1  0.14314900  0.08471100  0.37263300  1
  K  K24  1  0.62736700  0.64314900  0.41528900  1
  K  K25  1  0.87263300  0.35685100  0.91528900  1
  K  K26  1  0.12736700  0.85685100  0.58471100  1
  K  K27  1  0.37263300  0.14314900  0.08471100  1
  K  K28  1  0.41528900  0.62736700  0.64314900  1
  K  K29  1  0.91528900  0.87263300  0.35685100  1
  K  K30  1  0.58471100  0.12736700  0.85685100  1
  K  K31  1  0.08471100  0.37263300  0.14314900  1
  K  K32  1  0.42098100  0.82505000  0.37626200  1
  K  K33  1  0.57901900  0.32505000  0.12373800  1
  K  K34  1  0.07901900  0.17495000  0.87626200  1
  K  K35  1  0.92098100  0.67495000  0.62373800  1
  K  K36  1  0.37626200  0.42098100  0.82505000  1
  K  K37  1  0.12373800  0.57901900  0.32505000  1
  K  K38  1  0.87626200  0.07901900  0.17495000  1
  K  K39  1  0.62373800  0.92098100  0.67495000  1
  K  K40  1  0.82505000  0.37626200  0.42098100  1
  K  K41  1  0.32505000  0.12373800  0.57901900  1
  K  K42  1  0.17495000  0.87626200  0.07901900  1
  K  K43  1  0.67495000  0.62373800  0.92098100  1
  K  K44  1  0.57901900  0.17495000  0.62373800  1
  K  K45  1  0.42098100  0.67495000  0.87626200  1
  K  K46  1  0.92098100  0.82505000  0.12373800  1
  K  K47  1  0.07901900  0.32505000  0.37626200  1
  K  K48  1  0.62373800  0.57901900  0.17495000  1
  K  K49  1  0.87626200  0.42098100  0.67495000  1
  K  K50  1  0.12373800  0.92098100  0.82505000  1
  K  K51  1  0.37626200  0.07901900  0.32505000  1
  K  K52  1  0.17495000  0.62373800  0.57901900  1
  K  K53  1  0.67495000  0.87626200  0.42098100  1
  K  K54  1  0.82505000  0.12373800  0.92098100  1
  K  K55  1  0.32505000  0.37626200  0.07901900  1
  V  V56  1  0.16247700  0.83752300  0.33752300  1
  V  V57  1  0.83752300  0.33752300  0.16247700  1
  V  V58  1  0.33752300  0.16247700  0.83752300  1
  V  V59  1  0.66247700  0.66247700  0.66247700  1
  V  V60  1  0.83752300  0.16247700  0.66247700  1
  V  V61  1  0.16247700  0.66247700  0.83752300  1
  V  V62  1  0.66247700  0.83752300  0.16247700  1
  V  V63  1  0.33752300  0.33752300  0.33752300  1
  N  N64  1  0.24618100  0.75381900  0.25381900  1
  N  N65  1  0.75381900  0.25381900  0.24618100  1
  N  N66  1  0.25381900  0.24618100  0.75381900  1
  N  N67  1  0.74618100  0.74618100  0.74618100  1
  N  N68  1  0.75381900  0.24618100  0.74618100  1
  N  N69  1  0.24618100  0.74618100  0.75381900  1
  N  N70  1  0.74618100  0.75381900  0.24618100  1
  N  N71  1  0.25381900  0.25381900  0.25381900  1
  N  N72  1  0.08283300  0.93099300  0.25469800  1
  N  N73  1  0.91716700  0.43099300  0.24530200  1
  N  N74  1  0.41716700  0.06900700  0.75469800  1
  N  N75  1  0.58283300  0.56900700  0.74530200  1
  N  N76  1  0.25469800  0.08283300  0.93099300  1
  N  N77  1  0.24530200  0.91716700  0.43099300  1
  N  N78  1  0.75469800  0.41716700  0.06900700  1
  N  N79  1  0.74530200  0.58283300  0.56900700  1
  N  N80  1  0.93099300  0.25469800  0.08283300  1
  N  N81  1  0.43099300  0.24530200  0.91716700  1
  N  N82  1  0.06900700  0.75469800  0.41716700  1
  N  N83  1  0.56900700  0.74530200  0.58283300  1
  N  N84  1  0.91716700  0.06900700  0.74530200  1
  N  N85  1  0.08283300  0.56900700  0.75469800  1
  N  N86  1  0.58283300  0.93099300  0.24530200  1
  N  N87  1  0.41716700  0.43099300  0.25469800  1
  N  N88  1  0.74530200  0.91716700  0.06900700  1
  N  N89  1  0.75469800  0.08283300  0.56900700  1
  N  N90  1  0.24530200  0.58283300  0.93099300  1
  N  N91  1  0.25469800  0.41716700  0.43099300  1
  N  N92  1  0.06900700  0.74530200  0.91716700  1
  N  N93  1  0.56900700  0.75469800  0.08283300  1
  N  N94  1  0.93099300  0.24530200  0.58283300  1
  N  N95  1  0.43099300  0.25469800  0.41716700  1
