# generated using pymatgen
data_NaOsN2
_symmetry_space_group_name_H-M   'P 1'
_cell_length_a   5.76750100
_cell_length_b   11.43267800
_cell_length_c   14.86840500
_cell_angle_alpha   90.00000000
_cell_angle_beta   90.00000000
_cell_angle_gamma   90.00000000
_symmetry_Int_Tables_number   1
_chemical_formula_structural   NaOsN2
_chemical_formula_sum   'Na16 Os16 N32'
_cell_volume   980.39261825
_cell_formula_units_Z   16
loop_
 _symmetry_equiv_pos_site_id
 _symmetry_equiv_pos_as_xyz
  1  'x, y, z'
loop_
 _atom_site_type_symbol
 _atom_site_label
 _atom_site_symmetry_multiplicity
 _atom_site_fract_x
 _atom_site_fract_y
 _atom_site_fract_z
 _atom_site_occupancy
  Na  Na0  1  0.22149200  0.96827300  0.44151600  1
  Na  Na1  1  0.72149200  0.53172700  0.55848400  1
  Na  Na2  1  0.77850800  0.46827300  0.05848400  1
  Na  Na3  1  0.27850800  0.03172700  0.94151600  1
  Na  Na4  1  0.77850800  0.03172700  0.55848400  1
  Na  Na5  1  0.27850800  0.46827300  0.44151600  1
  Na  Na6  1  0.22149200  0.53172700  0.94151600  1
  Na  Na7  1  0.72149200  0.96827300  0.05848400  1
  Na  Na8  1  0.27734900  0.25731700  0.31248300  1
  Na  Na9  1  0.77734900  0.24268300  0.68751700  1
  Na  Na10  1  0.72265100  0.75731700  0.18751700  1
  Na  Na11  1  0.22265100  0.74268300  0.81248300  1
  Na  Na12  1  0.72265100  0.74268300  0.68751700  1
  Na  Na13  1  0.22265100  0.75731700  0.31248300  1
  Na  Na14  1  0.27734900  0.24268300  0.81248300  1
  Na  Na15  1  0.77734900  0.25731700  0.18751700  1
  Os  Os16  1  0.68056200  0.02105700  0.31175400  1
  Os  Os17  1  0.18056200  0.47894300  0.68824600  1
  Os  Os18  1  0.31943800  0.52105700  0.18824600  1
  Os  Os19  1  0.81943800  0.97894300  0.81175400  1
  Os  Os20  1  0.31943800  0.97894300  0.68824600  1
  Os  Os21  1  0.81943800  0.52105700  0.31175400  1
  Os  Os22  1  0.68056200  0.47894300  0.81175400  1
  Os  Os23  1  0.18056200  0.02105700  0.18824600  1
  Os  Os24  1  0.77056300  0.27859300  0.43554200  1
  Os  Os25  1  0.27056300  0.22140700  0.56445800  1
  Os  Os26  1  0.22943700  0.77859300  0.06445800  1
  Os  Os27  1  0.72943700  0.72140700  0.93554200  1
  Os  Os28  1  0.22943700  0.72140700  0.56445800  1
  Os  Os29  1  0.72943700  0.77859300  0.43554200  1
  Os  Os30  1  0.77056300  0.22140700  0.93554200  1
  Os  Os31  1  0.27056300  0.27859300  0.06445800  1
  N  N32  1  0.08901900  0.26270100  0.46437300  1
  N  N33  1  0.58901900  0.23729900  0.53562700  1
  N  N34  1  0.91098100  0.76270100  0.03562700  1
  N  N35  1  0.41098100  0.73729900  0.96437300  1
  N  N36  1  0.91098100  0.73729900  0.53562700  1
  N  N37  1  0.41098100  0.76270100  0.46437300  1
  N  N38  1  0.08901900  0.23729900  0.96437300  1
  N  N39  1  0.58901900  0.26270100  0.03562700  1
  N  N40  1  0.70558900  0.43931600  0.41269900  1
  N  N41  1  0.20558900  0.06068400  0.58730100  1
  N  N42  1  0.29441100  0.93931600  0.08730100  1
  N  N43  1  0.79441100  0.56068400  0.91269900  1
  N  N44  1  0.29441100  0.56068400  0.58730100  1
  N  N45  1  0.79441100  0.93931600  0.41269900  1
  N  N46  1  0.70558900  0.06068400  0.91269900  1
  N  N47  1  0.20558900  0.43931600  0.08730100  1
  N  N48  1  0.68344300  0.18328600  0.33674100  1
  N  N49  1  0.18344300  0.31671400  0.66325900  1
  N  N50  1  0.31655700  0.68328600  0.16325900  1
  N  N51  1  0.81655700  0.81671400  0.83674100  1
  N  N52  1  0.31655700  0.81671400  0.66325900  1
  N  N53  1  0.81655700  0.68328600  0.33674100  1
  N  N54  1  0.68344300  0.31671400  0.83674100  1
  N  N55  1  0.18344300  0.18328600  0.16325900  1
  N  N56  1  0.63180900  0.47909300  0.21160500  1
  N  N57  1  0.13180900  0.02090700  0.78839500  1
  N  N58  1  0.36819100  0.97909300  0.28839500  1
  N  N59  1  0.86819100  0.52090700  0.71160500  1
  N  N60  1  0.36819100  0.52090700  0.78839500  1
  N  N61  1  0.86819100  0.97909300  0.21160500  1
  N  N62  1  0.63180900  0.02090700  0.71160500  1
  N  N63  1  0.13180900  0.47909300  0.28839500  1
