# generated using pymatgen
data_MgO2
_symmetry_space_group_name_H-M   'P 1'
_cell_length_a   3.24416542
_cell_length_b   7.18930094
_cell_length_c   6.90608226
_cell_angle_alpha   84.30556989
_cell_angle_beta   75.14511304
_cell_angle_gamma   62.08644731
_symmetry_Int_Tables_number   1
_chemical_formula_structural   MgO2
_chemical_formula_sum   'Mg4 O8'
_cell_volume   137.53472560
_cell_formula_units_Z   4
loop_
 _symmetry_equiv_pos_site_id
 _symmetry_equiv_pos_as_xyz
  1  'x, y, z'
loop_
 _atom_site_type_symbol
 _atom_site_label
 _atom_site_symmetry_multiplicity
 _atom_site_fract_x
 _atom_site_fract_y
 _atom_site_fract_z
 _atom_site_occupancy
  Mg  Mg0  1  0.14734600  0.16580700  0.26288600  1
  Mg  Mg1  1  0.84975900  0.81434100  0.76534100  1
  Mg  Mg2  1  0.07962500  0.62373400  0.14857400  1
  Mg  Mg3  1  0.91442400  0.35615800  0.87947600  1
  O  O4  1  0.46866900  0.81216400  0.56299700  1
  O  O5  1  0.26283600  0.52613400  0.84036600  1
  O  O6  1  0.73127500  0.45356100  0.18789100  1
  O  O7  1  0.52761100  0.16824100  0.46532600  1
  O  O8  1  0.42732800  0.11985000  0.65922700  1
  O  O9  1  0.85924200  0.10240200  0.05524300  1
  O  O10  1  0.56830400  0.86016800  0.36889500  1
  O  O11  1  0.13981000  0.87700700  0.97294600  1
