# generated using pymatgen
data_Ca7HfN6
_symmetry_space_group_name_H-M   'P 1'
_cell_length_a   6.38837900
_cell_length_b   9.34522913
_cell_length_c   9.34522913
_cell_angle_alpha   77.99879693
_cell_angle_beta   70.01348950
_cell_angle_gamma   70.01348950
_symmetry_Int_Tables_number   1
_chemical_formula_structural   Ca7HfN6
_chemical_formula_sum   'Ca14 Hf2 N12'
_cell_volume   490.10990628
_cell_formula_units_Z   2
loop_
 _symmetry_equiv_pos_site_id
 _symmetry_equiv_pos_as_xyz
  1  'x, y, z'
loop_
 _atom_site_type_symbol
 _atom_site_label
 _atom_site_symmetry_multiplicity
 _atom_site_fract_x
 _atom_site_fract_y
 _atom_site_fract_z
 _atom_site_occupancy
  Ca  Ca0  1  0.28002900  0.95791700  0.04208300  1
  Ca  Ca1  1  0.71997100  0.04208300  0.95791700  1
  Ca  Ca2  1  0.21997100  0.45791700  0.54208300  1
  Ca  Ca3  1  0.78002900  0.54208300  0.45791700  1
  Ca  Ca4  1  0.73731800  0.15071500  0.60582200  1
  Ca  Ca5  1  0.50614500  0.60582200  0.15071500  1
  Ca  Ca6  1  0.76268200  0.89417800  0.34928500  1
  Ca  Ca7  1  0.99385500  0.34928500  0.89417800  1
  Ca  Ca8  1  0.26268200  0.84928500  0.39417800  1
  Ca  Ca9  1  0.49385500  0.39417800  0.84928500  1
  Ca  Ca10  1  0.23731800  0.10582200  0.65071500  1
  Ca  Ca11  1  0.00614500  0.65071500  0.10582200  1
  Ca  Ca12  1  0.25000000  0.25000000  0.25000000  1
  Ca  Ca13  1  0.75000000  0.75000000  0.75000000  1
  Hf  Hf14  1  0.75000000  0.25000000  0.25000000  1
  Hf  Hf15  1  0.25000000  0.75000000  0.75000000  1
  N  N16  1  0.02629800  0.06391900  0.27905100  1
  N  N17  1  0.63073200  0.27905100  0.06391900  1
  N  N18  1  0.47370200  0.22094900  0.43608100  1
  N  N19  1  0.86926800  0.43608100  0.22094900  1
  N  N20  1  0.97370200  0.93608100  0.72094900  1
  N  N21  1  0.36926800  0.72094900  0.93608100  1
  N  N22  1  0.52629800  0.77905100  0.56391900  1
  N  N23  1  0.13073200  0.56391900  0.77905100  1
  N  N24  1  0.88121400  0.34281700  0.65718300  1
  N  N25  1  0.11878600  0.65718300  0.34281700  1
  N  N26  1  0.61878600  0.84281700  0.15718300  1
  N  N27  1  0.38121400  0.15718300  0.84281700  1
