# generated using pymatgen
data_KIrN2
_symmetry_space_group_name_H-M   'P 1'
_cell_length_a   5.69289700
_cell_length_b   11.46403100
_cell_length_c   16.91798100
_cell_angle_alpha   90.00000000
_cell_angle_beta   90.00000000
_cell_angle_gamma   90.00000000
_symmetry_Int_Tables_number   1
_chemical_formula_structural   KIrN2
_chemical_formula_sum   'K16 Ir16 N32'
_cell_volume   1104.12745977
_cell_formula_units_Z   16
loop_
 _symmetry_equiv_pos_site_id
 _symmetry_equiv_pos_as_xyz
  1  'x, y, z'
loop_
 _atom_site_type_symbol
 _atom_site_label
 _atom_site_symmetry_multiplicity
 _atom_site_fract_x
 _atom_site_fract_y
 _atom_site_fract_z
 _atom_site_occupancy
  K  K0  1  0.25416600  0.00887200  0.43875400  1
  K  K1  1  0.75416600  0.49112800  0.56124600  1
  K  K2  1  0.74583400  0.50887200  0.06124600  1
  K  K3  1  0.24583400  0.99112800  0.93875400  1
  K  K4  1  0.74583400  0.99112800  0.56124600  1
  K  K5  1  0.24583400  0.50887200  0.43875400  1
  K  K6  1  0.25416600  0.49112800  0.93875400  1
  K  K7  1  0.75416600  0.00887200  0.06124600  1
  K  K8  1  0.31946700  0.26402700  0.31539800  1
  K  K9  1  0.81946700  0.23597300  0.68460200  1
  K  K10  1  0.68053300  0.76402700  0.18460200  1
  K  K11  1  0.18053300  0.73597300  0.81539800  1
  K  K12  1  0.68053300  0.73597300  0.68460200  1
  K  K13  1  0.18053300  0.76402700  0.31539800  1
  K  K14  1  0.31946700  0.23597300  0.81539800  1
  K  K15  1  0.81946700  0.26402700  0.18460200  1
  Ir  Ir16  1  0.75558600  0.01416000  0.31006700  1
  Ir  Ir17  1  0.25558600  0.48584000  0.68993300  1
  Ir  Ir18  1  0.24441400  0.51416000  0.18993300  1
  Ir  Ir19  1  0.74441400  0.98584000  0.81006700  1
  Ir  Ir20  1  0.24441400  0.98584000  0.68993300  1
  Ir  Ir21  1  0.74441400  0.51416000  0.31006700  1
  Ir  Ir22  1  0.75558600  0.48584000  0.81006700  1
  Ir  Ir23  1  0.25558600  0.01416000  0.18993300  1
  Ir  Ir24  1  0.79157900  0.26315100  0.43573700  1
  Ir  Ir25  1  0.29157900  0.23684900  0.56426300  1
  Ir  Ir26  1  0.20842100  0.76315100  0.06426300  1
  Ir  Ir27  1  0.70842100  0.73684900  0.93573700  1
  Ir  Ir28  1  0.20842100  0.73684900  0.56426300  1
  Ir  Ir29  1  0.70842100  0.76315100  0.43573700  1
  Ir  Ir30  1  0.79157900  0.23684900  0.93573700  1
  Ir  Ir31  1  0.29157900  0.26315100  0.06426300  1
  N  N32  1  0.05245400  0.30373200  0.49999900  1
  N  N33  1  0.55245400  0.19626800  0.50000100  1
  N  N34  1  0.94754600  0.80373200  0.00000100  1
  N  N35  1  0.44754600  0.69626800  0.99999900  1
  N  N36  1  0.94754600  0.69626800  0.50000100  1
  N  N37  1  0.44754600  0.80373200  0.49999900  1
  N  N38  1  0.05245400  0.19626800  0.99999900  1
  N  N39  1  0.55245400  0.30373200  0.00000100  1
  N  N40  1  0.67851300  0.41232900  0.39600000  1
  N  N41  1  0.17851300  0.08767100  0.60400000  1
  N  N42  1  0.32148700  0.91232900  0.10400000  1
  N  N43  1  0.82148700  0.58767100  0.89600000  1
  N  N44  1  0.32148700  0.58767100  0.60400000  1
  N  N45  1  0.82148700  0.91232900  0.39600000  1
  N  N46  1  0.67851300  0.08767100  0.89600000  1
  N  N47  1  0.17851300  0.41232900  0.10400000  1
  N  N48  1  0.82523300  0.17037800  0.34178700  1
  N  N49  1  0.32523300  0.32962200  0.65821300  1
  N  N50  1  0.17476700  0.67037800  0.15821300  1
  N  N51  1  0.67476700  0.82962200  0.84178700  1
  N  N52  1  0.17476700  0.82962200  0.65821300  1
  N  N53  1  0.67476700  0.67037800  0.34178700  1
  N  N54  1  0.82523300  0.32962200  0.84178700  1
  N  N55  1  0.32523300  0.17037800  0.15821300  1
  N  N56  1  0.56724600  0.48361900  0.21567500  1
  N  N57  1  0.06724600  0.01638100  0.78432500  1
  N  N58  1  0.43275400  0.98361900  0.28432500  1
  N  N59  1  0.93275400  0.51638100  0.71567500  1
  N  N60  1  0.43275400  0.51638100  0.78432500  1
  N  N61  1  0.93275400  0.98361900  0.21567500  1
  N  N62  1  0.56724600  0.01638100  0.71567500  1
  N  N63  1  0.06724600  0.48361900  0.28432500  1
