# generated using pymatgen
data_Sr7TiN6
_symmetry_space_group_name_H-M   'P 1'
_cell_length_a   11.77513300
_cell_length_b   6.68815800
_cell_length_c   13.92229100
_cell_angle_alpha   90.00000000
_cell_angle_beta   90.00000000
_cell_angle_gamma   90.00000000
_symmetry_Int_Tables_number   1
_chemical_formula_structural   Sr7TiN6
_chemical_formula_sum   'Sr28 Ti4 N24'
_cell_volume   1096.43540895
_cell_formula_units_Z   4
loop_
 _symmetry_equiv_pos_site_id
 _symmetry_equiv_pos_as_xyz
  1  'x, y, z'
loop_
 _atom_site_type_symbol
 _atom_site_label
 _atom_site_symmetry_multiplicity
 _atom_site_fract_x
 _atom_site_fract_y
 _atom_site_fract_z
 _atom_site_occupancy
  Sr  Sr0  1  0.03705100  0.73387800  0.97982100  1
  Sr  Sr1  1  0.46294900  0.76612200  0.47982100  1
  Sr  Sr2  1  0.53705100  0.76612200  0.02017900  1
  Sr  Sr3  1  0.96294900  0.73387800  0.52017900  1
  Sr  Sr4  1  0.96294900  0.26612200  0.02017900  1
  Sr  Sr5  1  0.53705100  0.23387800  0.52017900  1
  Sr  Sr6  1  0.46294900  0.23387800  0.97982100  1
  Sr  Sr7  1  0.03705100  0.26612200  0.47982100  1
  Sr  Sr8  1  0.23096600  0.84003100  0.62717000  1
  Sr  Sr9  1  0.26903400  0.65996900  0.12717000  1
  Sr  Sr10  1  0.73096600  0.65996900  0.37283000  1
  Sr  Sr11  1  0.76903400  0.84003100  0.87283000  1
  Sr  Sr12  1  0.76903400  0.15996900  0.37283000  1
  Sr  Sr13  1  0.73096600  0.34003100  0.87283000  1
  Sr  Sr14  1  0.26903400  0.34003100  0.62717000  1
  Sr  Sr15  1  0.23096600  0.15996900  0.12717000  1
  Sr  Sr16  1  0.29180000  0.61024900  0.87930900  1
  Sr  Sr17  1  0.20820000  0.88975100  0.37930900  1
  Sr  Sr18  1  0.79180000  0.88975100  0.12069100  1
  Sr  Sr19  1  0.70820000  0.61024900  0.62069100  1
  Sr  Sr20  1  0.70820000  0.38975100  0.12069100  1
  Sr  Sr21  1  0.79180000  0.11024900  0.62069100  1
  Sr  Sr22  1  0.20820000  0.11024900  0.87930900  1
  Sr  Sr23  1  0.29180000  0.38975100  0.37930900  1
  Sr  Sr24  1  0.00000000  0.44704200  0.75000000  1
  Sr  Sr25  1  0.50000000  0.05295800  0.25000000  1
  Sr  Sr26  1  0.00000000  0.55295800  0.25000000  1
  Sr  Sr27  1  0.50000000  0.94704200  0.75000000  1
  Ti  Ti28  1  0.00000000  0.94178000  0.75000000  1
  Ti  Ti29  1  0.50000000  0.55822000  0.25000000  1
  Ti  Ti30  1  0.00000000  0.05822000  0.25000000  1
  Ti  Ti31  1  0.50000000  0.44178000  0.75000000  1
  N  N32  1  0.12433500  0.76647600  0.79466300  1
  N  N33  1  0.37566500  0.73352400  0.29466300  1
  N  N34  1  0.62433500  0.73352400  0.20533700  1
  N  N35  1  0.87566500  0.76647600  0.70533700  1
  N  N36  1  0.87566500  0.23352400  0.20533700  1
  N  N37  1  0.62433500  0.26647600  0.70533700  1
  N  N38  1  0.37566500  0.26647600  0.79466300  1
  N  N39  1  0.12433500  0.23352400  0.29466300  1
  N  N40  1  0.16417300  0.59119600  0.50269100  1
  N  N41  1  0.33582700  0.90880400  0.00269100  1
  N  N42  1  0.66417300  0.90880400  0.49730900  1
  N  N43  1  0.83582700  0.59119600  0.99730900  1
  N  N44  1  0.83582700  0.40880400  0.49730900  1
  N  N45  1  0.66417300  0.09119600  0.99730900  1
  N  N46  1  0.33582700  0.09119600  0.50269100  1
  N  N47  1  0.16417300  0.40880400  0.00269100  1
  N  N48  1  0.44159800  0.61382100  0.64848200  1
  N  N49  1  0.05840200  0.88617900  0.14848200  1
  N  N50  1  0.94159800  0.88617900  0.35151800  1
  N  N51  1  0.55840200  0.61382100  0.85151800  1
  N  N52  1  0.55840200  0.38617900  0.35151800  1
  N  N53  1  0.94159800  0.11382100  0.85151800  1
  N  N54  1  0.05840200  0.11382100  0.64848200  1
  N  N55  1  0.44159800  0.38617900  0.14848200  1
