# generated using pymatgen
data_Ga2FeN3
_symmetry_space_group_name_H-M   'P 1'
_cell_length_a   5.58788655
_cell_length_b   5.58239177
_cell_length_c   5.23482800
_cell_angle_alpha   90.00000000
_cell_angle_beta   90.00000000
_cell_angle_gamma   119.96746961
_symmetry_Int_Tables_number   1
_chemical_formula_structural   Ga2FeN3
_chemical_formula_sum   'Ga4 Fe2 N6'
_cell_volume   141.46311194
_cell_formula_units_Z   2
loop_
 _symmetry_equiv_pos_site_id
 _symmetry_equiv_pos_as_xyz
  1  'x, y, z'
loop_
 _atom_site_type_symbol
 _atom_site_label
 _atom_site_symmetry_multiplicity
 _atom_site_fract_x
 _atom_site_fract_y
 _atom_site_fract_z
 _atom_site_occupancy
  Ga  Ga0  1  0.33341900  0.32735000  0.49476700  1
  Ga  Ga1  1  0.66658100  0.99393100  0.49476700  1
  Ga  Ga2  1  0.66658100  0.67265000  0.99476700  1
  Ga  Ga3  1  0.33341900  0.00606900  0.99476700  1
  Fe  Fe4  1  0.00000000  0.65992200  0.48710000  1
  Fe  Fe5  1  0.00000000  0.34007800  0.98710000  1
  N  N6  1  0.33662000  0.33944700  0.87084000  1
  N  N7  1  0.66338000  0.00282700  0.87084000  1
  N  N8  1  0.66338000  0.66055300  0.37084000  1
  N  N9  1  0.33662000  0.99717300  0.37084000  1
  N  N10  1  0.00000000  0.67996600  0.86968800  1
  N  N11  1  0.00000000  0.32003400  0.36968800  1
