# generated using pymatgen
data_SiPdN2
_symmetry_space_group_name_H-M   'P 1'
_cell_length_a   5.33350861
_cell_length_b   10.51170982
_cell_length_c   12.74011144
_cell_angle_alpha   90.00000000
_cell_angle_beta   90.00000000
_cell_angle_gamma   90.00000000
_symmetry_Int_Tables_number   1
_chemical_formula_structural   SiPdN2
_chemical_formula_sum   'Si16 Pd16 N32'
_cell_volume   714.26536395
_cell_formula_units_Z   16
loop_
 _symmetry_equiv_pos_site_id
 _symmetry_equiv_pos_as_xyz
  1  'x, y, z'
loop_
 _atom_site_type_symbol
 _atom_site_label
 _atom_site_symmetry_multiplicity
 _atom_site_fract_x
 _atom_site_fract_y
 _atom_site_fract_z
 _atom_site_occupancy
  Si  Si0  1  0.74553274  0.02142126  0.19376386  1
  Si  Si1  1  0.24553274  0.47857874  0.80623614  1
  Si  Si2  1  0.25446726  0.52142126  0.30623614  1
  Si  Si3  1  0.75446726  0.97857874  0.69376386  1
  Si  Si4  1  0.25446726  0.97857874  0.80623614  1
  Si  Si5  1  0.75446726  0.52142126  0.19376386  1
  Si  Si6  1  0.74553274  0.47857874  0.69376386  1
  Si  Si7  1  0.24553274  0.02142126  0.30623614  1
  Si  Si8  1  0.66126270  0.27586769  0.07050198  1
  Si  Si9  1  0.16126270  0.22413231  0.92949802  1
  Si  Si10  1  0.33873730  0.77586769  0.42949802  1
  Si  Si11  1  0.83873730  0.72413231  0.57050198  1
  Si  Si12  1  0.33873730  0.72413231  0.92949802  1
  Si  Si13  1  0.83873730  0.77586769  0.07050198  1
  Si  Si14  1  0.66126270  0.22413231  0.57050198  1
  Si  Si15  1  0.16126270  0.27586769  0.42949802  1
  Pd  Pd16  1  0.75561445  0.03145630  0.44507216  1
  Pd  Pd17  1  0.25561445  0.46854370  0.55492784  1
  Pd  Pd18  1  0.24438555  0.53145630  0.05492784  1
  Pd  Pd19  1  0.74438555  0.96854370  0.94507216  1
  Pd  Pd20  1  0.24438555  0.96854370  0.55492784  1
  Pd  Pd21  1  0.74438555  0.53145630  0.44507216  1
  Pd  Pd22  1  0.75561445  0.46854370  0.94507216  1
  Pd  Pd23  1  0.25561445  0.03145630  0.05492784  1
  Pd  Pd24  1  0.61435259  0.26364955  0.33024550  1
  Pd  Pd25  1  0.11435259  0.23635045  0.66975450  1
  Pd  Pd26  1  0.38564741  0.76364955  0.16975450  1
  Pd  Pd27  1  0.88564741  0.73635045  0.83024550  1
  Pd  Pd28  1  0.38564741  0.73635045  0.66975450  1
  Pd  Pd29  1  0.88564741  0.76364955  0.33024550  1
  Pd  Pd30  1  0.61435259  0.23635045  0.83024550  1
  Pd  Pd31  1  0.11435259  0.26364955  0.16975450  1
  N  N32  1  0.57393375  0.48064265  0.30268915  1
  N  N33  1  0.07393375  0.01935735  0.69731085  1
  N  N34  1  0.42606625  0.98064265  0.19731085  1
  N  N35  1  0.92606625  0.51935735  0.80268915  1
  N  N36  1  0.42606625  0.51935735  0.69731085  1
  N  N37  1  0.92606625  0.98064265  0.30268915  1
  N  N38  1  0.57393375  0.01935735  0.80268915  1
  N  N39  1  0.07393375  0.48064265  0.19731085  1
  N  N40  1  0.45690919  0.30131155  0.48750121  1
  N  N41  1  0.95690919  0.19868845  0.51249879  1
  N  N42  1  0.54309081  0.80131155  0.01249879  1
  N  N43  1  0.04309081  0.69868845  0.98750121  1
  N  N44  1  0.54309081  0.69868845  0.51249879  1
  N  N45  1  0.04309081  0.80131155  0.48750121  1
  N  N46  1  0.45690919  0.19868845  0.98750121  1
  N  N47  1  0.95690919  0.30131155  0.01249879  1
  N  N48  1  0.59271328  0.43752273  0.09276137  1
  N  N49  1  0.09271328  0.06247727  0.90723863  1
  N  N50  1  0.40728672  0.93752273  0.40723863  1
  N  N51  1  0.90728672  0.56247727  0.59276137  1
  N  N52  1  0.40728672  0.56247727  0.90723863  1
  N  N53  1  0.90728672  0.93752273  0.09276137  1
  N  N54  1  0.59271328  0.06247727  0.59276137  1
  N  N55  1  0.09271328  0.43752273  0.40723863  1
  N  N56  1  0.73550067  0.18829720  0.18251533  1
  N  N57  1  0.23550067  0.31170280  0.81748467  1
  N  N58  1  0.26449933  0.68829720  0.31748467  1
  N  N59  1  0.76449933  0.81170280  0.68251533  1
  N  N60  1  0.26449933  0.81170280  0.81748467  1
  N  N61  1  0.76449933  0.68829720  0.18251533  1
  N  N62  1  0.73550067  0.31170280  0.68251533  1
  N  N63  1  0.23550067  0.18829720  0.31748467  1
