# generated using pymatgen
data_Mn4SnN4
_symmetry_space_group_name_H-M   'P 1'
_cell_length_a   5.61497019
_cell_length_b   5.86355630
_cell_length_c   8.49783523
_cell_angle_alpha   58.09041439
_cell_angle_beta   65.75939051
_cell_angle_gamma   55.26438856
_symmetry_Int_Tables_number   1
_chemical_formula_structural   Mn4SnN4
_chemical_formula_sum   'Mn8 Sn2 N8'
_cell_volume   192.76120872
_cell_formula_units_Z   2
loop_
 _symmetry_equiv_pos_site_id
 _symmetry_equiv_pos_as_xyz
  1  'x, y, z'
loop_
 _atom_site_type_symbol
 _atom_site_label
 _atom_site_symmetry_multiplicity
 _atom_site_fract_x
 _atom_site_fract_y
 _atom_site_fract_z
 _atom_site_occupancy
  Mn  Mn0  1  0.73314100  0.47289800  0.32047200  1
  Mn  Mn1  1  0.26685900  0.52710200  0.67952800  1
  Mn  Mn2  1  0.74028000  0.21203500  0.00649100  1
  Mn  Mn3  1  0.25972000  0.78796500  0.99350900  1
  Mn  Mn4  1  0.78320200  0.48835300  0.65562800  1
  Mn  Mn5  1  0.21679800  0.51164700  0.34437200  1
  Mn  Mn6  1  0.27716800  0.98780400  0.64921300  1
  Mn  Mn7  1  0.72283200  0.01219600  0.35078700  1
  Sn  Sn8  1  0.73847600  0.92382100  0.81036100  1
  Sn  Sn9  1  0.26152400  0.07617900  0.18963900  1
  N  N10  1  0.00105500  0.71601600  0.50992000  1
  N  N11  1  0.99894500  0.28398400  0.49008000  1
  N  N12  1  0.90182600  0.79116400  0.16009000  1
  N  N13  1  0.09817400  0.20883600  0.83991000  1
  N  N14  1  0.42458900  0.55749900  0.84039000  1
  N  N15  1  0.57541100  0.44250100  0.15961000  1
  N  N16  1  0.48622500  0.77089100  0.48086000  1
  N  N17  1  0.51377500  0.22910900  0.51914000  1
