# generated using pymatgen
data_YFeN2
_symmetry_space_group_name_H-M   'P 1'
_cell_length_a   6.02187933
_cell_length_b   11.08020685
_cell_length_c   13.42612822
_cell_angle_alpha   90.00000000
_cell_angle_beta   90.00000000
_cell_angle_gamma   90.00000000
_symmetry_Int_Tables_number   1
_chemical_formula_structural   YFeN2
_chemical_formula_sum   'Y16 Fe16 N32'
_cell_volume   895.84052996
_cell_formula_units_Z   16
loop_
 _symmetry_equiv_pos_site_id
 _symmetry_equiv_pos_as_xyz
  1  'x, y, z'
loop_
 _atom_site_type_symbol
 _atom_site_label
 _atom_site_symmetry_multiplicity
 _atom_site_fract_x
 _atom_site_fract_y
 _atom_site_fract_z
 _atom_site_occupancy
  Y  Y0  1  0.63065187  0.05581470  0.30976579  1
  Y  Y1  1  0.13065187  0.44418530  0.69023421  1
  Y  Y2  1  0.36934813  0.55581470  0.19023421  1
  Y  Y3  1  0.86934813  0.94418530  0.80976579  1
  Y  Y4  1  0.36934813  0.94418530  0.69023421  1
  Y  Y5  1  0.86934813  0.55581470  0.30976579  1
  Y  Y6  1  0.63065187  0.44418530  0.80976579  1
  Y  Y7  1  0.13065187  0.05581470  0.19023421  1
  Y  Y8  1  0.92520722  0.28130331  0.44238836  1
  Y  Y9  1  0.42520722  0.21869669  0.55761164  1
  Y  Y10  1  0.07479278  0.78130331  0.05761164  1
  Y  Y11  1  0.57479278  0.71869669  0.94238836  1
  Y  Y12  1  0.07479278  0.71869669  0.55761164  1
  Y  Y13  1  0.57479278  0.78130331  0.44238836  1
  Y  Y14  1  0.92520722  0.21869669  0.94238836  1
  Y  Y15  1  0.42520722  0.28130331  0.05761164  1
  Fe  Fe16  1  0.16177938  0.95985381  0.45549171  1
  Fe  Fe17  1  0.66177938  0.54014619  0.54450829  1
  Fe  Fe18  1  0.83822062  0.45985381  0.04450829  1
  Fe  Fe19  1  0.33822062  0.04014619  0.95549171  1
  Fe  Fe20  1  0.83822062  0.04014619  0.54450829  1
  Fe  Fe21  1  0.33822062  0.45985381  0.45549171  1
  Fe  Fe22  1  0.16177938  0.54014619  0.95549171  1
  Fe  Fe23  1  0.66177938  0.95985381  0.04450829  1
  Fe  Fe24  1  0.21390246  0.30073734  0.27380074  1
  Fe  Fe25  1  0.71390246  0.19926266  0.72619926  1
  Fe  Fe26  1  0.78609754  0.80073734  0.22619926  1
  Fe  Fe27  1  0.28609754  0.69926266  0.77380074  1
  Fe  Fe28  1  0.78609754  0.69926266  0.72619926  1
  Fe  Fe29  1  0.28609754  0.80073734  0.27380074  1
  Fe  Fe30  1  0.21390246  0.19926266  0.77380074  1
  Fe  Fe31  1  0.71390246  0.30073734  0.22619926  1
  N  N32  1  0.17650205  0.36911483  0.54014856  1
  N  N33  1  0.67650205  0.13088517  0.45985144  1
  N  N34  1  0.82349795  0.86911483  0.95985144  1
  N  N35  1  0.32349795  0.63088517  0.04014856  1
  N  N36  1  0.82349795  0.63088517  0.45985144  1
  N  N37  1  0.32349795  0.86911483  0.54014856  1
  N  N38  1  0.17650205  0.13088517  0.04014856  1
  N  N39  1  0.67650205  0.36911483  0.95985144  1
  N  N40  1  0.61973449  0.40334692  0.46916835  1
  N  N41  1  0.11973449  0.09665308  0.53083165  1
  N  N42  1  0.38026551  0.90334692  0.03083165  1
  N  N43  1  0.88026551  0.59665308  0.96916835  1
  N  N44  1  0.38026551  0.59665308  0.53083165  1
  N  N45  1  0.88026551  0.90334692  0.46916835  1
  N  N46  1  0.61973449  0.09665308  0.96916835  1
  N  N47  1  0.11973449  0.40334692  0.03083165  1
  N  N48  1  0.95184537  0.21817577  0.26785889  1
  N  N49  1  0.45184537  0.28182423  0.73214111  1
  N  N50  1  0.04815463  0.71817577  0.23214111  1
  N  N51  1  0.54815463  0.78182423  0.76785889  1
  N  N52  1  0.04815463  0.78182423  0.73214111  1
  N  N53  1  0.54815463  0.71817577  0.26785889  1
  N  N54  1  0.95184537  0.28182423  0.76785889  1
  N  N55  1  0.45184537  0.21817577  0.23214111  1
  N  N56  1  0.70091337  0.44644819  0.16556106  1
  N  N57  1  0.20091337  0.05355181  0.83443894  1
  N  N58  1  0.29908663  0.94644819  0.33443894  1
  N  N59  1  0.79908663  0.55355181  0.66556106  1
  N  N60  1  0.29908663  0.55355181  0.83443894  1
  N  N61  1  0.79908663  0.94644819  0.16556106  1
  N  N62  1  0.70091337  0.05355181  0.66556106  1
  N  N63  1  0.20091337  0.44644819  0.33443894  1
