# generated using pymatgen
data_Ca3Bi3N5
_symmetry_space_group_name_H-M   'P 1'
_cell_length_a   6.54932520
_cell_length_b   7.22593646
_cell_length_c   9.35296885
_cell_angle_alpha   102.59758070
_cell_angle_beta   106.81293226
_cell_angle_gamma   99.85439257
_symmetry_Int_Tables_number   1
_chemical_formula_structural   Ca3Bi3N5
_chemical_formula_sum   'Ca6 Bi6 N10'
_cell_volume   400.30018224
_cell_formula_units_Z   2
loop_
 _symmetry_equiv_pos_site_id
 _symmetry_equiv_pos_as_xyz
  1  'x, y, z'
loop_
 _atom_site_type_symbol
 _atom_site_label
 _atom_site_symmetry_multiplicity
 _atom_site_fract_x
 _atom_site_fract_y
 _atom_site_fract_z
 _atom_site_occupancy
  Ca  Ca0  1  0.81916600  0.30155700  0.91077300  1
  Ca  Ca1  1  0.18083400  0.69844300  0.08922700  1
  Ca  Ca2  1  0.75550600  0.98218500  0.54470500  1
  Ca  Ca3  1  0.24449400  0.01781500  0.45529500  1
  Ca  Ca4  1  0.16696200  0.83927300  0.76146300  1
  Ca  Ca5  1  0.83303800  0.16072700  0.23853700  1
  Bi  Bi6  1  0.75814900  0.44581400  0.55709700  1
  Bi  Bi7  1  0.24185100  0.55418600  0.44290300  1
  Bi  Bi8  1  0.68194800  0.82438700  0.87234600  1
  Bi  Bi9  1  0.31805200  0.17561300  0.12765400  1
  Bi  Bi10  1  0.69126300  0.65416000  0.22151800  1
  Bi  Bi11  1  0.30873700  0.34584000  0.77848200  1
  N  N12  1  0.03677800  0.14013500  0.79094300  1
  N  N13  1  0.96322200  0.85986500  0.20905700  1
  N  N14  1  0.93865000  0.68754100  0.47896900  1
  N  N15  1  0.06135000  0.31245900  0.52103100  1
  N  N16  1  0.88179700  0.60941000  0.82310000  1
  N  N17  1  0.11820300  0.39059000  0.17690000  1
  N  N18  1  0.47738000  0.89931200  0.65673000  1
  N  N19  1  0.52262000  0.10068800  0.34327000  1
  N  N20  1  0.38940200  0.66703900  0.91510600  1
  N  N21  1  0.61059800  0.33296100  0.08489400  1
