# generated using pymatgen
data_Ca7(MnN3)2
_symmetry_space_group_name_H-M   'P 1'
_cell_length_a   6.80238170
_cell_length_b   11.41903509
_cell_length_c   5.78642652
_cell_angle_alpha   90.00000585
_cell_angle_beta   88.44459665
_cell_angle_gamma   32.92940818
_symmetry_Int_Tables_number   1
_chemical_formula_structural   Ca7(MnN3)2
_chemical_formula_sum   'Ca7 Mn2 N6'
_cell_volume   244.02957924
_cell_formula_units_Z   1
loop_
 _symmetry_equiv_pos_site_id
 _symmetry_equiv_pos_as_xyz
  1  'x, y, z'
loop_
 _atom_site_type_symbol
 _atom_site_label
 _atom_site_symmetry_multiplicity
 _atom_site_fract_x
 _atom_site_fract_y
 _atom_site_fract_z
 _atom_site_occupancy
  Ca  Ca0  1  0.00000000  0.50000000  0.00000000  1
  Ca  Ca1  1  0.00000000  0.34960100  0.50000000  1
  Ca  Ca2  1  0.00000000  0.65039900  0.50000000  1
  Ca  Ca3  1  0.70826600  0.99142500  0.81919400  1
  Ca  Ca4  1  0.70826600  0.30031000  0.81919400  1
  Ca  Ca5  1  0.29173400  0.00857500  0.18080700  1
  Ca  Ca6  1  0.29173400  0.69969000  0.18080700  1
  Mn  Mn7  1  0.37123100  0.81438400  0.63416100  1
  Mn  Mn8  1  0.62876900  0.18561600  0.36583900  1
  N  N9  1  0.40216300  0.95632500  0.75469900  1
  N  N10  1  0.40216300  0.64151200  0.75469900  1
  N  N11  1  0.59783700  0.04367500  0.24530100  1
  N  N12  1  0.59783700  0.35848800  0.24530100  1
  N  N13  1  0.64010800  0.67994600  0.33689600  1
  N  N14  1  0.35989200  0.32005400  0.66310400  1
