# generated using pymatgen
data_CaReN2
_symmetry_space_group_name_H-M   'P 1'
_cell_length_a   5.55042500
_cell_length_b   10.42050400
_cell_length_c   15.74711900
_cell_angle_alpha   90.00000000
_cell_angle_beta   90.00000000
_cell_angle_gamma   90.00000000
_symmetry_Int_Tables_number   1
_chemical_formula_structural   CaReN2
_chemical_formula_sum   'Ca16 Re16 N32'
_cell_volume   910.78542622
_cell_formula_units_Z   16
loop_
 _symmetry_equiv_pos_site_id
 _symmetry_equiv_pos_as_xyz
  1  'x, y, z'
loop_
 _atom_site_type_symbol
 _atom_site_label
 _atom_site_symmetry_multiplicity
 _atom_site_fract_x
 _atom_site_fract_y
 _atom_site_fract_z
 _atom_site_occupancy
  Ca  Ca0  1  0.74740000  0.00644100  0.44567100  1
  Ca  Ca1  1  0.24740000  0.49355900  0.55432900  1
  Ca  Ca2  1  0.25260000  0.50644100  0.05432900  1
  Ca  Ca3  1  0.75260000  0.99355900  0.94567100  1
  Ca  Ca4  1  0.25260000  0.99355900  0.55432900  1
  Ca  Ca5  1  0.75260000  0.50644100  0.44567100  1
  Ca  Ca6  1  0.74740000  0.49355900  0.94567100  1
  Ca  Ca7  1  0.24740000  0.00644100  0.05432900  1
  Ca  Ca8  1  0.86907800  0.29604300  0.31457300  1
  Ca  Ca9  1  0.36907800  0.20395700  0.68542700  1
  Ca  Ca10  1  0.13092200  0.79604300  0.18542700  1
  Ca  Ca11  1  0.63092200  0.70395700  0.81457300  1
  Ca  Ca12  1  0.13092200  0.70395700  0.68542700  1
  Ca  Ca13  1  0.63092200  0.79604300  0.31457300  1
  Ca  Ca14  1  0.86907800  0.20395700  0.81457300  1
  Ca  Ca15  1  0.36907800  0.29604300  0.18542700  1
  Re  Re16  1  0.72325800  0.03320000  0.17707900  1
  Re  Re17  1  0.22325800  0.46680000  0.82292100  1
  Re  Re18  1  0.27674200  0.53320000  0.32292100  1
  Re  Re19  1  0.77674200  0.96680000  0.67707900  1
  Re  Re20  1  0.27674200  0.96680000  0.82292100  1
  Re  Re21  1  0.77674200  0.53320000  0.17707900  1
  Re  Re22  1  0.72325800  0.46680000  0.67707900  1
  Re  Re23  1  0.22325800  0.03320000  0.32292100  1
  Re  Re24  1  0.82312000  0.25500600  0.06126000  1
  Re  Re25  1  0.32312000  0.24499400  0.93874000  1
  Re  Re26  1  0.17688000  0.75500600  0.43874000  1
  Re  Re27  1  0.67688000  0.74499400  0.56126000  1
  Re  Re28  1  0.17688000  0.74499400  0.93874000  1
  Re  Re29  1  0.67688000  0.75500600  0.06126000  1
  Re  Re30  1  0.82312000  0.24499400  0.56126000  1
  Re  Re31  1  0.32312000  0.25500600  0.43874000  1
  N  N32  1  0.59776300  0.48885600  0.28553500  1
  N  N33  1  0.09776300  0.01114400  0.71446500  1
  N  N34  1  0.40223700  0.98885600  0.21446500  1
  N  N35  1  0.90223700  0.51114400  0.78553500  1
  N  N36  1  0.40223700  0.51114400  0.71446500  1
  N  N37  1  0.90223700  0.98885600  0.28553500  1
  N  N38  1  0.59776300  0.01114400  0.78553500  1
  N  N39  1  0.09776300  0.48885600  0.21446500  1
  N  N40  1  0.66200700  0.25071000  0.45057700  1
  N  N41  1  0.16200700  0.24929000  0.54942300  1
  N  N42  1  0.33799300  0.75071000  0.04942300  1
  N  N43  1  0.83799300  0.74929000  0.95057700  1
  N  N44  1  0.33799300  0.74929000  0.54942300  1
  N  N45  1  0.83799300  0.75071000  0.45057700  1
  N  N46  1  0.66200700  0.24929000  0.95057700  1
  N  N47  1  0.16200700  0.25071000  0.04942300  1
  N  N48  1  0.65289700  0.42426600  0.08836000  1
  N  N49  1  0.15289700  0.07573400  0.91164000  1
  N  N50  1  0.34710300  0.92426600  0.41164000  1
  N  N51  1  0.84710300  0.57573400  0.58836000  1
  N  N52  1  0.34710300  0.57573400  0.91164000  1
  N  N53  1  0.84710300  0.92426600  0.08836000  1
  N  N54  1  0.65289700  0.07573400  0.58836000  1
  N  N55  1  0.15289700  0.42426600  0.41164000  1
  N  N56  1  0.78053100  0.21160600  0.18361900  1
  N  N57  1  0.28053100  0.28839400  0.81638100  1
  N  N58  1  0.21946900  0.71160600  0.31638100  1
  N  N59  1  0.71946900  0.78839400  0.68361900  1
  N  N60  1  0.21946900  0.78839400  0.81638100  1
  N  N61  1  0.71946900  0.71160600  0.18361900  1
  N  N62  1  0.78053100  0.28839400  0.68361900  1
  N  N63  1  0.28053100  0.21160600  0.31638100  1
