# generated using pymatgen
data_Ba3V3N5
_symmetry_space_group_name_H-M   'P 1'
_cell_length_a   5.98981178
_cell_length_b   7.63601340
_cell_length_c   8.92524327
_cell_angle_alpha   107.78863348
_cell_angle_beta   101.94067045
_cell_angle_gamma   96.77956580
_symmetry_Int_Tables_number   1
_chemical_formula_structural   Ba3V3N5
_chemical_formula_sum   'Ba6 V6 N10'
_cell_volume   373.02934772
_cell_formula_units_Z   2
loop_
 _symmetry_equiv_pos_site_id
 _symmetry_equiv_pos_as_xyz
  1  'x, y, z'
loop_
 _atom_site_type_symbol
 _atom_site_label
 _atom_site_symmetry_multiplicity
 _atom_site_fract_x
 _atom_site_fract_y
 _atom_site_fract_z
 _atom_site_occupancy
  Ba  Ba0  1  0.81731000  0.43146300  0.61095600  1
  Ba  Ba1  1  0.18269000  0.56853700  0.38904400  1
  Ba  Ba2  1  0.64850100  0.85692100  0.88087300  1
  Ba  Ba3  1  0.35149900  0.14307900  0.11912700  1
  Ba  Ba4  1  0.64901200  0.67277000  0.22106600  1
  Ba  Ba5  1  0.35098800  0.32723000  0.77893400  1
  V  V6  1  0.91622000  0.31841200  0.97207700  1
  V  V7  1  0.08378000  0.68158800  0.02792300  1
  V  V8  1  0.69048100  0.98362000  0.58683900  1
  V  V9  1  0.30951900  0.01638000  0.41316100  1
  V  V10  1  0.09672300  0.89691500  0.70459200  1
  V  V11  1  0.90327700  0.10308500  0.29540800  1
  N  N12  1  0.95060900  0.11597600  0.78973500  1
  N  N13  1  0.04939100  0.88402400  0.21026500  1
  N  N14  1  0.81545600  0.75969900  0.54427800  1
  N  N15  1  0.18454400  0.24030100  0.45572200  1
  N  N16  1  0.78825200  0.52485600  0.92965600  1
  N  N17  1  0.21174800  0.47514400  0.07034400  1
  N  N18  1  0.37113400  0.94448900  0.61663000  1
  N  N19  1  0.62886600  0.05551100  0.38337000  1
  N  N20  1  0.15256700  0.78466000  0.86759300  1
  N  N21  1  0.84743300  0.21534000  0.13240700  1
