# generated using pymatgen
data_Mn2SbN
_symmetry_space_group_name_H-M   'P 1'
_cell_length_a   3.74771400
_cell_length_b   3.74771400
_cell_length_c   9.13954200
_cell_angle_alpha   90.00000000
_cell_angle_beta   90.00000000
_cell_angle_gamma   90.00000000
_symmetry_Int_Tables_number   1
_chemical_formula_structural   Mn2SbN
_chemical_formula_sum   'Mn4 Sb2 N2'
_cell_volume   128.36815969
_cell_formula_units_Z   2
loop_
 _symmetry_equiv_pos_site_id
 _symmetry_equiv_pos_as_xyz
  1  'x, y, z'
loop_
 _atom_site_type_symbol
 _atom_site_label
 _atom_site_symmetry_multiplicity
 _atom_site_fract_x
 _atom_site_fract_y
 _atom_site_fract_z
 _atom_site_occupancy
  Mn  Mn0  1  0.75000000  0.75000000  0.01554600  1
  Mn  Mn1  1  0.25000000  0.25000000  0.98445400  1
  Mn  Mn2  1  0.75000000  0.25000000  0.50000000  1
  Mn  Mn3  1  0.25000000  0.75000000  0.50000000  1
  Sb  Sb4  1  0.75000000  0.75000000  0.30117600  1
  Sb  Sb5  1  0.25000000  0.25000000  0.69882400  1
  N  N6  1  0.75000000  0.25000000  0.00000000  1
  N  N7  1  0.25000000  0.75000000  0.00000000  1
