# generated using pymatgen
data_Cr5(GeN3)2
_symmetry_space_group_name_H-M   'P 1'
_cell_length_a   5.94562432
_cell_length_b   5.53346253
_cell_length_c   10.35782754
_cell_angle_alpha   90.00000354
_cell_angle_beta   108.40382906
_cell_angle_gamma   117.73216084
_symmetry_Int_Tables_number   1
_chemical_formula_structural   Cr5(GeN3)2
_chemical_formula_sum   'Cr10 Ge4 N12'
_cell_volume   281.78832095
_cell_formula_units_Z   2
loop_
 _symmetry_equiv_pos_site_id
 _symmetry_equiv_pos_as_xyz
  1  'x, y, z'
loop_
 _atom_site_type_symbol
 _atom_site_label
 _atom_site_symmetry_multiplicity
 _atom_site_fract_x
 _atom_site_fract_y
 _atom_site_fract_z
 _atom_site_occupancy
  Cr  Cr0  1  0.02383100  0.84220600  0.92340500  1
  Cr  Cr1  1  0.97616900  0.81837500  0.57659500  1
  Cr  Cr2  1  0.97616900  0.15779400  0.07659500  1
  Cr  Cr3  1  0.02383100  0.18162500  0.42340500  1
  Cr  Cr4  1  0.43641000  0.27615500  0.67980800  1
  Cr  Cr5  1  0.56359000  0.83974500  0.82019200  1
  Cr  Cr6  1  0.56359000  0.72384500  0.32019200  1
  Cr  Cr7  1  0.43641000  0.16025500  0.17980800  1
  Cr  Cr8  1  0.00000000  0.34258000  0.75000000  1
  Cr  Cr9  1  0.00000000  0.65742000  0.25000000  1
  Ge  Ge10  1  0.49412800  0.71849600  0.56243400  1
  Ge  Ge11  1  0.50587200  0.22436700  0.93756600  1
  Ge  Ge12  1  0.50587200  0.28150400  0.43756600  1
  Ge  Ge13  1  0.49412800  0.77563300  0.06243400  1
  N  N14  1  0.06476100  0.19374500  0.61099400  1
  N  N15  1  0.93523900  0.12898400  0.88900600  1
  N  N16  1  0.93523900  0.80625500  0.38900600  1
  N  N17  1  0.06476100  0.87101600  0.11099400  1
  N  N18  1  0.34720600  0.89641000  0.64267100  1
  N  N19  1  0.65279400  0.54920400  0.85732900  1
  N  N20  1  0.65279400  0.10359000  0.35732900  1
  N  N21  1  0.34720600  0.45079600  0.14267100  1
  N  N22  1  0.77352000  0.44369800  0.62787200  1
  N  N23  1  0.22648000  0.67017800  0.87212800  1
  N  N24  1  0.22648000  0.55630200  0.37212800  1
  N  N25  1  0.77352000  0.32982200  0.12787200  1
