# generated using pymatgen
data_Na3InN2
_symmetry_space_group_name_H-M   'P 1'
_cell_length_a   9.83807300
_cell_length_b   11.36002785
_cell_length_c   11.36002798
_cell_angle_alpha   89.99999878
_cell_angle_beta   125.26438836
_cell_angle_gamma   54.73561118
_symmetry_Int_Tables_number   1
_chemical_formula_structural   Na3InN2
_chemical_formula_sum   'Na24 In8 N16'
_cell_volume   733.00717387
_cell_formula_units_Z   8
loop_
 _symmetry_equiv_pos_site_id
 _symmetry_equiv_pos_as_xyz
  1  'x, y, z'
loop_
 _atom_site_type_symbol
 _atom_site_label
 _atom_site_symmetry_multiplicity
 _atom_site_fract_x
 _atom_site_fract_y
 _atom_site_fract_z
 _atom_site_occupancy
  Na  Na0  1  0.21564200  0.04386500  0.97990800  1
  Na  Na1  1  0.78435800  0.75950800  0.52009200  1
  Na  Na2  1  0.78435800  0.45613500  0.76426500  1
  Na  Na3  1  0.21564200  0.74049200  0.73573500  1
  Na  Na4  1  0.25582700  0.76426500  0.27960000  1
  Na  Na5  1  0.74417300  0.73573500  0.02377300  1
  Na  Na6  1  0.25582700  0.97990800  0.47622700  1
  Na  Na7  1  0.74417300  0.52009200  0.22040000  1
  Na  Na8  1  0.69662700  0.02377300  0.74049200  1
  Na  Na9  1  0.69662700  0.27960000  0.45613500  1
  Na  Na10  1  0.30337300  0.22040000  0.75950800  1
  Na  Na11  1  0.30337300  0.47622700  0.04386500  1
  Na  Na12  1  0.78435800  0.95613500  0.02009200  1
  Na  Na13  1  0.21564200  0.24049200  0.47990800  1
  Na  Na14  1  0.21564200  0.54386500  0.23573500  1
  Na  Na15  1  0.78435800  0.25950800  0.26426500  1
  Na  Na16  1  0.74417300  0.23573500  0.72040000  1
  Na  Na17  1  0.25582700  0.26426500  0.97622700  1
  Na  Na18  1  0.74417300  0.02009200  0.52377300  1
  Na  Na19  1  0.25582700  0.47990800  0.77960000  1
  Na  Na20  1  0.30337300  0.97622700  0.25950800  1
  Na  Na21  1  0.30337300  0.72040000  0.54386500  1
  Na  Na22  1  0.69662700  0.77960000  0.24049200  1
  Na  Na23  1  0.69662700  0.52377300  0.95613500  1
  In  In24  1  0.22687600  0.00000000  0.72687600  1
  In  In25  1  0.77312400  0.72687600  0.77312400  1
  In  In26  1  0.77312400  0.50000000  0.50000000  1
  In  In27  1  0.22687600  0.77312400  0.00000000  1
  In  In28  1  0.77312400  0.00000000  0.27312400  1
  In  In29  1  0.22687600  0.27312400  0.22687600  1
  In  In30  1  0.22687600  0.50000000  0.50000000  1
  In  In31  1  0.77312400  0.22687600  0.00000000  1
  N  N32  1  0.00000000  0.00000000  0.50000000  1
  N  N33  1  0.00000000  0.50000000  0.00000000  1
  N  N34  1  0.00000000  0.50000000  0.50000000  1
  N  N35  1  0.00000000  0.00000000  0.00000000  1
  N  N36  1  0.50000000  0.96157000  0.75000000  1
  N  N37  1  0.50000000  0.53843000  0.25000000  1
  N  N38  1  0.00000000  0.25000000  0.71157000  1
  N  N39  1  0.00000000  0.75000000  0.78843000  1
  N  N40  1  0.57686000  0.71157000  0.53843000  1
  N  N41  1  0.42314000  0.78843000  0.96157000  1
  N  N42  1  0.50000000  0.03843000  0.25000000  1
  N  N43  1  0.50000000  0.46157000  0.75000000  1
  N  N44  1  0.00000000  0.75000000  0.28843000  1
  N  N45  1  0.00000000  0.25000000  0.21157000  1
  N  N46  1  0.42314000  0.28843000  0.46157000  1
  N  N47  1  0.57686000  0.21157000  0.03843000  1
