# generated using pymatgen
data_CaCrN2
_symmetry_space_group_name_H-M   'P 1'
_cell_length_a   5.44987300
_cell_length_b   10.66624500
_cell_length_c   14.86783400
_cell_angle_alpha   90.00000000
_cell_angle_beta   90.00000000
_cell_angle_gamma   90.00000000
_symmetry_Int_Tables_number   1
_chemical_formula_structural   CaCrN2
_chemical_formula_sum   'Ca16 Cr16 N32'
_cell_volume   864.26244218
_cell_formula_units_Z   16
loop_
 _symmetry_equiv_pos_site_id
 _symmetry_equiv_pos_as_xyz
  1  'x, y, z'
loop_
 _atom_site_type_symbol
 _atom_site_label
 _atom_site_symmetry_multiplicity
 _atom_site_fract_x
 _atom_site_fract_y
 _atom_site_fract_z
 _atom_site_occupancy
  Ca  Ca0  1  0.72860000  0.00581700  0.43276800  1
  Ca  Ca1  1  0.22860000  0.49418300  0.56723200  1
  Ca  Ca2  1  0.27140000  0.50581700  0.06723200  1
  Ca  Ca3  1  0.77140000  0.99418300  0.93276800  1
  Ca  Ca4  1  0.27140000  0.99418300  0.56723200  1
  Ca  Ca5  1  0.77140000  0.50581700  0.43276800  1
  Ca  Ca6  1  0.72860000  0.49418300  0.93276800  1
  Ca  Ca7  1  0.22860000  0.00581700  0.06723200  1
  Ca  Ca8  1  0.89144700  0.28008500  0.30988700  1
  Ca  Ca9  1  0.39144700  0.21991500  0.69011300  1
  Ca  Ca10  1  0.10855300  0.78008500  0.19011300  1
  Ca  Ca11  1  0.60855300  0.71991500  0.80988700  1
  Ca  Ca12  1  0.10855300  0.71991500  0.69011300  1
  Ca  Ca13  1  0.60855300  0.78008500  0.30988700  1
  Ca  Ca14  1  0.89144700  0.21991500  0.80988700  1
  Ca  Ca15  1  0.39144700  0.28008500  0.19011300  1
  Cr  Cr16  1  0.72373400  0.01286100  0.18858300  1
  Cr  Cr17  1  0.22373400  0.48713900  0.81141700  1
  Cr  Cr18  1  0.27626600  0.51286100  0.31141700  1
  Cr  Cr19  1  0.77626600  0.98713900  0.68858300  1
  Cr  Cr20  1  0.27626600  0.98713900  0.81141700  1
  Cr  Cr21  1  0.77626600  0.51286100  0.18858300  1
  Cr  Cr22  1  0.72373400  0.48713900  0.68858300  1
  Cr  Cr23  1  0.22373400  0.01286100  0.31141700  1
  Cr  Cr24  1  0.84618900  0.27076200  0.06246300  1
  Cr  Cr25  1  0.34618900  0.22923800  0.93753700  1
  Cr  Cr26  1  0.15381100  0.77076200  0.43753700  1
  Cr  Cr27  1  0.65381100  0.72923800  0.56246300  1
  Cr  Cr28  1  0.15381100  0.72923800  0.93753700  1
  Cr  Cr29  1  0.65381100  0.77076200  0.06246300  1
  Cr  Cr30  1  0.84618900  0.22923800  0.56246300  1
  Cr  Cr31  1  0.34618900  0.27076200  0.43753700  1
  N  N32  1  0.59608800  0.46044400  0.28631300  1
  N  N33  1  0.09608800  0.03955600  0.71368700  1
  N  N34  1  0.40391200  0.96044400  0.21368700  1
  N  N35  1  0.90391200  0.53955600  0.78631300  1
  N  N36  1  0.40391200  0.53955600  0.71368700  1
  N  N37  1  0.90391200  0.96044400  0.28631300  1
  N  N38  1  0.59608800  0.03955600  0.78631300  1
  N  N39  1  0.09608800  0.46044400  0.21368700  1
  N  N40  1  0.68262200  0.27760600  0.45736100  1
  N  N41  1  0.18262200  0.22239400  0.54263900  1
  N  N42  1  0.31737800  0.77760600  0.04263900  1
  N  N43  1  0.81737800  0.72239400  0.95736100  1
  N  N44  1  0.31737800  0.72239400  0.54263900  1
  N  N45  1  0.81737800  0.77760600  0.45736100  1
  N  N46  1  0.68262200  0.22239400  0.95736100  1
  N  N47  1  0.18262200  0.27760600  0.04263900  1
  N  N48  1  0.69335900  0.42738800  0.08526400  1
  N  N49  1  0.19335900  0.07261200  0.91473600  1
  N  N50  1  0.30664100  0.92738800  0.41473600  1
  N  N51  1  0.80664100  0.57261200  0.58526400  1
  N  N52  1  0.30664100  0.57261200  0.91473600  1
  N  N53  1  0.80664100  0.92738800  0.08526400  1
  N  N54  1  0.69335900  0.07261200  0.58526400  1
  N  N55  1  0.19335900  0.42738800  0.41473600  1
  N  N56  1  0.77402000  0.17873600  0.16613900  1
  N  N57  1  0.27402000  0.32126400  0.83386100  1
  N  N58  1  0.22598000  0.67873600  0.33386100  1
  N  N59  1  0.72598000  0.82126400  0.66613900  1
  N  N60  1  0.22598000  0.82126400  0.83386100  1
  N  N61  1  0.72598000  0.67873600  0.16613900  1
  N  N62  1  0.77402000  0.32126400  0.66613900  1
  N  N63  1  0.27402000  0.17873600  0.33386100  1
