# generated using pymatgen
data_Mg3MoN4
_symmetry_space_group_name_H-M   'P 1'
_cell_length_a   15.94961739
_cell_length_b   15.94962787
_cell_length_c   8.97770155
_cell_angle_alpha   90.00115861
_cell_angle_beta   90.00115967
_cell_angle_gamma   119.99867485
_symmetry_Int_Tables_number   1
_chemical_formula_structural   Mg3MoN4
_chemical_formula_sum   'Mg54 Mo18 N72'
_cell_volume   1977.89129269
_cell_formula_units_Z   18
loop_
 _symmetry_equiv_pos_site_id
 _symmetry_equiv_pos_as_xyz
  1  'x, y, z'
loop_
 _atom_site_type_symbol
 _atom_site_label
 _atom_site_symmetry_multiplicity
 _atom_site_fract_x
 _atom_site_fract_y
 _atom_site_fract_z
 _atom_site_occupancy
  Mg  Mg0  1  0.09544667  0.24566556  0.87813515  1
  Mg  Mg1  1  0.75435118  0.84977141  0.87822318  1
  Mg  Mg2  1  0.15020693  0.90458386  0.87810563  1
  Mg  Mg3  1  0.24566538  0.09544631  0.37813364  1
  Mg  Mg4  1  0.84977069  0.75434834  0.37822399  1
  Mg  Mg5  1  0.90458479  0.15020714  0.37810641  1
  Mg  Mg6  1  0.33332663  0.66666977  0.07838514  1
  Mg  Mg7  1  0.66667019  0.33332723  0.57838554  1
  Mg  Mg8  1  0.85653174  0.07340400  0.05146866  1
  Mg  Mg9  1  0.92659014  0.78312039  0.05159796  1
  Mg  Mg10  1  0.21688751  0.14349465  0.05152851  1
  Mg  Mg11  1  0.07340335  0.85653211  0.55146938  1
  Mg  Mg12  1  0.78312104  0.92659006  0.55159989  1
  Mg  Mg13  1  0.14349474  0.21688799  0.55153188  1
  Mg  Mg14  1  0.23522631  0.78757043  0.25122860  1
  Mg  Mg15  1  0.21243314  0.44766615  0.25125829  1
  Mg  Mg16  1  0.55232407  0.76476382  0.25126919  1
  Mg  Mg17  1  0.78757053  0.23522854  0.75122901  1
  Mg  Mg18  1  0.44766593  0.21243322  0.75125730  1
  Mg  Mg19  1  0.76476319  0.55232346  0.75127116  1
  Mg  Mg20  1  0.21611618  0.77368199  0.95124560  1
  Mg  Mg21  1  0.22631648  0.44244836  0.95128216  1
  Mg  Mg22  1  0.55754644  0.78386796  0.95130597  1
  Mg  Mg23  1  0.77368325  0.21611533  0.45124689  1
  Mg  Mg24  1  0.44244808  0.22631535  0.45128190  1
  Mg  Mg25  1  0.78386711  0.55754598  0.45130514  1
  Mg  Mg26  1  0.99999368  0.00001529  0.19524323  1
  Mg  Mg27  1  0.00001399  0.99999318  0.69524286  1
  Mg  Mg28  1  0.11824471  0.55861133  0.46479351  1
  Mg  Mg29  1  0.44139247  0.55965717  0.46481664  1
  Mg  Mg30  1  0.44033775  0.88173395  0.46481588  1
  Mg  Mg31  1  0.55861049  0.11824688  0.96479607  1
  Mg  Mg32  1  0.55965803  0.44139289  0.96481619  1
  Mg  Mg33  1  0.88173534  0.44033750  0.96481534  1
  Mg  Mg34  1  0.33331610  0.66666163  0.61485300  1
  Mg  Mg35  1  0.66666248  0.33331623  0.11485283  1
  Mg  Mg36  1  0.03043683  0.34031539  0.56700659  1
  Mg  Mg37  1  0.65968400  0.69011702  0.56699881  1
  Mg  Mg38  1  0.30986966  0.96956772  0.56696007  1
  Mg  Mg39  1  0.34031514  0.03043732  0.06700589  1
  Mg  Mg40  1  0.69011934  0.65968592  0.06699944  1
  Mg  Mg41  1  0.96956684  0.30987015  0.06696134  1
  Mg  Mg42  1  0.11181429  0.52800563  0.77710381  1
  Mg  Mg43  1  0.47200883  0.58382426  0.77713453  1
  Mg  Mg44  1  0.41615543  0.88817793  0.77713048  1
  Mg  Mg45  1  0.52800644  0.11181329  0.27710219  1
  Mg  Mg46  1  0.58382375  0.47200981  0.27713386  1
  Mg  Mg47  1  0.88817907  0.41615667  0.27713066  1
  Mg  Mg48  1  0.33911886  0.32953887  0.85323685  1
  Mg  Mg49  1  0.67046253  0.00955375  0.85312826  1
  Mg  Mg50  1  0.99039221  0.66086514  0.85336258  1
  Mg  Mg51  1  0.32953734  0.33911720  0.35323864  1
  Mg  Mg52  1  0.00955220  0.67046103  0.35312570  1
  Mg  Mg53  1  0.66086418  0.99039154  0.35336226  1
  Mo  Mo54  1  0.23866209  0.44232291  0.60656473  1
  Mo  Mo55  1  0.55767111  0.79633255  0.60660759  1
  Mo  Mo56  1  0.20364935  0.76135372  0.60651992  1
  Mo  Mo57  1  0.44232170  0.23866228  0.10656672  1
  Mo  Mo58  1  0.79633076  0.55767072  0.10660723  1
  Mo  Mo59  1  0.76135455  0.20365019  0.10652008  1
  Mo  Mo60  1  0.77600061  0.87410634  0.24336720  1
  Mo  Mo61  1  0.12589154  0.90192870  0.24328771  1
  Mo  Mo62  1  0.09808156  0.22399120  0.24334677  1
  Mo  Mo63  1  0.87410533  0.77600043  0.74336505  1
  Mo  Mo64  1  0.90192941  0.12589029  0.74329082  1
  Mo  Mo65  1  0.22399121  0.09808245  0.74334681  1
  Mo  Mo66  1  0.10454779  0.56626678  0.10369132  1
  Mo  Mo67  1  0.43372249  0.53827640  0.10370200  1
  Mo  Mo68  1  0.46172484  0.89544948  0.10369401  1
  Mo  Mo69  1  0.56626690  0.10454811  0.60369242  1
  Mo  Mo70  1  0.53827671  0.43372441  0.60370150  1
  Mo  Mo71  1  0.89544827  0.46172383  0.60369393  1
  N  N72  1  0.07988457  0.72969647  0.56272459  1
  N  N73  1  0.27033507  0.35020858  0.56284529  1
  N  N74  1  0.64979495  0.92012871  0.56296757  1
  N  N75  1  0.72969623  0.07988352  0.06272636  1
  N  N76  1  0.35020828  0.27033524  0.06284454  1
  N  N77  1  0.92012884  0.64979368  0.06296747  1
  N  N78  1  0.19703603  0.19543434  0.81940391  1
  N  N79  1  0.80458941  0.00158704  0.81935717  1
  N  N80  1  0.99838126  0.80291833  0.81947462  1
  N  N81  1  0.19543441  0.19703596  0.31940701  1
  N  N82  1  0.00158673  0.80458820  0.31935709  1
  N  N83  1  0.80292009  0.99838252  0.31947265  1
  N  N84  1  0.17263868  0.46536507  0.45446622  1
  N  N85  1  0.53465532  0.70728694  0.45448790  1
  N  N86  1  0.29272480  0.82738831  0.45443571  1
  N  N87  1  0.46536625  0.17263865  0.95446893  1
  N  N88  1  0.70728721  0.53465625  0.95448514  1
  N  N89  1  0.82738872  0.29272413  0.95443668  1
  N  N90  1  0.05255625  0.25602887  0.40921173  1
  N  N91  1  0.74400009  0.79653354  0.40922941  1
  N  N92  1  0.20345483  0.94748763  0.40916702  1
  N  N93  1  0.25602991  0.05255777  0.90921124  1
  N  N94  1  0.79653390  0.74400097  0.90922856  1
  N  N95  1  0.94748655  0.20345339  0.90916794  1
  N  N96  1  0.11906066  0.63943669  0.27591919  1
  N  N97  1  0.36056743  0.47962670  0.27594581  1
  N  N98  1  0.52036917  0.88094037  0.27595531  1
  N  N99  1  0.63943682  0.11906074  0.77591821  1
  N  N100  1  0.47962711  0.36056768  0.77594452  1
  N  N101  1  0.88094034  0.52036860  0.77595298  1
  N  N102  1  0.88134763  0.87192497  0.16023221  1
  N  N103  1  0.12809212  0.00947565  0.16018104  1
  N  N104  1  0.99048573  0.11864198  0.16033866  1
  N  N105  1  0.87192610  0.88134596  0.66023376  1
  N  N106  1  0.00947561  0.12809276  0.66018187  1
  N  N107  1  0.11864288  0.99048513  0.66033852  1
  N  N108  1  0.20126262  0.64365401  0.64607372  1
  N  N109  1  0.35635379  0.55763426  0.64610403  1
  N  N110  1  0.44235456  0.79871705  0.64610801  1
  N  N111  1  0.64365401  0.20126157  0.14607375  1
  N  N112  1  0.55763491  0.35635576  0.14610505  1
  N  N113  1  0.79871548  0.44235411  0.14610868  1
  N  N114  1  0.67464496  0.81474721  0.09815353  1
  N  N115  1  0.18523682  0.85991002  0.09810746  1
  N  N116  1  0.14008853  0.32533290  0.09812159  1
  N  N117  1  0.81474821  0.67464680  0.59815424  1
  N  N118  1  0.85990996  0.18523795  0.59810866  1
  N  N119  1  0.32533293  0.14008876  0.59812105  1
  N  N120  1  0.14175905  0.39435536  0.76382732  1
  N  N121  1  0.60562541  0.74738196  0.76386739  1
  N  N122  1  0.25257317  0.85824440  0.76380663  1
  N  N123  1  0.39435388  0.14175842  0.26383054  1
  N  N124  1  0.74738239  0.60562548  0.26386716  1
  N  N125  1  0.85824343  0.25257298  0.26380457  1
  N  N126  1  0.99268244  0.44787106  0.11097869  1
  N  N127  1  0.55212090  0.54480454  0.11096662  1
  N  N128  1  0.45519583  0.00731758  0.11095351  1
  N  N129  1  0.44787065  0.99268181  0.61097924  1
  N  N130  1  0.54480411  0.55211988  0.61096686  1
  N  N131  1  0.00731661  0.45519692  0.61095326  1
  N  N132  1  0.20949733  0.54070785  0.08031462  1
  N  N133  1  0.45928333  0.66878505  0.08032496  1
  N  N134  1  0.33121171  0.79051253  0.08027388  1
  N  N135  1  0.54070788  0.20949874  0.58031507  1
  N  N136  1  0.66878464  0.45928297  0.58032765  1
  N  N137  1  0.79051382  0.33121220  0.58027552  1
  N  N138  1  0.09936368  0.62964350  0.93187031  1
  N  N139  1  0.37034597  0.46971940  0.93187517  1
  N  N140  1  0.53028276  0.90063330  0.93187440  1
  N  N141  1  0.62964394  0.09936303  0.43187137  1
  N  N142  1  0.46972089  0.37034614  0.43187841  1
  N  N143  1  0.90063455  0.53028427  0.43187477  1
