# generated using pymatgen
data_Sr3Sc2N4
_symmetry_space_group_name_H-M   'P 1'
_cell_length_a   6.18763600
_cell_length_b   10.99476900
_cell_length_c   9.88290200
_cell_angle_alpha   90.00000000
_cell_angle_beta   90.00000000
_cell_angle_gamma   90.00000000
_symmetry_Int_Tables_number   1
_chemical_formula_structural   Sr3Sc2N4
_chemical_formula_sum   'Sr12 Sc8 N16'
_cell_volume   672.34991713
_cell_formula_units_Z   4
loop_
 _symmetry_equiv_pos_site_id
 _symmetry_equiv_pos_as_xyz
  1  'x, y, z'
loop_
 _atom_site_type_symbol
 _atom_site_label
 _atom_site_symmetry_multiplicity
 _atom_site_fract_x
 _atom_site_fract_y
 _atom_site_fract_z
 _atom_site_occupancy
  Sr  Sr0  1  0.61565000  0.15411800  0.41366400  1
  Sr  Sr1  1  0.88435000  0.84588200  0.41366400  1
  Sr  Sr2  1  0.61565000  0.34588200  0.08633600  1
  Sr  Sr3  1  0.88435000  0.65411800  0.08633600  1
  Sr  Sr4  1  0.38435000  0.84588200  0.58633600  1
  Sr  Sr5  1  0.11565000  0.15411800  0.58633600  1
  Sr  Sr6  1  0.38435000  0.65411800  0.91366400  1
  Sr  Sr7  1  0.11565000  0.34588200  0.91366400  1
  Sr  Sr8  1  0.75000000  0.50000000  0.40599700  1
  Sr  Sr9  1  0.75000000  0.00000000  0.09400300  1
  Sr  Sr10  1  0.25000000  0.50000000  0.59400300  1
  Sr  Sr11  1  0.25000000  0.00000000  0.90599700  1
  Sc  Sc12  1  0.75000000  0.50000000  0.73902400  1
  Sc  Sc13  1  0.75000000  0.00000000  0.76097600  1
  Sc  Sc14  1  0.25000000  0.50000000  0.26097600  1
  Sc  Sc15  1  0.25000000  0.00000000  0.23902400  1
  Sc  Sc16  1  0.65865700  0.25000000  0.75000000  1
  Sc  Sc17  1  0.84134300  0.75000000  0.75000000  1
  Sc  Sc18  1  0.34134300  0.75000000  0.25000000  1
  Sc  Sc19  1  0.15865700  0.25000000  0.25000000  1
  N  N20  1  0.88039000  0.35576700  0.62836300  1
  N  N21  1  0.61961000  0.64423300  0.62836300  1
  N  N22  1  0.88039000  0.14423300  0.87163700  1
  N  N23  1  0.61961000  0.85576700  0.87163700  1
  N  N24  1  0.11961000  0.64423300  0.37163700  1
  N  N25  1  0.38039000  0.35576700  0.37163700  1
  N  N26  1  0.11961000  0.85576700  0.12836300  1
  N  N27  1  0.38039000  0.14423300  0.12836300  1
  N  N28  1  0.50307900  0.40172000  0.83980800  1
  N  N29  1  0.99692100  0.59828000  0.83980800  1
  N  N30  1  0.50307900  0.09828000  0.66019200  1
  N  N31  1  0.99692100  0.90172000  0.66019200  1
  N  N32  1  0.49692100  0.59828000  0.16019200  1
  N  N33  1  0.00307900  0.40172000  0.16019200  1
  N  N34  1  0.49692100  0.90172000  0.33980800  1
  N  N35  1  0.00307900  0.09828000  0.33980800  1
