# generated using pymatgen
data_Mn(NiN)3
_symmetry_space_group_name_H-M   'P 1'
_cell_length_a   7.55491721
_cell_length_b   7.56822143
_cell_length_c   3.32901900
_cell_angle_alpha   90.00000000
_cell_angle_beta   90.00000000
_cell_angle_gamma   120.13060955
_symmetry_Int_Tables_number   1
_chemical_formula_structural   Mn(NiN)3
_chemical_formula_sum   'Mn2 Ni6 N6'
_cell_volume   164.62559609
_cell_formula_units_Z   2
loop_
 _symmetry_equiv_pos_site_id
 _symmetry_equiv_pos_as_xyz
  1  'x, y, z'
loop_
 _atom_site_type_symbol
 _atom_site_label
 _atom_site_symmetry_multiplicity
 _atom_site_fract_x
 _atom_site_fract_y
 _atom_site_fract_z
 _atom_site_occupancy
  Mn  Mn0  1  0.66608800  0.33334700  0.75000000  1
  Mn  Mn1  1  0.33391200  0.66665300  0.25000000  1
  Ni  Ni2  1  0.76123900  0.63939000  0.25000000  1
  Ni  Ni3  1  0.87777600  0.23912600  0.25000000  1
  Ni  Ni4  1  0.35985100  0.12100800  0.25000000  1
  Ni  Ni5  1  0.23876100  0.36061000  0.75000000  1
  Ni  Ni6  1  0.12222400  0.76087400  0.75000000  1
  Ni  Ni7  1  0.64014900  0.87899200  0.75000000  1
  N  N8  1  0.84170500  0.59772500  0.75000000  1
  N  N9  1  0.75535500  0.15865400  0.75000000  1
  N  N10  1  0.40119700  0.24336200  0.75000000  1
  N  N11  1  0.15829500  0.40227500  0.25000000  1
  N  N12  1  0.24464500  0.84134600  0.25000000  1
  N  N13  1  0.59880300  0.75663800  0.25000000  1
