# generated using pymatgen
data_Ba4GeN4
_symmetry_space_group_name_H-M   'P 1'
_cell_length_a   12.85996800
_cell_length_b   4.02295200
_cell_length_c   17.18419800
_cell_angle_alpha   90.00000000
_cell_angle_beta   90.00000000
_cell_angle_gamma   90.00000000
_symmetry_Int_Tables_number   1
_chemical_formula_structural   Ba4GeN4
_chemical_formula_sum   'Ba16 Ge4 N16'
_cell_volume   889.02506754
_cell_formula_units_Z   4
loop_
 _symmetry_equiv_pos_site_id
 _symmetry_equiv_pos_as_xyz
  1  'x, y, z'
loop_
 _atom_site_type_symbol
 _atom_site_label
 _atom_site_symmetry_multiplicity
 _atom_site_fract_x
 _atom_site_fract_y
 _atom_site_fract_z
 _atom_site_occupancy
  Ba  Ba0  1  0.61486700  0.25000000  0.87649200  1
  Ba  Ba1  1  0.11486700  0.25000000  0.62350800  1
  Ba  Ba2  1  0.38513300  0.75000000  0.12350800  1
  Ba  Ba3  1  0.88513300  0.75000000  0.37649200  1
  Ba  Ba4  1  0.62527800  0.25000000  0.46223800  1
  Ba  Ba5  1  0.12527800  0.25000000  0.03776200  1
  Ba  Ba6  1  0.37472200  0.75000000  0.53776200  1
  Ba  Ba7  1  0.87472200  0.75000000  0.96223800  1
  Ba  Ba8  1  0.86776200  0.25000000  0.76606300  1
  Ba  Ba9  1  0.36776200  0.25000000  0.73393700  1
  Ba  Ba10  1  0.13223800  0.75000000  0.23393700  1
  Ba  Ba11  1  0.63223800  0.75000000  0.26606300  1
  Ba  Ba12  1  0.87166000  0.25000000  0.16273300  1
  Ba  Ba13  1  0.37166000  0.25000000  0.33726700  1
  Ba  Ba14  1  0.12834000  0.75000000  0.83726700  1
  Ba  Ba15  1  0.62834000  0.75000000  0.66273300  1
  Ge  Ge16  1  0.61992300  0.25000000  0.07270400  1
  Ge  Ge17  1  0.11992300  0.25000000  0.42729600  1
  Ge  Ge18  1  0.38007700  0.75000000  0.92729600  1
  Ge  Ge19  1  0.88007700  0.75000000  0.57270400  1
  N  N20  1  0.55447500  0.25000000  0.16146300  1
  N  N21  1  0.05447500  0.25000000  0.33853700  1
  N  N22  1  0.44552500  0.75000000  0.83853700  1
  N  N23  1  0.94552500  0.75000000  0.66146300  1
  N  N24  1  0.73737000  0.25000000  0.02121800  1
  N  N25  1  0.23737000  0.25000000  0.47878200  1
  N  N26  1  0.26263000  0.75000000  0.97878200  1
  N  N27  1  0.76263000  0.75000000  0.52121800  1
  N  N28  1  0.77220600  0.25000000  0.30894100  1
  N  N29  1  0.27220600  0.25000000  0.19105900  1
  N  N30  1  0.22779400  0.75000000  0.69105900  1
  N  N31  1  0.72779400  0.75000000  0.80894100  1
  N  N32  1  0.00507000  0.25000000  0.88648700  1
  N  N33  1  0.50507000  0.25000000  0.61351300  1
  N  N34  1  0.99493000  0.75000000  0.11351300  1
  N  N35  1  0.49493000  0.75000000  0.38648700  1
