# generated using pymatgen
data_Mg3MoN4
_symmetry_space_group_name_H-M   'P 1'
_cell_length_a   5.33629643
_cell_length_b   6.14110908
_cell_length_c   6.22458026
_cell_angle_alpha   60.46489420
_cell_angle_beta   74.60684150
_cell_angle_gamma   72.98009279
_symmetry_Int_Tables_number   1
_chemical_formula_structural   Mg3MoN4
_chemical_formula_sum   'Mg6 Mo2 N8'
_cell_volume   167.89538224
_cell_formula_units_Z   2
loop_
 _symmetry_equiv_pos_site_id
 _symmetry_equiv_pos_as_xyz
  1  'x, y, z'
loop_
 _atom_site_type_symbol
 _atom_site_label
 _atom_site_symmetry_multiplicity
 _atom_site_fract_x
 _atom_site_fract_y
 _atom_site_fract_z
 _atom_site_occupancy
  Mg  Mg0  1  0.24020500  0.37877600  0.62222900  1
  Mg  Mg1  1  0.75979500  0.62122400  0.37777100  1
  Mg  Mg2  1  0.74806300  0.63414300  0.86254700  1
  Mg  Mg3  1  0.25193700  0.36585700  0.13745300  1
  Mg  Mg4  1  0.26554100  0.86331900  0.14644000  1
  Mg  Mg5  1  0.73445900  0.13668100  0.85356000  1
  Mo  Mo6  1  0.75911100  0.14811400  0.31656400  1
  Mo  Mo7  1  0.24088900  0.85188600  0.68343600  1
  N  N8  1  0.00005400  0.77229000  0.49881600  1
  N  N9  1  0.99994600  0.22771000  0.50118400  1
  N  N10  1  0.52193400  0.47410600  0.26203400  1
  N  N11  1  0.47806600  0.52589400  0.73796600  1
  N  N12  1  0.47547600  0.99510900  0.74869600  1
  N  N13  1  0.52452400  0.00489100  0.25130400  1
  N  N14  1  0.01103700  0.75426300  0.98609000  1
  N  N15  1  0.98896300  0.24573700  0.01391000  1
