# generated using pymatgen
data_Cr2Fe9N8
_symmetry_space_group_name_H-M   'P 1'
_cell_length_a   7.92372447
_cell_length_b   3.84273556
_cell_length_c   6.14698708
_cell_angle_alpha   89.99999747
_cell_angle_beta   77.87777896
_cell_angle_gamma   75.96687277
_symmetry_Int_Tables_number   1
_chemical_formula_structural   Cr2Fe9N8
_chemical_formula_sum   'Cr2 Fe9 N8'
_cell_volume   177.27737855
_cell_formula_units_Z   1
loop_
 _symmetry_equiv_pos_site_id
 _symmetry_equiv_pos_as_xyz
  1  'x, y, z'
loop_
 _atom_site_type_symbol
 _atom_site_label
 _atom_site_symmetry_multiplicity
 _atom_site_fract_x
 _atom_site_fract_y
 _atom_site_fract_z
 _atom_site_occupancy
  Cr  Cr0  1  0.41308100  0.79346000  0.81944100  1
  Cr  Cr1  1  0.58691900  0.20654000  0.18055900  1
  Fe  Fe2  1  0.00000000  0.50000000  0.50000000  1
  Fe  Fe3  1  0.00539300  0.99730300  0.76939600  1
  Fe  Fe4  1  0.99460700  0.00269700  0.23060400  1
  Fe  Fe5  1  0.69385700  0.65307200  0.40723600  1
  Fe  Fe6  1  0.30614300  0.34692800  0.59276400  1
  Fe  Fe7  1  0.80498800  0.59750600  0.95515800  1
  Fe  Fe8  1  0.19501200  0.40249400  0.04484200  1
  Fe  Fe9  1  0.64585500  0.17707300  0.67867600  1
  Fe  Fe10  1  0.35414500  0.82292700  0.32132400  1
  N  N11  1  0.23963900  0.88018100  0.07462100  1
  N  N12  1  0.76036100  0.11981900  0.92537900  1
  N  N13  1  0.26203500  0.86898300  0.62997700  1
  N  N14  1  0.73796500  0.13101700  0.37002300  1
  N  N15  1  0.65989500  0.67005300  0.72382600  1
  N  N16  1  0.34010500  0.32994700  0.27617400  1
  N  N17  1  0.05849700  0.47075100  0.78791300  1
  N  N18  1  0.94150300  0.52924900  0.21208700  1
