# generated using pymatgen
data_Sr4PtN4
_symmetry_space_group_name_H-M   'P 1'
_cell_length_a   12.37804800
_cell_length_b   3.87409000
_cell_length_c   16.06951700
_cell_angle_alpha   90.00000000
_cell_angle_beta   90.00000000
_cell_angle_gamma   90.00000000
_symmetry_Int_Tables_number   1
_chemical_formula_structural   Sr4PtN4
_chemical_formula_sum   'Sr16 Pt4 N16'
_cell_volume   770.59234704
_cell_formula_units_Z   4
loop_
 _symmetry_equiv_pos_site_id
 _symmetry_equiv_pos_as_xyz
  1  'x, y, z'
loop_
 _atom_site_type_symbol
 _atom_site_label
 _atom_site_symmetry_multiplicity
 _atom_site_fract_x
 _atom_site_fract_y
 _atom_site_fract_z
 _atom_site_occupancy
  Sr  Sr0  1  0.55408100  0.25000000  0.91019700  1
  Sr  Sr1  1  0.05408100  0.25000000  0.58980300  1
  Sr  Sr2  1  0.44591900  0.75000000  0.08980300  1
  Sr  Sr3  1  0.94591900  0.75000000  0.41019700  1
  Sr  Sr4  1  0.64920700  0.25000000  0.45993200  1
  Sr  Sr5  1  0.14920700  0.25000000  0.04006800  1
  Sr  Sr6  1  0.35079300  0.75000000  0.54006800  1
  Sr  Sr7  1  0.85079300  0.75000000  0.95993200  1
  Sr  Sr8  1  0.84348900  0.25000000  0.73310900  1
  Sr  Sr9  1  0.34348900  0.25000000  0.76689100  1
  Sr  Sr10  1  0.15651100  0.75000000  0.26689100  1
  Sr  Sr11  1  0.65651100  0.75000000  0.23310900  1
  Sr  Sr12  1  0.90611600  0.25000000  0.17115800  1
  Sr  Sr13  1  0.40611600  0.25000000  0.32884200  1
  Sr  Sr14  1  0.09388400  0.75000000  0.82884200  1
  Sr  Sr15  1  0.59388400  0.75000000  0.67115800  1
  Pt  Pt16  1  0.67163900  0.25000000  0.07299900  1
  Pt  Pt17  1  0.17163900  0.25000000  0.42700100  1
  Pt  Pt18  1  0.32836100  0.75000000  0.92700100  1
  Pt  Pt19  1  0.82836100  0.75000000  0.57299900  1
  N  N20  1  0.26264600  0.25000000  0.20703900  1
  N  N21  1  0.76264600  0.25000000  0.29296100  1
  N  N22  1  0.73735400  0.75000000  0.79296100  1
  N  N23  1  0.23735400  0.75000000  0.70703900  1
  N  N24  1  0.01471300  0.25000000  0.92540300  1
  N  N25  1  0.51471300  0.25000000  0.57459700  1
  N  N26  1  0.98528700  0.75000000  0.07459700  1
  N  N27  1  0.48528700  0.75000000  0.42540300  1
  N  N28  1  0.84855000  0.25000000  0.33721600  1
  N  N29  1  0.34855000  0.25000000  0.16278400  1
  N  N30  1  0.15145000  0.75000000  0.66278400  1
  N  N31  1  0.65145000  0.75000000  0.83721600  1
  N  N32  1  0.94838500  0.25000000  0.86299900  1
  N  N33  1  0.44838500  0.25000000  0.63700100  1
  N  N34  1  0.05161500  0.75000000  0.13700100  1
  N  N35  1  0.55161500  0.75000000  0.36299900  1
