# generated using pymatgen
data_Zr(CdN)4
_symmetry_space_group_name_H-M   'P 1'
_cell_length_a   6.06164373
_cell_length_b   6.03226903
_cell_length_c   9.14246664
_cell_angle_alpha   68.98584017
_cell_angle_beta   85.70546327
_cell_angle_gamma   68.49106143
_symmetry_Int_Tables_number   1
_chemical_formula_structural   Zr(CdN)4
_chemical_formula_sum   'Zr2 Cd8 N8'
_cell_volume   289.71576801
_cell_formula_units_Z   2
loop_
 _symmetry_equiv_pos_site_id
 _symmetry_equiv_pos_as_xyz
  1  'x, y, z'
loop_
 _atom_site_type_symbol
 _atom_site_label
 _atom_site_symmetry_multiplicity
 _atom_site_fract_x
 _atom_site_fract_y
 _atom_site_fract_z
 _atom_site_occupancy
  Zr  Zr0  1  0.72141600  0.83842700  0.77517700  1
  Zr  Zr1  1  0.27858400  0.16157300  0.22482300  1
  Cd  Cd2  1  0.71278200  0.63249200  0.19512300  1
  Cd  Cd3  1  0.28721800  0.36750800  0.80487700  1
  Cd  Cd4  1  0.75910400  0.23039100  0.00000800  1
  Cd  Cd5  1  0.24089600  0.76960900  0.99999200  1
  Cd  Cd6  1  0.75535800  0.47396600  0.57237000  1
  Cd  Cd7  1  0.24464200  0.52603400  0.42763000  1
  Cd  Cd8  1  0.25353500  0.92161200  0.58587400  1
  Cd  Cd9  1  0.74646500  0.07838800  0.41412600  1
  N  N10  1  0.96635500  0.70230700  0.61381000  1
  N  N11  1  0.03364500  0.29769300  0.38619000  1
  N  N12  1  0.84898600  0.83644600  0.98152000  1
  N  N13  1  0.15101400  0.16355400  0.01848000  1
  N  N14  1  0.47778600  0.65114000  0.81162300  1
  N  N15  1  0.52221400  0.34886000  0.18837700  1
  N  N16  1  0.46034800  0.78517400  0.36907500  1
  N  N17  1  0.53965200  0.21482600  0.63092500  1
