# generated using pymatgen
data_Mn4Se3N2
_symmetry_space_group_name_H-M   'P 1'
_cell_length_a   6.11195400
_cell_length_b   10.37914200
_cell_length_c   8.93407700
_cell_angle_alpha   90.00000000
_cell_angle_beta   90.00000000
_cell_angle_gamma   90.00000000
_symmetry_Int_Tables_number   1
_chemical_formula_structural   Mn4Se3N2
_chemical_formula_sum   'Mn16 Se12 N8'
_cell_volume   566.74959947
_cell_formula_units_Z   4
loop_
 _symmetry_equiv_pos_site_id
 _symmetry_equiv_pos_as_xyz
  1  'x, y, z'
loop_
 _atom_site_type_symbol
 _atom_site_label
 _atom_site_symmetry_multiplicity
 _atom_site_fract_x
 _atom_site_fract_y
 _atom_site_fract_z
 _atom_site_occupancy
  Mn  Mn0  1  0.49045200  0.25000000  0.85163200  1
  Mn  Mn1  1  0.99045200  0.25000000  0.64836800  1
  Mn  Mn2  1  0.50954800  0.75000000  0.14836800  1
  Mn  Mn3  1  0.00954800  0.75000000  0.35163200  1
  Mn  Mn4  1  0.78796700  0.25000000  0.40420100  1
  Mn  Mn5  1  0.28796700  0.25000000  0.09579900  1
  Mn  Mn6  1  0.21203300  0.75000000  0.59579900  1
  Mn  Mn7  1  0.71203300  0.75000000  0.90420100  1
  Mn  Mn8  1  0.70150000  0.46773700  0.06940200  1
  Mn  Mn9  1  0.20150000  0.03226300  0.43059800  1
  Mn  Mn10  1  0.29850000  0.96773700  0.93059800  1
  Mn  Mn11  1  0.79850000  0.53226300  0.56940200  1
  Mn  Mn12  1  0.29850000  0.53226300  0.93059800  1
  Mn  Mn13  1  0.79850000  0.96773700  0.56940200  1
  Mn  Mn14  1  0.70150000  0.03226300  0.06940200  1
  Mn  Mn15  1  0.20150000  0.46773700  0.43059800  1
  Se  Se16  1  0.88384200  0.25000000  0.14439700  1
  Se  Se17  1  0.38384200  0.25000000  0.35560300  1
  Se  Se18  1  0.11615800  0.75000000  0.85560300  1
  Se  Se19  1  0.61615800  0.75000000  0.64439700  1
  Se  Se20  1  0.56876000  0.56319500  0.32680000  1
  Se  Se21  1  0.06876000  0.93680500  0.17320000  1
  Se  Se22  1  0.43124000  0.06319500  0.67320000  1
  Se  Se23  1  0.93124000  0.43680500  0.82680000  1
  Se  Se24  1  0.43124000  0.43680500  0.67320000  1
  Se  Se25  1  0.93124000  0.06319500  0.82680000  1
  Se  Se26  1  0.56876000  0.93680500  0.32680000  1
  Se  Se27  1  0.06876000  0.56319500  0.17320000  1
  N  N28  1  0.55882700  0.62105600  0.98948900  1
  N  N29  1  0.05882700  0.87894400  0.51051100  1
  N  N30  1  0.44117300  0.12105600  0.01051100  1
  N  N31  1  0.94117300  0.37894400  0.48948900  1
  N  N32  1  0.44117300  0.37894400  0.01051100  1
  N  N33  1  0.94117300  0.12105600  0.48948900  1
  N  N34  1  0.55882700  0.87894400  0.98948900  1
  N  N35  1  0.05882700  0.62105600  0.51051100  1
