# generated using pymatgen
data_CdSiN2
_symmetry_space_group_name_H-M   'P 1'
_cell_length_a   5.31335900
_cell_length_b   10.64369100
_cell_length_c   13.87301600
_cell_angle_alpha   90.00000000
_cell_angle_beta   90.00000000
_cell_angle_gamma   90.00000000
_symmetry_Int_Tables_number   1
_chemical_formula_structural   CdSiN2
_chemical_formula_sum   'Cd16 Si16 N32'
_cell_volume   784.57109759
_cell_formula_units_Z   16
loop_
 _symmetry_equiv_pos_site_id
 _symmetry_equiv_pos_as_xyz
  1  'x, y, z'
loop_
 _atom_site_type_symbol
 _atom_site_label
 _atom_site_symmetry_multiplicity
 _atom_site_fract_x
 _atom_site_fract_y
 _atom_site_fract_z
 _atom_site_occupancy
  Cd  Cd0  1  0.72670500  0.97769800  0.43859200  1
  Cd  Cd1  1  0.22670500  0.52230200  0.56140800  1
  Cd  Cd2  1  0.27329500  0.47769800  0.06140800  1
  Cd  Cd3  1  0.77329500  0.02230200  0.93859200  1
  Cd  Cd4  1  0.27329500  0.02230200  0.56140800  1
  Cd  Cd5  1  0.77329500  0.47769800  0.43859200  1
  Cd  Cd6  1  0.72670500  0.52230200  0.93859200  1
  Cd  Cd7  1  0.22670500  0.97769800  0.06140800  1
  Cd  Cd8  1  0.79130400  0.25581600  0.31200000  1
  Cd  Cd9  1  0.29130400  0.24418400  0.68800000  1
  Cd  Cd10  1  0.20869600  0.75581600  0.18800000  1
  Cd  Cd11  1  0.70869600  0.74418400  0.81200000  1
  Cd  Cd12  1  0.20869600  0.74418400  0.68800000  1
  Cd  Cd13  1  0.70869600  0.75581600  0.31200000  1
  Cd  Cd14  1  0.79130400  0.24418400  0.81200000  1
  Cd  Cd15  1  0.29130400  0.25581600  0.18800000  1
  Si  Si16  1  0.69035700  0.02209800  0.18735700  1
  Si  Si17  1  0.19035700  0.47790200  0.81264300  1
  Si  Si18  1  0.30964300  0.52209800  0.31264300  1
  Si  Si19  1  0.80964300  0.97790200  0.68735700  1
  Si  Si20  1  0.30964300  0.97790200  0.81264300  1
  Si  Si21  1  0.80964300  0.52209800  0.18735700  1
  Si  Si22  1  0.69035700  0.47790200  0.68735700  1
  Si  Si23  1  0.19035700  0.02209800  0.31264300  1
  Si  Si24  1  0.78716100  0.27724500  0.06176900  1
  Si  Si25  1  0.28716100  0.22275500  0.93823100  1
  Si  Si26  1  0.21283900  0.77724500  0.43823100  1
  Si  Si27  1  0.71283900  0.72275500  0.56176900  1
  Si  Si28  1  0.21283900  0.72275500  0.93823100  1
  Si  Si29  1  0.71283900  0.77724500  0.06176900  1
  Si  Si30  1  0.78716100  0.22275500  0.56176900  1
  Si  Si31  1  0.28716100  0.27724500  0.43823100  1
  N  N32  1  0.62366000  0.48340600  0.28712100  1
  N  N33  1  0.12366000  0.01659400  0.71287900  1
  N  N34  1  0.37634000  0.98340600  0.21287900  1
  N  N35  1  0.87634000  0.51659400  0.78712100  1
  N  N36  1  0.37634000  0.51659400  0.71287900  1
  N  N37  1  0.87634000  0.98340600  0.28712100  1
  N  N38  1  0.62366000  0.01659400  0.78712100  1
  N  N39  1  0.12366000  0.48340600  0.21287900  1
  N  N40  1  0.61346100  0.26738000  0.46038600  1
  N  N41  1  0.11346100  0.23262000  0.53961400  1
  N  N42  1  0.38653900  0.76738000  0.03961400  1
  N  N43  1  0.88653900  0.73262000  0.96038600  1
  N  N44  1  0.38653900  0.73262000  0.53961400  1
  N  N45  1  0.88653900  0.76738000  0.46038600  1
  N  N46  1  0.61346100  0.23262000  0.96038600  1
  N  N47  1  0.11346100  0.26738000  0.03961400  1
  N  N48  1  0.71130800  0.43541700  0.08639200  1
  N  N49  1  0.21130800  0.06458300  0.91360800  1
  N  N50  1  0.28869200  0.93541700  0.41360800  1
  N  N51  1  0.78869200  0.56458300  0.58639200  1
  N  N52  1  0.28869200  0.56458300  0.91360800  1
  N  N53  1  0.78869200  0.93541700  0.08639200  1
  N  N54  1  0.71130800  0.06458300  0.58639200  1
  N  N55  1  0.21130800  0.43541700  0.41360800  1
  N  N56  1  0.70483500  0.18509900  0.16231500  1
  N  N57  1  0.20483500  0.31490100  0.83768500  1
  N  N58  1  0.29516500  0.68509900  0.33768500  1
  N  N59  1  0.79516500  0.81490100  0.66231500  1
  N  N60  1  0.29516500  0.81490100  0.83768500  1
  N  N61  1  0.79516500  0.68509900  0.16231500  1
  N  N62  1  0.70483500  0.31490100  0.66231500  1
  N  N63  1  0.20483500  0.18509900  0.33768500  1
