# generated using pymatgen
data_KPbN
_symmetry_space_group_name_H-M   'P 1'
_cell_length_a   3.62756479
_cell_length_b   3.62756547
_cell_length_c   6.18850367
_cell_angle_alpha   89.86589742
_cell_angle_beta   89.86590438
_cell_angle_gamma   60.04289266
_symmetry_Int_Tables_number   1
_chemical_formula_structural   KPbN
_chemical_formula_sum   'K1 Pb1 N1'
_cell_volume   70.55579376
_cell_formula_units_Z   1
loop_
 _symmetry_equiv_pos_site_id
 _symmetry_equiv_pos_as_xyz
  1  'x, y, z'
loop_
 _atom_site_type_symbol
 _atom_site_label
 _atom_site_symmetry_multiplicity
 _atom_site_fract_x
 _atom_site_fract_y
 _atom_site_fract_z
 _atom_site_occupancy
  K  K0  1  0.75986700  0.25986700  0.01326900  1
  Pb  Pb1  1  0.42497100  0.92497100  0.48326500  1
  N  N2  1  0.09216200  0.59216200  0.29746700  1
