# generated using pymatgen
data_Sr4IrN4
_symmetry_space_group_name_H-M   'P 1'
_cell_length_a   13.84410600
_cell_length_b   3.74777500
_cell_length_c   14.43558700
_cell_angle_alpha   90.00000000
_cell_angle_beta   90.00000000
_cell_angle_gamma   90.00000000
_symmetry_Int_Tables_number   1
_chemical_formula_structural   Sr4IrN4
_chemical_formula_sum   'Sr16 Ir4 N16'
_cell_volume   748.98457590
_cell_formula_units_Z   4
loop_
 _symmetry_equiv_pos_site_id
 _symmetry_equiv_pos_as_xyz
  1  'x, y, z'
loop_
 _atom_site_type_symbol
 _atom_site_label
 _atom_site_symmetry_multiplicity
 _atom_site_fract_x
 _atom_site_fract_y
 _atom_site_fract_z
 _atom_site_occupancy
  Sr  Sr0  1  0.54213100  0.25000000  0.88808400  1
  Sr  Sr1  1  0.04213100  0.25000000  0.61191600  1
  Sr  Sr2  1  0.45786900  0.75000000  0.11191600  1
  Sr  Sr3  1  0.95786900  0.75000000  0.38808400  1
  Sr  Sr4  1  0.73450900  0.25000000  0.47748300  1
  Sr  Sr5  1  0.23450900  0.25000000  0.02251700  1
  Sr  Sr6  1  0.26549100  0.75000000  0.52251700  1
  Sr  Sr7  1  0.76549100  0.75000000  0.97748300  1
  Sr  Sr8  1  0.77952200  0.25000000  0.73966800  1
  Sr  Sr9  1  0.27952200  0.25000000  0.76033200  1
  Sr  Sr10  1  0.22047800  0.75000000  0.26033200  1
  Sr  Sr11  1  0.72047800  0.75000000  0.23966800  1
  Sr  Sr12  1  0.98817200  0.25000000  0.12136700  1
  Sr  Sr13  1  0.48817200  0.25000000  0.37863300  1
  Sr  Sr14  1  0.01182800  0.75000000  0.87863300  1
  Sr  Sr15  1  0.51182800  0.75000000  0.62136700  1
  Ir  Ir16  1  0.63034500  0.25000000  0.09050500  1
  Ir  Ir17  1  0.13034500  0.25000000  0.40949500  1
  Ir  Ir18  1  0.36965500  0.75000000  0.90949500  1
  Ir  Ir19  1  0.86965500  0.75000000  0.59050500  1
  N  N20  1  0.37514000  0.25000000  0.24216000  1
  N  N21  1  0.87514000  0.25000000  0.25784000  1
  N  N22  1  0.62486000  0.75000000  0.75784000  1
  N  N23  1  0.12486000  0.75000000  0.74216000  1
  N  N24  1  0.90947700  0.25000000  0.96881100  1
  N  N25  1  0.40947700  0.25000000  0.53118900  1
  N  N26  1  0.09052300  0.75000000  0.03118900  1
  N  N27  1  0.59052300  0.75000000  0.46881100  1
  N  N28  1  0.82513800  0.25000000  0.33161900  1
  N  N29  1  0.32513800  0.25000000  0.16838100  1
  N  N30  1  0.17486200  0.75000000  0.66838100  1
  N  N31  1  0.67486200  0.75000000  0.83161900  1
  N  N32  1  0.87388200  0.25000000  0.88603500  1
  N  N33  1  0.37388200  0.25000000  0.61396500  1
  N  N34  1  0.12611800  0.75000000  0.11396500  1
  N  N35  1  0.62611800  0.75000000  0.38603500  1
