# generated using pymatgen
data_Sr7MnN6
_symmetry_space_group_name_H-M   'P 1'
_cell_length_a   11.84345172
_cell_length_b   6.71505469
_cell_length_c   13.66548096
_cell_angle_alpha   90.00000000
_cell_angle_beta   90.00000000
_cell_angle_gamma   90.00000000
_symmetry_Int_Tables_number   1
_chemical_formula_structural   Sr7MnN6
_chemical_formula_sum   'Sr28 Mn4 N24'
_cell_volume   1086.80785701
_cell_formula_units_Z   4
loop_
 _symmetry_equiv_pos_site_id
 _symmetry_equiv_pos_as_xyz
  1  'x, y, z'
loop_
 _atom_site_type_symbol
 _atom_site_label
 _atom_site_symmetry_multiplicity
 _atom_site_fract_x
 _atom_site_fract_y
 _atom_site_fract_z
 _atom_site_occupancy
  Sr  Sr0  1  0.03716393  0.73545512  0.97896651  1
  Sr  Sr1  1  0.46283607  0.76454488  0.47896651  1
  Sr  Sr2  1  0.53716393  0.76454488  0.02103349  1
  Sr  Sr3  1  0.96283607  0.73545512  0.52103349  1
  Sr  Sr4  1  0.96283607  0.26454488  0.02103349  1
  Sr  Sr5  1  0.53716393  0.23545512  0.52103349  1
  Sr  Sr6  1  0.46283607  0.23545512  0.97896651  1
  Sr  Sr7  1  0.03716393  0.26454488  0.47896651  1
  Sr  Sr8  1  0.21845715  0.86219181  0.62139855  1
  Sr  Sr9  1  0.28154285  0.63780819  0.12139855  1
  Sr  Sr10  1  0.71845715  0.63780819  0.37860145  1
  Sr  Sr11  1  0.78154285  0.86219181  0.87860145  1
  Sr  Sr12  1  0.78154285  0.13780819  0.37860145  1
  Sr  Sr13  1  0.71845715  0.36219181  0.87860145  1
  Sr  Sr14  1  0.28154285  0.36219181  0.62139855  1
  Sr  Sr15  1  0.21845715  0.13780819  0.12139855  1
  Sr  Sr16  1  0.29156485  0.61453124  0.86978592  1
  Sr  Sr17  1  0.20843515  0.88546876  0.36978592  1
  Sr  Sr18  1  0.79156485  0.88546876  0.13021408  1
  Sr  Sr19  1  0.70843515  0.61453124  0.63021408  1
  Sr  Sr20  1  0.70843515  0.38546876  0.13021408  1
  Sr  Sr21  1  0.79156485  0.11453124  0.63021408  1
  Sr  Sr22  1  0.20843515  0.11453124  0.86978592  1
  Sr  Sr23  1  0.29156485  0.38546876  0.36978592  1
  Sr  Sr24  1  -0.00000000  0.43506224  0.75000000  1
  Sr  Sr25  1  0.50000000  0.06493776  0.25000000  1
  Sr  Sr26  1  -0.00000000  0.56493776  0.25000000  1
  Sr  Sr27  1  0.50000000  0.93506224  0.75000000  1
  Mn  Mn28  1  -0.00000000  0.92744221  0.75000000  1
  Mn  Mn29  1  0.50000000  0.57255779  0.25000000  1
  Mn  Mn30  1  -0.00000000  0.07255779  0.25000000  1
  Mn  Mn31  1  0.50000000  0.42744221  0.75000000  1
  N  N32  1  0.11741806  0.77260096  0.78727929  1
  N  N33  1  0.38258194  0.72739904  0.28727929  1
  N  N34  1  0.61741806  0.72739904  0.21272071  1
  N  N35  1  0.88258194  0.77260096  0.71272071  1
  N  N36  1  0.88258194  0.22739904  0.21272071  1
  N  N37  1  0.61741806  0.27260096  0.71272071  1
  N  N38  1  0.38258194  0.27260096  0.78727929  1
  N  N39  1  0.11741806  0.22739904  0.28727929  1
  N  N40  1  0.16609094  0.59056444  0.49713511  1
  N  N41  1  0.33390906  0.90943556  0.99713511  1
  N  N42  1  0.66609094  0.90943556  0.50286489  1
  N  N43  1  0.83390906  0.59056444  0.00286489  1
  N  N44  1  0.83390906  0.40943556  0.50286489  1
  N  N45  1  0.66609094  0.09056444  0.00286489  1
  N  N46  1  0.33390906  0.09056444  0.49713511  1
  N  N47  1  0.16609094  0.40943556  0.99713511  1
  N  N48  1  0.46062732  0.58359543  0.64668230  1
  N  N49  1  0.03937268  0.91640457  0.14668230  1
  N  N50  1  0.96062732  0.91640457  0.35331770  1
  N  N51  1  0.53937268  0.58359543  0.85331770  1
  N  N52  1  0.53937268  0.41640457  0.35331770  1
  N  N53  1  0.96062732  0.08359543  0.85331770  1
  N  N54  1  0.03937268  0.08359543  0.64668230  1
  N  N55  1  0.46062732  0.41640457  0.14668230  1
