# generated using pymatgen
data_Ba2SrN2
_symmetry_space_group_name_H-M   'P 1'
_cell_length_a   3.81415834
_cell_length_b   6.03499795
_cell_length_c   11.96017438
_cell_angle_alpha   90.00000000
_cell_angle_beta   90.00000000
_cell_angle_gamma   90.00000000
_symmetry_Int_Tables_number   1
_chemical_formula_structural   Ba2SrN2
_chemical_formula_sum   'Ba4 Sr2 N4'
_cell_volume   275.30452960
_cell_formula_units_Z   2
loop_
 _symmetry_equiv_pos_site_id
 _symmetry_equiv_pos_as_xyz
  1  'x, y, z'
loop_
 _atom_site_type_symbol
 _atom_site_label
 _atom_site_symmetry_multiplicity
 _atom_site_fract_x
 _atom_site_fract_y
 _atom_site_fract_z
 _atom_site_occupancy
  Ba  Ba0  1  0.23553639  0.25000000  0.93977036  1
  Ba  Ba1  1  0.23553639  0.25000000  0.56022964  1
  Ba  Ba2  1  0.76446361  0.75000000  0.06022964  1
  Ba  Ba3  1  0.76446361  0.75000000  0.43977036  1
  Sr  Sr4  1  0.23184926  0.25000000  0.25000000  1
  Sr  Sr5  1  0.76815074  0.75000000  0.75000000  1
  N  N6  1  0.71786640  0.25000000  0.40942344  1
  N  N7  1  0.71786640  0.25000000  0.09057656  1
  N  N8  1  0.28213360  0.75000000  0.59057656  1
  N  N9  1  0.28213360  0.75000000  0.90942344  1
